data_PCOD9147608
_publ_section_title
;
Structure prediction by ZEFSAII (Michael W. Deem and Ramdas Pophale) SiO2 
 PCOD9147608
Probable space group: P 2/M
;
_chemical_formula_sum "Si O2"
_cell_formula_units_Z 32
_cell_length_a 12.940495
_cell_length_b 14.202326
_cell_length_c 16.032629
_cell_angle_alpha 90.000000
_cell_angle_beta 36.350070
_cell_angle_gamma 90.000000
_cell_volume 1746.476196
_symmetry_space_group_name_H-M "P 2/M"
_symmetry_group_IT_number 10
_symmetry_cell_setting 'monoclinic'
loop_
_space_group_symop_operation_xyz
x,y,z
-x,y,-z
-x,-y,-z
x,-y,z
loop_
_atom_site_type_symbol
_atom_site_label
_atom_site_fract_x
_atom_site_fract_y
_atom_site_fract_z
Si Si1 0.503766 0.758220 0.360020
Si Si2 0.008801 0.392940 0.583574
Si Si3 0.407813 0.603917 0.298436
Si Si4 0.562812 0.107343 0.173125
Si Si5 0.469032 0.716389 0.921570
Si Si6 0.202445 0.742442 0.689868
Si Si7 0.976968 0.107386 0.920565
Si Si8 0.103901 0.614494 0.162137
O O1 0.514581 0.674241 0.286392
O O2 0.511418 0.851236 0.297488
O O3 0.324919 0.751901 0.529011
O O4 0.661831 0.745128 0.321564
O O5 0.938194 0.500000 0.618306
O O6 0.215905 0.399877 0.462473
O O7 0.000000 0.342330 0.500000
O O8 0.923851 0.356992 0.722655
O O9 0.482842 0.500000 0.247247
O O10 0.398809 0.646046 0.211508
O O11 0.509031 0.182357 0.137125
O O12 0.500849 0.000000 0.201637
O O13 0.772618 0.106508 0.035155
O O14 0.500000 0.719927 0.000000
O O15 0.280385 0.669276 0.022864
O O16 0.078429 0.831296 0.787533
O O17 0.069585 0.654206 0.770540
O O18 0.043929 0.000000 0.877637
O O19 0.000000 0.145608 0.000000
O O20 0.117519 0.500000 0.147026
#
# Coordination Sequence:
#
# PCOD9147608 Si02
#       8
#     4   4   4   4   4   4   4   4
#     4  10  22  35  56  83 116 152 192 234 279 334
#     4   9  17  31  52  73  98 139 187 231 272 319
#     4  10  20  36  53  77 112 148 190 232 278 329
#     4  10  21  39  61  84 113 147 184 233 289 346
#     4  11  23  38  59  86 112 146 186 239 290 341
#     4  11  21  36  55  85 117 152 192 234 279 332
#     4  10  19  35  60  84 108 142 184 231 284 341
#     4  11  22  36  54  82 116 149 190 235 278 330
#
# _framework density 18.322609
#
# number of rings (size 3 to 8) (size 9 to 14) (size 15 to 20)
#    0.000    1.750    3.750    1.125    0.000    3.250 
#    0.000    2.500    0.000    2.625    0.000    0.875 
#    0.000    0.000    0.000    0.000    0.000    0.000 
#
# Total GULP energy -178293.489634 kJ/mol
# GULP energy per Si atom -5571.671551 kJ/mol
# Density = 1.828091 g / cm^3
# Si number density = 18.322609 Si / 1000 Ang^3
#
#
#
# Elastic Constant Matrix: (Units=GPa)
#
#
# Indices 1 2 3 4 5 6 
#
# 1 38.6087 27.0389 28.0717 0.0000 13.6137 0.0000
# 2 27.0389 117.6413 40.3328 0.0000 11.1992 0.0000
# 3 28.0717 40.3328 77.5395 0.0000 8.8714 0.0000
# 4 0.0000 0.0000 0.0000 11.0560 0.0000 8.1381
# 5 13.6137 11.1992 8.8714 0.0000 32.1335 0.0000
# 6 0.0000 0.0000 0.0000 8.1381 0.0000 12.4956
#
#
#
# Elastic Compliance Matrix: (Units=1/GPa)
#
#
# Indices 1 2 3 4 5 6 
#
# 1 0.041895 -0.004501 -0.011333 0.000000 -0.013052 0.000000
# 2 -0.004501 0.010980 -0.003988 0.000000 -0.000819 0.000000
# 3 -0.011333 -0.003988 0.018965 0.000000 0.000955 0.000000
# 4 0.000000 0.000000 0.000000 0.173735 0.000000 -0.113150
# 5 -0.013052 -0.000819 0.000955 0.000000 0.036671 0.000000
# 6 0.000000 0.000000 0.000000 -0.113150 0.000000 0.153720
#
#
# Mechanical properties :
#
#
# Convention : Reuss Voigt Hill
#
# Bulk Modulus (GPa) = 31.06004 47.18625 39.12315
# Shear Modulus (GPa) = 10.28080 20.36009 15.32045
#
# Velocity S-wave (km/s) = 2.37132 3.33708 2.89476
# Velocity P-wave (km/s) = 4.94835 6.37629 5.70715
#
# Compressibility (1/GPa) = 0.03219571
#
# Stress axis : x y z
#
# Youngs Moduli (GPa) = 23.86894 91.07221 52.72980
#
# Poissons Ratio (x) = 0.40996 0.59757
# Poissons Ratio (y) = 0.10745 0.21029
# Poissons Ratio (z) = 0.27050 0.36321
#
# Static dielectric constant tensor:
#      x y z
#    x 1.666190 0.000000 0.007480 
#    y 0.000000 1.640070 0.000000 
#    z 0.007480 0.000000 1.646970 
# 
# From -- ./inp_files/35107.got.cif
#   From: 2010.05.17/outbox.cif.g08.bks.cpg/sg10_18_cif.got.tgz:35107.got - 2010.06.03 11:33:40.
