data_PCOD9147426
_publ_section_title
;
Structure prediction by ZEFSAII (Michael W. Deem and Ramdas Pophale) SiO2 
 PCOD9147426
Probable space group: P 2/M
;
_chemical_formula_sum "Si O2"
_cell_formula_units_Z 24
_cell_length_a 14.564325
_cell_length_b 7.813714
_cell_length_c 10.484335
_cell_angle_alpha 90.000000
_cell_angle_beta 89.142452
_cell_angle_gamma 90.000000
_cell_volume 1192.999101
_symmetry_space_group_name_H-M "P 2/M"
_symmetry_group_IT_number 10
_symmetry_cell_setting 'monoclinic'
loop_
_space_group_symop_operation_xyz
x,y,z
-x,y,-z
-x,-y,-z
x,-y,z
loop_
_atom_site_type_symbol
_atom_site_label
_atom_site_fract_x
_atom_site_fract_y
_atom_site_fract_z
Si Si1 0.939601 0.293013 0.880152
Si Si2 0.543838 0.795505 0.368049
Si Si3 0.252219 0.200716 0.005984
Si Si4 0.051022 0.709688 0.628363
Si Si5 0.250477 0.700335 0.710342
Si Si6 0.561958 0.791470 0.877925
O O1 0.935403 0.500000 0.878540
O O2 0.989377 0.237026 0.750272
O O3 0.838867 0.225574 0.910281
O O4 0.000000 0.240694 0.000000
O O5 0.500000 0.727679 0.500000
O O6 0.652418 0.768932 0.343184
O O7 0.486286 0.726793 0.248774
O O8 0.530779 0.000000 0.369550
O O9 0.244502 0.277825 0.864162
O O10 0.268863 0.000000 0.982476
O O11 0.336927 0.269435 0.087180
O O12 0.053576 0.500000 0.628423
O O13 0.156070 0.769522 0.649130
O O14 0.000000 0.763148 0.500000
O O15 0.251987 0.500000 0.682690
O O16 0.564665 0.000000 0.868668
O O17 0.500000 0.747962 0.000000
#
# Coordination Sequence:
#
# PCOD9147426 Si02
#       6
#     4   4   4   4   4   4
#     4  10  19  35  56  81 111 143 182 227 274 324
#     4  10  21  38  59  82 111 149 185 221 275 336
#     4  11  21  34  57  84 111 145 188 229 273 324
#     4   9  19  36  57  79 109 150 184 217 273 338
#     4  11  21  36  58  83 111 143 185 231 278 325
#     4   9  17  33  55  78 107 143 182 221 266 324
#
# _framework density 20.117367000000002
#
# number of rings (size 3 to 8) (size 9 to 14) (size 15 to 20)
#    0.000    2.000    3.333    1.000    0.000    2.000 
#    0.000    2.500    0.000    3.500    0.000    0.000 
#    0.000    0.000    0.000    0.000    0.000    0.000 
#
# Total GULP energy -133952.679986 kJ/mol
# GULP energy per Si atom -5581.361666 kJ/mol
# Density = 2.007158 g / cm^3
# Si number density = 20.117367 Si / 1000 Ang^3
#
#
#
# Elastic Constant Matrix: (Units=GPa)
#
#
# Indices 1 2 3 4 5 6 
#
# 1 190.3580 -4.1162 94.0172 0.0000 18.1774 0.0000
# 2 -4.1162 18.3632 3.6274 0.0000 4.2711 0.0000
# 3 94.0172 3.6274 177.1614 0.0000 14.0961 0.0000
# 4 0.0000 0.0000 0.0000 22.0174 0.0000 -7.1714
# 5 18.1774 4.2711 14.0961 0.0000 32.1115 0.0000
# 6 0.0000 0.0000 0.0000 -7.1714 0.0000 28.8937
#
#
#
# Elastic Compliance Matrix: (Units=1/GPa)
#
#
# Indices 1 2 3 4 5 6 
#
# 1 0.007481 0.003121 -0.003796 0.000000 -0.002983 0.000000
# 2 0.003121 0.057554 -0.002160 0.000000 -0.008473 0.000000
# 3 -0.003796 -0.002160 0.007781 0.000000 -0.000979 0.000000
# 4 0.000000 0.000000 0.000000 0.049413 0.000000 0.012264
# 5 -0.002983 -0.008473 -0.000979 0.000000 0.034387 0.000000
# 6 0.000000 0.000000 0.000000 0.012264 0.000000 0.037654
#
#
# Mechanical properties :
#
#
# Convention : Reuss Voigt Hill
#
# Bulk Modulus (GPa) = 14.89344 63.65993 39.27668
# Shear Modulus (GPa) = 22.48976 36.09481 29.29228
#
# Velocity S-wave (km/s) = 3.34717 4.24041 3.81999
# Velocity P-wave (km/s) = 4.72836 7.46242 6.24680
#
# Compressibility (1/GPa) = 0.06714367
#
# Stress axis : x y z
#
# Youngs Moduli (GPa) = 133.67846 17.37505 128.51089
#
# Poissons Ratio (x) = -0.05422 0.48788
# Poissons Ratio (y) = -0.41716 0.27762
# Poissons Ratio (z) = 0.50750 0.03754
#
# Static dielectric constant tensor:
#      x y z
#    x 1.356040 0.000000 -0.008810 
#    y 0.000000 1.743600 0.000000 
#    z -0.008810 0.000000 1.680450 
# 
# From -- ./inp_files/27233.got.cif
#   From: 2010.05.17/outbox.cif.g08.bks.cpg/sg10_14_cif.got.tgz:27233.got - 2010.06.03 11:33:40.
