data_PCOD9147772
_publ_section_title
;
Structure prediction by ZEFSAII (Michael W. Deem and Ramdas Pophale) SiO2 
 PCOD9147772
Probable space group: P 2/M
;
_chemical_formula_sum "Si O2"
_cell_formula_units_Z 24
_cell_length_a 15.603683
_cell_length_b 16.725293
_cell_length_c 9.289084
_cell_angle_alpha 90.000000
_cell_angle_beta 153.712364
_cell_angle_gamma 90.000000
_cell_volume 1073.637276
_symmetry_space_group_name_H-M "P 2/M"
_symmetry_group_IT_number 10
_symmetry_cell_setting 'monoclinic'
loop_
_space_group_symop_operation_xyz
x,y,z
-x,y,-z
-x,-y,-z
x,-y,z
loop_
_atom_site_type_symbol
_atom_site_label
_atom_site_fract_x
_atom_site_fract_y
_atom_site_fract_z
Si Si1 0.059340 0.174350 0.758521
Si Si2 0.944419 0.000000 0.250514
Si Si3 0.792589 0.000000 0.612254
Si Si4 0.677429 0.834721 0.378062
Si Si5 0.436151 0.500000 0.735368
Si Si6 0.175831 0.500000 0.875444
Si Si7 0.547722 0.670938 0.240241
Si Si8 0.291421 0.666529 0.110799
O O1 0.000000 0.179112 0.500000
O O2 0.870557 0.175039 0.574833
O O3 0.152526 0.086088 0.924059
O O4 0.183543 0.251931 0.982594
O O5 0.000000 0.000000 0.500000
O O6 0.145576 0.000000 0.463166
O O7 0.687776 0.083198 0.482388
O O8 0.000000 0.000000 0.000000
O O9 0.651628 0.754034 0.430518
O O10 0.500000 0.842309 0.000000
O O11 0.343579 0.586882 0.568278
O O12 0.500000 0.500000 0.000000
O O13 0.623567 0.500000 0.913391
O O14 0.000000 0.500000 0.500000
O O15 0.178542 0.583526 0.965560
O O16 0.347113 0.670068 0.025301
O O17 0.500000 0.673115 0.000000
O O18 0.500000 0.661545 0.500000
#
# Coordination Sequence:
#
# PCOD9147772 Si02
#       8
#     4   2   2   4   2   2   4   4
#     4  10  19  36  59  83 112 150 193 235 277 336
#     4   8  18  35  55  77 108 147 188 230 274 328
#     4  10  21  35  54  81 112 145 185 234 289 338
#     4  10  20  35  57  84 112 149 193 234 275 333
#     4   8  16  31  52  79 108 134 173 226 268 311
#     4  10  21  37  60  83 109 150 196 232 273 335
#     4   9  18  34  55  81 110 149 189 224 269 332
#     4  11  23  38  57  86 120 150 184 235 290 336
#
# _framework density 22.353918
#
# number of rings (size 3 to 8) (size 9 to 14) (size 15 to 20)
#    0.000    2.333    0.000    3.000    0.000    6.667 
#    0.000    2.917    0.000    0.000    0.000   16.917 
#    0.000    0.000    0.000    0.000    0.000    0.000 
#
# Total GULP energy -133854.497514 kJ/mol
# GULP energy per Si atom -5577.270730 kJ/mol
# Density = 2.230304 g / cm^3
# Si number density = 22.353918 Si / 1000 Ang^3
#
#
#
# Elastic Constant Matrix: (Units=GPa)
#
#
# Indices 1 2 3 4 5 6 
#
# 1 43.7413 -2.2405 -11.2395 0.0000 0.8088 0.0000
# 2 -2.2405 323.4843 72.2547 0.0000 -1.6363 0.0000
# 3 -11.2395 72.2547 69.1853 0.0000 -15.6802 0.0000
# 4 0.0000 0.0000 0.0000 20.2960 0.0000 21.1833
# 5 0.8088 -1.6363 -15.6802 0.0000 19.1334 0.0000
# 6 0.0000 0.0000 0.0000 21.1833 0.0000 3.1153
#
#
#
# Elastic Compliance Matrix: (Units=1/GPa)
#
#
# Indices 1 2 3 4 5 6 
#
# 1 0.024277 -0.001156 0.006013 0.000000 0.003802 0.000000
# 2 -0.001156 0.004327 -0.005664 0.000000 -0.004223 0.000000
# 3 0.006013 -0.005664 0.026009 0.000000 0.020577 0.000000
# 4 0.000000 0.000000 0.000000 -0.008081 0.000000 0.054949
# 5 0.003802 -0.004223 0.020577 0.000000 0.068606 0.000000
# 6 0.000000 0.000000 0.000000 0.054949 0.000000 -0.052648
#
#
# Mechanical properties :
#
#
# Convention : Reuss Voigt Hill
#
# Bulk Modulus (GPa) = 18.86798 61.55117 40.20957
# Shear Modulus (GPa) = 61.14663 33.68468 47.41566
#
# Velocity S-wave (km/s) = 5.23577 3.88607 4.61057
# Velocity P-wave (km/s) = 6.70894 6.90869 6.80955
#
# Compressibility (1/GPa) = 0.05299984
#
# Stress axis : x y z
#
# Youngs Moduli (GPa) = 41.19103 231.10340 38.44779
#
# Poissons Ratio (x) = 0.26707 -0.23117
# Poissons Ratio (y) = 0.04760 0.21776
# Poissons Ratio (z) = -0.24767 1.30893
#
# Static dielectric constant tensor:
#      x y z
#    x 1.868190 0.000000 -0.020150 
#    y 0.000000 1.940890 0.000000 
#    z -0.020150 0.000000 1.801580 
# 
# From -- ./inp_files/54219.got.cif
#   From: 2010.05.17/outbox.cif.g08.bks.cpg/sg10_28_cif.got.tgz:54219.got - 2010.06.03 11:33:40.
