data_PCOD9147750
_publ_section_title
;
Structure prediction by ZEFSAII (Michael W. Deem and Ramdas Pophale) SiO2 
 PCOD9147750
Probable space group: P 2/M
;
_chemical_formula_sum "Si O2"
_cell_formula_units_Z 24
_cell_length_a 23.412124
_cell_length_b 9.176084
_cell_length_c 11.125806
_cell_angle_alpha 90.000000
_cell_angle_beta 148.174765
_cell_angle_gamma 90.000000
_cell_volume 1260.411081
_symmetry_space_group_name_H-M "P 2/M"
_symmetry_group_IT_number 10
_symmetry_cell_setting 'monoclinic'
loop_
_space_group_symop_operation_xyz
x,y,z
-x,y,-z
-x,-y,-z
x,-y,z
loop_
_atom_site_type_symbol
_atom_site_label
_atom_site_fract_x
_atom_site_fract_y
_atom_site_fract_z
Si Si1 0.718440 0.673333 0.136990
Si Si2 0.032801 0.677189 0.422653
Si Si3 0.300922 0.827311 0.395067
Si Si4 0.628233 0.830053 0.746435
Si Si5 0.525249 0.165888 0.905814
Si Si6 0.078365 0.675983 0.028101
O O1 0.713953 0.500000 0.137808
O O2 0.842450 0.719358 0.376257
O O3 0.678497 0.726681 0.935669
O O4 0.632997 0.745048 0.073845
O O5 0.026600 0.500000 0.414281
O O6 0.000000 0.726151 0.500000
O O7 0.965428 0.722569 0.183193
O O8 0.309645 0.811575 0.267442
O O9 0.417129 0.773033 0.650497
O O10 0.293721 0.000000 0.411594
O O11 0.196825 0.744151 0.257310
O O12 0.500000 0.801592 0.500000
O O13 0.638259 0.000000 0.799818
O O14 0.540167 0.000000 0.886640
O O15 0.500000 0.160046 0.000000
O O16 0.085151 0.500000 0.039368
O O17 0.000000 0.716257 0.000000
#
# Coordination Sequence:
#
# PCOD9147750 Si02
#       6
#     4   4   4   4   4   4
#     4  11  22  35  59  90 117 147 191 241 286 343
#     4   9  19  37  57  80 116 155 188 231 289 344
#     4  10  21  38  60  85 113 149 192 239 285 336
#     4  10  19  36  58  81 117 154 184 228 287 344
#     4  10  22  40  59  81 115 159 194 230 291 350
#     4  10  22  39  60  84 113 153 194 237 294 350
#
# _framework density 19.041407
#
# number of rings (size 3 to 8) (size 9 to 14) (size 15 to 20)
#    0.000    2.000    1.667    1.500    2.333    3.667 
#    0.000    1.667    0.000    4.500    0.000    0.000 
#    0.000    0.000    0.000    0.000    0.000    0.000 
#
# Total GULP energy -133913.937595 kJ/mol
# GULP energy per Si atom -5579.747400 kJ/mol
# Density = 1.899807 g / cm^3
# Si number density = 19.041407 Si / 1000 Ang^3
#
#
#
# Elastic Constant Matrix: (Units=GPa)
#
#
# Indices 1 2 3 4 5 6 
#
# 1 117.7615 20.1004 29.4095 0.0000 15.3623 0.0000
# 2 20.1004 21.6691 18.6700 0.0000 14.3048 0.0000
# 3 29.4095 18.6700 66.4119 0.0000 21.1586 0.0000
# 4 0.0000 0.0000 0.0000 -26.7109 0.0000 8.4537
# 5 15.3623 14.3048 21.1586 0.0000 36.4108 0.0000
# 6 0.0000 0.0000 0.0000 8.4537 0.0000 16.6401
#
#
#
# Elastic Compliance Matrix: (Units=1/GPa)
#
#
# Indices 1 2 3 4 5 6 
#
# 1 0.010394 -0.007496 -0.002499 0.000000 0.000012 0.000000
# 2 -0.007496 0.076495 -0.011803 0.000000 -0.020031 0.000000
# 3 -0.002499 -0.011803 0.021684 0.000000 -0.006909 0.000000
# 4 0.000000 0.000000 0.000000 -0.032252 0.000000 0.016385
# 5 0.000012 -0.020031 -0.006909 0.000000 0.039344 0.000000
# 6 0.000000 0.000000 0.000000 0.016385 0.000000 0.051772
#
#
# Mechanical properties :
#
#
# Convention : Reuss Voigt Hill
#
# Bulk Modulus (GPa) = 15.39045 38.02249 26.70647
# Shear Modulus (GPa) = 21.48771 14.44549 17.96660
#
# Velocity S-wave (km/s) = 3.36292 2.75732 3.07507
# Velocity P-wave (km/s) = 4.81447 5.49079 5.16372
#
# Compressibility (1/GPa) = 0.06497535
#
# Stress axis : x y z
#
# Youngs Moduli (GPa) = 96.21122 13.07276 46.11768
#
# Poissons Ratio (x) = 0.09799 0.11526
# Poissons Ratio (y) = 0.72119 0.54434
# Poissons Ratio (z) = 0.24046 0.15430
#
# Static dielectric constant tensor:
#      x y z
#    x 1.681980 0.000000 -0.013470 
#    y 0.000000 1.641690 0.000000 
#    z -0.013470 0.000000 1.669460 
# 
# From -- ./inp_files/45051.got.cif
#   From: 2010.05.17/outbox.cif.g08.bks.cpg/sg10_23_cif.got.tgz:45051.got - 2010.06.03 11:33:40.
