data_PCOD9147087
_publ_section_title
;
Structure prediction by ZEFSAII (Michael W. Deem and Ramdas Pophale) SiO2 
 PCOD9147087
Probable space group: P 2/M
;
_chemical_formula_sum "Si O2"
_cell_formula_units_Z 14
_cell_length_a 5.419972
_cell_length_b 16.449832
_cell_length_c 7.762185
_cell_angle_alpha 90.000000
_cell_angle_beta 60.494180
_cell_angle_gamma 90.000000
_cell_volume 602.302011
_symmetry_space_group_name_H-M "P 2/M"
_symmetry_group_IT_number 10
_symmetry_cell_setting 'monoclinic'
loop_
_space_group_symop_operation_xyz
x,y,z
-x,y,-z
-x,-y,-z
x,-y,z
loop_
_atom_site_type_symbol
_atom_site_label
_atom_site_fract_x
_atom_site_fract_y
_atom_site_fract_z
Si Si1 0.656583 0.410167 0.132481
Si Si2 0.289342 0.239194 0.786100
Si Si3 0.925446 0.913288 0.324669
Si Si4 0.500000 0.135797 0.000000
O O1 0.559561 0.500000 0.225321
O O2 0.608335 0.331557 0.269362
O O3 0.500000 0.396035 0.000000
O O4 0.000000 0.415044 0.000000
O O5 0.219967 0.173034 0.665169
O O6 0.509295 0.193659 0.832398
O O7 0.000000 0.245082 0.000000
O O8 0.000000 0.915626 0.500000
O O9 0.778723 0.000000 0.331673
O O10 0.210525 0.912375 0.111368
#
# Coordination Sequence:
#
# PCOD9147087 Si02
#       4
#     4   4   4   2
#     4   9  16  28  51  83 116 148 188 238 289 349
#     4   9  18  32  52  78 111 142 188 235 285 342
#     4  10  22  37  53  78 110 148 194 237 285 345
#     4  10  19  34  57  78 106 146 183 236 291 336
#
# _framework density 23.244154000000002
#
# number of rings (size 3 to 8) (size 9 to 14) (size 15 to 20)
#    0.000    2.571    1.429    0.429    0.000    7.429 
#    0.000    2.857    0.000    0.857    0.000    2.000 
#    0.000    0.000    0.000    0.000    0.000    0.000 
#
# Total GULP energy -77981.536519 kJ/mol
# GULP energy per Si atom -5570.109751 kJ/mol
# Density = 2.319125 g / cm^3
# Si number density = 23.244154 Si / 1000 Ang^3
#
#
#
# Elastic Constant Matrix: (Units=GPa)
#
#
# Indices 1 2 3 4 5 6 
#
# 1 98.1760 46.4642 17.4426 0.0000 4.9664 0.0000
# 2 46.4642 296.7461 37.6740 0.0000 28.4454 0.0000
# 3 17.4426 37.6740 68.1902 0.0000 -3.4283 0.0000
# 4 0.0000 0.0000 0.0000 73.5057 0.0000 -17.5500
# 5 4.9664 28.4454 -3.4283 0.0000 43.7216 0.0000
# 6 0.0000 0.0000 0.0000 -17.5500 0.0000 60.0091
#
#
#
# Elastic Compliance Matrix: (Units=1/GPa)
#
#
# Indices 1 2 3 4 5 6 
#
# 1 0.011272 -0.001449 -0.002108 0.000000 -0.000503 0.000000
# 2 -0.001449 0.004111 -0.002035 0.000000 -0.002670 0.000000
# 3 -0.002108 -0.002035 0.016472 0.000000 0.002855 0.000000
# 4 0.000000 0.000000 0.000000 0.014626 0.000000 0.004277
# 5 -0.000503 -0.002670 0.002855 0.000000 0.024890 0.000000
# 6 0.000000 0.000000 0.000000 0.004277 0.000000 0.017915
#
#
# Mechanical properties :
#
#
# Convention : Reuss Voigt Hill
#
# Bulk Modulus (GPa) = 48.37742 74.03043 61.20392
# Shear Modulus (GPa) = 46.57285 59.54938 53.06112
#
# Velocity S-wave (km/s) = 4.48106 5.06702 4.78302
# Velocity P-wave (km/s) = 6.90153 8.13333 7.54262
#
# Compressibility (1/GPa) = 0.02067080
#
# Stress axis : x y z
#
# Youngs Moduli (GPa) = 88.71910 243.24893 60.70982
#
# Poissons Ratio (x) = 0.35248 0.12797
# Poissons Ratio (y) = 0.12856 0.12353
# Poissons Ratio (z) = 0.18701 0.49497
#
# Static dielectric constant tensor:
#      x y z
#    x 1.952980 0.000000 -0.010840 
#    y 0.000000 1.939670 0.000000 
#    z -0.010840 0.000000 1.888760 
# 
# From -- ./inp_files/3208.got.cif
#   From: 2010.05.17/outbox.cif.g08.bks.cpg/sg10_2_cif.got.tgz:3208.got - 2010.06.03 11:33:40.
