data_PCOD9147100
_publ_section_title
;
Structure prediction by ZEFSAII (Michael W. Deem and Ramdas Pophale) SiO2 
 PCOD9147100
Probable space group: P 2/M
;
_chemical_formula_sum "Si O2"
_cell_formula_units_Z 32
_cell_length_a 28.356890
_cell_length_b 7.621554
_cell_length_c 9.340188
_cell_angle_alpha 90.000000
_cell_angle_beta 49.074637
_cell_angle_gamma 90.000000
_cell_volume 1525.206871
_symmetry_space_group_name_H-M "P 2/M"
_symmetry_group_IT_number 10
_symmetry_cell_setting 'monoclinic'
loop_
_space_group_symop_operation_xyz
x,y,z
-x,y,-z
-x,-y,-z
x,-y,z
loop_
_atom_site_type_symbol
_atom_site_label
_atom_site_fract_x
_atom_site_fract_y
_atom_site_fract_z
Si Si1 0.301788 0.215684 0.304146
Si Si2 0.938236 0.707352 0.201583
Si Si3 0.938885 0.212026 0.535687
Si Si4 0.182309 0.215179 0.047738
Si Si5 0.555088 0.706524 0.288436
Si Si6 0.438671 0.797609 0.051601
Si Si7 0.814105 0.205517 0.282428
Si Si8 0.694145 0.788245 0.034461
O O1 0.370056 0.276967 0.219414
O O2 0.245208 0.278921 0.514299
O O3 0.302152 0.000000 0.303042
O O4 0.294222 0.267962 0.153198
O O5 0.936035 0.500000 0.179978
O O6 0.940974 0.738513 0.365423
O O7 0.875638 0.781215 0.255990
O O8 0.000000 0.778522 0.000000
O O9 0.875657 0.272994 0.739194
O O10 0.000000 0.273898 0.500000
O O11 0.938996 0.000000 0.541184
O O12 0.181049 0.000000 0.052745
O O13 0.175376 0.276210 0.897983
O O14 0.248763 0.270522 0.980557
O O15 0.500000 0.772900 0.500000
O O16 0.544604 0.500000 0.285460
O O17 0.624455 0.730231 0.214219
O O18 0.554907 0.793857 0.132853
O O19 0.436378 0.000000 0.105681
O O20 0.500000 0.715383 0.000000
O O21 0.800140 0.000000 0.290093
O O22 0.693783 0.000000 0.036782
#
# Coordination Sequence:
#
# PCOD9147100 Si02
#       8
#     4   4   4   4   4   4   4   4
#     4   8  15  29  50  76 104 133 166 210 258 301
#     4  11  24  39  54  76 108 142 176 216 260 305
#     4  10  20  36  59  84 108 136 174 215 255 306
#     4   9  18  32  54  85 111 132 167 217 263 302
#     4  10  21  35  50  72 104 139 175 215 259 308
#     4   9  18  33  54  79 104 132 171 215 259 310
#     4  10  19  34  57  81 107 138 172 212 259 309
#     4   9  17  32  52  73 102 138 175 214 257 306
#
# _framework density 20.980758999999999
#
# number of rings (size 3 to 8) (size 9 to 14) (size 15 to 20)
#    0.000    2.500    0.000    3.000    0.000    6.500 
#    0.000    9.375    0.000    0.000    0.000    0.000 
#    0.000    0.000    0.000    0.000    0.000    0.000 
#
# Total GULP energy -178655.164568 kJ/mol
# GULP energy per Si atom -5582.973893 kJ/mol
# Density = 2.093301 g / cm^3
# Si number density = 20.980759 Si / 1000 Ang^3
#
#
#
# Elastic Constant Matrix: (Units=GPa)
#
#
# Indices 1 2 3 4 5 6 
#
# 1 143.9517 -16.2248 75.3749 0.0000 -14.4253 0.0000
# 2 -16.2248 40.2530 -8.2237 0.0000 -0.9309 0.0000
# 3 75.3749 -8.2237 182.2634 0.0000 -22.3532 0.0000
# 4 0.0000 0.0000 0.0000 0.9441 0.0000 8.0592
# 5 -14.4253 -0.9309 -22.3532 0.0000 32.0612 0.0000
# 6 0.0000 0.0000 0.0000 8.0592 0.0000 -15.3499
#
#
#
# Elastic Compliance Matrix: (Units=1/GPa)
#
#
# Indices 1 2 3 4 5 6 
#
# 1 0.009302 0.003081 -0.003481 0.000000 0.001848 0.000000
# 2 0.003081 0.026175 0.000186 0.000000 0.002276 0.000000
# 3 -0.003481 0.000186 0.007374 0.000000 0.003580 0.000000
# 4 0.000000 0.000000 0.000000 0.193220 0.000000 0.101446
# 5 0.001848 0.002276 0.003580 0.000000 0.034584 0.000000
# 6 0.000000 0.000000 0.000000 0.101446 0.000000 -0.011885
#
#
# Mechanical properties :
#
#
# Convention : Reuss Voigt Hill
#
# Bulk Modulus (GPa) = 23.57244 52.03563 37.80404
# Shear Modulus (GPa) = 18.29225 24.56719 21.42972
#
# Velocity S-wave (km/s) = 2.95593 3.42561 3.19940
# Velocity P-wave (km/s) = 4.78640 6.36411 5.63079
#
# Compressibility (1/GPa) = 0.04242241
#
# Stress axis : x y z
#
# Youngs Moduli (GPa) = 107.50400 38.20390 135.61737
#
# Poissons Ratio (x) = -0.11770 0.47211
# Poissons Ratio (y) = -0.33121 -0.02523
# Poissons Ratio (z) = 0.37425 -0.00711
#
# Static dielectric constant tensor:
#      x y z
#    x 1.720870 0.000000 -0.015740 
#    y 0.000000 1.794990 0.000000 
#    z -0.015740 0.000000 1.727920 
# 
# From -- ./inp_files/36735.got.cif
#   From: 2010.05.17/outbox.cif.g08.bks.cpg/sg10_19_cif.got.tgz:36735.got - 2010.06.03 11:33:40.
