data_PCOD9147139
_publ_section_title
;
Structure prediction by ZEFSAII (Michael W. Deem and Ramdas Pophale) SiO2 
 PCOD9147139
Probable space group: P 2/M
;
_chemical_formula_sum "Si O2"
_cell_formula_units_Z 24
_cell_length_a 18.422430
_cell_length_b 13.611851
_cell_length_c 5.242480
_cell_angle_alpha 90.000000
_cell_angle_beta 63.246032
_cell_angle_gamma 90.000000
_cell_volume 1173.888751
_symmetry_space_group_name_H-M "P 2/M"
_symmetry_group_IT_number 10
_symmetry_cell_setting 'monoclinic'
loop_
_space_group_symop_operation_xyz
x,y,z
-x,y,-z
-x,-y,-z
x,-y,z
loop_
_atom_site_type_symbol
_atom_site_label
_atom_site_fract_x
_atom_site_fract_y
_atom_site_fract_z
Si Si1 0.048374 0.226489 0.178797
Si Si2 0.667984 0.116640 0.688618
Si Si3 0.810364 0.753127 0.365356
Si Si4 0.405202 0.213728 0.706031
Si Si5 0.709688 0.611065 0.198061
Si Si6 0.880941 0.610231 0.641717
O O1 0.063141 0.342387 0.225472
O O2 0.000000 0.184331 0.500000
O O3 0.141592 0.200802 0.952772
O O4 0.000000 0.203477 0.000000
O O5 0.757311 0.164528 0.585634
O O6 0.635377 0.156162 0.468097
O O7 0.670877 0.000000 0.683812
O O8 0.611983 0.155845 0.006147
O O9 0.746970 0.669305 0.378937
O O10 0.874787 0.693496 0.435160
O O11 0.500000 0.224470 0.500000
O O12 0.360734 0.319343 0.796024
O O13 0.683969 0.500000 0.296112
O O14 0.788417 0.605991 0.891108
O O15 0.903998 0.500000 0.529118
#
# Coordination Sequence:
#
# PCOD9147139 Si02
#       6
#     4   4   4   4   4   4
#     4  11  22  37  54  84 118 159 190 240 299 348
#     4  11  24  42  66  90 116 156 203 250 301 357
#     4  10  20  38  61  83 118 154 207 245 291 350
#     4  11  23  40  62  93 127 155 193 247 302 358
#     4   9  19  35  57  86 121 163 205 241 285 348
#     4  10  19  34  57  82 115 160 200 239 285 346
#
# _framework density 20.444866999999999
#
# number of rings (size 3 to 8) (size 9 to 14) (size 15 to 20)
#    0.000    1.667    3.333    1.500    0.000    3.667 
#    0.000    0.000    0.000    4.000    0.000    0.000 
#    0.000    0.000    0.000    0.000    0.000    0.000 
#
# Total GULP energy -133784.449579 kJ/mol
# GULP energy per Si atom -5574.352066 kJ/mol
# Density = 2.039833 g / cm^3
# Si number density = 20.444867 Si / 1000 Ang^3
#
#
#
# Elastic Constant Matrix: (Units=GPa)
#
#
# Indices 1 2 3 4 5 6 
#
# 1 43.1533 19.4077 11.0068 0.0000 -0.7253 0.0000
# 2 19.4077 99.1437 27.2201 0.0000 -7.9885 0.0000
# 3 11.0068 27.2201 105.9780 0.0000 -12.0458 0.0000
# 4 0.0000 0.0000 0.0000 16.5480 0.0000 3.4280
# 5 -0.7253 -7.9885 -12.0458 0.0000 34.9954 0.0000
# 6 0.0000 0.0000 0.0000 3.4280 0.0000 8.1686
#
#
#
# Elastic Compliance Matrix: (Units=1/GPa)
#
#
# Indices 1 2 3 4 5 6 
#
# 1 0.025662 -0.004675 -0.001588 0.000000 -0.001082 0.000000
# 2 -0.004675 0.011788 -0.002339 0.000000 0.001789 0.000000
# 3 -0.001588 -0.002339 0.010550 0.000000 0.003065 0.000000
# 4 0.000000 0.000000 0.000000 0.066184 0.000000 -0.027775
# 5 -0.001082 0.001789 0.003065 0.000000 0.030016 0.000000
# 6 0.000000 0.000000 0.000000 -0.027775 0.000000 0.134076
#
#
# Mechanical properties :
#
#
# Convention : Reuss Voigt Hill
#
# Bulk Modulus (GPa) = 32.46990 40.39379 36.43184
# Shear Modulus (GPa) = 16.35355 24.65176 20.50266
#
# Velocity S-wave (km/s) = 2.83129 3.47618 3.17018
# Velocity P-wave (km/s) = 5.15795 5.99267 5.59091
#
# Compressibility (1/GPa) = 0.03079776
#
# Stress axis : x y z
#
# Youngs Moduli (GPa) = 38.96753 84.83396 94.78814
#
# Poissons Ratio (x) = 0.39658 0.15048
# Poissons Ratio (y) = 0.18216 0.22169
# Poissons Ratio (z) = 0.06186 0.19841
#
# Static dielectric constant tensor:
#      x y z
#    x 1.795220 0.000000 0.006980 
#    y 0.000000 1.699410 0.000000 
#    z 0.006980 0.000000 1.811530 
# 
# From -- ./inp_files/12183.got.cif
#   From: 2010.05.17/outbox.cif.g08.bks.cpg/sg10_7_cif.got.tgz:12183.got - 2010.06.03 11:33:40.
