data_PCOD9147569
_publ_section_title
;
Structure prediction by ZEFSAII (Michael W. Deem and Ramdas Pophale) SiO2 
 PCOD9147569
Probable space group: P 2/M
;
_chemical_formula_sum "Si O2"
_cell_formula_units_Z 20
_cell_length_a 13.769477
_cell_length_b 12.573228
_cell_length_c 10.430715
_cell_angle_alpha 90.000000
_cell_angle_beta 29.308669
_cell_angle_gamma 90.000000
_cell_volume 883.982730
_symmetry_space_group_name_H-M "P 2/M"
_symmetry_group_IT_number 10
_symmetry_cell_setting 'monoclinic'
loop_
_space_group_symop_operation_xyz
x,y,z
-x,y,-z
-x,-y,-z
x,-y,z
loop_
_atom_site_type_symbol
_atom_site_label
_atom_site_fract_x
_atom_site_fract_y
_atom_site_fract_z
Si Si1 0.280904 0.736079 0.429939
Si Si2 0.084016 0.500000 0.050729
Si Si3 0.766928 0.117359 0.745898
Si Si4 0.556089 0.877973 0.263646
Si Si5 0.654245 0.500000 0.694788
Si Si6 0.869222 0.270114 0.021305
O O1 0.308272 0.793712 0.263441
O O2 0.369117 0.806052 0.443067
O O3 0.377827 0.618948 0.321742
O O4 0.043816 0.737586 0.716084
O O5 0.903542 0.500000 0.366828
O O6 0.207128 0.390686 0.912770
O O7 0.000000 0.500000 0.000000
O O8 0.000000 0.127364 0.500000
O O9 0.729756 0.000000 0.729844
O O10 0.669728 0.121177 0.996534
O O11 0.511068 0.000000 0.347711
O O12 0.703718 0.818562 0.190936
O O13 0.500000 0.500000 0.000000
O O14 0.000000 0.264708 0.000000
#
# Coordination Sequence:
#
# PCOD9147569 Si02
#       6
#     4   2   4   4   2   4
#     4  11  22  39  60  86 123 155 193 248 299 360
#     4   8  18  39  64  85 113 162 210 245 297 363
#     4  10  19  35  59  83 113 153 192 234 290 353
#     4  11  23  37  60  89 116 156 199 240 303 359
#     4  10  20  35  59  92 125 157 194 248 316 361
#     4  10  22  41  61  84 116 154 201 250 292 352
#
# _framework density 22.624877000000001
#
# number of rings (size 3 to 8) (size 9 to 14) (size 15 to 20)
#    0.000    1.800    2.000    2.400    0.000    4.400 
#    0.000    2.500    0.000    7.200    0.000    0.000 
#    0.000    0.000    0.000    0.000    0.000    0.000 
#
# Total GULP energy -111355.619138 kJ/mol
# GULP energy per Si atom -5567.780957 kJ/mol
# Density = 2.257338 g / cm^3
# Si number density = 22.624877 Si / 1000 Ang^3
#
#
#
# Elastic Constant Matrix: (Units=GPa)
#
#
# Indices 1 2 3 4 5 6 
#
# 1 83.5426 68.8090 7.6060 0.0000 -0.3875 0.0000
# 2 68.8090 221.5156 16.0079 0.0000 -22.5764 0.0000
# 3 7.6060 16.0079 59.4154 0.0000 2.0777 0.0000
# 4 0.0000 0.0000 0.0000 6.6075 0.0000 1.5009
# 5 -0.3875 -22.5764 2.0777 0.0000 41.8376 0.0000
# 6 0.0000 0.0000 0.0000 1.5009 0.0000 19.9001
#
#
#
# Elastic Compliance Matrix: (Units=1/GPa)
#
#
# Indices 1 2 3 4 5 6 
#
# 1 0.016397 -0.005327 -0.000570 0.000000 -0.002694 0.000000
# 2 -0.005327 0.006623 -0.001228 0.000000 0.003586 0.000000
# 3 -0.000570 -0.001228 0.017288 0.000000 -0.001526 0.000000
# 4 0.000000 0.000000 0.000000 0.153982 0.000000 -0.011614
# 5 -0.002694 0.003586 -0.001526 0.000000 0.025888 0.000000
# 6 0.000000 0.000000 0.000000 -0.011614 0.000000 0.051127
#
#
# Mechanical properties :
#
#
# Convention : Reuss Voigt Hill
#
# Bulk Modulus (GPa) = 38.37444 61.03547 49.70495
# Shear Modulus (GPa) = 16.99300 31.80575 24.39938
#
# Velocity S-wave (km/s) = 2.74355 3.75345 3.28751
# Velocity P-wave (km/s) = 5.19943 6.76906 6.03549
#
# Compressibility (1/GPa) = 0.02605901
#
# Stress axis : x y z
#
# Youngs Moduli (GPa) = 60.98840 150.98577 57.84431
#
# Poissons Ratio (x) = 0.80425 0.03295
# Poissons Ratio (y) = 0.32486 0.07103
# Poissons Ratio (z) = 0.03474 0.18540
#
# Static dielectric constant tensor:
#      x y z
#    x 1.847240 0.000000 0.044820 
#    y 0.000000 1.867720 0.000000 
#    z 0.044820 0.000000 1.929100 
# 
# From -- ./inp_files/50967.got.cif
#   From: 2010.05.17/outbox.cif.g08.bks.cpg/sg10_26_cif.got.tgz:50967.got - 2010.06.03 11:33:40.
