data_PCOD9147246
_publ_section_title
;
Structure prediction by ZEFSAII (Michael W. Deem and Ramdas Pophale) SiO2 
 PCOD9147246
Probable space group: P 2/M
;
_chemical_formula_sum "Si O2"
_cell_formula_units_Z 32
_cell_length_a 19.121373
_cell_length_b 14.135983
_cell_length_c 13.654529
_cell_angle_alpha 90.000000
_cell_angle_beta 154.059053
_cell_angle_gamma 90.000000
_cell_volume 1614.525195
_symmetry_space_group_name_H-M "P 2/M"
_symmetry_group_IT_number 10
_symmetry_cell_setting 'monoclinic'
loop_
_space_group_symop_operation_xyz
x,y,z
-x,y,-z
-x,-y,-z
x,-y,z
loop_
_atom_site_type_symbol
_atom_site_label
_atom_site_fract_x
_atom_site_fract_y
_atom_site_fract_z
Si Si1 0.399903 0.244248 0.167906
Si Si2 0.213966 0.386402 0.060838
Si Si3 0.183679 0.888883 0.996745
Si Si4 0.837688 0.888495 0.629860
Si Si5 0.836028 0.386255 0.571043
Si Si6 0.588838 0.755712 0.211132
Si Si7 0.192688 0.607944 0.248723
Si Si8 0.340264 0.889305 0.404280
O O1 0.337859 0.337306 0.144858
O O2 0.252385 0.171580 0.994409
O O3 0.460576 0.264501 0.135610
O O4 0.536289 0.187524 0.399689
O O5 0.230632 0.500000 0.082486
O O6 0.245072 0.350008 0.211333
O O7 0.026114 0.367647 0.799376
O O8 0.291580 0.878491 0.230589
O O9 0.179050 0.000000 0.967695
O O10 0.009395 0.854783 0.810215
O O11 0.699368 0.837973 0.395109
O O12 0.809516 0.877014 0.710612
O O13 0.830376 0.000000 0.602491
O O14 0.818646 0.500000 0.545247
O O15 0.712033 0.331115 0.347324
O O16 0.780702 0.351038 0.610469
O O17 0.500000 0.781510 0.000000
O O18 0.254423 0.500000 0.329082
O O19 0.000000 0.602281 0.000000
O O20 0.395521 0.000000 0.486696
#
# Coordination Sequence:
#
# PCOD9147246 Si02
#       8
#     4   4   4   4   4   4   4   4
#     4  11  22  34  53  81 114 147 179 220 277 329
#     4   9  18  34  57  86 118 147 177 217 264 320
#     4  10  19  34  58  87 117 144 174 216 264 322
#     4   9  19  37  60  83 108 145 188 220 256 319
#     4   9  18  36  60  82 108 146 188 224 262 318
#     4  11  25  42  57  75 103 142 188 238 284 324
#     4   7  12  26  50  78 106 136 167 200 245 307
#     4   9  18  33  54  84 121 153 176 205 256 324
#
# _framework density 19.820067999999999
#
# number of rings (size 3 to 8) (size 9 to 14) (size 15 to 20)
#    0.000    2.625    0.000    3.375    0.000    7.000 
#    0.000    6.250    0.000    6.750    0.000    0.000 
#    0.000    1.000    0.000    0.000    0.000    0.000 
#
# Total GULP energy -178549.248123 kJ/mol
# GULP energy per Si atom -5579.664004 kJ/mol
# Density = 1.977496 g / cm^3
# Si number density = 19.820068 Si / 1000 Ang^3
#
#
#
# Elastic Constant Matrix: (Units=GPa)
#
#
# Indices 1 2 3 4 5 6 
#
# 1 96.5878 21.8147 35.3772 0.0000 16.7262 0.0000
# 2 21.8147 73.6577 5.7720 0.0000 9.8113 0.0000
# 3 35.3772 5.7720 45.1177 0.0000 -1.0443 0.0000
# 4 0.0000 0.0000 0.0000 25.6469 0.0000 10.6783
# 5 16.7262 9.8113 -1.0443 0.0000 23.7421 0.0000
# 6 0.0000 0.0000 0.0000 10.6783 0.0000 29.0592
#
#
#
# Elastic Compliance Matrix: (Units=1/GPa)
#
#
# Indices 1 2 3 4 5 6 
#
# 1 0.018371 -0.002654 -0.014354 0.000000 -0.012477 0.000000
# 2 -0.002654 0.014929 0.000072 0.000000 -0.004296 0.000000
# 3 -0.014354 0.000072 0.033678 0.000000 0.011564 0.000000
# 4 0.000000 0.000000 0.000000 0.046034 0.000000 -0.016916
# 5 -0.012477 -0.004296 0.011564 0.000000 0.053193 0.000000
# 6 0.000000 0.000000 0.000000 -0.016916 0.000000 0.040628
#
#
# Mechanical properties :
#
#
# Convention : Reuss Voigt Hill
#
# Bulk Modulus (GPa) = 30.20686 37.92120 34.06403
# Shear Modulus (GPa) = 19.86173 25.84960 22.85566
#
# Velocity S-wave (km/s) = 3.16903 3.61531 3.39950
# Velocity P-wave (km/s) = 5.35388 6.04992 5.71251
#
# Compressibility (1/GPa) = 0.03310506
#
# Stress axis : x y z
#
# Youngs Moduli (GPa) = 54.43461 66.98367 29.69325
#
# Poissons Ratio (x) = 0.17778 0.42621
# Poissons Ratio (y) = 0.14447 -0.00213
# Poissons Ratio (z) = 0.78135 -0.00480
#
# Static dielectric constant tensor:
#      x y z
#    x 1.711370 0.000000 0.041030 
#    y 0.000000 1.748310 0.000000 
#    z 0.041030 0.000000 1.697030 
# 
# From -- ./inp_files/54074.got.cif
#   From: 2010.05.17/outbox.cif.g08.bks.cpg/sg10_28_cif.got.tgz:54074.got - 2010.06.03 11:33:40.
