data_PCOD9147939
_publ_section_title
;
Structure prediction by ZEFSAII (Michael W. Deem and Ramdas Pophale) SiO2 
 PCOD9147939
Probable space group: P 2/M
;
_chemical_formula_sum "Si O2"
_cell_formula_units_Z 32
_cell_length_a 9.879954
_cell_length_b 20.207227
_cell_length_c 10.937743
_cell_angle_alpha 90.000000
_cell_angle_beta 48.687281
_cell_angle_gamma 90.000000
_cell_volume 1640.201849
_symmetry_space_group_name_H-M "P 2/M"
_symmetry_group_IT_number 10
_symmetry_cell_setting 'monoclinic'
loop_
_space_group_symop_operation_xyz
x,y,z
-x,y,-z
-x,-y,-z
x,-y,z
loop_
_atom_site_type_symbol
_atom_site_label
_atom_site_fract_x
_atom_site_fract_y
_atom_site_fract_z
Si Si1 0.734856 0.796940 0.070765
Si Si2 0.213966 0.282937 0.364887
Si Si3 0.144823 0.200335 0.731435
Si Si4 0.326553 0.671257 0.039527
Si Si5 0.473901 0.928192 0.870296
Si Si6 0.694385 0.339988 0.449239
Si Si7 0.190137 0.866216 0.454489
Si Si8 0.008257 0.422009 0.140885
O O1 0.740852 0.806019 0.213039
O O2 0.643980 0.728064 0.080914
O O3 0.645205 0.863414 0.076996
O O4 0.938213 0.793963 0.897341
O O5 0.254840 0.288976 0.198796
O O6 0.308552 0.334818 0.401123
O O7 0.252577 0.207278 0.376814
O O8 0.000000 0.294060 0.500000
O O9 0.209784 0.270306 0.639547
O O10 0.166522 0.143947 0.614862
O O11 0.500000 0.638436 0.000000
O O12 0.179574 0.619218 0.084587
O O13 0.658660 0.915662 0.685088
O O14 0.397146 0.000000 0.877797
O O15 0.500000 0.931137 0.000000
O O16 0.500000 0.344224 0.500000
O O17 0.829232 0.394911 0.314775
O O18 0.000000 0.879029 0.500000
O O19 0.027969 0.500000 0.150743
O O20 0.000000 0.410432 0.000000
#
# Coordination Sequence:
#
# PCOD9147939 Si02
#       8
#     4   4   4   4   4   4   4   4
#     4  11  21  40  63  92 127 165 215 269 316 383
#     4  10  19  37  59  93 124 157 205 268 322 363
#     4  10  22  37  63  96 123 163 212 264 327 373
#     4  12  23  37  66  96 124 163 216 267 318 371
#     4  11  24  40  60  89 126 169 213 261 324 392
#     4  11  23  38  64  96 130 162 208 265 315 386
#     4  10  20  37  60  89 128 160 206 269 318 379
#     4  11  25  46  65  89 132 175 214 262 322 390
#
# _framework density 19.509792999999998
#
# number of rings (size 3 to 8) (size 9 to 14) (size 15 to 20)
#    0.000    1.250    2.500    4.875    7.000    0.750 
#    0.000    4.375    0.000    0.000    0.000    0.000 
#    0.000    0.000    0.000    0.000    0.000    0.000 
#
# Total GULP energy -178585.521181 kJ/mol
# GULP energy per Si atom -5580.797537 kJ/mol
# Density = 1.946539 g / cm^3
# Si number density = 19.509793 Si / 1000 Ang^3
#
#
#
# Elastic Constant Matrix: (Units=GPa)
#
#
# Indices 1 2 3 4 5 6 
#
# 1 121.4277 60.2934 31.0977 0.0000 6.9408 0.0000
# 2 60.2934 88.8709 23.7367 0.0000 -5.9011 0.0000
# 3 31.0977 23.7367 67.2111 0.0000 11.4597 0.0000
# 4 0.0000 0.0000 0.0000 -251.6791 0.0000 140.8892
# 5 6.9408 -5.9011 11.4597 0.0000 39.2445 0.0000
# 6 0.0000 0.0000 0.0000 140.8892 0.0000 -69.8926
#
#
#
# Elastic Compliance Matrix: (Units=1/GPa)
#
#
# Indices 1 2 3 4 5 6 
#
# 1 0.013303 -0.008503 -0.002666 0.000000 -0.002853 0.000000
# 2 -0.008503 0.018282 -0.003418 0.000000 0.005251 0.000000
# 3 -0.002666 -0.003418 0.018234 0.000000 -0.005367 0.000000
# 4 0.000000 0.000000 0.000000 0.030936 0.000000 0.062361
# 5 -0.002853 0.005251 -0.005367 0.000000 0.028343 0.000000
# 6 0.000000 0.000000 0.000000 0.062361 0.000000 0.111400
#
#
# Mechanical properties :
#
#
# Convention : Reuss Voigt Hill
#
# Bulk Modulus (GPa) = 48.43417 56.41838 52.42627
# Shear Modulus (GPa) = 19.48913 -45.63999 -13.07543
#
# Velocity S-wave (km/s) = 3.16403 -4.84192 -2.59163
# Velocity P-wave (km/s) = 6.18285 1.50934 4.23966
#
# Compressibility (1/GPa) = 0.02064658
#
# Stress axis : x y z
#
# Youngs Moduli (GPa) = 75.17069 54.69740 54.84215
#
# Poissons Ratio (x) = 0.46508 0.14620
# Poissons Ratio (y) = 0.63915 0.18745
# Poissons Ratio (z) = 0.20039 0.18695
#
# Static dielectric constant tensor:
#      x y z
#    x 1.773370 0.000000 -0.001670 
#    y 0.000000 1.648430 0.000000 
#    z -0.001670 0.000000 1.758950 
# 
# From -- ./inp_files/43606.got.cif
#   From: 2010.05.17/outbox.cif.g08.bks.cpg/sg10_22_cif.got.tgz:43606.got - 2010.06.03 11:33:40.
