data_PCOD9147935
_publ_section_title
;
Structure prediction by ZEFSAII (Michael W. Deem and Ramdas Pophale) SiO2 
 PCOD9147935
Probable space group: P 2/M
;
_chemical_formula_sum "Si O2"
_cell_formula_units_Z 28
_cell_length_a 12.062265
_cell_length_b 15.258603
_cell_length_c 9.381517
_cell_angle_alpha 90.000000
_cell_angle_beta 126.179370
_cell_angle_gamma 90.000000
_cell_volume 1393.744893
_symmetry_space_group_name_H-M "P 2/M"
_symmetry_group_IT_number 10
_symmetry_cell_setting 'monoclinic'
loop_
_space_group_symop_operation_xyz
x,y,z
-x,y,-z
-x,-y,-z
x,-y,z
loop_
_atom_site_type_symbol
_atom_site_label
_atom_site_fract_x
_atom_site_fract_y
_atom_site_fract_z
Si Si1 0.903537 0.593507 0.683314
Si Si2 0.563857 0.763528 0.392894
Si Si3 0.835474 0.792695 0.041922
Si Si4 0.413027 0.897862 0.077772
Si Si5 0.780894 0.599073 0.088517
Si Si6 0.642219 0.597586 0.281903
Si Si7 0.856412 0.221506 0.735297
O O1 0.888023 0.500000 0.745931
O O2 0.790167 0.598643 0.474110
O O3 0.874497 0.673358 0.765696
O O4 0.058076 0.597812 0.741564
O O5 0.500000 0.745043 0.500000
O O6 0.484391 0.841268 0.255418
O O7 0.560230 0.676578 0.291887
O O8 0.723013 0.790626 0.537788
O O9 0.780052 0.692223 0.007037
O O10 0.993638 0.802491 0.210372
O O11 0.735514 0.854351 0.053769
O O12 0.834163 0.818193 0.874018
O O13 0.403466 0.000000 0.107240
O O14 0.500000 0.888648 0.000000
O O15 0.758804 0.500000 0.009597
O O16 0.677274 0.607998 0.142552
O O17 0.582857 0.500000 0.259975
#
# Coordination Sequence:
#
# PCOD9147935 Si02
#       7
#     4   4   4   4   4   4   4
#     4   8  14  25  45  74 113 155 196 239 281 332
#     4  11  21  39  62  88 118 157 200 243 287 352
#     4  10  19  37  58  85 123 156 193 246 292 345
#     4  11  25  45  67  89 116 152 191 238 302 365
#     4   9  16  27  48  79 114 158 200 237 282 339
#     4   9  17  29  48  78 116 156 199 239 285 338
#     4   9  19  34  57  88 119 151 199 244 290 343
#
# _framework density 20.089759999999998
#
# number of rings (size 3 to 8) (size 9 to 14) (size 15 to 20)
#    0.000    2.429    1.429    1.286    0.000    2.857 
#    0.000    7.857    0.000    4.286    0.000    0.000 
#    0.000    0.000    0.000    0.000    0.000    0.000 
#
# Total GULP energy -156109.009727 kJ/mol
# GULP energy per Si atom -5575.321776 kJ/mol
# Density = 2.004403 g / cm^3
# Si number density = 20.089760 Si / 1000 Ang^3
#
#
#
# Elastic Constant Matrix: (Units=GPa)
#
#
# Indices 1 2 3 4 5 6 
#
# 1 109.9621 61.9622 28.7918 0.0000 11.7758 0.0000
# 2 61.9622 99.4197 17.1032 0.0000 -2.7844 0.0000
# 3 28.7918 17.1032 34.4365 0.0000 10.7083 0.0000
# 4 0.0000 0.0000 0.0000 22.1985 0.0000 0.0291
# 5 11.7758 -2.7844 10.7083 0.0000 33.6568 0.0000
# 6 0.0000 0.0000 0.0000 0.0291 0.0000 1.0292
#
#
#
# Elastic Compliance Matrix: (Units=1/GPa)
#
#
# Indices 1 2 3 4 5 6 
#
# 1 0.016887 -0.009211 -0.008290 0.000000 -0.004033 0.000000
# 2 -0.009211 0.016291 -0.002010 0.000000 0.005210 0.000000
# 3 -0.008290 -0.002010 0.040084 0.000000 -0.010019 0.000000
# 4 0.000000 0.000000 0.000000 0.045050 0.000000 -0.001274
# 5 -0.004033 0.005210 -0.010019 0.000000 0.034741 0.000000
# 6 0.000000 0.000000 0.000000 -0.001274 0.000000 0.971677
#
#
# Mechanical properties :
#
#
# Convention : Reuss Voigt Hill
#
# Bulk Modulus (GPa) = 29.20596 51.05918 40.13257
# Shear Modulus (GPa) = 4.25472 20.44097 12.34785
#
# Velocity S-wave (km/s) = 1.45686 3.19326 2.48187
# Velocity P-wave (km/s) = 4.17124 6.25033 5.31346
#
# Compressibility (1/GPa) = 0.03423958
#
# Stress axis : x y z
#
# Youngs Moduli (GPa) = 59.21686 61.38381 24.94785
#
# Poissons Ratio (x) = 0.56544 0.20682
# Poissons Ratio (y) = 0.54548 0.05013
# Poissons Ratio (z) = 0.49091 0.12335
#
# Static dielectric constant tensor:
#      x y z
#    x 1.727790 0.000000 0.041110 
#    y 0.000000 1.709520 0.000000 
#    z 0.041110 0.000000 1.729970 
# 
# From -- ./inp_files/25393.got.cif
#   From: 2010.05.17/outbox.cif.g08.bks.cpg/sg10_13_cif.got.tgz:25393.got - 2010.06.03 11:33:40.
