data_PCOD9147545
_publ_section_title
;
Structure prediction by ZEFSAII (Michael W. Deem and Ramdas Pophale) SiO2 
 PCOD9147545
Probable space group: P 2/M
;
_chemical_formula_sum "Si O2"
_cell_formula_units_Z 32
_cell_length_a 11.441174
_cell_length_b 13.503943
_cell_length_c 16.876130
_cell_angle_alpha 90.000000
_cell_angle_beta 147.120222
_cell_angle_gamma 90.000000
_cell_volume 1415.488533
_symmetry_space_group_name_H-M "P 2/M"
_symmetry_group_IT_number 10
_symmetry_cell_setting 'monoclinic'
loop_
_space_group_symop_operation_xyz
x,y,z
-x,y,-z
-x,-y,-z
x,-y,z
loop_
_atom_site_type_symbol
_atom_site_label
_atom_site_fract_x
_atom_site_fract_y
_atom_site_fract_z
Si Si1 0.000569 0.816624 0.869648
Si Si2 0.756159 0.189453 0.137174
Si Si3 0.678775 0.397335 0.032617
Si Si4 0.577958 0.388503 0.278724
Si Si5 0.798969 0.195741 0.341979
Si Si6 0.815903 0.613073 0.827723
Si Si7 0.400897 0.116200 0.190398
Si Si8 0.457766 0.888557 0.389936
O O1 0.105819 0.866186 0.849872
O O2 0.887207 0.706603 0.814187
O O3 0.797483 0.886409 0.769308
O O4 0.189416 0.824847 0.042744
O O5 0.788809 0.295751 0.113547
O O6 0.846243 0.200183 0.275992
O O7 0.500000 0.168253 0.000000
O O8 0.804373 0.500000 0.108599
O O9 0.500000 0.400930 0.000000
O O10 0.568531 0.390893 0.884503
O O11 0.670139 0.500000 0.340006
O O12 0.745602 0.301938 0.352947
O O13 0.413026 0.371020 0.257566
O O14 0.579518 0.135008 0.225678
O O15 0.000000 0.148563 0.500000
O O16 0.808174 0.500000 0.789250
O O17 0.000000 0.609611 0.000000
O O18 0.522693 0.150939 0.340556
O O19 0.353206 0.000000 0.169344
O O20 0.500000 0.840178 0.500000
O O21 0.546714 0.000000 0.446196
#
# Coordination Sequence:
#
# PCOD9147545 Si02
#       8
#     4   4   4   4   4   4   4   4
#     4  12  22  39  68  94 128 162 208 262 316 370
#     4  11  21  38  57  90 121 157 210 252 305 380
#     4   9  15  27  52  79 113 155 197 250 297 345
#     4  10  19  35  58  88 124 164 208 254 308 373
#     4  12  25  40  61  88 125 167 212 260 316 375
#     4  10  20  33  57  94 127 159 203 256 312 368
#     4  11  24  44  67  93 124 162 211 263 317 378
#     4  10  23  42  66  96 125 159 207 260 319 381
#
# _framework density 22.607035
#
# number of rings (size 3 to 8) (size 9 to 14) (size 15 to 20)
#    0.000    1.375    3.750    3.750    1.750    3.000 
#    0.000    1.875    0.000    0.375    0.000    0.000 
#    0.000    0.000    0.000    0.000    0.000    0.000 
#
# Total GULP energy -178240.048164 kJ/mol
# GULP energy per Si atom -5570.001505 kJ/mol
# Density = 2.255558 g / cm^3
# Si number density = 22.607035 Si / 1000 Ang^3
#
#
#
# Elastic Constant Matrix: (Units=GPa)
#
#
# Indices 1 2 3 4 5 6 
#
# 1 133.4274 9.2520 3.8000 0.0000 1.8160 0.0000
# 2 9.2520 83.7837 -1.5123 0.0000 3.2423 0.0000
# 3 3.8000 -1.5123 45.1383 0.0000 7.9445 0.0000
# 4 0.0000 0.0000 0.0000 -1.5467 0.0000 -21.9813
# 5 1.8160 3.2423 7.9445 0.0000 -12.6981 0.0000
# 6 0.0000 0.0000 0.0000 -21.9813 0.0000 -8.9963
#
#
#
# Elastic Compliance Matrix: (Units=1/GPa)
#
#
# Indices 1 2 3 4 5 6 
#
# 1 0.007570 -0.000865 -0.000737 0.000000 0.000401 0.000000
# 2 -0.000865 0.011918 -0.000038 0.000000 0.002896 0.000000
# 3 -0.000737 -0.000038 0.020030 0.000000 0.012416 0.000000
# 4 0.000000 0.000000 0.000000 0.019171 0.000000 -0.046842
# 5 0.000401 0.002896 0.012416 0.000000 -0.070187 0.000000
# 6 0.000000 0.000000 0.000000 -0.046842 0.000000 0.003296
#
#
# Mechanical properties :
#
#
# Convention : Reuss Voigt Hill
#
# Bulk Modulus (GPa) = 27.59409 31.71432 29.65420
# Shear Modulus (GPa) = 698.66283 12.07242 355.36762
#
# Velocity S-wave (km/s) = 17.59879 2.31338 12.55128
# Velocity P-wave (km/s) = 20.62012 4.60376 14.93961
#
# Compressibility (1/GPa) = 0.03623964
#
# Stress axis : x y z
#
# Youngs Moduli (GPa) = 132.09677 83.90504 49.92616
#
# Poissons Ratio (x) = 0.07256 0.03679
# Poissons Ratio (y) = 0.11423 0.00188
# Poissons Ratio (z) = 0.09733 0.00316
#
# Static dielectric constant tensor:
#      x y z
#    x 1.356280 0.000000 0.003480 
#    y 0.000000 1.892680 0.000000 
#    z 0.003480 0.000000 1.787600 
# 
# From -- ./inp_files/77038.got.cif
#   From: 2010.05.17/outbox.cif.g08.bks.cpg/sg10_39_cif.got.tgz:77038.got - 2010.06.03 11:33:40.
