data_PCOD9147351
_publ_section_title
;
Structure prediction by ZEFSAII (Michael W. Deem and Ramdas Pophale) SiO2 
 PCOD9147351
Probable space group: P 2/M
;
_chemical_formula_sum "Si O2"
_cell_formula_units_Z 32
_cell_length_a 29.960262
_cell_length_b 14.403787
_cell_length_c 10.014310
_cell_angle_alpha 90.000000
_cell_angle_beta 28.199920
_cell_angle_gamma 90.000000
_cell_volume 2042.164245
_symmetry_space_group_name_H-M "P 2/M"
_symmetry_group_IT_number 10
_symmetry_cell_setting 'monoclinic'
loop_
_space_group_symop_operation_xyz
x,y,z
-x,y,-z
-x,-y,-z
x,-y,z
loop_
_atom_site_type_symbol
_atom_site_label
_atom_site_fract_x
_atom_site_fract_y
_atom_site_fract_z
Si Si1 0.085539 0.389466 0.489778
Si Si2 0.628518 0.388063 0.036798
Si Si3 0.577863 0.611858 0.479439
Si Si4 0.888307 0.294624 0.019557
Si Si5 0.760493 0.611305 0.147561
Si Si6 0.826946 0.296430 0.479404
Si Si7 0.093330 0.105437 0.660629
Si Si8 0.031849 0.105788 0.263386
O O1 0.071465 0.500000 0.533823
O O2 0.165782 0.370918 0.167660
O O3 0.122031 0.350972 0.534978
O O4 0.987139 0.340473 0.713492
O O5 0.641183 0.500000 0.989047
O O6 0.531101 0.358979 0.221349
O O7 0.612249 0.369336 0.237537
O O8 0.721049 0.334433 0.747810
O O9 0.576208 0.500000 0.493763
O O10 0.657152 0.644693 0.373399
O O11 0.878314 0.310847 0.203209
O O12 0.802777 0.340416 0.165510
O O13 0.895607 0.185590 0.968442
O O14 0.757575 0.500000 0.175056
O O15 0.835719 0.187433 0.490858
O O16 0.055534 0.116346 0.609026
O O17 0.127934 0.000000 0.588090
O O18 0.000000 0.116440 0.000000
O O19 0.000000 0.117744 0.500000
O O20 0.066898 0.000000 0.153684
#
# Coordination Sequence:
#
# PCOD9147351 Si02
#       8
#     4   4   4   4   4   4   4   4
#     4  11  21  33  47  67 100 139 173 200 235 296
#     4   9  17  30  52  76  98 123 168 220 253 294
#     4   8  15  32  53  72  92 126 172 219 258 285
#     4  12  23  32  45  71 107 138 162 198 251 304
#     4  10  20  34  50  69  96 134 174 206 245 296
#     4  12  21  32  48  76 100 132 169 203 252 298
#     4  10  19  35  53  71 101 135 167 206 247 295
#     4  10  20  34  52  72  95 129 172 212 245 283
#
# _framework density 15.669650000000001
#
# number of rings (size 3 to 8) (size 9 to 14) (size 15 to 20)
#    0.000    1.750    3.750    3.000    0.000    3.500 
#    0.000    0.625    0.000    2.250    0.000    2.625 
#    0.000    2.000    0.000    0.000    0.000    0.000 
#
# Total GULP energy -178497.612864 kJ/mol
# GULP energy per Si atom -5578.050402 kJ/mol
# Density = 1.563399 g / cm^3
# Si number density = 15.669650 Si / 1000 Ang^3
#
#
#
# Elastic Constant Matrix: (Units=GPa)
#
#
# Indices 1 2 3 4 5 6 
#
# 1 77.9082 22.7993 9.7648 0.0000 -7.2541 0.0000
# 2 22.7993 63.0950 26.9017 0.0000 -6.2471 0.0000
# 3 9.7648 26.9017 41.3484 0.0000 -13.8395 0.0000
# 4 0.0000 0.0000 0.0000 -0.3417 0.0000 11.6456
# 5 -7.2541 -6.2471 -13.8395 0.0000 30.6111 0.0000
# 6 0.0000 0.0000 0.0000 11.6456 0.0000 13.8075
#
#
#
# Elastic Compliance Matrix: (Units=1/GPa)
#
#
# Indices 1 2 3 4 5 6 
#
# 1 0.014554 -0.005420 0.001029 0.000000 0.002808 0.000000
# 2 -0.005420 0.024093 -0.015530 0.000000 -0.003388 0.000000
# 3 0.001029 -0.015530 0.038962 0.000000 0.014690 0.000000
# 4 0.000000 0.000000 0.000000 -0.098387 0.000000 0.082982
# 5 0.002808 -0.003388 0.014690 0.000000 0.039283 0.000000
# 6 0.000000 0.000000 0.000000 0.082982 0.000000 0.002435
#
#
# Mechanical properties :
#
#
# Convention : Reuss Voigt Hill
#
# Bulk Modulus (GPa) = 26.47688 33.47591 29.97640
# Shear Modulus (GPa) = 68.14595 17.00774 42.57685
#
# Velocity S-wave (km/s) = 6.60178 3.29811 5.21829
# Velocity P-wave (km/s) = 8.66285 5.99277 7.44843
#
# Compressibility (1/GPa) = 0.03776880
#
# Stress axis : x y z
#
# Youngs Moduli (GPa) = 68.70874 41.50508 25.66595
#
# Poissons Ratio (x) = 0.22495 -0.02641
# Poissons Ratio (y) = 0.37239 0.39858
# Poissons Ratio (z) = -0.07070 0.64456
#
# Static dielectric constant tensor:
#      x y z
#    x 1.540830 0.000000 0.002710 
#    y 0.000000 1.522670 0.000000 
#    z 0.002710 0.000000 1.515640 
# 
# From -- ./inp_files/37722.got.cif
#   From: 2010.05.17/outbox.cif.g08.bks.cpg/sg10_19_cif.got.tgz:37722.got - 2010.06.03 11:33:40.
