data_PCOD9147794
_publ_section_title
;
Structure prediction by ZEFSAII (Michael W. Deem and Ramdas Pophale) SiO2 
 PCOD9147794
Probable space group: P 2/M
;
_chemical_formula_sum "Si O2"
_cell_formula_units_Z 28
_cell_length_a 8.330535
_cell_length_b 7.635753
_cell_length_c 24.877073
_cell_angle_alpha 90.000000
_cell_angle_beta 43.265507
_cell_angle_gamma 90.000000
_cell_volume 1084.564873
_symmetry_space_group_name_H-M "P 2/M"
_symmetry_group_IT_number 10
_symmetry_cell_setting 'monoclinic'
loop_
_space_group_symop_operation_xyz
x,y,z
-x,y,-z
-x,-y,-z
x,-y,z
loop_
_atom_site_type_symbol
_atom_site_label
_atom_site_fract_x
_atom_site_fract_y
_atom_site_fract_z
Si Si1 0.063133 0.284017 0.667095
Si Si2 0.295154 0.800363 0.382796
Si Si3 0.215997 0.697586 0.519591
Si Si4 0.812581 0.706673 0.245209
Si Si5 0.544621 0.203635 0.048676
Si Si6 0.949063 0.713602 0.098896
Si Si7 0.442265 0.702245 0.188921
O O1 0.066199 0.500000 0.665323
O O2 0.224603 0.229159 0.577861
O O3 0.793213 0.224077 0.727659
O O4 0.139774 0.222196 0.707205
O O5 0.065398 0.693804 0.422592
O O6 0.538271 0.734109 0.299923
O O7 0.314479 0.790962 0.443145
O O8 0.252400 0.000000 0.378155
O O9 0.310986 0.500000 0.495162
O O10 0.856085 0.500000 0.237477
O O11 0.960307 0.772066 0.158600
O O12 0.418859 0.290609 0.129901
O O13 0.479282 0.000000 0.064568
O O14 0.500000 0.279201 0.000000
O O15 0.824563 0.221681 0.987377
O O16 0.953090 0.500000 0.094738
O O17 0.696199 0.778096 0.140427
O O18 0.452112 0.500000 0.203218
#
# Coordination Sequence:
#
# PCOD9147794 Si02
#       7
#     4   4   4   4   4   4   4
#     4   9  19  35  59  86 109 138 182 232 276 323
#     4  11  22  36  54  81 114 148 185 225 274 329
#     4  10  19  36  60  83 108 143 187 232 275 322
#     4  10  20  37  59  83 110 143 183 226 275 327
#     4  11  24  39  55  80 115 151 185 222 270 328
#     4  10  21  37  61  87 110 141 184 231 275 324
#     4  10  20  37  60  86 111 139 182 230 275 324
#
# _framework density 25.816803
#
# number of rings (size 3 to 8) (size 9 to 14) (size 15 to 20)
#    0.000    1.857    0.000    5.143    0.000    8.000 
#    0.000    7.857    0.000    0.000    0.000    0.000 
#    0.000    0.000    0.000    0.000    0.000    0.000 
#
# Total GULP energy -156733.165705 kJ/mol
# GULP energy per Si atom -5597.613061 kJ/mol
# Density = 2.575804 g / cm^3
# Si number density = 25.816803 Si / 1000 Ang^3
#
#
#
# Elastic Constant Matrix: (Units=GPa)
#
#
# Indices 1 2 3 4 5 6 
#
# 1 76.2355 4.7245 8.5951 0.0000 4.9051 0.0000
# 2 4.7245 68.5082 -1.9581 0.0000 10.5420 0.0000
# 3 8.5951 -1.9581 137.9737 0.0000 10.2051 0.0000
# 4 0.0000 0.0000 0.0000 22.2439 0.0000 -7.9240
# 5 4.9051 10.5420 10.2051 0.0000 47.0772 0.0000
# 6 0.0000 0.0000 0.0000 -7.9240 0.0000 -10.6009
#
#
#
# Elastic Compliance Matrix: (Units=1/GPa)
#
#
# Indices 1 2 3 4 5 6 
#
# 1 0.013319 -0.000779 -0.000763 0.000000 -0.001048 0.000000
# 2 -0.000779 0.015194 0.000518 0.000000 -0.003433 0.000000
# 3 -0.000763 0.000518 0.007424 0.000000 -0.001646 0.000000
# 4 0.000000 0.000000 0.000000 0.035502 0.000000 -0.026538
# 5 -0.001048 -0.003433 -0.001646 0.000000 0.022477 0.000000
# 6 0.000000 0.000000 0.000000 -0.026538 0.000000 -0.074495
#
#
# Mechanical properties :
#
#
# Convention : Reuss Voigt Hill
#
# Bulk Modulus (GPa) = 29.50844 33.93781 31.72312
# Shear Modulus (GPa) = 152.59880 29.83443 91.21662
#
# Velocity S-wave (km/s) = 7.69653 3.40313 5.95054
# Velocity P-wave (km/s) = 9.50983 5.34938 7.71534
#
# Compressibility (1/GPa) = 0.03388861
#
# Stress axis : x y z
#
# Youngs Moduli (GPa) = 75.08069 65.81687 134.69102
#
# Poissons Ratio (x) = 0.05128 0.10280
# Poissons Ratio (y) = 0.05849 -0.06979
# Poissons Ratio (z) = 0.05731 -0.03410
#
# Static dielectric constant tensor:
#      x y z
#    x 2.135360 0.000000 0.020980 
#    y 0.000000 1.939540 0.000000 
#    z 0.020980 0.000000 1.961240 
# 
# From -- ./inp_files/91964.got.cif
#   From: 2010.05.17/outbox.cif.g08.bks.cpg/sg10_46_cif.got.tgz:91964.got - 2010.06.03 11:33:40.
