data_PCOD9147505
_publ_section_title
;
Structure prediction by ZEFSAII (Michael W. Deem and Ramdas Pophale) SiO2 
 PCOD9147505
Probable space group: P 2/M
;
_chemical_formula_sum "Si O2"
_cell_formula_units_Z 28
_cell_length_a 9.040700
_cell_length_b 7.801850
_cell_length_c 30.530118
_cell_angle_alpha 90.000000
_cell_angle_beta 137.805589
_cell_angle_gamma 90.000000
_cell_volume 1446.338917
_symmetry_space_group_name_H-M "P 2/M"
_symmetry_group_IT_number 10
_symmetry_cell_setting 'monoclinic'
loop_
_space_group_symop_operation_xyz
x,y,z
-x,y,-z
-x,-y,-z
x,-y,z
loop_
_atom_site_type_symbol
_atom_site_label
_atom_site_fract_x
_atom_site_fract_y
_atom_site_fract_z
Si Si1 0.069793 0.700668 0.800411
Si Si2 0.424056 0.207219 0.806140
Si Si3 0.993925 0.500000 0.425582
Si Si4 0.406729 0.808945 0.332848
Si Si5 0.738068 0.703648 0.066165
Si Si6 0.078334 0.207672 0.065197
Si Si7 0.633644 0.500000 0.425570
Si Si8 0.251479 0.799572 0.671826
O O1 0.014242 0.500000 0.794174
O O2 0.258643 0.719425 0.805686
O O3 0.162588 0.772358 0.866636
O O4 0.847579 0.789525 0.735530
O O5 0.673636 0.264613 0.869781
O O6 0.343204 0.249460 0.739575
O O7 0.419989 0.000000 0.808939
O O8 0.818978 0.500000 0.427659
O O9 0.936337 0.669035 0.385055
O O10 0.233093 0.500000 0.500027
O O11 0.485714 0.666361 0.384247
O O12 0.551084 0.785375 0.320294
O O13 0.450812 0.000000 0.359136
O O14 0.708096 0.500000 0.066891
O O15 0.909928 0.731085 0.065040
O O16 0.500000 0.775239 0.000000
O O17 0.076713 0.000000 0.065350
O O18 0.000000 0.264318 0.000000
O O19 0.183087 0.000000 0.657655
#
# Coordination Sequence:
#
# PCOD9147505 Si02
#       8
#     4   4   2   4   4   4   2   4
#     4  11  22  35  54  81 110 146 194 236 280 340
#     4  10  21  36  53  79 111 143 188 237 282 338
#     4   9  18  32  57  83 120 149 178 233 279 325
#     4  10  19  35  58  82 115 151 184 234 286 330
#     4  10  22  38  55  79 113 148 186 234 283 337
#     4  10  21  37  57  81 110 145 189 237 282 336
#     4   9  18  34  53  89 118 145 188 225 273 347
#     4   9  19  34  55  83 112 148 190 229 282 341
#
# _framework density 19.359226
#
# number of rings (size 3 to 8) (size 9 to 14) (size 15 to 20)
#    0.000    2.143    0.714    2.143    1.000    4.000 
#    0.000    2.857    0.000    1.714    0.000    3.000 
#    0.000    0.000    0.000    0.000    0.000    0.000 
#
# Total GULP energy -156383.647754 kJ/mol
# GULP energy per Si atom -5585.130277 kJ/mol
# Density = 1.931516 g / cm^3
# Si number density = 19.359226 Si / 1000 Ang^3
#
#
#
# Elastic Constant Matrix: (Units=GPa)
#
#
# Indices 1 2 3 4 5 6 
#
# 1 60.3368 20.1118 52.4888 0.0000 6.7673 0.0000
# 2 20.1118 63.8619 59.4906 0.0000 0.8575 0.0000
# 3 52.4888 59.4906 186.8536 0.0000 4.5933 0.0000
# 4 0.0000 0.0000 0.0000 -219.6457 0.0000 43.6732
# 5 6.7673 0.8575 4.5933 0.0000 23.1207 0.0000
# 6 0.0000 0.0000 0.0000 43.6732 0.0000 16.7482
#
#
#
# Elastic Compliance Matrix: (Units=1/GPa)
#
#
# Indices 1 2 3 4 5 6 
#
# 1 0.022723 -0.001793 -0.005678 0.000000 -0.005456 0.000000
# 2 -0.001793 0.022411 -0.006656 0.000000 0.001016 0.000000
# 3 -0.005678 -0.006656 0.009063 0.000000 0.000108 0.000000
# 4 0.000000 0.000000 0.000000 -0.002998 0.000000 0.007818
# 5 -0.005456 0.001016 0.000108 0.000000 0.044789 0.000000
# 6 0.000000 0.000000 0.000000 0.007818 0.000000 0.039321
#
#
# Mechanical properties :
#
#
# Convention : Reuss Voigt Hill
#
# Bulk Modulus (GPa) = 38.54841 63.91497 51.23169
# Shear Modulus (GPa) = 29.03420 -24.02462 2.50479
#
# Velocity S-wave (km/s) = 3.87688 -3.52659 1.13871
# Velocity P-wave (km/s) = 6.32421 4.06257 5.31508
#
# Compressibility (1/GPa) = 0.02594141
#
# Stress axis : x y z
#
# Youngs Moduli (GPa) = 44.00871 44.62166 110.33479
#
# Poissons Ratio (x) = 0.08003 0.62647
# Poissons Ratio (y) = 0.07893 0.73442
# Poissons Ratio (z) = 0.24988 0.29701
#
# Static dielectric constant tensor:
#      x y z
#    x 1.633720 0.000000 -0.003580 
#    y 0.000000 1.696700 0.000000 
#    z -0.003580 0.000000 1.654210 
# 
# From -- ./inp_files/37181.got.cif
#   From: 2010.05.17/outbox.cif.g08.bks.cpg/sg10_19_cif.got.tgz:37181.got - 2010.06.03 11:33:40.
