data_PCOD9147420
_publ_section_title
;
Structure prediction by ZEFSAII (Michael W. Deem and Ramdas Pophale) SiO2 
 PCOD9147420
Probable space group: P 2/M
;
_chemical_formula_sum "Si O2"
_cell_formula_units_Z 32
_cell_length_a 15.522593
_cell_length_b 7.664088
_cell_length_c 24.144314
_cell_angle_alpha 90.000000
_cell_angle_beta 149.758848
_cell_angle_gamma 90.000000
_cell_volume 1446.639543
_symmetry_space_group_name_H-M "P 2/M"
_symmetry_group_IT_number 10
_symmetry_cell_setting 'monoclinic'
loop_
_space_group_symop_operation_xyz
x,y,z
-x,y,-z
-x,-y,-z
x,-y,z
loop_
_atom_site_type_symbol
_atom_site_label
_atom_site_fract_x
_atom_site_fract_y
_atom_site_fract_z
Si Si1 0.939168 0.701755 0.214825
Si Si2 0.817458 0.786632 0.424238
Si Si3 0.569375 0.800989 0.981623
Si Si4 0.481809 0.288957 0.554814
Si Si5 0.148011 0.288000 0.228935
Si Si6 0.142814 0.800077 0.429615
Si Si7 0.517697 0.790655 0.828158
Si Si8 0.109015 0.710407 0.007351
O O1 0.902911 0.500000 0.181877
O O2 0.772008 0.803599 0.104115
O O3 0.094975 0.758896 0.261787
O O4 0.998324 0.716198 0.310774
O O5 0.821347 0.725485 0.489913
O O6 0.651746 0.726298 0.297716
O O7 0.000000 0.738114 0.500000
O O8 0.808176 0.000000 0.419308
O O9 0.500721 0.000000 0.942401
O O10 0.500000 0.716019 0.000000
O O11 0.532554 0.724226 0.900159
O O12 0.500000 0.247812 0.500000
O O13 0.463226 0.500000 0.548318
O O14 0.662065 0.231316 0.681217
O O15 0.319529 0.209598 0.494295
O O16 0.154099 0.500000 0.230246
O O17 0.999054 0.228180 0.105741
O O18 0.088679 0.000000 0.406682
O O19 0.692648 0.756250 0.891348
O O20 0.504842 0.000000 0.825081
O O21 0.103811 0.500000 0.005682
O O22 0.000000 0.771731 0.000000
#
# Coordination Sequence:
#
# PCOD9147420 Si02
#       8
#     4   4   4   4   4   4   4   4
#     4  11  21  38  61  85 118 155 194 238 293 358
#     4   9  21  41  63  83 113 160 202 241 296 357
#     4  10  22  38  61  92 119 147 190 244 298 352
#     4  10  19  35  56  79 112 155 194 231 287 354
#     4   9  18  34  54  78 112 153 192 230 283 348
#     4  11  23  37  58  88 118 151 201 251 290 340
#     4  10  21  39  62  89 119 152 195 246 297 348
#     4  10  21  37  58  84 116 159 200 236 286 351
#
# _framework density 22.120229999999999
#
# number of rings (size 3 to 8) (size 9 to 14) (size 15 to 20)
#    0.000    2.000    2.500    0.750    3.500    0.750 
#    0.000    1.250    0.000    1.875    0.000    0.000 
#    0.000    0.000    0.000    0.000    0.000    0.000 
#
# Total GULP energy -178640.877756 kJ/mol
# GULP energy per Si atom -5582.527430 kJ/mol
# Density = 2.206988 g / cm^3
# Si number density = 22.120230 Si / 1000 Ang^3
#
#
#
# Elastic Constant Matrix: (Units=GPa)
#
#
# Indices 1 2 3 4 5 6 
#
# 1 139.8859 1.8510 62.9834 0.0000 -24.8229 0.0000
# 2 1.8510 41.4610 -1.0625 0.0000 -6.6836 0.0000
# 3 62.9834 -1.0625 156.7819 0.0000 -21.0221 0.0000
# 4 0.0000 0.0000 0.0000 37.5738 0.0000 30.1396
# 5 -24.8229 -6.6836 -21.0221 0.0000 26.9355 0.0000
# 6 0.0000 0.0000 0.0000 30.1396 0.0000 42.2513
#
#
#
# Elastic Compliance Matrix: (Units=1/GPa)
#
#
# Indices 1 2 3 4 5 6 
#
# 1 0.009679 0.000577 -0.002981 0.000000 0.006736 0.000000
# 2 0.000577 0.025337 0.000954 0.000000 0.007564 0.000000
# 3 -0.002981 0.000954 0.008093 0.000000 0.003805 0.000000
# 4 0.000000 0.000000 0.000000 0.062212 0.000000 -0.044378
# 5 0.006736 0.007564 0.003805 0.000000 0.048180 0.000000
# 6 0.000000 0.000000 0.000000 -0.044378 0.000000 0.055325
#
#
# Mechanical properties :
#
#
# Convention : Reuss Voigt Hill
#
# Bulk Modulus (GPa) = 24.87020 51.74137 38.30578
# Shear Modulus (GPa) = 22.20961 39.64259 30.92610
#
# Velocity S-wave (km/s) = 3.17210 4.23796 3.74316
# Velocity P-wave (km/s) = 4.96829 6.88396 6.00303
#
# Compressibility (1/GPa) = 0.04020877
#
# Stress axis : x y z
#
# Youngs Moduli (GPa) = 103.32105 39.46796 123.57046
#
# Poissons Ratio (x) = -0.02279 0.36836
# Poissons Ratio (y) = -0.05966 -0.11788
# Poissons Ratio (z) = 0.30800 -0.03765
#
# Static dielectric constant tensor:
#      x y z
#    x 1.824170 0.000000 -0.014760 
#    y 0.000000 1.840400 0.000000 
#    z -0.014760 0.000000 1.799490 
# 
# From -- ./inp_files/89591.got.cif
#   From: 2010.05.17/outbox.cif.g08.bks.cpg/sg10_45_cif.got.tgz:89591.got - 2010.06.03 11:33:40.
