data_PCOD9147735
_publ_section_title
;
Structure prediction by ZEFSAII (Michael W. Deem and Ramdas Pophale) SiO2 
 PCOD9147735
Probable space group: P 2/M
;
_chemical_formula_sum "Si O2"
_cell_formula_units_Z 28
_cell_length_a 27.634072
_cell_length_b 9.530928
_cell_length_c 9.478944
_cell_angle_alpha 90.000000
_cell_angle_beta 141.228332
_cell_angle_gamma 90.000000
_cell_volume 1563.384599
_symmetry_space_group_name_H-M "P 2/M"
_symmetry_group_IT_number 10
_symmetry_cell_setting 'monoclinic'
loop_
_space_group_symop_operation_xyz
x,y,z
-x,y,-z
-x,-y,-z
x,-y,z
loop_
_atom_site_type_symbol
_atom_site_label
_atom_site_fract_x
_atom_site_fract_y
_atom_site_fract_z
Si Si1 0.430799 0.842502 0.232796
Si Si2 0.563490 0.662646 0.021447
Si Si3 0.918871 0.166217 0.379549
Si Si4 0.774103 0.833609 0.839448
Si Si5 0.254377 0.667326 0.504411
Si Si6 0.311587 0.341588 0.133219
Si Si7 0.833671 0.342475 0.406297
O O1 0.500000 0.852002 0.500000
O O2 0.370475 0.738257 0.167109
O O3 0.399282 0.000000 0.138361
O O4 0.456557 0.771381 0.146571
O O5 0.561575 0.500000 0.966518
O O6 0.652975 0.690182 0.268491
O O7 0.500000 0.674830 0.000000
O O8 0.895173 0.242467 0.470613
O O9 0.000000 0.216345 0.500000
O O10 0.924535 0.000000 0.419518
O O11 0.851975 0.185246 0.109329
O O12 0.777463 0.759722 0.695902
O O13 0.707464 0.752777 0.774941
O O14 0.759108 0.000000 0.794774
O O15 0.244461 0.500000 0.455422
O O16 0.208029 0.701765 0.543166
O O17 0.336084 0.500000 0.226517
O O18 0.234404 0.351191 0.864153
O O19 0.865004 0.500000 0.498406
#
# Coordination Sequence:
#
# PCOD9147735 Si02
#       7
#     4   4   4   4   4   4   4
#     4  11  24  38  53  79 112 142 181 233 285 332
#     4  10  22  40  59  80 107 148 196 234 276 330
#     4   9  19  37  59  83 113 146 182 223 268 327
#     4  10  21  35  55  85 114 143 183 226 276 330
#     4  10  20  37  56  81 114 147 187 232 274 330
#     4  10  19  36  58  78 103 142 187 230 273 324
#     4   9  18  34  57  82 108 139 182 227 269 323
#
# _framework density 17.909860999999999
#
# number of rings (size 3 to 8) (size 9 to 14) (size 15 to 20)
#    0.000    2.143    1.429    1.286    2.000    4.000 
#    0.000    0.714    0.000    4.286    0.000    0.000 
#    0.000    0.000    0.000    0.000    0.000    0.000 
#
# Total GULP energy -156118.621494 kJ/mol
# GULP energy per Si atom -5575.665053 kJ/mol
# Density = 1.786910 g / cm^3
# Si number density = 17.909861 Si / 1000 Ang^3
#
#
#
# Elastic Constant Matrix: (Units=GPa)
#
#
# Indices 1 2 3 4 5 6 
#
# 1 145.0902 78.0922 30.3871 0.0000 -10.5282 0.0000
# 2 78.0922 111.8860 41.6935 0.0000 -10.1237 0.0000
# 3 30.3871 41.6935 25.0396 0.0000 -13.4114 0.0000
# 4 0.0000 0.0000 0.0000 27.7693 0.0000 -13.5625
# 5 -10.5282 -10.1237 -13.4114 0.0000 30.7888 0.0000
# 6 0.0000 0.0000 0.0000 -13.5625 0.0000 47.4821
#
#
#
# Elastic Compliance Matrix: (Units=1/GPa)
#
#
# Indices 1 2 3 4 5 6 
#
# 1 0.011089 -0.007523 -0.000294 0.000000 0.001190 0.000000
# 2 -0.007523 0.032766 -0.053525 0.000000 -0.015114 0.000000
# 3 -0.000294 -0.053525 0.156436 0.000000 0.050442 0.000000
# 4 0.000000 0.000000 0.000000 0.041849 0.000000 0.011954
# 5 0.001190 -0.015114 0.050442 0.000000 0.049889 0.000000
# 6 0.000000 0.000000 0.000000 0.011954 0.000000 0.024475
#
#
# Mechanical properties :
#
#
# Convention : Reuss Voigt Hill
#
# Bulk Modulus (GPa) = 12.88533 64.70682 38.79607
# Shear Modulus (GPa) = 10.75137 29.99758 20.37448
#
# Velocity S-wave (km/s) = 2.45277 4.09702 3.37651
# Velocity P-wave (km/s) = 3.90277 7.65430 6.07536
#
# Compressibility (1/GPa) = 0.07760767
#
# Stress axis : x y z
#
# Youngs Moduli (GPa) = 90.17898 30.51908 6.39240
#
# Poissons Ratio (x) = 0.22958 0.00188
# Poissons Ratio (y) = 0.67837 0.34216
# Poissons Ratio (z) = 0.02650 1.63354
#
# Static dielectric constant tensor:
#      x y z
#    x 1.627060 0.000000 -0.003050 
#    y 0.000000 1.625370 0.000000 
#    z -0.003050 0.000000 1.618730 
# 
# From -- ./inp_files/37039.got.cif
#   From: 2010.05.17/outbox.cif.g08.bks.cpg/sg10_19_cif.got.tgz:37039.got - 2010.06.03 11:33:40.
