data_PCOD9147148
_publ_section_title
;
Structure prediction by ZEFSAII (Michael W. Deem and Ramdas Pophale) SiO2 
 PCOD9147148
Probable space group: P 2/M
;
_chemical_formula_sum "Si O2"
_cell_formula_units_Z 20
_cell_length_a 22.189214
_cell_length_b 7.609223
_cell_length_c 13.819288
_cell_angle_alpha 90.000000
_cell_angle_beta 158.227296
_cell_angle_gamma 90.000000
_cell_volume 865.475025
_symmetry_space_group_name_H-M "P 2/M"
_symmetry_group_IT_number 10
_symmetry_cell_setting 'monoclinic'
loop_
_space_group_symop_operation_xyz
x,y,z
-x,y,-z
-x,-y,-z
x,-y,z
loop_
_atom_site_type_symbol
_atom_site_label
_atom_site_fract_x
_atom_site_fract_y
_atom_site_fract_z
Si Si1 0.232240 0.204304 0.885975
Si Si2 0.930353 0.698621 0.552689
Si Si3 0.547020 0.785356 0.464281
Si Si4 0.814486 0.215464 0.722918
Si Si5 0.655705 0.203163 0.289237
O O1 0.164946 0.300281 0.691764
O O2 0.102761 0.218009 0.780627
O O3 0.243758 0.000000 0.875157
O O4 0.405157 0.268451 0.179422
O O5 0.957680 0.500000 0.625723
O O6 0.813518 0.789913 0.455477
O O7 0.500000 0.722156 0.500000
O O8 0.719062 0.732849 0.677346
O O9 0.543710 0.000000 0.461831
O O10 0.713195 0.277175 0.478006
O O11 0.816862 0.000000 0.722407
O O12 0.000000 0.274600 0.000000
O O13 0.610995 0.000000 0.242178
O O14 0.500000 0.281223 0.000000
#
# Coordination Sequence:
#
# PCOD9147148 Si02
#       5
#     4   4   4   4   4
#     4  10  19  34  57  83 112 145 188 235 286 335
#     4  11  22  35  54  81 114 149 188 234 287 340
#     4   9  18  31  52  84 116 143 179 232 285 338
#     4   9  18  31  51  82 118 147 178 229 289 340
#     4  10  20  35  57  83 111 146 192 238 286 340
#
# _framework density 23.108699000000001
#
# number of rings (size 3 to 8) (size 9 to 14) (size 15 to 20)
#    0.000    2.200    0.000    4.800    2.800    3.600 
#    0.000    0.000    0.000    3.000    0.000    0.000 
#    0.000    0.000    0.000    0.000    0.000    0.000 
#
# Total GULP energy -111764.861823 kJ/mol
# GULP energy per Si atom -5588.243091 kJ/mol
# Density = 2.305610 g / cm^3
# Si number density = 23.108699 Si / 1000 Ang^3
#
#
#
# Elastic Constant Matrix: (Units=GPa)
#
#
# Indices 1 2 3 4 5 6 
#
# 1 143.3020 -11.9434 57.8770 0.0000 20.7477 0.0000
# 2 -11.9434 57.9426 0.9667 0.0000 -6.6371 0.0000
# 3 57.8770 0.9667 115.7264 0.0000 19.9533 0.0000
# 4 0.0000 0.0000 0.0000 3.8128 0.0000 -16.0419
# 5 20.7477 -6.6371 19.9533 0.0000 32.4050 0.0000
# 6 0.0000 0.0000 0.0000 -16.0419 0.0000 -11.0788
#
#
#
# Elastic Compliance Matrix: (Units=1/GPa)
#
#
# Indices 1 2 3 4 5 6 
#
# 1 0.009207 0.001617 -0.004093 0.000000 -0.003043 0.000000
# 2 0.001617 0.018035 -0.001586 0.000000 0.003635 0.000000
# 3 -0.004093 -0.001586 0.011530 0.000000 -0.004803 0.000000
# 4 0.000000 0.000000 0.000000 0.036980 0.000000 -0.053547
# 5 -0.003043 0.003635 -0.004803 0.000000 0.036510 0.000000
# 6 0.000000 0.000000 0.000000 -0.053547 0.000000 -0.012727
#
#
# Mechanical properties :
#
#
# Convention : Reuss Voigt Hill
#
# Bulk Modulus (GPa) = 32.62974 45.64129 39.13552
# Shear Modulus (GPa) = 42.41786 23.03251 32.72519
#
# Velocity S-wave (km/s) = 4.28901 3.16049 3.76725
# Velocity P-wave (km/s) = 6.21919 5.75429 5.99125
#
# Compressibility (1/GPa) = 0.03064688
#
# Stress axis : x y z
#
# Youngs Moduli (GPa) = 108.61420 55.44865 86.73251
#
# Poissons Ratio (x) = -0.08969 0.35503
# Poissons Ratio (y) = -0.17568 0.13759
# Poissons Ratio (z) = 0.44460 0.08796
#
# Static dielectric constant tensor:
#      x y z
#    x 1.852430 0.000000 -0.002920 
#    y 0.000000 1.834340 0.000000 
#    z -0.002920 0.000000 1.844110 
# 
# From -- ./inp_files/63068.got.cif
#   From: 2010.05.17/outbox.cif.g08.bks.cpg/sg10_32_cif.got.tgz:63068.got - 2010.06.03 11:33:40.
