data_PCOD9147263
_publ_section_title
;
Structure prediction by ZEFSAII (Michael W. Deem and Ramdas Pophale) SiO2 
 PCOD9147263
Probable space group: P 2/M
;
_chemical_formula_sum "Si O2"
_cell_formula_units_Z 24
_cell_length_a 10.932498
_cell_length_b 19.661483
_cell_length_c 7.615353
_cell_angle_alpha 90.000000
_cell_angle_beta 45.846793
_cell_angle_gamma 90.000000
_cell_volume 1174.452235
_symmetry_space_group_name_H-M "P 2/M"
_symmetry_group_IT_number 10
_symmetry_cell_setting 'monoclinic'
loop_
_space_group_symop_operation_xyz
x,y,z
-x,y,-z
-x,-y,-z
x,-y,z
loop_
_atom_site_type_symbol
_atom_site_label
_atom_site_fract_x
_atom_site_fract_y
_atom_site_fract_z
Si Si1 0.190644 0.675704 0.519610
Si Si2 0.500000 0.576300 0.708149
Si Si3 0.693063 0.825330 0.021728
Si Si4 1.000000 0.077960 0.285242
Si Si5 0.190643 0.324296 0.099103
Si Si6 0.306937 0.825330 0.407854
O O1 0.332129 0.619114 0.412747
O O2 0.179837 0.681669 0.320163
O O3 0.252409 0.749776 0.521536
O O4 0.000000 0.660182 0.776485
O O5 0.500000 0.570700 0.500000
O O6 0.500000 0.500000 0.783825
O O7 0.332129 0.619114 0.922995
O O8 0.832737 0.880284 0.937566
O O9 0.747591 0.749776 0.026354
O O10 0.693933 0.824712 0.806067
O O11 0.500000 0.840047 0.270312
O O12 0.000000 0.077742 0.500000
O O13 0.832736 0.119716 0.396961
O O14 1.000000 0.000000 0.227239
#
# Coordination Sequence:
#
# PCOD9147263 Si02
#       6
#     4   4   4   4   4   4
#     4  10  19  34  59  84 105 138 183 227 268 314
#     4  11  25  41  55  77 112 145 172 216 277 331
#     4   9  15  25  44  69  98 135 175 214 258 307
#     4   9  16  24  36  64 108 145 170 206 263 323
#     4  10  19  34  59  84 105 138 183 227 268 314
#     4   9  15  25  44  69  98 135 175 214 258 307
#
# _framework density 20.435058999999999
#
# number of rings (size 3 to 8) (size 9 to 14) (size 15 to 20)
#    0.000    2.333    3.333    0.500    0.000    3.333 
#    0.000    6.667    0.000    0.000    0.000    0.000 
#    0.000    4.000    0.000    0.000    0.000    0.000 
#
# Total GULP energy -134004.241717 kJ/mol
# GULP energy per Si atom -5583.510072 kJ/mol
# Density = 2.038855 g / cm^3
# Si number density = 20.435059 Si / 1000 Ang^3
#
#
#
# Elastic Constant Matrix: (Units=GPa)
#
#
# Indices 1 2 3 4 5 6 
#
# 1 32.8515 63.6178 108.9974 0.0000 -38.9054 0.0000
# 2 63.6178 218.0485 84.8077 0.0000 -69.2282 0.0000
# 3 108.9974 84.8077 66.1895 0.0000 -70.0084 0.0000
# 4 0.0000 0.0000 0.0000 48.1158 0.0000 15.0993
# 5 -38.9054 -69.2282 -70.0084 0.0000 69.4990 0.0000
# 6 0.0000 0.0000 0.0000 15.0993 0.0000 52.7377
#
#
#
# Elastic Compliance Matrix: (Units=1/GPa)
#
#
# Indices 1 2 3 4 5 6 
#
# 1 0.001282 -0.001703 0.014728 0.000000 0.013858 0.000000
# 2 -0.001703 0.007224 -0.002303 0.000000 0.003923 0.000000
# 3 0.014728 -0.002303 -0.001516 0.000000 0.004424 0.000000
# 4 0.000000 0.000000 0.000000 0.022835 0.000000 -0.006538
# 5 0.013858 0.003923 0.004424 0.000000 0.030510 0.000000
# 6 0.000000 0.000000 0.000000 -0.006538 0.000000 0.020834
#
#
# Mechanical properties :
#
#
# Convention : Reuss Voigt Hill
#
# Bulk Modulus (GPa) = 35.16750 92.43725 63.80237
# Shear Modulus (GPa) = 72.25257 38.04828 55.15043
#
# Velocity S-wave (km/s) = 5.95264 4.31967 5.20065
# Velocity P-wave (km/s) = 8.03069 8.37927 8.20683
#
# Compressibility (1/GPa) = 0.02843535
#
# Stress axis : x y z
#
# Youngs Moduli (GPa) = 780.25977 138.42471 -659.70849
#
# Poissons Ratio (x) = 0.23570 9.71648
# Poissons Ratio (y) = 1.32855 -1.51934
# Poissons Ratio (z) = -11.49201 0.31880
#
# Static dielectric constant tensor:
#      x y z
#    x 1.721160 0.000000 0.048220 
#    y 0.000000 1.700520 0.000000 
#    z 0.048220 0.000000 1.706400 
# 
# From -- ./inp_files/25943.got.cif
#   From: 2010.05.17/outbox.cif.g08.bks.cpg/sg10_13_cif.got.tgz:25943.got - 2010.06.03 11:33:40.
