data_PCOD9147172
_publ_section_title
;
Structure prediction by ZEFSAII (Michael W. Deem and Ramdas Pophale) SiO2 
 PCOD9147172
Probable space group: P 2/M
;
_chemical_formula_sum "Si O2"
_cell_formula_units_Z 32
_cell_length_a 18.557002
_cell_length_b 8.499378
_cell_length_c 14.643099
_cell_angle_alpha 90.000000
_cell_angle_beta 43.351628
_cell_angle_gamma 90.000000
_cell_volume 1585.447841
_symmetry_space_group_name_H-M "P 2/M"
_symmetry_group_IT_number 10
_symmetry_cell_setting 'monoclinic'
loop_
_space_group_symop_operation_xyz
x,y,z
-x,y,-z
-x,-y,-z
x,-y,z
loop_
_atom_site_type_symbol
_atom_site_label
_atom_site_fract_x
_atom_site_fract_y
_atom_site_fract_z
Si Si1 0.502512 0.312585 0.105906
Si Si2 0.958075 0.812470 0.136186
Si Si3 0.348449 0.186018 0.885269
Si Si4 0.123046 0.687285 0.129800
Si Si5 0.471717 0.189271 0.421661
Si Si6 0.241990 0.687365 0.586732
Si Si7 0.267738 0.691812 0.361617
Si Si8 0.109739 0.307969 0.351758
O O1 0.515145 0.500000 0.111850
O O2 0.595886 0.223848 0.069876
O O3 0.389172 0.259349 0.247249
O O4 0.500000 0.290665 0.000000
O O5 0.032845 0.754872 0.148652
O O6 0.840128 0.760634 0.267677
O O7 0.961680 0.000000 0.130168
O O8 0.000000 0.751417 0.000000
O O9 0.433035 0.240311 0.731791
O O10 0.332453 0.000000 0.888870
O O11 0.236648 0.269218 0.985097
O O12 0.110763 0.500000 0.143638
O O13 0.117491 0.745906 0.240003
O O14 0.500000 0.224442 0.500000
O O15 0.361430 0.266281 0.497438
O O16 0.460959 0.000000 0.421896
O O17 0.231198 0.500000 0.599999
O O18 0.218358 0.739150 0.503926
O O19 0.268318 0.500000 0.358558
O O20 0.203249 0.745028 0.332612
O O21 0.113639 0.500000 0.346193
O O22 0.000000 0.263959 0.500000
#
# Coordination Sequence:
#
# PCOD9147172 Si02
#       8
#     4   4   4   4   4   4   4   4
#     4  10  19  34  57  84 118 162 210 252 298 357
#     4  11  26  46  66  87 120 165 206 248 308 376
#     4  11  23  39  60  88 127 167 205 250 306 372
#     4  11  23  40  65  94 124 158 205 260 306 357
#     4  10  23  42  63  87 121 169 211 245 304 379
#     4  11  22  39  66  97 125 153 200 263 309 353
#     4   9  17  31  54  87 122 154 192 242 299 354
#     4   9  17  32  57  88 120 156 197 243 301 361
#
# _framework density 20.183572000000002
#
# number of rings (size 3 to 8) (size 9 to 14) (size 15 to 20)
#    0.000    1.750    1.250    3.000    1.750    6.000 
#    0.000    0.000    0.000    9.000    0.000    0.000 
#    0.000    0.000    0.000    0.000    0.000    0.000 
#
# Total GULP energy -178835.010597 kJ/mol
# GULP energy per Si atom -5588.594081 kJ/mol
# Density = 2.013763 g / cm^3
# Si number density = 20.183572 Si / 1000 Ang^3
#
#
#
# Elastic Constant Matrix: (Units=GPa)
#
#
# Indices 1 2 3 4 5 6 
#
# 1 68.2020 15.1104 25.8167 0.0000 4.8067 0.0000
# 2 15.1104 22.1672 24.0222 0.0000 7.1327 0.0000
# 3 25.8167 24.0222 123.3957 0.0000 1.6590 0.0000
# 4 0.0000 0.0000 0.0000 24.4749 0.0000 -3.7133
# 5 4.8067 7.1327 1.6590 0.0000 32.3906 0.0000
# 6 0.0000 0.0000 0.0000 -3.7133 0.0000 28.5770
#
#
#
# Elastic Compliance Matrix: (Units=1/GPa)
#
#
# Indices 1 2 3 4 5 6 
#
# 1 0.017551 -0.009997 -0.001722 0.000000 -0.000315 0.000000
# 2 -0.009997 0.067968 -0.010967 0.000000 -0.012922 0.000000
# 3 -0.001722 -0.010967 0.010571 0.000000 0.002129 0.000000
# 4 0.000000 0.000000 0.000000 0.041680 0.000000 0.005416
# 5 -0.000315 -0.012922 0.002129 0.000000 0.033656 0.000000
# 6 0.000000 0.000000 0.000000 0.005416 0.000000 0.035697
#
#
# Mechanical properties :
#
#
# Convention : Reuss Voigt Hill
#
# Bulk Modulus (GPa) = 19.71614 38.18485 28.95049
# Shear Modulus (GPa) = 18.55982 27.00957 22.78470
#
# Velocity S-wave (km/s) = 3.03570 3.66210 3.36352
# Velocity P-wave (km/s) = 4.69861 6.06969 5.42762
#
# Compressibility (1/GPa) = 0.05071987
#
# Stress axis : x y z
#
# Youngs Moduli (GPa) = 56.97677 14.71278 94.60275
#
# Poissons Ratio (x) = 0.14708 0.16287
# Poissons Ratio (y) = 0.56958 1.03747
# Poissons Ratio (z) = 0.09809 0.16135
#
# Static dielectric constant tensor:
#      x y z
#    x 1.689460 0.000000 0.014980 
#    y 0.000000 1.698970 0.000000 
#    z 0.014980 0.000000 1.726340 
# 
# From -- ./inp_files/69983.got.cif
#   From: 2010.05.17/outbox.cif.g08.bks.cpg/sg10_35_cif.got.tgz:69983.got - 2010.06.03 11:33:40.
