data_PCOD9147677
_publ_section_title
;
Structure prediction by ZEFSAII (Michael W. Deem and Ramdas Pophale) SiO2 
 PCOD9147677
Probable space group: P 2/M
;
_chemical_formula_sum "Si O2"
_cell_formula_units_Z 32
_cell_length_a 11.367581
_cell_length_b 7.934712
_cell_length_c 15.353748
_cell_angle_alpha 90.000000
_cell_angle_beta 80.638335
_cell_angle_gamma 90.000000
_cell_volume 1366.439774
_symmetry_space_group_name_H-M "P 2/M"
_symmetry_group_IT_number 10
_symmetry_cell_setting 'monoclinic'
loop_
_space_group_symop_operation_xyz
x,y,z
-x,y,-z
-x,-y,-z
x,-y,z
loop_
_atom_site_type_symbol
_atom_site_label
_atom_site_fract_x
_atom_site_fract_y
_atom_site_fract_z
Si Si1 0.904956 0.802317 0.208064
Si Si2 0.723201 0.794679 0.373206
Si Si3 0.128093 0.305588 0.288999
Si Si4 0.471266 0.205469 0.346380
Si Si5 0.707611 0.294364 0.878670
Si Si6 0.782799 0.200835 0.550914
Si Si7 0.798970 0.694206 0.046388
Si Si8 0.543754 0.199698 0.142672
O O1 0.788486 0.744434 0.276465
O O2 0.882568 0.775293 0.108988
O O3 0.014623 0.712078 0.240824
O O4 0.922108 0.000000 0.221843
O O5 0.585164 0.743019 0.390227
O O6 0.792646 0.735347 0.450981
O O7 0.722546 0.000000 0.372356
O O8 0.155045 0.500000 0.298722
O O9 0.235584 0.229832 0.218347
O O10 0.119615 0.232595 0.386668
O O11 0.343719 0.265578 0.395561
O O12 0.503730 0.256004 0.244072
O O13 0.466434 0.000000 0.347715
O O14 0.707258 0.500000 0.879437
O O15 0.572594 0.232584 0.901656
O O16 0.788834 0.236005 0.949768
O O17 0.773611 0.000000 0.544791
O O18 0.834502 0.500000 0.036390
O O19 0.662732 0.709533 0.096937
O O20 0.570771 0.000000 0.142300
#
# Coordination Sequence:
#
# PCOD9147677 Si02
#       8
#     4   4   4   4   4   4   4   4
#     4  11  23  41  62  86 115 149 196 248 291 341
#     4   9  18  34  59  89 119 149 187 234 289 346
#     4  11  24  42  60  81 114 155 197 244 293 344
#     4   9  16  30  56  89 119 146 182 231 284 335
#     4  10  23  41  60  83 117 158 197 234 286 353
#     4  10  19  35  62  90 115 151 193 236 284 343
#     4  11  23  40  61  86 117 156 194 233 289 354
#     4  11  20  34  60  92 122 151 190 240 288 338
#
# _framework density 23.418521999999999
#
# number of rings (size 3 to 8) (size 9 to 14) (size 15 to 20)
#    0.000    1.750    2.500    2.250    0.000    5.500 
#    0.000    6.250    0.000    0.750    0.000    0.000 
#    0.000    0.000    0.000    0.000    0.000    0.000 
#
# Total GULP energy -178835.627110 kJ/mol
# GULP energy per Si atom -5588.613347 kJ/mol
# Density = 2.336522 g / cm^3
# Si number density = 23.418522 Si / 1000 Ang^3
#
#
#
# Elastic Constant Matrix: (Units=GPa)
#
#
# Indices 1 2 3 4 5 6 
#
# 1 54.4923 -9.9252 -2.1943 0.0000 26.3840 0.0000
# 2 -9.9252 22.0682 5.7591 0.0000 -2.3046 0.0000
# 3 -2.1943 5.7591 110.9673 0.0000 38.2298 0.0000
# 4 0.0000 0.0000 0.0000 33.1230 0.0000 17.6184
# 5 26.3840 -2.3046 38.2298 0.0000 33.3965 0.0000
# 6 0.0000 0.0000 0.0000 17.6184 0.0000 29.2311
#
#
#
# Elastic Compliance Matrix: (Units=1/GPa)
#
#
# Indices 1 2 3 4 5 6 
#
# 1 0.057997 0.011278 0.026549 0.000000 -0.075432 0.000000
# 2 0.011278 0.050132 -0.000827 0.000000 -0.004504 0.000000
# 3 0.026549 -0.000827 0.027781 0.000000 -0.052833 0.000000
# 4 0.000000 0.000000 0.000000 0.044437 0.000000 -0.026783
# 5 -0.075432 -0.004504 -0.052833 0.000000 0.149705 0.000000
# 6 0.000000 0.000000 0.000000 -0.026783 0.000000 0.050353
#
#
# Mechanical properties :
#
#
# Convention : Reuss Voigt Hill
#
# Bulk Modulus (GPa) = 4.76393 19.42301 12.09347
# Shear Modulus (GPa) = 13.28461 32.07601 22.68031
#
# Velocity S-wave (km/s) = 2.38433 3.70494 3.11541
# Velocity P-wave (km/s) = 3.10140 5.15887 4.25633
#
# Compressibility (1/GPa) = 0.20991072
#
# Stress axis : x y z
#
# Youngs Moduli (GPa) = 17.24222 19.94734 35.99535
#
# Poissons Ratio (x) = -0.22497 -0.95563
# Poissons Ratio (y) = -0.19446 0.02977
# Poissons Ratio (z) = -0.45776 0.01650
#
# Static dielectric constant tensor:
#      x y z
#    x 1.891350 0.000000 0.010510 
#    y 0.000000 1.840590 0.000000 
#    z 0.010510 0.000000 1.911820 
# 
# From -- ./inp_files/58188.got.cif
#   From: 2010.05.17/outbox.cif.g08.bks.cpg/sg10_30_cif.got.tgz:58188.got - 2010.06.03 11:33:40.
