data_PCOD9147671
_publ_section_title
;
Structure prediction by ZEFSAII (Michael W. Deem and Ramdas Pophale) SiO2 
 PCOD9147671
Probable space group: P 2/M
;
_chemical_formula_sum "Si O2"
_cell_formula_units_Z 28
_cell_length_a 16.559124
_cell_length_b 17.165088
_cell_length_c 5.281869
_cell_angle_alpha 90.000000
_cell_angle_beta 68.348017
_cell_angle_gamma 90.000000
_cell_volume 1395.382798
_symmetry_space_group_name_H-M "P 2/M"
_symmetry_group_IT_number 10
_symmetry_cell_setting 'monoclinic'
loop_
_space_group_symop_operation_xyz
x,y,z
-x,y,-z
-x,-y,-z
x,-y,z
loop_
_atom_site_type_symbol
_atom_site_label
_atom_site_fract_x
_atom_site_fract_y
_atom_site_fract_z
Si Si1 0.217061 0.244449 0.841341
Si Si2 0.620628 0.588512 0.929549
Si Si3 0.901263 0.630260 0.200630
Si Si4 0.596642 0.093586 0.899190
Si Si5 0.817799 0.618203 0.793727
Si Si6 0.591170 0.685433 0.463938
Si Si7 0.705703 0.907459 0.265078
O O1 0.146722 0.285594 0.743404
O O2 0.316586 0.269445 0.658355
O O3 0.214466 0.151903 0.836764
O O4 0.196131 0.289284 0.128139
O O5 0.592503 0.500000 0.924542
O O6 0.725451 0.589360 0.805783
O O7 0.588788 0.644675 0.741170
O O8 0.596817 0.620930 0.234124
O O9 0.886983 0.599657 0.498006
O O10 0.152654 0.589002 0.963551
O O11 0.000000 0.633979 0.000000
O O12 0.651064 0.107173 0.583317
O O13 0.588103 0.000000 0.929640
O O14 0.500000 0.127676 0.000000
O O15 0.647882 0.116517 0.090142
O O16 0.500000 0.728126 0.500000
O O17 0.724890 0.000000 0.229283
#
# Coordination Sequence:
#
# PCOD9147671 Si02
#       7
#     4   4   4   4   4   4   4
#     4   9  22  35  57  77 115 139 185 228 276 317
#     4  11  21  38  59  81 114 150 183 226 272 317
#     4  10  19  35  62  83 104 138 183 226 273 333
#     4   9  18  31  45  66  97 134 181 223 258 310
#     4   9  19  36  55  84 108 140 178 223 273 328
#     4  11  23  37  53  81 113 152 193 226 266 310
#     4  10  20  32  51  75 103 142 181 222 278 329
#
# _framework density 20.066178000000001
#
# number of rings (size 3 to 8) (size 9 to 14) (size 15 to 20)
#    0.857    1.286    1.429    1.714    2.000    4.571 
#    0.000    0.000    0.000    3.000    0.000    1.000 
#    0.000    0.000    0.000    0.000    0.000    0.000 
#
# Total GULP energy -156015.451826 kJ/mol
# GULP energy per Si atom -5571.980422 kJ/mol
# Density = 2.002051 g / cm^3
# Si number density = 20.066178 Si / 1000 Ang^3
#
#
#
# Elastic Constant Matrix: (Units=GPa)
#
#
# Indices 1 2 3 4 5 6 
#
# 1 55.9720 5.6325 4.3837 0.0000 -2.3368 0.0000
# 2 5.6325 72.6275 14.9883 0.0000 3.5953 0.0000
# 3 4.3837 14.9883 102.7938 0.0000 14.8433 0.0000
# 4 0.0000 0.0000 0.0000 3.8292 0.0000 -10.4603
# 5 -2.3368 3.5953 14.8433 0.0000 36.9582 0.0000
# 6 0.0000 0.0000 0.0000 -10.4603 0.0000 30.6407
#
#
#
# Elastic Compliance Matrix: (Units=1/GPa)
#
#
# Indices 1 2 3 4 5 6 
#
# 1 0.018129 -0.001318 -0.000812 0.000000 0.001601 0.000000
# 2 -0.001318 0.014304 -0.001928 0.000000 -0.000700 0.000000
# 3 -0.000812 -0.001928 0.010641 0.000000 -0.004138 0.000000
# 4 0.000000 0.000000 0.000000 3.872325 0.000000 1.321950
# 5 0.001601 -0.000700 -0.004138 0.000000 0.028889 0.000000
# 6 0.000000 0.000000 0.000000 1.321950 0.000000 0.483929
#
#
# Mechanical properties :
#
#
# Convention : Reuss Voigt Hill
#
# Bulk Modulus (GPa) = 28.60557 31.26690 29.93623
# Shear Modulus (GPa) = 1.12410 28.04487 14.58449
#
# Velocity S-wave (km/s) = 0.74928 3.74253 2.69888
# Velocity P-wave (km/s) = 3.87751 5.85586 4.96620
#
# Compressibility (1/GPa) = 0.03495823
#
# Stress axis : x y z
#
# Youngs Moduli (GPa) = 55.15993 69.91201 93.97186
#
# Poissons Ratio (x) = 0.09212 0.07632
# Poissons Ratio (y) = 0.07268 0.18121
# Poissons Ratio (z) = 0.04480 0.13481
#
# Static dielectric constant tensor:
#      x y z
#    x 1.707970 0.000000 -0.008680 
#    y 0.000000 1.748460 0.000000 
#    z -0.008680 0.000000 1.712370 
# 
# From -- ./inp_files/9627.got.cif
#   From: 2010.05.17/outbox.cif.g08.bks.cpg/sg10_5_cif.got.tgz:9627.got - 2010.06.03 11:33:40.
