data_PCOD9147710
_publ_section_title
;
Structure prediction by ZEFSAII (Michael W. Deem and Ramdas Pophale) SiO2 
 PCOD9147710
Probable space group: P 2/M
;
_chemical_formula_sum "Si O2"
_cell_formula_units_Z 28
_cell_length_a 15.843909
_cell_length_b 7.582684
_cell_length_c 12.094395
_cell_angle_alpha 90.000000
_cell_angle_beta 122.915437
_cell_angle_gamma 90.000000
_cell_volume 1219.765739
_symmetry_space_group_name_H-M "P 2/M"
_symmetry_group_IT_number 10
_symmetry_cell_setting 'monoclinic'
loop_
_space_group_symop_operation_xyz
x,y,z
-x,y,-z
-x,-y,-z
x,-y,z
loop_
_atom_site_type_symbol
_atom_site_label
_atom_site_fract_x
_atom_site_fract_y
_atom_site_fract_z
Si Si1 0.830027 0.297418 0.613608
Si Si2 0.780600 0.203256 0.822275
Si Si3 0.971862 0.201400 0.361825
Si Si4 0.610942 0.205688 0.070941
Si Si5 0.800332 0.782360 0.077893
Si Si6 0.360953 0.286391 0.662642
Si Si7 0.547812 0.713439 0.652966
O O1 0.842677 0.500000 0.587740
O O2 0.815097 0.291842 0.734055
O O3 0.728589 0.229854 0.482481
O O4 0.928371 0.200367 0.641221
O O5 0.659403 0.213452 0.743413
O O6 0.811316 0.000000 0.834572
O O7 0.820884 0.274788 0.967383
O O8 0.882434 0.279084 0.224854
O O9 0.000000 0.283827 0.500000
O O10 0.939462 0.000000 0.363218
O O11 0.690668 0.278332 0.040765
O O12 0.655794 0.219911 0.225838
O O13 0.598295 0.000000 0.032776
O O14 0.500000 0.287322 0.000000
O O15 0.800606 0.000000 0.076855
O O16 0.362174 0.500000 0.664898
O O17 0.468693 0.229246 0.690331
O O18 0.500000 0.760190 0.500000
O O19 0.555513 0.500000 0.661251
#
# Coordination Sequence:
#
# PCOD9147710 Si02
#       7
#     4   4   4   4   4   4   4
#     4  11  23  40  59  84 118 152 191 241 293 343
#     4  11  22  37  59  87 117 152 196 239 285 347
#     4  10  21  40  65  88 112 149 195 241 292 348
#     4  10  20  36  59  86 117 150 189 237 286 338
#     4   9  20  38  58  84 120 153 184 238 301 344
#     4  10  21  36  56  81 114 154 191 233 289 345
#     4  10  19  36  56  78 117 160 190 230 289 340
#
# _framework density 22.955227000000001
#
# number of rings (size 3 to 8) (size 9 to 14) (size 15 to 20)
#    0.000    1.857    1.429    2.571    0.000    5.429 
#    0.000    6.429    0.000    0.000    0.000    0.000 
#    0.000    0.000    0.000    0.000    0.000    0.000 
#
# Total GULP energy -156559.849848 kJ/mol
# GULP energy per Si atom -5591.423209 kJ/mol
# Density = 2.290298 g / cm^3
# Si number density = 22.955227 Si / 1000 Ang^3
#
#
#
# Elastic Constant Matrix: (Units=GPa)
#
#
# Indices 1 2 3 4 5 6 
#
# 1 100.0641 -6.4535 34.1945 0.0000 -5.1174 0.0000
# 2 -6.4535 53.1039 -4.0012 0.0000 3.9830 0.0000
# 3 34.1945 -4.0012 141.9925 0.0000 -7.7376 0.0000
# 4 0.0000 0.0000 0.0000 50.5276 0.0000 73.6974
# 5 -5.1174 3.9830 -7.7376 0.0000 35.3287 0.0000
# 6 0.0000 0.0000 0.0000 73.6974 0.0000 199.6973
#
#
#
# Elastic Compliance Matrix: (Units=1/GPa)
#
#
# Indices 1 2 3 4 5 6 
#
# 1 0.010986 0.001074 -0.002566 0.000000 0.000908 0.000000
# 2 0.001074 0.019122 0.000173 0.000000 -0.001962 0.000000
# 3 -0.002566 0.000173 0.007736 0.000000 0.001303 0.000000
# 4 0.000000 0.000000 0.000000 0.042864 0.000000 -0.015819
# 5 0.000908 -0.001962 0.001303 0.000000 0.028944 0.000000
# 6 0.000000 0.000000 0.000000 -0.015819 0.000000 0.010845
#
#
# Mechanical properties :
#
#
# Convention : Reuss Voigt Hill
#
# Bulk Modulus (GPa) = 28.40391 38.07113 33.23752
# Shear Modulus (GPa) = 37.07263 75.20543 56.13903
#
# Velocity S-wave (km/s) = 4.02306 5.73000 4.95065
# Velocity P-wave (km/s) = 5.82928 7.77163 6.86945
#
# Compressibility (1/GPa) = 0.03520642
#
# Stress axis : x y z
#
# Youngs Moduli (GPa) = 91.02384 52.29654 129.25830
#
# Poissons Ratio (x) = -0.05615 0.33167
# Poissons Ratio (y) = -0.09773 -0.02241
# Poissons Ratio (z) = 0.23356 -0.00906
#
# Static dielectric constant tensor:
#      x y z
#    x 1.808810 0.000000 0.008370 
#    y 0.000000 1.869640 0.000000 
#    z 0.008370 0.000000 1.851970 
# 
# From -- ./inp_files/50058.got.cif
#   From: 2010.05.17/outbox.cif.g08.bks.cpg/sg10_26_cif.got.tgz:50058.got - 2010.06.03 11:33:40.
