data_PCOD9147207
_publ_section_title
;
Structure prediction by ZEFSAII (Michael W. Deem and Ramdas Pophale) SiO2 
 PCOD9147207
Probable space group: P 2/M
;
_chemical_formula_sum "Si O2"
_cell_formula_units_Z 32
_cell_length_a 15.919455
_cell_length_b 7.765325
_cell_length_c 21.418141
_cell_angle_alpha 90.000000
_cell_angle_beta 27.117599
_cell_angle_gamma 90.000000
_cell_volume 1206.872484
_symmetry_space_group_name_H-M "P 2/M"
_symmetry_group_IT_number 10
_symmetry_cell_setting 'monoclinic'
loop_
_space_group_symop_operation_xyz
x,y,z
-x,y,-z
-x,-y,-z
x,-y,z
loop_
_atom_site_type_symbol
_atom_site_label
_atom_site_fract_x
_atom_site_fract_y
_atom_site_fract_z
Si Si1 0.195146 0.198653 0.852977
Si Si2 0.225557 0.791151 0.470158
Si Si3 0.198531 0.299921 0.354123
Si Si4 0.099452 0.704888 0.738692
Si Si5 0.444952 0.204111 0.942894
Si Si6 0.128198 0.199300 0.232755
Si Si7 0.773313 0.701901 0.037221
Si Si8 0.455399 0.792031 0.440307
O O1 0.288797 0.199502 0.859993
O O2 0.339308 0.276955 0.708785
O O3 0.162184 0.000000 0.857082
O O4 0.000000 0.283251 0.000000
O O5 0.292754 0.722429 0.359786
O O6 0.344840 0.738416 0.450786
O O7 0.016021 0.725342 0.622146
O O8 0.224065 0.000000 0.469511
O O9 0.173371 0.500000 0.358509
O O10 0.338346 0.234036 0.209260
O O11 0.000000 0.214562 0.500000
O O12 0.074205 0.500000 0.748582
O O13 0.315987 0.743794 0.588066
O O14 0.995844 0.794729 0.748939
O O15 0.980333 0.756952 0.877967
O O16 0.348890 0.269576 0.943259
O O17 0.419201 0.000000 0.962807
O O18 0.322210 0.276134 0.081265
O O19 0.156073 0.000000 0.231609
O O20 0.772485 0.500000 0.052142
O O21 0.468407 0.000000 0.432975
#
# Coordination Sequence:
#
# PCOD9147207 Si02
#       8
#     4   4   4   4   4   4   4   4
#     4  10  21  36  53  75 104 139 180 221 258 301
#     4   9  17  32  55  79 101 129 169 213 257 309
#     4  11  24  38  50  71 106 143 177 213 254 303
#     4   9  17  29  49  78 105 130 165 207 252 306
#     4  10  19  34  58  82 103 132 170 212 258 306
#     4   8  16  31  52  79 105 127 159 208 260 305
#     4  10  20  34  54  80 107 135 169 210 258 311
#     4   9  18  33  53  77 103 131 167 212 259 305
#
# _framework density 26.514814999999999
#
# number of rings (size 3 to 8) (size 9 to 14) (size 15 to 20)
#    0.000    2.500    0.000    3.000    0.000    6.750 
#    0.000    1.250    0.000    7.500    0.000    0.000 
#    0.000    0.000    0.000    0.000    0.000    0.000 
#
# Total GULP energy -178935.656314 kJ/mol
# GULP energy per Si atom -5591.739260 kJ/mol
# Density = 2.645447 g / cm^3
# Si number density = 26.514815 Si / 1000 Ang^3
#
#
#
# Elastic Constant Matrix: (Units=GPa)
#
#
# Indices 1 2 3 4 5 6 
#
# 1 74.8211 4.2122 46.8740 0.0000 15.1237 0.0000
# 2 4.2122 78.7396 12.5515 0.0000 -0.4894 0.0000
# 3 46.8740 12.5515 270.4727 0.0000 12.3835 0.0000
# 4 0.0000 0.0000 0.0000 19.9833 0.0000 11.1867
# 5 15.1237 -0.4894 12.3835 0.0000 56.6470 0.0000
# 6 0.0000 0.0000 0.0000 11.1867 0.0000 12.2381
#
#
#
# Elastic Compliance Matrix: (Units=1/GPa)
#
#
# Indices 1 2 3 4 5 6 
#
# 1 0.015716 -0.000459 -0.002535 0.000000 -0.003646 0.000000
# 2 -0.000459 0.012811 -0.000531 0.000000 0.000349 0.000000
# 3 -0.002535 -0.000531 0.004172 0.000000 -0.000240 0.000000
# 4 0.000000 0.000000 0.000000 0.102484 0.000000 -0.093680
# 5 -0.003646 0.000349 -0.000240 0.000000 0.018682 0.000000
# 6 0.000000 0.000000 0.000000 -0.093680 0.000000 0.167344
#
#
# Mechanical properties :
#
#
# Convention : Reuss Voigt Hill
#
# Bulk Modulus (GPa) = 38.98818 61.25652 50.12235
# Shear Modulus (GPa) = 14.84510 41.80006 28.32258
#
# Velocity S-wave (km/s) = 2.36874 3.97480 3.27185
# Velocity P-wave (km/s) = 4.71354 6.64968 5.76349
#
# Compressibility (1/GPa) = 0.02564880
#
# Stress axis : x y z
#
# Youngs Moduli (GPa) = 63.62776 78.05510 239.67853
#
# Poissons Ratio (x) = 0.03585 0.60770
# Poissons Ratio (y) = 0.02922 0.12725
# Poissons Ratio (z) = 0.16133 0.04144
#
# Static dielectric constant tensor:
#      x y z
#    x 2.163540 0.000000 -0.084090 
#    y 0.000000 1.922390 0.000000 
#    z -0.084090 0.000000 2.155270 
# 
# From -- ./inp_files/93606.got.cif
#   From: 2010.05.17/outbox.cif.g08.bks.cpg/sg10_47_cif.got.tgz:93606.got - 2010.06.03 11:33:40.
