data_PCOD9147771
_publ_section_title
;
Structure prediction by ZEFSAII (Michael W. Deem and Ramdas Pophale) SiO2 
 PCOD9147771
Probable space group: P 2/M
;
_chemical_formula_sum "Si O2"
_cell_formula_units_Z 32
_cell_length_a 13.323920
_cell_length_b 9.275388
_cell_length_c 31.388273
_cell_angle_alpha 90.000000
_cell_angle_beta 24.355006
_cell_angle_gamma 90.000000
_cell_volume 1599.700764
_symmetry_space_group_name_H-M "P 2/M"
_symmetry_group_IT_number 10
_symmetry_cell_setting 'monoclinic'
loop_
_space_group_symop_operation_xyz
x,y,z
-x,y,-z
-x,-y,-z
x,-y,z
loop_
_atom_site_type_symbol
_atom_site_label
_atom_site_fract_x
_atom_site_fract_y
_atom_site_fract_z
Si Si1 0.402906 0.827337 0.904899
Si Si2 0.800452 0.672435 0.807606
Si Si3 0.963353 0.829627 0.207638
Si Si4 0.877655 0.173729 0.143373
Si Si5 0.222941 0.833917 0.595625
Si Si6 0.560046 0.173460 0.747604
Si Si7 0.032706 0.658956 0.537520
Si Si8 0.591519 0.839801 0.568694
O O1 0.564912 0.741276 0.876205
O O2 0.476414 0.791648 0.828057
O O3 0.442493 0.000000 0.895630
O O4 0.119425 0.797125 0.022659
O O5 0.789440 0.500000 0.813388
O O6 0.854770 0.739762 0.833225
O O7 0.025582 0.728433 0.691401
O O8 0.927486 0.778692 0.172721
O O9 0.691031 0.817996 0.332733
O O10 0.030555 0.000000 0.181624
O O11 0.639195 0.225023 0.210228
O O12 0.852070 0.000000 0.156280
O O13 0.500000 0.796621 0.500000
O O14 0.238526 0.834986 0.538579
O O15 0.173863 0.000000 0.628791
O O16 0.820807 0.240853 0.637499
O O17 0.574853 0.000000 0.739126
O O18 0.011449 0.500000 0.564857
O O19 0.000000 0.652003 0.500000
O O20 0.298542 0.722619 0.443113
O O21 0.607152 0.000000 0.581978
#
# Coordination Sequence:
#
# PCOD9147771 Si02
#       8
#     4   4   4   4   4   4   4   4
#     4  10  21  39  63  90 118 149 189 243 300 347
#     4  12  25  38  55  84 122 160 198 238 283 344
#     4  10  20  38  61  85 115 153 196 242 292 346
#     4   9  19  37  65  93 113 142 192 249 299 347
#     4  10  19  36  59  83 111 145 186 233 283 335
#     4  10  20  38  65  92 116 145 190 244 294 347
#     4  11  24  38  53  80 121 161 191 226 277 338
#     4  10  20  35  59  86 112 147 190 237 285 338
#
# _framework density 20.003741999999999
#
# number of rings (size 3 to 8) (size 9 to 14) (size 15 to 20)
#    0.000    1.750    1.250    3.375    0.000    8.750 
#    0.000    4.375    0.000    1.500    0.000    0.000 
#    0.000    0.000    0.000    0.000    0.000    0.000 
#
# Total GULP energy -178691.142581 kJ/mol
# GULP energy per Si atom -5584.098206 kJ/mol
# Density = 1.995821 g / cm^3
# Si number density = 20.003742 Si / 1000 Ang^3
#
#
#
# Elastic Constant Matrix: (Units=GPa)
#
#
# Indices 1 2 3 4 5 6 
#
# 1 88.2201 33.2758 15.8923 0.0000 -9.8091 0.0000
# 2 33.2758 44.9471 14.3147 0.0000 -11.1941 0.0000
# 3 15.8923 14.3147 47.8962 0.0000 1.7282 0.0000
# 4 0.0000 0.0000 0.0000 -21.4278 0.0000 0.1915
# 5 -9.8091 -11.1941 1.7282 0.0000 33.1437 0.0000
# 6 0.0000 0.0000 0.0000 0.1915 0.0000 5.5593
#
#
#
# Elastic Compliance Matrix: (Units=1/GPa)
#
#
# Indices 1 2 3 4 5 6 
#
# 1 0.015929 -0.010838 -0.002088 0.000000 0.001163 0.000000
# 2 -0.010838 0.034754 -0.007112 0.000000 0.008901 0.000000
# 3 -0.002088 -0.007112 0.023851 0.000000 -0.004264 0.000000
# 4 0.000000 0.000000 0.000000 -0.046654 0.000000 0.001607
# 5 0.001163 0.008901 -0.004264 0.000000 0.033744 0.000000
# 6 0.000000 0.000000 0.000000 0.001607 0.000000 0.179823
#
#
# Mechanical properties :
#
#
# Convention : Reuss Voigt Hill
#
# Bulk Modulus (GPa) = 29.02136 34.22543 31.62340
# Shear Modulus (GPa) = 17.06438 11.29376 14.17907
#
# Velocity S-wave (km/s) = 2.92389 2.37867 2.66526
# Velocity P-wave (km/s) = 5.09296 4.96898 5.03135
#
# Compressibility (1/GPa) = 0.03445738
#
# Stress axis : x y z
#
# Youngs Moduli (GPa) = 62.77985 28.77372 41.92751
#
# Poissons Ratio (x) = 0.31185 0.08755
# Poissons Ratio (y) = 0.68041 0.29819
# Poissons Ratio (z) = 0.13109 0.20464
#
# Static dielectric constant tensor:
#      x y z
#    x 1.748050 0.000000 0.027020 
#    y 0.000000 1.684990 0.000000 
#    z 0.027020 0.000000 1.692600 
# 
# From -- ./inp_files/94947.got.cif
#   From: 2010.05.17/outbox.cif.g08.bks.cpg/sg10_48_cif.got.tgz:94947.got - 2010.06.03 11:33:40.
