data_PCOD9147868
_publ_section_title
;
Structure prediction by ZEFSAII (Michael W. Deem and Ramdas Pophale) SiO2 
 PCOD9147868
Probable space group: P 2/M
;
_chemical_formula_sum "Si O2"
_cell_formula_units_Z 28
_cell_length_a 27.060632
_cell_length_b 8.248943
_cell_length_c 10.330561
_cell_angle_alpha 90.000000
_cell_angle_beta 141.479448
_cell_angle_gamma 90.000000
_cell_volume 1436.168786
_symmetry_space_group_name_H-M "P 2/M"
_symmetry_group_IT_number 10
_symmetry_cell_setting 'monoclinic'
loop_
_space_group_symop_operation_xyz
x,y,z
-x,y,-z
-x,-y,-z
x,-y,z
loop_
_atom_site_type_symbol
_atom_site_label
_atom_site_fract_x
_atom_site_fract_y
_atom_site_fract_z
Si Si1 0.935388 0.198164 0.763168
Si Si2 0.934533 0.195387 0.467852
Si Si3 0.312109 0.307287 0.380749
Si Si4 0.351432 0.196105 0.954837
Si Si5 0.485105 0.195432 0.821735
Si Si6 0.236441 0.804407 0.486040
Si Si7 0.242083 0.693481 0.965628
O O1 0.950027 0.253331 0.646355
O O2 0.848166 0.247637 0.631368
O O3 0.936480 0.000000 0.763796
O O4 0.000000 0.251941 0.000000
O O5 0.844825 0.237780 0.244334
O O6 0.000000 0.256332 0.500000
O O7 0.940230 0.000000 0.481864
O O8 0.317805 0.500000 0.382209
O O9 0.399572 0.243005 0.593294
O O10 0.256001 0.262695 0.385692
O O11 0.276115 0.244187 0.172251
O O12 0.303967 0.242202 0.727285
O O13 0.304137 0.263226 0.979992
O O14 0.349556 0.000000 0.959992
O O15 0.442105 0.249493 0.120103
O O16 0.488134 0.000000 0.832942
O O17 0.500000 0.253362 0.000000
O O18 0.236737 0.000000 0.478428
O O19 0.234413 0.500000 0.956897
#
# Coordination Sequence:
#
# PCOD9147868 Si02
#       7
#     4   4   4   4   4   4   4
#     4   9  18  33  56  90 120 142 182 240 295 343
#     4  10  21  38  62  89 116 151 197 244 291 346
#     4  11  25  40  56  85 122 159 200 239 285 353
#     4  10  20  38  64  89 114 149 197 246 292 349
#     4  10  20  38  62  89 118 148 192 249 301 345
#     4  10  19  36  62  87 117 153 192 246 296 341
#     4  11  25  42  58  82 123 165 197 236 289 351
#
# _framework density 19.496317000000001
#
# number of rings (size 3 to 8) (size 9 to 14) (size 15 to 20)
#    0.000    1.857    2.857    0.857    2.000    4.571 
#    0.000    2.857    0.000    0.857    0.000    0.000 
#    0.000    0.000    0.000    0.000    0.000    0.000 
#
# Total GULP energy -156383.381981 kJ/mol
# GULP energy per Si atom -5585.120785 kJ/mol
# Density = 1.945194 g / cm^3
# Si number density = 19.496317 Si / 1000 Ang^3
#
#
#
# Elastic Constant Matrix: (Units=GPa)
#
#
# Indices 1 2 3 4 5 6 
#
# 1 176.3505 7.6234 83.5128 0.0000 -3.0482 0.0000
# 2 7.6234 2.1197 7.8032 0.0000 0.7060 0.0000
# 3 83.5128 7.8032 143.1378 0.0000 -15.1788 0.0000
# 4 0.0000 0.0000 0.0000 15.8415 0.0000 -17.8128
# 5 -3.0482 0.7060 -15.1788 0.0000 34.6710 0.0000
# 6 0.0000 0.0000 0.0000 -17.8128 0.0000 9.4141
#
#
#
# Elastic Compliance Matrix: (Units=1/GPa)
#
#
# Indices 1 2 3 4 5 6 
#
# 1 0.008212 -0.014172 -0.004102 0.000000 -0.000785 0.000000
# 2 -0.014172 0.640522 -0.029536 0.000000 -0.027219 0.000000
# 3 -0.004102 -0.029536 0.011552 0.000000 0.005298 0.000000
# 4 0.000000 0.000000 0.000000 -0.055982 0.000000 -0.105926
# 5 -0.000785 -0.027219 0.005298 0.000000 0.031647 0.000000
# 6 0.000000 0.000000 0.000000 -0.105926 0.000000 -0.094204
#
#
# Mechanical properties :
#
#
# Convention : Reuss Voigt Hill
#
# Bulk Modulus (GPa) = 1.77096 57.72074 29.74585
# Shear Modulus (GPa) = 6.05628 26.82989 16.44309
#
# Velocity S-wave (km/s) = 1.76440 3.71368 2.90728
# Velocity P-wave (km/s) = 2.24970 6.93244 5.15364
#
# Compressibility (1/GPa) = 0.56466545
#
# Stress axis : x y z
#
# Youngs Moduli (GPa) = 121.77092 1.56123 86.56878
#
# Poissons Ratio (x) = 0.02213 0.35510
# Poissons Ratio (y) = 1.72577 2.55687
# Poissons Ratio (z) = 0.49950 0.04611
#
# Static dielectric constant tensor:
#      x y z
#    x 1.664760 0.000000 -0.005830 
#    y 0.000000 1.684830 0.000000 
#    z -0.005830 0.000000 1.665100 
# 
# From -- ./inp_files/37323.got.cif
#   From: 2010.05.17/outbox.cif.g08.bks.cpg/sg10_19_cif.got.tgz:37323.got - 2010.06.03 11:33:40.
