data_PCOD9147903
_publ_section_title
;
Structure prediction by ZEFSAII (Michael W. Deem and Ramdas Pophale) SiO2 
 PCOD9147903
Probable space group: P 2/M
;
_chemical_formula_sum "Si O2"
_cell_formula_units_Z 32
_cell_length_a 20.537698
_cell_length_b 8.752058
_cell_length_c 26.520854
_cell_angle_alpha 90.000000
_cell_angle_beta 159.271993
_cell_angle_gamma 90.000000
_cell_volume 1687.210848
_symmetry_space_group_name_H-M "P 2/M"
_symmetry_group_IT_number 10
_symmetry_cell_setting 'monoclinic'
loop_
_space_group_symop_operation_xyz
x,y,z
-x,y,-z
-x,-y,-z
x,-y,z
loop_
_atom_site_type_symbol
_atom_site_label
_atom_site_fract_x
_atom_site_fract_y
_atom_site_fract_z
Si Si1 0.687475 0.184675 0.663986
Si Si2 0.909164 0.681190 0.322965
Si Si3 0.045195 0.185784 0.860632
Si Si4 0.267218 0.184206 0.631090
Si Si5 0.153797 0.184615 0.828997
Si Si6 0.583745 0.816046 0.150014
Si Si7 0.621128 0.184630 0.824797
Si Si8 0.784847 0.682943 0.841704
O O1 0.500000 0.226216 0.500000
O O2 0.702573 0.254548 0.730229
O O3 0.862696 0.234907 0.757689
O O4 0.694053 0.000000 0.673067
O O5 0.910169 0.500000 0.323642
O O6 0.932012 0.744433 0.283043
O O7 0.716361 0.742307 0.205039
O O8 0.073036 0.743451 0.476662
O O9 0.060846 0.234932 0.814060
O O10 0.045365 0.000000 0.859910
O O11 0.224289 0.231510 0.022360
O O12 0.342511 0.225971 0.740946
O O13 0.422157 0.228266 0.702350
O O14 0.248949 0.000000 0.616975
O O15 0.142021 0.000000 0.817155
O O16 0.370284 0.225240 0.989079
O O17 0.595882 0.000000 0.154344
O O18 0.677012 0.253028 0.811786
O O19 0.625862 0.000000 0.824801
O O20 0.779315 0.500000 0.838320
O O21 0.000000 0.731468 0.000000
#
# Coordination Sequence:
#
# PCOD9147903 Si02
#       8
#     4   4   4   4   4   4   4   4
#     4  10  21  37  60  90 120 152 193 242 294 342
#     4  12  26  39  53  83 125 161 190 227 287 355
#     4   9  17  34  61  88 113 142 188 247 295 338
#     4  10  21  39  63  89 112 143 195 248 296 344
#     4  10  20  38  63  87 112 149 197 249 297 340
#     4  10  20  38  64  88 109 144 198 251 296 341
#     4  10  19  36  64  90 111 145 195 251 295 332
#     4  11  23  37  56  86 122 160 195 229 280 346
#
# _framework density 18.966213
#
# number of rings (size 3 to 8) (size 9 to 14) (size 15 to 20)
#    0.000    1.750    2.500    2.250    0.000    6.250 
#    0.000    3.750    0.000    0.000    0.000    0.000 
#    0.000    0.000    0.000    0.000    0.000    0.000 
#
# Total GULP energy -178810.368346 kJ/mol
# GULP energy per Si atom -5587.824011 kJ/mol
# Density = 1.892304 g / cm^3
# Si number density = 18.966213 Si / 1000 Ang^3
#
#
#
# Elastic Constant Matrix: (Units=GPa)
#
#
# Indices 1 2 3 4 5 6 
#
# 1 94.2765 14.1785 -11.3844 0.0000 -6.9725 0.0000
# 2 14.1785 11.1340 9.3196 0.0000 -4.4707 0.0000
# 3 -11.3844 9.3196 32.9136 0.0000 -13.7079 0.0000
# 4 0.0000 0.0000 0.0000 2.2039 0.0000 -0.4346
# 5 -6.9725 -4.4707 -13.7079 0.0000 32.8454 0.0000
# 6 0.0000 0.0000 0.0000 -0.4346 0.0000 -25.6711
#
#
#
# Elastic Compliance Matrix: (Units=1/GPa)
#
#
# Indices 1 2 3 4 5 6 
#
# 1 0.019756 -0.039938 0.021333 0.000000 0.007661 0.000000
# 2 -0.039938 0.198629 -0.075440 0.000000 -0.012927 0.000000
# 3 0.021333 -0.075440 0.068667 0.000000 0.022918 0.000000
# 4 0.000000 0.000000 0.000000 0.452237 0.000000 -0.007656
# 5 0.007661 -0.012927 0.022918 0.000000 0.039877 0.000000
# 6 0.000000 0.000000 0.000000 -0.007656 0.000000 -0.038825
#
#
# Mechanical properties :
#
#
# Convention : Reuss Voigt Hill
#
# Bulk Modulus (GPa) = 10.10502 18.06129 14.08316
# Shear Modulus (GPa) = 5.20063 10.28965 7.74514
#
# Velocity S-wave (km/s) = 1.65771 2.33174 2.02300
# Velocity P-wave (km/s) = 3.00058 4.09792 3.59141
#
# Compressibility (1/GPa) = 0.09896071
#
# Stress axis : x y z
#
# Youngs Moduli (GPa) = 50.61723 5.03450 14.56297
#
# Poissons Ratio (x) = 0.20107 -0.31067
# Poissons Ratio (y) = 2.02156 1.09864
# Poissons Ratio (z) = -1.07980 0.37980
#
# Static dielectric constant tensor:
#      x y z
#    x 1.639260 0.000000 0.005990 
#    y 0.000000 1.638510 0.000000 
#    z 0.005990 0.000000 1.637790 
# 
# From -- ./inp_files/93788.got.cif
#   From: 2010.05.17/outbox.cif.g08.bks.cpg/sg10_47_cif.got.tgz:93788.got - 2010.06.03 11:33:40.
