data_PCOD9147622
_publ_section_title
;
Structure prediction by ZEFSAII (Michael W. Deem and Ramdas Pophale) SiO2 
 PCOD9147622
Probable space group: P 2/M
;
_chemical_formula_sum "Si O2"
_cell_formula_units_Z 32
_cell_length_a 15.062601
_cell_length_b 8.747605
_cell_length_c 12.257572
_cell_angle_alpha 90.000000
_cell_angle_beta 86.116867
_cell_angle_gamma 90.000000
_cell_volume 1611.370524
_symmetry_space_group_name_H-M "P 2/M"
_symmetry_group_IT_number 10
_symmetry_cell_setting 'monoclinic'
loop_
_space_group_symop_operation_xyz
x,y,z
-x,y,-z
-x,-y,-z
x,-y,z
loop_
_atom_site_type_symbol
_atom_site_label
_atom_site_fract_x
_atom_site_fract_y
_atom_site_fract_z
Si Si1 0.921618 0.683006 0.419052
Si Si2 0.718387 0.686026 0.482164
Si Si3 0.811857 0.178845 0.094719
Si Si4 0.180196 0.677904 0.131121
Si Si5 0.662298 0.318469 0.249354
Si Si6 0.499868 0.182748 0.126124
Si Si7 0.660327 0.681805 0.721267
Si Si8 0.991375 0.179653 0.190693
O O1 0.919714 0.500000 0.395628
O O2 0.823220 0.727205 0.469261
O O3 0.000000 0.708752 0.500000
O O4 0.945920 0.774300 0.308318
O O5 0.716611 0.500000 0.484563
O O6 0.671139 0.734801 0.373993
O O7 0.670324 0.738607 0.596412
O O8 0.754649 0.278256 0.182567
O O9 0.916356 0.207733 0.105576
O O10 0.795125 0.000000 0.117117
O O11 0.788110 0.222508 0.973806
O O12 0.184684 0.500000 0.099447
O O13 0.244600 0.701176 0.228089
O O14 0.080090 0.723984 0.167809
O O15 0.648249 0.500000 0.250915
O O16 0.585147 0.241746 0.185358
O O17 0.413750 0.238907 0.199132
O O18 0.501500 0.000000 0.123600
O O19 0.500000 0.238017 0.000000
O O20 0.640414 0.500000 0.720605
O O21 0.013898 0.000000 0.186825
#
# Coordination Sequence:
#
# PCOD9147622 Si02
#       8
#     4   4   4   4   4   4   4   4
#     4  10  19  35  60  86 118 162 211 258 300 354
#     4   9  19  37  61  90 122 156 198 249 304 355
#     4  11  23  39  58  85 125 164 202 253 311 366
#     4  11  23  38  61  89 119 159 209 259 305 362
#     4  11  22  39  66  93 120 159 205 252 302 364
#     4  11  25  44  65  91 124 160 197 245 308 370
#     4  10  22  42  65  91 121 154 199 251 303 360
#     4  11  23  37  55  84 123 164 204 251 309 368
#
# _framework density 19.858872000000002
#
# number of rings (size 3 to 8) (size 9 to 14) (size 15 to 20)
#    0.000    1.500    1.250    3.750    0.000    9.750 
#    0.000    4.375    0.000    0.000    0.000    0.000 
#    0.000    0.000    0.000    0.000    0.000    0.000 
#
# Total GULP energy -178867.912436 kJ/mol
# GULP energy per Si atom -5589.622264 kJ/mol
# Density = 1.981367 g / cm^3
# Si number density = 19.858872 Si / 1000 Ang^3
#
#
#
# Elastic Constant Matrix: (Units=GPa)
#
#
# Indices 1 2 3 4 5 6 
#
# 1 82.3280 26.3445 47.1663 0.0000 7.8214 0.0000
# 2 26.3445 24.3097 25.5055 0.0000 11.7221 0.0000
# 3 47.1663 25.5055 139.7475 0.0000 -1.8809 0.0000
# 4 0.0000 0.0000 0.0000 17.9056 0.0000 -9.7227
# 5 7.8214 11.7221 -1.8809 0.0000 30.3834 0.0000
# 6 0.0000 0.0000 0.0000 -9.7227 0.0000 42.1463
#
#
#
# Elastic Compliance Matrix: (Units=1/GPa)
#
#
# Indices 1 2 3 4 5 6 
#
# 1 0.019942 -0.019292 -0.003181 0.000000 0.002113 0.000000
# 2 -0.019292 0.085961 -0.009565 0.000000 -0.028790 0.000000
# 3 -0.003181 -0.009565 0.010044 0.000000 0.005131 0.000000
# 4 0.000000 0.000000 0.000000 0.063846 0.000000 0.014729
# 5 0.002113 -0.028790 0.005131 0.000000 0.043794 0.000000
# 6 0.000000 0.000000 0.000000 0.014729 0.000000 0.027125
#
#
# Mechanical properties :
#
#
# Convention : Reuss Voigt Hill
#
# Bulk Modulus (GPa) = 19.27886 49.37978 34.32932
# Shear Modulus (GPa) = 15.05675 27.91165 21.48420
#
# Velocity S-wave (km/s) = 2.75651 3.75307 3.29271
# Velocity P-wave (km/s) = 4.45647 6.61060 5.63738
#
# Compressibility (1/GPa) = 0.05187029
#
# Stress axis : x y z
#
# Youngs Moduli (GPa) = 50.14633 11.63324 99.55990
#
# Poissons Ratio (x) = 0.22443 0.31671
# Poissons Ratio (y) = 0.96742 0.95229
# Poissons Ratio (z) = 0.15952 0.11127
#
# Static dielectric constant tensor:
#      x y z
#    x 1.692180 0.000000 0.011210 
#    y 0.000000 1.670340 0.000000 
#    z 0.011210 0.000000 1.699100 
# 
# From -- ./inp_files/49843.got.cif
#   From: 2010.05.17/outbox.cif.g08.bks.cpg/sg10_25_cif.got.tgz:49843.got - 2010.06.03 11:33:40.
