data_PCOD9147760
_publ_section_title
;
Structure prediction by ZEFSAII (Michael W. Deem and Ramdas Pophale) SiO2 
 PCOD9147760
Probable space group: P 2/M
;
_chemical_formula_sum "Si O2"
_cell_formula_units_Z 28
_cell_length_a 10.045716
_cell_length_b 14.477165
_cell_length_c 12.772985
_cell_angle_alpha 90.000000
_cell_angle_beta 63.182722
_cell_angle_gamma 90.000000
_cell_volume 1657.832407
_symmetry_space_group_name_H-M "P 2/M"
_symmetry_group_IT_number 10
_symmetry_cell_setting 'monoclinic'
loop_
_space_group_symop_operation_xyz
x,y,z
-x,y,-z
-x,-y,-z
x,-y,z
loop_
_atom_site_type_symbol
_atom_site_label
_atom_site_fract_x
_atom_site_fract_y
_atom_site_fract_z
Si Si1 0.324608 0.891734 0.036186
Si Si2 0.150170 0.793595 0.281031
Si Si3 0.160455 0.605074 0.385508
Si Si4 0.669277 0.889627 0.598981
Si Si5 0.669354 0.889868 0.208705
Si Si6 0.194306 0.207063 0.646836
Si Si7 0.324766 0.394665 0.541326
O O1 0.232900 0.829997 0.148899
O O2 0.283638 0.000000 0.065494
O O3 0.500000 0.884364 0.000000
O O4 0.303232 0.867134 0.922264
O O5 0.177261 0.685750 0.296037
O O6 0.215705 0.849375 0.356825
O O7 0.974296 0.807838 0.330092
O O8 0.166026 0.500000 0.343282
O O9 0.283006 0.615792 0.433645
O O10 0.000000 0.617192 0.500000
O O11 0.502559 0.869763 0.699508
O O12 0.700273 0.841750 0.477004
O O13 0.685537 0.000000 0.583900
O O14 0.773629 0.836928 0.252461
O O15 0.689913 0.000000 0.213508
O O16 0.234117 0.315276 0.631971
O O17 0.500000 0.382725 0.500000
O O18 0.283082 0.500000 0.585020
#
# Coordination Sequence:
#
# PCOD9147760 Si02
#       7
#     4   4   4   4   4   4   4
#     4  10  21  40  61  79 105 153 209 243 272 331
#     4  12  22  35  57  86 112 149 191 238 283 337
#     4  10  19  36  58  85 120 150 183 229 288 354
#     4  11  21  35  55  81 114 149 185 232 292 348
#     4  10  22  39  57  77 108 155 197 231 279 340
#     4  12  23  34  53  87 122 143 177 239 302 346
#     4  10  20  34  55  83 116 152 186 223 276 346
#
# _framework density 16.889523000000001
#
# number of rings (size 3 to 8) (size 9 to 14) (size 15 to 20)
#    0.000    1.286    4.286    2.571    0.000    4.571 
#    0.000    1.429    0.000    1.286    0.000    2.000 
#    0.000    0.000    0.000    0.000    0.000    0.000 
#
# Total GULP energy -156406.308978 kJ/mol
# GULP energy per Si atom -5585.939606 kJ/mol
# Density = 1.685108 g / cm^3
# Si number density = 16.889523 Si / 1000 Ang^3
#
#
#
# Elastic Constant Matrix: (Units=GPa)
#
#
# Indices 1 2 3 4 5 6 
#
# 1 77.9568 29.1547 11.5013 0.0000 14.6316 0.0000
# 2 29.1547 81.5037 49.5994 0.0000 7.6939 0.0000
# 3 11.5013 49.5994 84.1909 0.0000 16.1122 0.0000
# 4 0.0000 0.0000 0.0000 39.1971 0.0000 6.7861
# 5 14.6316 7.6939 16.1122 0.0000 27.4172 0.0000
# 6 0.0000 0.0000 0.0000 6.7861 0.0000 26.8929
#
#
#
# Elastic Compliance Matrix: (Units=1/GPa)
#
#
# Indices 1 2 3 4 5 6 
#
# 1 0.016771 -0.007492 0.003868 0.000000 -0.009121 0.000000
# 2 -0.007492 0.022522 -0.013296 0.000000 0.005492 0.000000
# 3 0.003868 -0.013296 0.021254 0.000000 -0.010823 0.000000
# 4 0.000000 0.000000 0.000000 0.026678 0.000000 -0.006732
# 5 -0.009121 0.005492 -0.010823 0.000000 0.046160 0.000000
# 6 0.000000 0.000000 0.000000 -0.006732 0.000000 0.038883
#
#
# Mechanical properties :
#
#
# Convention : Reuss Voigt Hill
#
# Bulk Modulus (GPa) = 37.44333 47.12913 42.28623
# Shear Modulus (GPa) = 23.25474 28.92784 26.09129
#
# Velocity S-wave (km/s) = 3.71465 4.14305 3.93469
# Velocity P-wave (km/s) = 6.37306 7.13102 6.76267
#
# Compressibility (1/GPa) = 0.02670703
#
# Stress axis : x y z
#
# Youngs Moduli (GPa) = 59.62772 44.40034 47.05053
#
# Poissons Ratio (x) = 0.33265 -0.18200
# Poissons Ratio (y) = 0.44674 0.62559
# Poissons Ratio (z) = -0.23066 0.59035
#
# Static dielectric constant tensor:
#      x y z
#    x 1.579380 0.000000 0.000150 
#    y 0.000000 1.577180 0.000000 
#    z 0.000150 0.000000 1.539160 
# 
# From -- ./inp_files/25017.got.cif
#   From: 2010.05.17/outbox.cif.g08.bks.cpg/sg10_13_cif.got.tgz:25017.got - 2010.06.03 11:33:40.
