data_PCOD9147493
_publ_section_title
;
Structure prediction by ZEFSAII (Michael W. Deem and Ramdas Pophale) SiO2 
 PCOD9147493
Probable space group: P 2/M
;
_chemical_formula_sum "Si O2"
_cell_formula_units_Z 20
_cell_length_a 9.071466
_cell_length_b 23.376951
_cell_length_c 7.810549
_cell_angle_alpha 90.000000
_cell_angle_beta 34.317510
_cell_angle_gamma 90.000000
_cell_volume 933.803296
_symmetry_space_group_name_H-M "P 2/M"
_symmetry_group_IT_number 10
_symmetry_cell_setting 'monoclinic'
loop_
_space_group_symop_operation_xyz
x,y,z
-x,y,-z
-x,-y,-z
x,-y,z
loop_
_atom_site_type_symbol
_atom_site_label
_atom_site_fract_x
_atom_site_fract_y
_atom_site_fract_z
Si Si1 0.740474 0.063442 0.138762
Si Si2 0.960867 0.240282 0.329320
Si Si3 0.388211 0.433971 0.800299
Si Si4 0.541522 0.823651 0.163549
Si Si5 0.893516 0.630204 0.409440
O O1 0.500000 0.060383 0.500000
O O2 0.660760 0.114710 0.091435
O O3 0.772730 0.000000 0.027410
O O4 0.000000 0.075280 0.000000
O O5 0.738289 0.194545 0.492871
O O6 0.879077 0.304316 0.361076
O O7 0.000000 0.238914 0.500000
O O8 0.240848 0.222137 0.989011
O O9 0.500000 0.433181 0.500000
O O10 0.372119 0.500000 0.871697
O O11 0.610987 0.398819 0.684443
O O12 0.106418 0.405038 0.095661
O O13 0.500000 0.820248 0.000000
O O14 0.000000 0.631165 0.500000
#
# Coordination Sequence:
#
# PCOD9147493 Si02
#       5
#     4   4   4   4   4
#     4  10  21  37  55  78 112 148 181 225 279 325
#     4   9  19  35  56  83 113 143 177 230 288 326
#     4  11  24  41  59  83 119 155 186 233 295 343
#     4  10  19  35  58  81 108 144 186 226 272 333
#     4  11  22  39  63  87 113 149 195 238 280 341
#
# _framework density 21.417786
#
# number of rings (size 3 to 8) (size 9 to 14) (size 15 to 20)
#    0.000    1.800    0.000    4.200    0.000    7.600 
#    0.000   10.000    0.000    7.200    0.000    0.000 
#    0.000    0.000    0.000    0.000    0.000    0.000 
#
# Total GULP energy -111732.112463 kJ/mol
# GULP energy per Si atom -5586.605623 kJ/mol
# Density = 2.136904 g / cm^3
# Si number density = 21.417786 Si / 1000 Ang^3
#
#
#
# Elastic Constant Matrix: (Units=GPa)
#
#
# Indices 1 2 3 4 5 6 
#
# 1 40.3169 32.5225 19.5125 0.0000 -23.8440 0.0000
# 2 32.5225 145.6557 25.7676 0.0000 -26.5889 0.0000
# 3 19.5125 25.7676 102.6216 0.0000 -31.0735 0.0000
# 4 0.0000 0.0000 0.0000 34.4790 0.0000 -37.7749
# 5 -23.8440 -26.5889 -31.0735 0.0000 35.4283 0.0000
# 6 0.0000 0.0000 0.0000 -37.7749 0.0000 -199.4040
#
#
#
# Elastic Compliance Matrix: (Units=1/GPa)
#
#
# Indices 1 2 3 4 5 6 
#
# 1 0.044386 -0.005184 0.000993 0.000000 0.026853 0.000000
# 2 -0.005184 0.008566 -0.000374 0.000000 0.002611 0.000000
# 3 0.000993 -0.000374 0.013299 0.000000 0.012052 0.000000
# 4 0.000000 0.000000 0.000000 0.024018 0.000000 -0.004550
# 5 0.026853 0.002611 0.012052 0.000000 0.058829 0.000000
# 6 0.000000 0.000000 0.000000 -0.004550 0.000000 -0.004153
#
#
# Mechanical properties :
#
#
# Convention : Reuss Voigt Hill
#
# Bulk Modulus (GPa) = 17.50713 49.35549 33.43131
# Shear Modulus (GPa) = 28.88233 -11.84659 8.51787
#
# Velocity S-wave (km/s) = 3.67620 -2.35440 1.99641
# Velocity P-wave (km/s) = 5.11968 3.96273 4.57790
#
# Compressibility (1/GPa) = 0.05711957
#
# Stress axis : x y z
#
# Youngs Moduli (GPa) = 22.52957 116.74059 75.19402
#
# Poissons Ratio (x) = 0.60524 -0.07468
# Poissons Ratio (y) = 0.11680 0.02816
# Poissons Ratio (z) = -0.02238 0.04371
#
# Static dielectric constant tensor:
#      x y z
#    x 1.786230 0.000000 0.017660 
#    y 0.000000 1.789380 0.000000 
#    z 0.017660 0.000000 1.738530 
# 
# From -- ./inp_files/20332.got.cif
#   From: 2010.05.17/outbox.cif.g08.bks.cpg/sg10_11_cif.got.tgz:20332.got - 2010.06.03 11:33:40.
