data_PCOD9147005
_publ_section_title
;
Structure prediction by ZEFSAII (Michael W. Deem and Ramdas Pophale) SiO2 
 PCOD9147005
Probable space group: P 2/M
;
_chemical_formula_sum "Si O2"
_cell_formula_units_Z 32
_cell_length_a 19.780066
_cell_length_b 7.576645
_cell_length_c 12.823656
_cell_angle_alpha 90.000000
_cell_angle_beta 48.355640
_cell_angle_gamma 90.000000
_cell_volume 1436.157674
_symmetry_space_group_name_H-M "P 2/M"
_symmetry_group_IT_number 10
_symmetry_cell_setting 'monoclinic'
loop_
_space_group_symop_operation_xyz
x,y,z
-x,y,-z
-x,-y,-z
x,-y,z
loop_
_atom_site_type_symbol
_atom_site_label
_atom_site_fract_x
_atom_site_fract_y
_atom_site_fract_z
Si Si1 0.735902 0.786817 0.594344
Si Si2 0.000952 0.708777 0.831131
Si Si3 0.771970 0.293745 0.785935
Si Si4 0.469963 0.783929 0.146940
Si Si5 0.360047 0.200227 0.914795
Si Si6 0.809793 0.795770 0.298653
Si Si7 0.209167 0.785921 0.908425
Si Si8 0.034932 0.715594 0.353558
O O1 0.786132 0.728440 0.648409
O O2 0.631813 0.731754 0.719687
O O3 0.776128 0.719797 0.443640
O O4 0.739365 0.000000 0.590459
O O5 0.016355 0.500000 0.820531
O O6 0.015405 0.775738 0.697855
O O7 0.080704 0.789100 0.817839
O O8 0.895118 0.737390 0.961247
O O9 0.758474 0.500000 0.820121
O O10 0.687485 0.196503 0.922490
O O11 0.860482 0.231855 0.756384
O O12 0.472542 0.000000 0.144207
O O13 0.500000 0.726355 0.000000
O O14 0.542473 0.720336 0.158808
O O15 0.375489 0.000000 0.862589
O O16 0.285381 0.278221 0.912140
O O17 0.772821 0.721456 0.228032
O O18 0.781981 0.000000 0.328889
O O19 0.211007 0.000000 0.908651
O O20 0.032150 0.500000 0.356530
O O21 0.000000 0.777932 0.500000
#
# Coordination Sequence:
#
# PCOD9147005 Si02
#       8
#     4   4   4   4   4   4   4   4
#     4  10  20  36  56  78 108 144 180 218 267 326
#     4  11  21  35  56  80 106 142 186 222 261 317
#     4  11  20  32  52  78 110 140 172 218 269 316
#     4   9  16  30  55  82 106 136 176 220 265 318
#     4  10  19  34  56  79 105 139 178 216 265 321
#     4  10  22  38  54  77 109 144 181 225 271 311
#     4  10  21  37  56  78 109 144 181 226 268 309
#     4   9  18  31  46  69 104 138 167 208 261 309
#
# _framework density 22.281675
#
# number of rings (size 3 to 8) (size 9 to 14) (size 15 to 20)
#    0.000    2.000    2.500    1.875    0.000    3.500 
#    0.000    1.875    0.000    6.750    0.000    0.000 
#    0.000    4.000    0.000    0.000    0.000    0.000 
#
# Total GULP energy -178644.941052 kJ/mol
# GULP energy per Si atom -5582.654408 kJ/mol
# Density = 2.223096 g / cm^3
# Si number density = 22.281675 Si / 1000 Ang^3
#
#
#
# Elastic Constant Matrix: (Units=GPa)
#
#
# Indices 1 2 3 4 5 6 
#
# 1 134.7464 -4.4557 43.0249 0.0000 17.0071 0.0000
# 2 -4.4557 58.1374 -2.2420 0.0000 0.7802 0.0000
# 3 43.0249 -2.2420 74.9591 0.0000 18.1508 0.0000
# 4 0.0000 0.0000 0.0000 -72.8593 0.0000 143.0694
# 5 17.0071 0.7802 18.1508 0.0000 37.8925 0.0000
# 6 0.0000 0.0000 0.0000 143.0694 0.0000 -267.8735
#
#
#
# Elastic Compliance Matrix: (Units=1/GPa)
#
#
# Indices 1 2 3 4 5 6 
#
# 1 0.009212 0.000544 -0.004827 0.000000 -0.001834 0.000000
# 2 0.000544 0.017268 0.000395 0.000000 -0.000789 0.000000
# 3 -0.004827 0.000395 0.017647 0.000000 -0.006295 0.000000
# 4 0.000000 0.000000 0.000000 0.281441 0.000000 0.150316
# 5 -0.001834 -0.000789 -0.006295 0.000000 0.030245 0.000000
# 6 0.000000 0.000000 0.000000 0.150316 0.000000 0.076550
#
#
# Mechanical properties :
#
#
# Convention : Reuss Voigt Hill
#
# Bulk Modulus (GPa) = 27.50864 37.83303 32.67084
# Shear Modulus (GPa) = 11.05568 -45.13367 -17.03899
#
# Velocity S-wave (km/s) = 2.22992 -4.50554 -2.76834
# Velocity P-wave (km/s) = 4.35921 3.17022 2.11571
#
# Compressibility (1/GPa) = 0.03635221
#
# Stress axis : x y z
#
# Youngs Moduli (GPa) = 108.55232 57.90994 56.66546
#
# Poissons Ratio (x) = -0.03153 0.27354
# Poissons Ratio (y) = -0.05910 -0.02239
# Poissons Ratio (z) = 0.52402 -0.02288
#
# Static dielectric constant tensor:
#      x y z
#    x 1.829360 0.000000 0.008550 
#    y 0.000000 1.817690 0.000000 
#    z 0.008550 0.000000 1.838490 
# 
# From -- ./inp_files/55255.got.cif
#   From: 2010.05.17/outbox.cif.g08.bks.cpg/sg10_28_cif.got.tgz:55255.got - 2010.06.03 11:33:40.
