data_PCOD9147839
_publ_section_title
;
Structure prediction by ZEFSAII (Michael W. Deem and Ramdas Pophale) SiO2 
 PCOD9147839
Probable space group: P 2/M
;
_chemical_formula_sum "Si O2"
_cell_formula_units_Z 28
_cell_length_a 9.606586
_cell_length_b 8.489980
_cell_length_c 27.835755
_cell_angle_alpha 90.000000
_cell_angle_beta 41.124289
_cell_angle_gamma 90.000000
_cell_volume 1493.148663
_symmetry_space_group_name_H-M "P 2/M"
_symmetry_group_IT_number 10
_symmetry_cell_setting 'monoclinic'
loop_
_space_group_symop_operation_xyz
x,y,z
-x,y,-z
-x,-y,-z
x,-y,z
loop_
_atom_site_type_symbol
_atom_site_label
_atom_site_fract_x
_atom_site_fract_y
_atom_site_fract_z
Si Si1 0.171557 0.188361 0.916081
Si Si2 0.329781 0.322083 0.308100
Si Si3 0.248949 0.316843 0.429655
Si Si4 0.937419 0.812790 0.263253
Si Si5 0.166025 0.323092 0.814590
Si Si6 0.433998 0.308954 0.571220
Si Si7 0.352897 0.309901 0.198609
O O1 0.098253 0.239032 0.881573
O O2 0.404281 0.255353 0.868693
O O3 0.187674 0.000000 0.912696
O O4 0.000000 0.240255 0.000000
O O5 0.233740 0.500000 0.334139
O O6 0.281808 0.235565 0.369911
O O7 0.582060 0.335989 0.243186
O O8 0.273299 0.250663 0.271833
O O9 0.324819 0.500000 0.404910
O O10 0.379433 0.255942 0.440772
O O11 0.000000 0.320199 0.500000
O O12 0.867921 0.758453 0.227920
O O13 0.781083 0.745157 0.345674
O O14 0.177526 0.752967 0.208057
O O15 0.929044 0.000000 0.268250
O O16 0.077123 0.500000 0.835373
O O17 0.500000 0.256571 0.500000
O O18 0.425191 0.500000 0.571391
O O19 0.351638 0.500000 0.199414
#
# Coordination Sequence:
#
# PCOD9147839 Si02
#       7
#     4   4   4   4   4   4   4
#     4  10  21  39  63  93 128 158 186 228 288 354
#     4   8  15  29  51  78 105 136 182 240 287 329
#     4   9  16  27  48  78 107 134 178 238 292 338
#     4  12  24  38  57  82 119 160 197 247 308 361
#     4  10  19  36  61  86 113 151 199 243 282 340
#     4  10  21  36  56  81 111 151 199 249 300 356
#     4  10  21  36  59  87 115 152 201 246 286 342
#
# _framework density 18.752319
#
# number of rings (size 3 to 8) (size 9 to 14) (size 15 to 20)
#    0.000    2.143    1.429    3.429    2.000    1.429 
#    0.000    0.714    0.000    4.714    0.000    0.000 
#    0.000    0.000    0.000    0.000    0.000    0.000 
#
# Total GULP energy -155895.349829 kJ/mol
# GULP energy per Si atom -5567.691065 kJ/mol
# Density = 1.870964 g / cm^3
# Si number density = 18.752319 Si / 1000 Ang^3
#
#
#
# Elastic Constant Matrix: (Units=GPa)
#
#
# Indices 1 2 3 4 5 6 
#
# 1 76.5906 19.0396 33.1836 0.0000 1.5310 0.0000
# 2 19.0396 55.5225 25.4779 0.0000 2.9188 0.0000
# 3 33.1836 25.4779 100.0520 0.0000 19.7027 0.0000
# 4 0.0000 0.0000 0.0000 13.0649 0.0000 -8.2128
# 5 1.5310 2.9188 19.7027 0.0000 26.1525 0.0000
# 6 0.0000 0.0000 0.0000 -8.2128 0.0000 11.2872
#
#
#
# Elastic Compliance Matrix: (Units=1/GPa)
#
#
# Indices 1 2 3 4 5 6 
#
# 1 0.016035 -0.003322 -0.005120 0.000000 0.003289 0.000000
# 2 -0.003322 0.021165 -0.004533 0.000000 0.001248 0.000000
# 3 -0.005120 -0.004533 0.014899 0.000000 -0.010419 0.000000
# 4 0.000000 0.000000 0.000000 0.141063 0.000000 0.102640
# 5 0.003289 0.001248 -0.010419 0.000000 0.045755 0.000000
# 6 0.000000 0.000000 0.000000 0.102640 0.000000 0.163280
#
#
# Mechanical properties :
#
#
# Convention : Reuss Voigt Hill
#
# Bulk Modulus (GPa) = 38.24444 43.06305 40.65375
# Shear Modulus (GPa) = 11.44525 20.39851 15.92188
#
# Velocity S-wave (km/s) = 2.47318 3.30174 2.91703
# Velocity P-wave (km/s) = 5.34736 6.12775 5.75081
#
# Compressibility (1/GPa) = 0.02614759
#
# Stress axis : x y z
#
# Youngs Moduli (GPa) = 62.36444 47.24869 67.11831
#
# Poissons Ratio (x) = 0.15697 0.34364
# Poissons Ratio (y) = 0.20718 0.30427
# Poissons Ratio (z) = 0.31930 0.21420
#
# Static dielectric constant tensor:
#      x y z
#    x 1.658720 0.000000 0.033890 
#    y 0.000000 1.659990 0.000000 
#    z 0.033890 0.000000 1.680230 
# 
# From -- ./inp_files/91947.got.cif
#   From: 2010.05.17/outbox.cif.g08.bks.cpg/sg10_46_cif.got.tgz:91947.got - 2010.06.03 11:33:40.
