data_PCOD9147457
_publ_section_title
;
Structure prediction by ZEFSAII (Michael W. Deem and Ramdas Pophale) SiO2 
 PCOD9147457
Probable space group: P 2/M
;
_chemical_formula_sum "Si O2"
_cell_formula_units_Z 28
_cell_length_a 15.435531
_cell_length_b 8.908839
_cell_length_c 11.282761
_cell_angle_alpha 90.000000
_cell_angle_beta 66.694866
_cell_angle_gamma 90.000000
_cell_volume 1424.935214
_symmetry_space_group_name_H-M "P 2/M"
_symmetry_group_IT_number 10
_symmetry_cell_setting 'monoclinic'
loop_
_space_group_symop_operation_xyz
x,y,z
-x,y,-z
-x,-y,-z
x,-y,z
loop_
_atom_site_type_symbol
_atom_site_label
_atom_site_fract_x
_atom_site_fract_y
_atom_site_fract_z
Si Si1 0.050386 0.174507 0.308360
Si Si2 0.143955 0.676979 0.594409
Si Si3 0.543661 0.683212 0.348638
Si Si4 0.761081 0.317514 0.217446
Si Si5 0.084098 0.327380 0.049442
Si Si6 0.237896 0.676778 0.307519
Si Si7 0.552197 0.683412 0.849981
O O1 0.056604 0.214722 0.166489
O O2 0.146031 0.244244 0.306787
O O3 0.951080 0.246639 0.400242
O O4 0.047868 0.000000 0.333917
O O5 0.122343 0.500000 0.618225
O O6 0.179621 0.736109 0.701055
O O7 0.228106 0.691999 0.454664
O O8 0.500000 0.730529 0.500000
O O9 0.540909 0.500000 0.350916
O O10 0.653029 0.731010 0.280995
O O11 0.492662 0.729589 0.252925
O O12 0.760607 0.500000 0.225139
O O13 0.819260 0.282567 0.067876
O O14 0.093331 0.500000 0.089927
O O15 0.000000 0.330589 0.000000
O O16 0.230930 0.500000 0.283600
O O17 0.338518 0.731805 0.207762
O O18 0.550887 0.500000 0.849997
O O19 0.500000 0.730287 0.000000
#
# Coordination Sequence:
#
# PCOD9147457 Si02
#       7
#     4   4   4   4   4   4   4
#     4  12  25  37  53  79 113 148 187 231 277 328
#     4  10  19  36  57  82 111 144 185 226 273 331
#     4   9  16  27  46  77 113 142 171 218 279 332
#     4   9  17  29  52  81 110 142 175 217 273 333
#     4  10  19  35  57  80 108 143 183 224 271 330
#     4  10  21  36  58  81 109 147 186 228 274 329
#     4   9  18  31  49  80 115 142 177 229 282 329
#
# _framework density 19.650016999999998
#
# number of rings (size 3 to 8) (size 9 to 14) (size 15 to 20)
#    0.000    2.143    1.429    2.571    2.000    6.000 
#    0.000    0.000    0.000    0.429    0.000    0.000 
#    0.000    4.000    0.000    0.000    0.000    0.000 
#
# Total GULP energy -156188.915572 kJ/mol
# GULP energy per Si atom -5578.175556 kJ/mol
# Density = 1.960529 g / cm^3
# Si number density = 19.650017 Si / 1000 Ang^3
#
#
#
# Elastic Constant Matrix: (Units=GPa)
#
#
# Indices 1 2 3 4 5 6 
#
# 1 113.6422 15.1076 64.9281 0.0000 -19.6029 0.0000
# 2 15.1076 18.2590 21.5671 0.0000 -6.5407 0.0000
# 3 64.9281 21.5671 128.2351 0.0000 -25.1735 0.0000
# 4 0.0000 0.0000 0.0000 -26.0748 0.0000 -14.2599
# 5 -19.6029 -6.5407 -25.1735 0.0000 40.7254 0.0000
# 6 0.0000 0.0000 0.0000 -14.2599 0.0000 -17.9229
#
#
#
# Elastic Compliance Matrix: (Units=1/GPa)
#
#
# Indices 1 2 3 4 5 6 
#
# 1 0.012741 -0.003295 -0.005459 0.000000 0.002229 0.000000
# 2 -0.003295 0.069899 -0.009327 0.000000 0.003875 0.000000
# 3 -0.005459 -0.009327 0.012885 0.000000 0.003839 0.000000
# 4 0.000000 0.000000 0.000000 -0.067892 0.000000 0.054017
# 5 0.002229 0.003875 0.003839 0.000000 0.028623 0.000000
# 6 0.000000 0.000000 0.000000 0.054017 0.000000 -0.098771
#
#
# Mechanical properties :
#
#
# Convention : Reuss Voigt Hill
#
# Bulk Modulus (GPa) = 16.84586 51.48242 34.16414
# Shear Modulus (GPa) = 372.20585 9.91445 191.06015
#
# Velocity S-wave (km/s) = 13.77784 2.24866 9.87130
# Velocity P-wave (km/s) = 16.17704 5.74443 12.13868
#
# Compressibility (1/GPa) = 0.05936177
#
# Stress axis : x y z
#
# Youngs Moduli (GPa) = 78.48503 14.30644 77.61262
#
# Poissons Ratio (x) = 0.04714 0.42372
# Poissons Ratio (y) = 0.25863 0.72387
# Poissons Ratio (z) = 0.42848 0.13343
#
# Static dielectric constant tensor:
#      x y z
#    x 1.690220 0.000000 0.021630 
#    y 0.000000 1.657880 0.000000 
#    z 0.021630 0.000000 1.739030 
# 
# From -- ./inp_files/49319.got.cif
#   From: 2010.05.17/outbox.cif.g08.bks.cpg/sg10_25_cif.got.tgz:49319.got - 2010.06.03 11:33:40.
