data_PCOD9147553
_publ_section_title
;
Structure prediction by ZEFSAII (Michael W. Deem and Ramdas Pophale) SiO2 
 PCOD9147553
Probable space group: P 2/M
;
_chemical_formula_sum "Si O2"
_cell_formula_units_Z 28
_cell_length_a 26.926777
_cell_length_b 8.641277
_cell_length_c 8.261362
_cell_angle_alpha 90.000000
_cell_angle_beta 38.921446
_cell_angle_gamma 90.000000
_cell_volume 1207.673208
_symmetry_space_group_name_H-M "P 2/M"
_symmetry_group_IT_number 10
_symmetry_cell_setting 'monoclinic'
loop_
_space_group_symop_operation_xyz
x,y,z
-x,y,-z
-x,-y,-z
x,-y,z
loop_
_atom_site_type_symbol
_atom_site_label
_atom_site_fract_x
_atom_site_fract_y
_atom_site_fract_z
Si Si1 0.884049 0.187792 0.379599
Si Si2 0.552250 0.324862 0.701573
Si Si3 0.963126 0.186187 0.836589
Si Si4 0.821915 0.679718 0.019919
Si Si5 0.588204 0.817457 0.123888
Si Si6 0.266693 0.186302 0.062083
Si Si7 0.689663 0.177103 0.536937
O O1 0.796132 0.239533 0.642429
O O2 0.947089 0.237620 0.356991
O O3 0.883675 0.000000 0.384341
O O4 0.918660 0.227767 0.117576
O O5 0.580434 0.500000 0.602102
O O6 0.492665 0.267708 0.714374
O O7 0.624623 0.213531 0.563188
O O8 0.500000 0.326726 0.000000
O O9 0.963036 0.000000 0.818343
O O10 0.909096 0.256750 0.834948
O O11 0.825025 0.500000 0.976972
O O12 0.764290 0.714045 0.318652
O O13 0.776033 0.766239 0.993255
O O14 0.571111 0.000000 0.189757
O O15 0.645280 0.756376 0.121192
O O16 0.643583 0.805014 0.822736
O O17 0.272025 0.000000 0.055295
O O18 0.717487 0.000000 0.455775
#
# Coordination Sequence:
#
# PCOD9147553 Si02
#       7
#     4   4   4   4   4   4   4
#     4   8  16  33  61  88 105 129 175 226 265 308
#     4   9  17  30  51  81 114 142 169 208 262 320
#     4   9  17  35  61  85 106 133 173 221 268 313
#     4  12  25  37  49  74 111 147 180 215 262 319
#     4   9  18  33  57  84 106 133 176 224 266 311
#     4  10  20  36  55  77 106 141 180 220 262 310
#     4  10  19  35  59  82 104 135 178 226 268 309
#
# _framework density 23.185079999999999
#
# number of rings (size 3 to 8) (size 9 to 14) (size 15 to 20)
#    0.000    2.429    0.000    3.857    0.000    5.714 
#    0.000    7.857    0.000    4.286    0.000    0.000 
#    0.000    0.000    0.000    0.000    0.000    0.000 
#
# Total GULP energy -156512.400078 kJ/mol
# GULP energy per Si atom -5589.728574 kJ/mol
# Density = 2.313231 g / cm^3
# Si number density = 23.185080 Si / 1000 Ang^3
#
#
#
# Elastic Constant Matrix: (Units=GPa)
#
#
# Indices 1 2 3 4 5 6 
#
# 1 158.8198 10.1283 25.0405 0.0000 -26.1304 0.0000
# 2 10.1283 20.8455 -1.6524 0.0000 -9.5660 0.0000
# 3 25.0405 -1.6524 63.3235 0.0000 -12.7911 0.0000
# 4 0.0000 0.0000 0.0000 6.5943 0.0000 11.9793
# 5 -26.1304 -9.5660 -12.7911 0.0000 37.3011 0.0000
# 6 0.0000 0.0000 0.0000 11.9793 0.0000 -18.9337
#
#
#
# Elastic Compliance Matrix: (Units=1/GPa)
#
#
# Indices 1 2 3 4 5 6 
#
# 1 0.007415 -0.001968 -0.002188 0.000000 0.003939 0.000000
# 2 -0.001968 0.056142 0.005236 0.000000 0.014814 0.000000
# 3 -0.002188 0.005236 0.018002 0.000000 0.005983 0.000000
# 4 0.000000 0.000000 0.000000 0.070553 0.000000 0.044639
# 5 0.003939 0.014814 0.005983 0.000000 0.035419 0.000000
# 6 0.000000 0.000000 0.000000 0.044639 0.000000 -0.024573
#
#
# Mechanical properties :
#
#
# Convention : Reuss Voigt Hill
#
# Bulk Modulus (GPa) = 11.94485 34.44685 23.19585
# Shear Modulus (GPa) = 26.49623 18.95718 22.72670
#
# Velocity S-wave (km/s) = 3.38422 2.86255 3.13426
# Velocity P-wave (km/s) = 4.52037 5.08087 4.80879
#
# Compressibility (1/GPa) = 0.08371810
#
# Stress axis : x y z
#
# Youngs Moduli (GPa) = 134.86055 17.81209 55.54848
#
# Poissons Ratio (x) = 0.03506 0.12153
# Poissons Ratio (y) = 0.26546 -0.29084
# Poissons Ratio (z) = 0.29505 -0.09326
#
# Static dielectric constant tensor:
#      x y z
#    x 1.903220 0.000000 0.050690 
#    y 0.000000 1.780720 0.000000 
#    z 0.050690 0.000000 1.953310 
# 
# From -- ./inp_files/36959.got.cif
#   From: 2010.05.17/outbox.cif.g08.bks.cpg/sg10_19_cif.got.tgz:36959.got - 2010.06.03 11:33:40.
