data_PCOD9147032
_publ_section_title
;
Structure prediction by ZEFSAII (Michael W. Deem and Ramdas Pophale) SiO2 
 PCOD9147032
Probable space group: P 2/M
;
_chemical_formula_sum "Si O2"
_cell_formula_units_Z 28
_cell_length_a 20.703039
_cell_length_b 8.138940
_cell_length_c 18.789039
_cell_angle_alpha 90.000000
_cell_angle_beta 152.269253
_cell_angle_gamma 90.000000
_cell_volume 1473.179070
_symmetry_space_group_name_H-M "P 2/M"
_symmetry_group_IT_number 10
_symmetry_cell_setting 'monoclinic'
loop_
_space_group_symop_operation_xyz
x,y,z
-x,y,-z
-x,-y,-z
x,-y,z
loop_
_atom_site_type_symbol
_atom_site_label
_atom_site_fract_x
_atom_site_fract_y
_atom_site_fract_z
Si Si1 0.236737 0.689731 0.545790
Si Si2 0.513464 0.305283 0.746949
Si Si3 0.897127 0.201017 0.961850
Si Si4 0.773751 0.814978 0.090551
Si Si5 0.421292 0.198394 0.350768
Si Si6 0.004914 0.301943 0.586027
Si Si7 0.966077 0.187790 0.761628
O O1 0.260327 0.500000 0.589310
O O2 0.384593 0.764381 0.667917
O O3 0.129450 0.761322 0.499982
O O4 0.148810 0.703121 0.387546
O O5 0.492881 0.500000 0.720414
O O6 0.523757 0.241805 0.675256
O O7 0.651126 0.273084 0.928022
O O8 0.738753 0.256601 0.801544
O O9 0.891753 0.000000 0.959287
O O10 0.972529 0.256624 0.106507
O O11 0.000000 0.249164 0.000000
O O12 0.849477 0.741093 0.233690
O O13 0.902264 0.821672 0.161539
O O14 0.726861 0.000000 0.060639
O O15 0.500000 0.255282 0.500000
O O16 0.422369 0.000000 0.354691
O O17 0.995495 0.500000 0.577691
O O18 0.000000 0.244240 0.500000
O O19 0.913081 0.000000 0.720169
#
# Coordination Sequence:
#
# PCOD9147032 Si02
#       7
#     4   4   4   4   4   4   4
#     4   9  20  35  52  78 108 137 176 218 261 316
#     4  11  22  36  54  76 110 148 180 220 267 320
#     4   9  17  30  48  73 101 128 169 221 268 314
#     4  10  19  34  56  81 108 139 179 221 262 315
#     4  10  21  36  54  76 104 140 182 227 273 319
#     4   9  18  36  61  85 110 141 177 217 265 321
#     4   9  17  31  52  75  99 131 174 222 266 311
#
# _framework density 19.006516000000001
#
# number of rings (size 3 to 8) (size 9 to 14) (size 15 to 20)
#    0.000    2.429    1.429    0.857    2.000    2.286 
#    0.000    0.714    0.000    5.143    0.000    0.000 
#    0.000    0.000    0.000    0.000    0.000    0.000 
#
# Total GULP energy -155878.677681 kJ/mol
# GULP energy per Si atom -5567.095631 kJ/mol
# Density = 1.896326 g / cm^3
# Si number density = 19.006516 Si / 1000 Ang^3
#
#
#
# Elastic Constant Matrix: (Units=GPa)
#
#
# Indices 1 2 3 4 5 6 
#
# 1 108.1131 10.0986 69.7084 0.0000 -13.7218 0.0000
# 2 10.0986 14.1397 -0.4117 0.0000 -1.0423 0.0000
# 3 69.7084 -0.4117 94.6601 0.0000 -15.4215 0.0000
# 4 0.0000 0.0000 0.0000 17.9773 0.0000 -7.6555
# 5 -13.7218 -1.0423 -15.4215 0.0000 38.7608 0.0000
# 6 0.0000 0.0000 0.0000 -7.6555 0.0000 15.9216
#
#
#
# Elastic Compliance Matrix: (Units=1/GPa)
#
#
# Indices 1 2 3 4 5 6 
#
# 1 0.020383 -0.014928 -0.014933 0.000000 0.000873 0.000000
# 2 -0.014928 0.081835 0.011599 0.000000 0.001530 0.000000
# 3 -0.014933 0.011599 0.022243 0.000000 0.003875 0.000000
# 4 0.000000 0.000000 0.000000 0.069948 0.000000 0.033632
# 5 0.000873 0.001530 0.003875 0.000000 0.027691 0.000000
# 6 0.000000 0.000000 0.000000 0.033632 0.000000 0.078979
#
#
# Mechanical properties :
#
#
# Convention : Reuss Voigt Hill
#
# Bulk Modulus (GPa) = 11.37194 41.74484 26.55839
# Shear Modulus (GPa) = 13.62708 23.69978 18.66343
#
# Velocity S-wave (km/s) = 2.68053 3.53502 3.13701
# Velocity P-wave (km/s) = 3.94671 6.21876 5.20814
#
# Compressibility (1/GPa) = 0.08793574
#
# Stress axis : x y z
#
# Youngs Moduli (GPa) = 49.05984 12.21966 44.95861
#
# Poissons Ratio (x) = 0.18242 0.67137
# Poissons Ratio (y) = 0.73238 -0.52146
# Poissons Ratio (z) = 0.73261 -0.14173
#
# Static dielectric constant tensor:
#      x y z
#    x 1.734430 0.000000 -0.035920 
#    y 0.000000 1.708400 0.000000 
#    z -0.035920 0.000000 1.688850 
# 
# From -- ./inp_files/79298.got.cif
#   From: 2010.05.17/outbox.cif.g08.bks.cpg/sg10_40_cif.got.tgz:79298.got - 2010.06.03 11:33:40.
