data_PCOD9147900
_publ_section_title
;
Structure prediction by ZEFSAII (Michael W. Deem and Ramdas Pophale) SiO2 
 PCOD9147900
Probable space group: P 2/M
;
_chemical_formula_sum "Si O2"
_cell_formula_units_Z 30
_cell_length_a 5.830391
_cell_length_b 13.834589
_cell_length_c 16.461947
_cell_angle_alpha 90.000000
_cell_angle_beta 117.371644
_cell_angle_gamma 90.000000
_cell_volume 1179.177414
_symmetry_space_group_name_H-M "P 2/M"
_symmetry_group_IT_number 10
_symmetry_cell_setting 'monoclinic'
loop_
_space_group_symop_operation_xyz
x,y,z
-x,y,-z
-x,-y,-z
x,-y,z
loop_
_atom_site_type_symbol
_atom_site_label
_atom_site_fract_x
_atom_site_fract_y
_atom_site_fract_z
Si Si1 0.551588 0.390847 0.210333
Si Si2 0.513713 0.111896 0.827460
Si Si3 0.265578 0.648502 0.014042
Si Si4 0.454494 0.608840 0.607153
Si Si5 0.259170 0.191877 0.628791
Si Si6 0.686576 0.000000 0.453998
Si Si7 0.055381 0.181745 0.865009
Si Si8 0.921280 0.282042 0.675919
O O1 0.546577 0.500000 0.176539
O O2 0.402751 0.326375 0.121357
O O3 0.436676 0.396154 0.281694
O O4 0.841069 0.355427 0.270905
O O5 0.406859 0.181252 0.738780
O O6 0.314804 0.129398 0.871000
O O7 0.826199 0.126383 0.876582
O O8 0.469894 0.000000 0.796688
O O9 0.500000 0.603870 0.000000
O O10 0.166832 0.736346 0.942686
O O11 0.000000 0.598962 0.000000
O O12 0.363632 0.500000 0.572475
O O13 0.285812 0.705636 0.587912
O O14 0.704527 0.648207 0.602625
O O15 0.362873 0.102007 0.597487
O O16 0.970123 0.197892 0.617097
O O17 0.500000 0.000000 0.500000
O O18 0.000000 0.000000 0.500000
O O19 0.915676 0.227117 0.761672
#
# Coordination Sequence:
#
# PCOD9147900 Si02
#       8
#     4   4   4   4   4   2   4   4
#     4  10  22  37  55  89 127 175 235 303 367 422
#     4  11  22  41  70  97 124 162 236 295 345 416
#     4  12  24  38  57  79 119 173 227 278 372 428
#     4  10  20  38  68 106 142 182 247 306 350 411
#     4  10  23  42  71 109 142 194 225 278 354 409
#     4  12  30  50  80 122 166 186 222 280 336 424
#     4  11  22  37  59  92 121 171 223 296 356 416
#     4  10  19  36  63  94 133 175 238 287 346 406
#
# _framework density 25.441461
#
# number of rings (size 3 to 8) (size 9 to 14) (size 15 to 20)
#    0.000    1.333    3.333    2.400    3.733    1.067 
#    0.000    0.000    0.000    8.800   13.867    0.000 
#    0.000    0.000    0.000    0.000    0.000    0.000 
#
# Total GULP energy -167125.993111 kJ/mol
# GULP energy per Si atom -5570.866437 kJ/mol
# Density = 2.538356 g / cm^3
# Si number density = 25.441461 Si / 1000 Ang^3
#
#
#
# Elastic Constant Matrix: (Units=GPa)
#
#
# Indices 1 2 3 4 5 6 
#
# 1 175.9373 44.4527 24.6850 0.0000 -3.5251 0.0000
# 2 44.4527 139.9493 31.3785 0.0000 -16.8846 0.0000
# 3 24.6850 31.3785 73.1754 0.0000 -9.1113 0.0000
# 4 0.0000 0.0000 0.0000 -3.9272 0.0000 -21.0891
# 5 -3.5251 -16.8846 -9.1113 0.0000 35.5126 0.0000
# 6 0.0000 0.0000 0.0000 -21.0891 0.0000 -14.4317
#
#
#
# Elastic Compliance Matrix: (Units=1/GPa)
#
#
# Indices 1 2 3 4 5 6 
#
# 1 0.006318 -0.001751 -0.001453 0.000000 -0.000578 0.000000
# 2 -0.001751 0.008709 -0.002737 0.000000 0.003265 0.000000
# 3 -0.001453 -0.002737 0.015650 0.000000 0.002569 0.000000
# 4 0.000000 0.000000 0.000000 0.037188 0.000000 -0.054343
# 5 -0.000578 0.003265 0.002569 0.000000 0.030313 0.000000
# 6 0.000000 0.000000 0.000000 -0.054343 0.000000 0.010120
#
#
# Mechanical properties :
#
#
# Convention : Reuss Voigt Hill
#
# Bulk Modulus (GPa) = 53.20500 65.56604 59.38552
# Shear Modulus (GPa) = 39.54284 22.66714 31.10499
#
# Velocity S-wave (km/s) = 3.94670 2.98812 3.50038
# Velocity P-wave (km/s) = 6.45962 6.14267 6.30314
#
# Compressibility (1/GPa) = 0.01879523
#
# Stress axis : x y z
#
# Youngs Moduli (GPa) = 158.26577 114.82003 63.89940
#
# Poissons Ratio (x) = 0.20105 0.09282
# Poissons Ratio (y) = 0.27713 0.17492
# Poissons Ratio (z) = 0.22990 0.31432
#
# Static dielectric constant tensor:
#      x y z
#    x 2.239050 0.000000 -0.045450 
#    y 0.000000 2.100930 0.000000 
#    z -0.045450 0.000000 2.034400 
# 
# From -- ./inp_files/73566.got.cif
#   From: 2010.05.17/outbox.cif.g08.bks.cpg/sg10_37_cif.got.tgz:73566.got - 2010.06.03 11:33:40.
