data_PCOD9147008
_publ_section_title
;
Structure prediction by ZEFSAII (Michael W. Deem and Ramdas Pophale) SiO2 
 PCOD9147008
Probable space group: P 2/M
;
_chemical_formula_sum "Si O2"
_cell_formula_units_Z 28
_cell_length_a 17.851260
_cell_length_b 13.491340
_cell_length_c 10.499466
_cell_angle_alpha 90.000000
_cell_angle_beta 141.931790
_cell_angle_gamma 90.000000
_cell_volume 1559.172265
_symmetry_space_group_name_H-M "P 2/M"
_symmetry_group_IT_number 10
_symmetry_cell_setting 'monoclinic'
loop_
_space_group_symop_operation_xyz
x,y,z
-x,y,-z
-x,-y,-z
x,-y,z
loop_
_atom_site_type_symbol
_atom_site_label
_atom_site_fract_x
_atom_site_fract_y
_atom_site_fract_z
Si Si1 0.056985 0.888221 0.934455
Si Si2 0.413886 0.882832 0.765022
Si Si3 0.295763 0.612861 0.089790
Si Si4 0.869960 0.384425 0.381156
Si Si5 0.778649 0.285626 0.770264
Si Si6 0.492140 0.224317 0.626627
Si Si7 0.836800 0.758694 0.571436
O O1 0.954285 0.829853 0.718204
O O2 0.081457 0.000000 0.922249
O O3 0.174191 0.818593 0.107826
O O4 0.000000 0.895712 0.000000
O O5 0.486663 0.849206 0.737010
O O6 0.285941 0.824452 0.595540
O O7 0.389382 0.000000 0.730476
O O8 0.500000 0.859330 0.000000
O O9 0.341594 0.500000 0.161992
O O10 0.212379 0.636703 0.102252
O O11 0.401882 0.694365 0.226746
O O12 0.221934 0.622191 0.860124
O O13 0.878675 0.500000 0.430833
O O14 0.834196 0.318545 0.453382
O O15 0.000000 0.352848 0.500000
O O16 0.636833 0.280531 0.546412
O O17 0.844370 0.294242 0.721270
O O18 0.500000 0.172148 0.500000
#
# Coordination Sequence:
#
# PCOD9147008 Si02
#       7
#     4   4   4   4   4   4   4
#     4   9  17  31  52  77 104 134 170 213 261 312
#     4  10  20  34  53  77 106 140 176 217 266 314
#     4  10  20  36  55  75 106 145 179 215 263 316
#     4  10  21  36  55  78 106 142 176 213 267 318
#     4   9  19  32  52  80 103 132 174 221 264 303
#     4   9  19  34  52  77 105 137 176 215 262 311
#     4  10  19  34  56  79 106 137 178 221 260 311
#
# _framework density 17.958247
#
# number of rings (size 3 to 8) (size 9 to 14) (size 15 to 20)
#    0.000    2.429    0.000    2.143    0.000    6.857 
#    0.000    4.286    0.000   24.000    0.000    0.000 
#    0.000    0.000    0.000    0.000    0.000    0.000 
#
# Total GULP energy -156002.907514 kJ/mol
# GULP energy per Si atom -5571.532411 kJ/mol
# Density = 1.791737 g / cm^3
# Si number density = 17.958247 Si / 1000 Ang^3
#
#
#
# Elastic Constant Matrix: (Units=GPa)
#
#
# Indices 1 2 3 4 5 6 
#
# 1 76.0067 46.4583 41.5363 0.0000 -16.8421 0.0000
# 2 46.4583 64.0867 42.4381 0.0000 -10.6741 0.0000
# 3 41.5363 42.4381 77.6733 0.0000 -15.1212 0.0000
# 4 0.0000 0.0000 0.0000 10.8586 0.0000 3.4717
# 5 -16.8421 -10.6741 -15.1212 0.0000 37.8944 0.0000
# 6 0.0000 0.0000 0.0000 3.4717 0.0000 28.0708
#
#
#
# Elastic Compliance Matrix: (Units=1/GPa)
#
#
# Indices 1 2 3 4 5 6 
#
# 1 0.026019 -0.014794 -0.004761 0.000000 0.005497 0.000000
# 2 -0.014794 0.032961 -0.010376 0.000000 -0.001431 0.000000
# 3 -0.004761 -0.010376 0.021802 0.000000 0.003661 0.000000
# 4 0.000000 0.000000 0.000000 0.095884 0.000000 -0.011859
# 5 0.005497 -0.001431 0.003661 0.000000 0.029890 0.000000
# 6 0.000000 0.000000 0.000000 -0.011859 0.000000 0.037091
#
#
# Mechanical properties :
#
#
# Convention : Reuss Voigt Hill
#
# Bulk Modulus (GPa) = 47.79983 53.18135 50.49059
# Shear Modulus (GPa) = 16.10391 21.18702 18.64546
#
# Velocity S-wave (km/s) = 2.99781 3.43854 3.22571
# Velocity P-wave (km/s) = 6.21752 6.74114 6.48461
#
# Compressibility (1/GPa) = 0.02092058
#
# Stress axis : x y z
#
# Youngs Moduli (GPa) = 38.43330 30.33871 45.86645
#
# Poissons Ratio (x) = 0.44882 0.21836
# Poissons Ratio (y) = 0.56857 0.47593
# Poissons Ratio (z) = 0.18298 0.31481
#
# Static dielectric constant tensor:
#      x y z
#    x 1.627490 0.000000 -0.005700 
#    y 0.000000 1.601290 0.000000 
#    z -0.005700 0.000000 1.626730 
# 
# From -- ./inp_files/25075.got.cif
#   From: 2010.05.17/outbox.cif.g08.bks.cpg/sg10_13_cif.got.tgz:25075.got - 2010.06.03 11:33:40.
