data_PCOD9147150
_publ_section_title
;
Structure prediction by ZEFSAII (Michael W. Deem and Ramdas Pophale) SiO2 
 PCOD9147150
Probable space group: P 2/M
;
_chemical_formula_sum "Si O2"
_cell_formula_units_Z 32
_cell_length_a 12.185988
_cell_length_b 13.592064
_cell_length_c 13.926998
_cell_angle_alpha 90.000000
_cell_angle_beta 134.949883
_cell_angle_gamma 90.000000
_cell_volume 1632.556500
_symmetry_space_group_name_H-M "P 2/M"
_symmetry_group_IT_number 10
_symmetry_cell_setting 'monoclinic'
loop_
_space_group_symop_operation_xyz
x,y,z
-x,y,-z
-x,-y,-z
x,-y,z
loop_
_atom_site_type_symbol
_atom_site_label
_atom_site_fract_x
_atom_site_fract_y
_atom_site_fract_z
Si Si1 0.459093 0.889074 0.587536
Si Si2 0.309454 0.385185 0.813416
Si Si3 0.318469 0.614220 0.603166
Si Si4 0.097737 0.114507 0.324003
Si Si5 0.005336 0.280313 0.392836
Si Si6 0.234528 0.619029 0.971115
Si Si7 0.935137 0.729077 0.851527
Si Si8 0.621401 0.692344 0.740828
O O1 0.500000 0.882273 0.500000
O O2 0.272560 0.877166 0.475055
O O3 0.556335 0.804039 0.699375
O O4 0.497653 0.000000 0.644049
O O5 0.349359 0.500000 0.837916
O O6 0.356677 0.348303 0.736325
O O7 0.336543 0.350294 0.940315
O O8 0.124534 0.363813 0.697363
O O9 0.278269 0.500000 0.587341
O O10 0.171630 0.672781 0.474231
O O11 0.467765 0.628959 0.629670
O O12 0.985915 0.182474 0.318758
O O13 0.089871 0.166758 0.215768
O O14 0.058269 0.000000 0.296113
O O15 0.000000 0.249865 0.500000
O O16 0.226610 0.500000 0.966714
O O17 0.060985 0.664947 0.870390
O O18 0.312949 0.657738 0.116290
O O19 0.764337 0.682234 0.756232
O O20 0.000000 0.739944 0.000000
#
# Coordination Sequence:
#
# PCOD9147150 Si02
#       8
#     4   4   4   4   4   4   4   4
#     4  10  20  36  58  79 103 138 180 229 280 327
#     4   9  18  34  57  80 108 147 187 225 274 333
#     4  10  20  33  53  84 113 142 185 235 278 323
#     4  11  21  36  59  84 110 142 187 236 282 330
#     4  10  19  34  57  83 113 144 179 229 287 338
#     4  10  21  37  57  79 109 152 190 224 276 334
#     4  10  22  37  56  81 114 150 187 227 275 330
#     4  11  21  34  55  80 111 143 184 231 273 327
#
# _framework density 19.601158999999999
#
# number of rings (size 3 to 8) (size 9 to 14) (size 15 to 20)
#    0.000    1.875    3.750    0.750    0.000    5.250 
#    0.000    3.750    0.000    2.250    0.000    0.875 
#    0.000    0.000    0.000    0.000    0.000    0.000 
#
# Total GULP energy -178294.383262 kJ/mol
# GULP energy per Si atom -5571.699477 kJ/mol
# Density = 1.955655 g / cm^3
# Si number density = 19.601159 Si / 1000 Ang^3
#
#
#
# Elastic Constant Matrix: (Units=GPa)
#
#
# Indices 1 2 3 4 5 6 
#
# 1 53.2265 13.8811 3.2180 0.0000 18.7574 0.0000
# 2 13.8811 85.7240 19.8642 0.0000 5.9273 0.0000
# 3 3.2180 19.8642 28.5495 0.0000 5.0573 0.0000
# 4 0.0000 0.0000 0.0000 18.9908 0.0000 -3.7806
# 5 18.7574 5.9273 5.0573 0.0000 28.2774 0.0000
# 6 0.0000 0.0000 0.0000 -3.7806 0.0000 20.8137
#
#
#
# Elastic Compliance Matrix: (Units=1/GPa)
#
#
# Indices 1 2 3 4 5 6 
#
# 1 0.025396 -0.003557 0.002545 0.000000 -0.016555 0.000000
# 2 -0.003557 0.014447 -0.009844 0.000000 0.001092 0.000000
# 3 0.002545 -0.009844 0.042882 0.000000 -0.007294 0.000000
# 4 0.000000 0.000000 0.000000 0.054633 0.000000 0.009923
# 5 -0.016555 0.001092 -0.007294 0.000000 0.047421 0.000000
# 6 0.000000 0.000000 0.000000 0.009923 0.000000 0.049848
#
#
# Mechanical properties :
#
#
# Convention : Reuss Voigt Hill
#
# Bulk Modulus (GPa) = 16.39042 26.82519 21.60780
# Shear Modulus (GPa) = 18.07167 22.31883 20.19525
#
# Velocity S-wave (km/s) = 3.03969 3.37805 3.21332
# Velocity P-wave (km/s) = 4.54970 5.37868 4.98146
#
# Compressibility (1/GPa) = 0.06101126
#
# Stress axis : x y z
#
# Youngs Moduli (GPa) = 39.37661 69.21831 23.32005
#
# Poissons Ratio (x) = 0.24624 -0.05936
# Poissons Ratio (y) = 0.14008 0.22957
# Poissons Ratio (z) = -0.10022 0.68142
#
# Static dielectric constant tensor:
#      x y z
#    x 1.731780 0.000000 0.003540 
#    y 0.000000 1.655490 0.000000 
#    z 0.003540 0.000000 1.764470 
# 
# From -- ./inp_files/67356.got.cif
#   From: 2010.05.17/outbox.cif.g08.bks.cpg/sg10_34_cif.got.tgz:67356.got - 2010.06.03 11:33:40.
