data_PCOD9147509
_publ_section_title
;
Structure prediction by ZEFSAII (Michael W. Deem and Ramdas Pophale) SiO2 
 PCOD9147509
Probable space group: P 2/M
;
_chemical_formula_sum "Si O2"
_cell_formula_units_Z 32
_cell_length_a 20.904948
_cell_length_b 7.755407
_cell_length_c 26.814322
_cell_angle_alpha 90.000000
_cell_angle_beta 21.311208
_cell_angle_gamma 90.000000
_cell_volume 1579.957614
_symmetry_space_group_name_H-M "P 2/M"
_symmetry_group_IT_number 10
_symmetry_cell_setting 'monoclinic'
loop_
_space_group_symop_operation_xyz
x,y,z
-x,y,-z
-x,-y,-z
x,-y,z
loop_
_atom_site_type_symbol
_atom_site_label
_atom_site_fract_x
_atom_site_fract_y
_atom_site_fract_z
Si Si1 0.302802 0.705696 0.151054
Si Si2 0.193990 0.791254 0.341948
Si Si3 0.640617 0.792450 0.580039
Si Si4 0.558420 0.797652 0.749861
Si Si5 0.989360 0.791723 0.088332
Si Si6 0.717764 0.789762 0.205771
Si Si7 0.165385 0.297515 0.059872
Si Si8 0.033518 0.708098 0.262658
O O1 0.311737 0.500000 0.136539
O O2 0.239555 0.735287 0.253151
O O3 0.163162 0.773482 0.212051
O O4 0.500000 0.775806 0.000000
O O5 0.335698 0.726669 0.279601
O O6 0.000000 0.735792 0.500000
O O7 0.196273 0.000000 0.339806
O O8 0.614194 0.724442 0.655662
O O9 0.478589 0.729731 0.663554
O O10 0.832674 0.752970 0.420161
O O11 0.622780 0.000000 0.595140
O O12 0.350230 0.783111 0.909004
O O13 0.603875 0.000000 0.715007
O O14 0.813667 0.733745 0.186970
O O15 0.988570 0.000000 0.090570
O O16 0.153125 0.740741 0.933699
O O17 0.025032 0.727601 0.117742
O O18 0.717633 0.000000 0.206990
O O19 0.200167 0.500000 0.040341
O O20 0.097350 0.228908 0.162206
O O21 0.043269 0.500000 0.254889
#
# Coordination Sequence:
#
# PCOD9147509 Si02
#       8
#     4   4   4   4   4   4   4   4
#     4  10  21  39  59  76 101 143 188 226 265 317
#     4  10  21  36  55  82 111 136 169 221 278 325
#     4  10  19  35  58  83 108 140 181 220 266 320
#     4  10  20  35  57  82 108 137 175 223 272 322
#     4   9  16  32  57  82 109 139 176 223 268 310
#     4   8  15  30  56  84 108 138 175 219 266 315
#     4  11  22  36  54  79 110 144 182 223 264 313
#     4  10  23  39  53  75 110 147 182 220 268 321
#
# _framework density 20.253706999999999
#
# number of rings (size 3 to 8) (size 9 to 14) (size 15 to 20)
#    0.000    2.250    1.250    2.625    0.000    5.000 
#    0.000    2.500    0.000    3.750    0.000    0.000 
#    0.000    0.000    0.000    0.000    0.000    0.000 
#
# Total GULP energy -178666.132114 kJ/mol
# GULP energy per Si atom -5583.316629 kJ/mol
# Density = 2.020761 g / cm^3
# Si number density = 20.253707 Si / 1000 Ang^3
#
#
#
# Elastic Constant Matrix: (Units=GPa)
#
#
# Indices 1 2 3 4 5 6 
#
# 1 147.5839 -7.5171 61.0707 0.0000 -15.3486 0.0000
# 2 -7.5171 21.5382 -11.1894 0.0000 -5.3203 0.0000
# 3 61.0707 -11.1894 110.3140 0.0000 -4.5365 0.0000
# 4 0.0000 0.0000 0.0000 23.5564 0.0000 1.4848
# 5 -15.3486 -5.3203 -4.5365 0.0000 35.0859 0.0000
# 6 0.0000 0.0000 0.0000 1.4848 0.0000 18.2998
#
#
#
# Elastic Compliance Matrix: (Units=1/GPa)
#
#
# Indices 1 2 3 4 5 6 
#
# 1 0.009222 0.001635 -0.004789 0.000000 0.003663 0.000000
# 2 0.001635 0.051715 0.004717 0.000000 0.009167 0.000000
# 3 -0.004789 0.004717 0.012203 0.000000 0.000198 0.000000
# 4 0.000000 0.000000 0.000000 0.042670 0.000000 -0.003462
# 5 0.003663 0.009167 0.000198 0.000000 0.031520 0.000000
# 6 0.000000 0.000000 0.000000 -0.003462 0.000000 0.054926
#
#
# Mechanical properties :
#
#
# Convention : Reuss Voigt Hill
#
# Bulk Modulus (GPa) = 13.11178 40.46272 26.78725
# Shear Modulus (GPa) = 22.26684 31.19321 26.73003
#
# Velocity S-wave (km/s) = 3.31931 3.92870 3.63679
# Velocity P-wave (km/s) = 4.60198 6.37188 5.55784
#
# Compressibility (1/GPa) = 0.07626732
#
# Stress axis : x y z
#
# Youngs Moduli (GPa) = 108.44098 19.33674 81.94923
#
# Poissons Ratio (x) = -0.03163 0.39242
# Poissons Ratio (y) = -0.17735 -0.38657
# Poissons Ratio (z) = 0.51928 -0.09121
#
# Static dielectric constant tensor:
#      x y z
#    x 1.739330 0.000000 -0.040200 
#    y 0.000000 1.744890 0.000000 
#    z -0.040200 0.000000 1.698240 
# 
# From -- ./inp_files/93644.got.cif
#   From: 2010.05.17/outbox.cif.g08.bks.cpg/sg10_47_cif.got.tgz:93644.got - 2010.06.03 11:33:40.
