data_PCOD9147562
_publ_section_title
;
Structure prediction by ZEFSAII (Michael W. Deem and Ramdas Pophale) SiO2 
 PCOD9147562
Probable space group: P 2/M
;
_chemical_formula_sum "Si O2"
_cell_formula_units_Z 32
_cell_length_a 28.592382
_cell_length_b 7.811559
_cell_length_c 22.341999
_cell_angle_alpha 90.000000
_cell_angle_beta 18.324836
_cell_angle_gamma 90.000000
_cell_volume 1568.910283
_symmetry_space_group_name_H-M "P 2/M"
_symmetry_group_IT_number 10
_symmetry_cell_setting 'monoclinic'
loop_
_space_group_symop_operation_xyz
x,y,z
-x,y,-z
-x,-y,-z
x,-y,z
loop_
_atom_site_type_symbol
_atom_site_label
_atom_site_fract_x
_atom_site_fract_y
_atom_site_fract_z
Si Si1 0.661599 0.199846 0.286804
Si Si2 0.117391 0.206494 0.227988
Si Si3 0.972308 0.297392 0.967600
Si Si4 0.396916 0.700856 0.256963
Si Si5 0.115816 0.709515 0.673287
Si Si6 0.805786 0.702901 0.992656
Si Si7 0.777752 0.208266 0.647694
Si Si8 0.726207 0.198067 0.844345
O O1 0.500000 0.272618 0.500000
O O2 0.803504 0.277182 0.149012
O O3 0.693950 0.218730 0.176775
O O4 0.661500 0.000000 0.302684
O O5 0.179015 0.273467 0.216306
O O6 0.946431 0.260161 0.427526
O O7 0.119156 0.000000 0.228006
O O8 0.212719 0.259428 0.054613
O O9 0.002669 0.500000 0.933967
O O10 0.000000 0.224340 0.000000
O O11 0.079969 0.230767 0.784091
O O12 0.421202 0.500000 0.239196
O O13 0.268423 0.766664 0.457657
O O14 0.333023 0.722790 0.267706
O O15 0.553946 0.792667 0.071129
O O16 0.118213 0.500000 0.669552
O O17 0.971805 0.763351 0.809653
O O18 0.800449 0.500000 0.008545
O O19 0.744335 0.269955 0.755615
O O20 0.766686 0.000000 0.659464
O O21 0.774314 0.000000 0.780478
#
# Coordination Sequence:
#
# PCOD9147562 Si02
#       8
#     4   4   4   4   4   4   4   4
#     4  10  21  37  57  83 117 149 181 223 269 319
#     4  10  20  36  58  81 108 142 182 226 277 326
#     4   9  18  35  59  84 111 144 185 228 271 319
#     4  11  21  35  54  78 111 144 181 226 275 324
#     4   8  16  32  53  77 106 139 176 222 263 311
#     4  10  19  35  59  83 109 143 185 227 268 319
#     4  10  20  36  59  80 102 141 188 227 271 328
#     4  10  22  38  53  77 112 144 180 228 275 327
#
# _framework density 20.396321
#
# number of rings (size 3 to 8) (size 9 to 14) (size 15 to 20)
#    0.000    2.250    1.250    2.625    0.000    5.250 
#    2.250    0.625    0.000    2.250    0.000    0.000 
#    0.000    0.000    0.000    0.000    0.000    0.000 
#
# Total GULP energy -178603.033129 kJ/mol
# GULP energy per Si atom -5581.344785 kJ/mol
# Density = 2.034990 g / cm^3
# Si number density = 20.396321 Si / 1000 Ang^3
#
#
#
# Elastic Constant Matrix: (Units=GPa)
#
#
# Indices 1 2 3 4 5 6 
#
# 1 66.3065 -3.0129 -4.2437 0.0000 20.1653 0.0000
# 2 -3.0129 23.5745 -9.7109 0.0000 1.6957 0.0000
# 3 -4.2437 -9.7109 62.6736 0.0000 21.5684 0.0000
# 4 0.0000 0.0000 0.0000 11.4174 0.0000 6.2044
# 5 20.1653 1.6957 21.5684 0.0000 32.3096 0.0000
# 6 0.0000 0.0000 0.0000 6.2044 0.0000 18.6237
#
#
#
# Elastic Compliance Matrix: (Units=1/GPa)
#
#
# Indices 1 2 3 4 5 6 
#
# 1 0.022650 0.008659 0.010252 0.000000 -0.021434 0.000000
# 2 0.008659 0.050816 0.014589 0.000000 -0.017811 0.000000
# 3 0.010252 0.014589 0.027751 0.000000 -0.025689 0.000000
# 4 0.000000 0.000000 0.000000 0.106947 0.000000 -0.035629
# 5 -0.021434 -0.017811 -0.025689 0.000000 0.062412 0.000000
# 6 0.000000 0.000000 0.000000 -0.035629 0.000000 0.065565
#
#
# Mechanical properties :
#
#
# Convention : Reuss Voigt Hill
#
# Bulk Modulus (GPa) = 5.94466 13.17997 9.56231
# Shear Modulus (GPa) = 15.37455 23.77161 19.57308
#
# Velocity S-wave (km/s) = 2.74850 3.41762 3.10116
# Velocity P-wave (km/s) = 3.60462 4.69569 4.18585
#
# Compressibility (1/GPa) = 0.16821818
#
# Stress axis : x y z
#
# Youngs Moduli (GPa) = 44.15059 19.67877 36.03458
#
# Poissons Ratio (x) = -0.17041 -0.36942
# Poissons Ratio (y) = -0.38232 -0.52572
# Poissons Ratio (z) = -0.45262 -0.28710
#
# Static dielectric constant tensor:
#      x y z
#    x 1.725930 0.000000 0.024260 
#    y 0.000000 1.755740 0.000000 
#    z 0.024260 0.000000 1.716260 
# 
# From -- ./inp_files/86897.got.cif
#   From: 2010.05.17/outbox.cif.g08.bks.cpg/sg10_44_cif.got.tgz:86897.got - 2010.06.03 11:33:40.
