data_PCOD9147887
_publ_section_title
;
Structure prediction by ZEFSAII (Michael W. Deem and Ramdas Pophale) SiO2 
 PCOD9147887
Probable space group: P 2/M
;
_chemical_formula_sum "Si O2"
_cell_formula_units_Z 24
_cell_length_a 14.568977
_cell_length_b 7.942981
_cell_length_c 14.413230
_cell_angle_alpha 90.000000
_cell_angle_beta 42.111058
_cell_angle_gamma 90.000000
_cell_volume 1118.453398
_symmetry_space_group_name_H-M "P 2/M"
_symmetry_group_IT_number 10
_symmetry_cell_setting 'monoclinic'
loop_
_space_group_symop_operation_xyz
x,y,z
-x,y,-z
-x,-y,-z
x,-y,z
loop_
_atom_site_type_symbol
_atom_site_label
_atom_site_fract_x
_atom_site_fract_y
_atom_site_fract_z
Si Si1 0.838190 0.700412 0.104231
Si Si2 0.851560 0.000000 0.565309
Si Si3 0.149904 0.697417 0.576846
Si Si4 0.348557 0.803308 0.587224
Si Si5 0.570893 0.683549 0.046781
Si Si6 0.137775 0.701365 0.118963
Si Si7 0.565626 0.000000 0.847723
O O1 0.807555 0.500000 0.131657
O O2 0.747948 0.785818 0.250319
O O3 0.818779 0.766665 0.014483
O O4 0.000000 0.719647 0.000000
O O5 0.832278 0.831205 0.518569
O O6 0.000000 0.000000 0.500000
O O7 0.727295 0.000000 0.730667
O O8 0.136349 0.500000 0.558450
O O9 0.271118 0.712257 0.560954
O O10 0.007936 0.756467 0.733194
O O11 0.500000 0.740004 0.500000
O O12 0.360543 0.000000 0.552486
O O13 0.563334 0.500000 0.098854
O O14 0.492191 0.832467 0.156727
O O15 0.500000 0.668068 0.000000
O O16 0.730610 0.727662 0.915349
O O17 0.119843 0.500000 0.120865
O O18 0.500000 0.000000 0.000000
#
# Coordination Sequence:
#
# PCOD9147887 Si02
#       7
#     4   2   4   4   4   4   2
#     4  10  19  36  62  95 130 170 226 279 329 404
#     4  12  30  48  71 106 144 179 234 290 341 421
#     4  11  24  46  74 101 138 186 232 285 350 414
#     4  11  24  43  65  97 145 185 229 288 346 412
#     4   9  19  37  63  93 129 167 217 280 337 394
#     4   9  19  37  65 100 133 174 231 283 336 409
#     4  10  24  44  66  95 127 170 219 267 335 407
#
# _framework density 21.458200999999999
#
# number of rings (size 3 to 8) (size 9 to 14) (size 15 to 20)
#    0.000    1.833    2.500    0.500    4.667    4.000 
#    3.000    1.667    0.000    0.000    0.000    0.000 
#    0.000    0.000    0.000    0.000    0.000    0.000 
#
# Total GULP energy -133945.818924 kJ/mol
# GULP energy per Si atom -5581.075789 kJ/mol
# Density = 2.140936 g / cm^3
# Si number density = 21.458201 Si / 1000 Ang^3
#
#
#
# Elastic Constant Matrix: (Units=GPa)
#
#
# Indices 1 2 3 4 5 6 
#
# 1 114.8059 27.5043 41.0986 0.0000 -18.5222 0.0000
# 2 27.5043 103.7787 34.1453 0.0000 -10.0334 0.0000
# 3 41.0986 34.1453 96.9141 0.0000 -12.5311 0.0000
# 4 0.0000 0.0000 0.0000 22.4897 0.0000 6.0861
# 5 -18.5222 -10.0334 -12.5311 0.0000 36.2593 0.0000
# 6 0.0000 0.0000 0.0000 6.0861 0.0000 25.8257
#
#
#
# Elastic Compliance Matrix: (Units=1/GPa)
#
#
# Indices 1 2 3 4 5 6 
#
# 1 0.010985 -0.001316 -0.003681 0.000000 0.003975 0.000000
# 2 -0.001316 0.011166 -0.003207 0.000000 0.001309 0.000000
# 3 -0.003681 -0.003207 0.013243 0.000000 0.001809 0.000000
# 4 0.000000 0.000000 0.000000 0.047494 0.000000 -0.011192
# 5 0.003975 0.001309 0.001809 0.000000 0.030597 0.000000
# 6 0.000000 0.000000 0.000000 -0.011192 0.000000 0.041359
#
#
# Mechanical properties :
#
#
# Convention : Reuss Voigt Hill
#
# Bulk Modulus (GPa) = 52.66712 57.88835 55.27774
# Shear Modulus (GPa) = 28.15641 31.09831 29.62736
#
# Velocity S-wave (km/s) = 3.62629 3.81103 3.71981
# Velocity P-wave (km/s) = 6.49081 6.81184 6.65326
#
# Compressibility (1/GPa) = 0.01898718
#
# Stress axis : x y z
#
# Youngs Moduli (GPa) = 91.03712 89.55483 75.51131
#
# Poissons Ratio (x) = 0.11785 0.27793
# Poissons Ratio (y) = 0.11980 0.24215
# Poissons Ratio (z) = 0.33507 0.28719
#
# Static dielectric constant tensor:
#      x y z
#    x 1.799110 0.000000 -0.001390 
#    y 0.000000 1.936240 0.000000 
#    z -0.001390 0.000000 1.757530 
# 
# From -- ./inp_files/66366.got.cif
#   From: 2010.05.17/outbox.cif.g08.bks.cpg/sg10_34_cif.got.tgz:66366.got - 2010.06.03 11:33:40.
