data_PCOD9147305
_publ_section_title
;
Structure prediction by ZEFSAII (Michael W. Deem and Ramdas Pophale) SiO2 
 PCOD9147305
Probable space group: P 2/M
;
_chemical_formula_sum "Si O2"
_cell_formula_units_Z 32
_cell_length_a 14.608863
_cell_length_b 8.475631
_cell_length_c 26.854410
_cell_angle_alpha 90.000000
_cell_angle_beta 29.830450
_cell_angle_gamma 90.000000
_cell_volume 1654.018910
_symmetry_space_group_name_H-M "P 2/M"
_symmetry_group_IT_number 10
_symmetry_cell_setting 'monoclinic'
loop_
_space_group_symop_operation_xyz
x,y,z
-x,y,-z
-x,-y,-z
x,-y,z
loop_
_atom_site_type_symbol
_atom_site_label
_atom_site_fract_x
_atom_site_fract_y
_atom_site_fract_z
Si Si1 0.762887 0.313040 0.973244
Si Si2 0.556798 0.192648 0.708532
Si Si3 0.261256 0.191322 0.476859
Si Si4 0.187079 0.809088 0.938553
Si Si5 0.156039 0.808240 0.344248
Si Si6 0.643328 0.190873 0.853187
Si Si7 0.056534 0.188926 0.207519
Si Si8 0.692037 0.688843 0.433741
O O1 0.765885 0.500000 0.974071
O O2 0.909308 0.253653 0.863630
O O3 0.798066 0.245788 0.011643
O O4 0.561839 0.256338 0.049876
O O5 0.597127 0.240841 0.633020
O O6 0.365536 0.244510 0.823125
O O7 0.724015 0.244376 0.665396
O O8 0.556697 0.000000 0.709028
O O9 0.300620 0.257904 0.512516
O O10 0.055718 0.240969 0.557212
O O11 0.262108 0.000000 0.479534
O O12 0.189100 0.000000 0.937921
O O13 0.000000 0.756751 0.000000
O O14 0.257707 0.762509 0.245182
O O15 0.155130 0.000000 0.345894
O O16 0.774054 0.241391 0.836840
O O17 0.631588 0.000000 0.859694
O O18 0.867067 0.242767 0.321904
O O19 0.060211 0.000000 0.204389
O O20 0.500000 0.741710 0.500000
O O21 0.701404 0.500000 0.426749
#
# Coordination Sequence:
#
# PCOD9147305 Si02
#       8
#     4   4   4   4   4   4   4   4
#     4  12  25  39  59  90 126 163 196 238 304 374
#     4   9  17  31  57  88 117 146 186 242 293 343
#     4  10  19  34  59  90 114 147 198 244 293 348
#     4  10  21  39  61  85 115 156 207 255 294 340
#     4   9  15  29  56  87 116 145 184 242 299 343
#     4  10  19  36  62  89 118 155 198 248 303 354
#     4  11  23  41  66  92 117 153 203 256 300 349
#     4  11  25  43  60  83 120 162 199 243 302 360
#
# _framework density 19.346816
#
# number of rings (size 3 to 8) (size 9 to 14) (size 15 to 20)
#    0.000    1.750    2.500    2.625    0.000    6.250 
#    0.000    1.875    0.000    0.750    0.000    0.000 
#    0.000    0.000    0.000    0.000    0.000    0.000 
#
# Total GULP energy -178791.097826 kJ/mol
# GULP energy per Si atom -5587.221807 kJ/mol
# Density = 1.930278 g / cm^3
# Si number density = 19.346816 Si / 1000 Ang^3
#
#
#
# Elastic Constant Matrix: (Units=GPa)
#
#
# Indices 1 2 3 4 5 6 
#
# 1 114.1432 14.3678 114.4023 0.0000 -11.5864 0.0000
# 2 14.3678 15.8882 19.3333 0.0000 -2.8229 0.0000
# 3 114.4023 19.3333 137.2296 0.0000 23.7015 0.0000
# 4 0.0000 0.0000 0.0000 5.0314 0.0000 -6.4232
# 5 -11.5864 -2.8229 23.7015 0.0000 34.4059 0.0000
# 6 0.0000 0.0000 0.0000 -6.4232 0.0000 -6.3776
#
#
#
# Elastic Compliance Matrix: (Units=1/GPa)
#
#
# Indices 1 2 3 4 5 6 
#
# 1 -0.052139 -0.035548 0.059034 0.000000 -0.061142 0.000000
# 2 -0.035548 0.059713 0.025475 0.000000 -0.024621 0.000000
# 3 0.059034 0.025475 -0.055970 0.000000 0.060527 0.000000
# 4 0.000000 0.000000 0.000000 0.086953 0.000000 -0.087574
# 5 -0.061142 -0.024621 0.060527 0.000000 -0.035241 0.000000
# 6 0.000000 0.000000 0.000000 -0.087574 0.000000 -0.068599
#
#
# Mechanical properties :
#
#
# Convention : Reuss Voigt Hill
#
# Bulk Modulus (GPa) = 20.19154 62.60754 41.39954
# Shear Modulus (GPa) = -34.08435 14.55578 -9.76428
#
# Velocity S-wave (km/s) = -4.20188 2.74589 -2.24898
# Velocity P-wave (km/s) = 3.61687 6.51799 3.83421
#
# Compressibility (1/GPa) = 0.04952568
#
# Stress axis : x y z
#
# Youngs Moduli (GPa) = -19.17955 16.74675 -17.86678
#
# Poissons Ratio (x) = 0.59532 1.05475
# Poissons Ratio (y) = -0.68180 0.45515
# Poissons Ratio (z) = 1.13225 -0.42662
#
# Static dielectric constant tensor:
#      x y z
#    x 1.655380 0.000000 -0.001070 
#    y 0.000000 1.661720 0.000000 
#    z -0.001070 0.000000 1.664620 
# 
# From -- ./inp_files/93113.got.cif
#   From: 2010.05.17/outbox.cif.g08.bks.cpg/sg10_47_cif.got.tgz:93113.got - 2010.06.03 11:33:40.
