data_PCOD9147918
_publ_section_title
;
Structure prediction by ZEFSAII (Michael W. Deem and Ramdas Pophale) SiO2 
 PCOD9147918
Probable space group: P 2/M
;
_chemical_formula_sum "Si O2"
_cell_formula_units_Z 32
_cell_length_a 16.692468
_cell_length_b 19.815585
_cell_length_c 16.240915
_cell_angle_alpha 90.000000
_cell_angle_beta 16.967883
_cell_angle_gamma 90.000000
_cell_volume 1567.747871
_symmetry_space_group_name_H-M "P 2/M"
_symmetry_group_IT_number 10
_symmetry_cell_setting 'monoclinic'
loop_
_space_group_symop_operation_xyz
x,y,z
-x,y,-z
-x,-y,-z
x,-y,z
loop_
_atom_site_type_symbol
_atom_site_label
_atom_site_fract_x
_atom_site_fract_y
_atom_site_fract_z
Si Si1 0.317618 0.901750 0.602581
Si Si2 0.870851 0.578849 0.535984
Si Si3 0.163664 0.776021 0.073162
Si Si4 0.356912 0.425256 0.820103
Si Si5 0.201027 0.073721 0.989300
Si Si6 0.349342 0.753344 0.525195
Si Si7 0.371026 0.347085 0.960822
Si Si8 0.172473 0.388319 0.750663
O O1 0.500000 0.925684 0.500000
O O2 0.298929 0.821013 0.625685
O O3 0.011954 0.923956 0.878919
O O4 0.497334 0.920257 0.345987
O O5 0.801606 0.500000 0.584321
O O6 0.610069 0.628876 0.786972
O O7 0.000000 0.579214 0.500000
O O8 0.103081 0.609599 0.248198
O O9 0.163830 0.857697 0.078534
O O10 0.856235 0.755640 0.350894
O O11 0.347465 0.757762 0.811470
O O12 0.281345 0.730266 0.031716
O O13 0.347920 0.500000 0.863356
O O14 0.476539 0.374516 0.768989
O O15 0.551593 0.425033 0.548824
O O16 0.053503 0.400903 0.097230
O O17 0.166934 0.000000 0.062667
O O18 0.269677 0.688918 0.656633
O O19 0.000000 0.408481 0.000000
#
# Coordination Sequence:
#
# PCOD9147918 Si02
#       8
#     4   4   4   4   4   4   4   4
#     4  10  21  32  51  74 101 140 184 231 290 362
#     4  11  24  40  61  94 129 155 181 220 279 343
#     4  10  20  36  58  79 106 141 190 236 273 325
#     4  12  25  39  56  79 104 141 194 240 287 345
#     4  10  21  35  52  76 110 143 177 236 295 337
#     4  10  19  37  51  73 102 134 187 244 292 336
#     4  12  21  40  65  84 115 156 193 230 272 333
#     4  12  24  38  55  73 103 143 189 251 305 340
#
# _framework density 20.411445000000001
#
# number of rings (size 3 to 8) (size 9 to 14) (size 15 to 20)
#    0.000    1.125    2.500    4.500    0.000    8.000 
#    0.000    0.000    0.000    0.000    0.000    0.000 
#    0.000    3.000    0.000    0.000    0.000    0.000 
#
# Total GULP energy -178683.834954 kJ/mol
# GULP energy per Si atom -5583.869842 kJ/mol
# Density = 2.036499 g / cm^3
# Si number density = 20.411445 Si / 1000 Ang^3
#
#
#
# Elastic Constant Matrix: (Units=GPa)
#
#
# Indices 1 2 3 4 5 6 
#
# 1 56.2858 32.4047 9.9831 0.0000 -14.4480 0.0000
# 2 32.4047 171.5710 15.3805 0.0000 -11.0475 0.0000
# 3 9.9831 15.3805 94.1477 0.0000 -14.6904 0.0000
# 4 0.0000 0.0000 0.0000 7.4478 0.0000 7.8190
# 5 -14.4480 -11.0475 -14.6904 0.0000 32.7844 0.0000
# 6 0.0000 0.0000 0.0000 7.8190 0.0000 -176.8998
#
#
#
# Elastic Compliance Matrix: (Units=1/GPa)
#
#
# Indices 1 2 3 4 5 6 
#
# 1 0.022044 -0.003588 -0.000456 0.000000 0.008301 0.000000
# 2 -0.003588 0.006586 -0.000641 0.000000 0.000351 0.000000
# 3 -0.000456 -0.000641 0.011515 0.000000 0.004743 0.000000
# 4 0.000000 0.000000 0.000000 0.128313 0.000000 0.005671
# 5 0.008301 0.000351 0.004743 0.000000 0.036404 0.000000
# 6 0.000000 0.000000 0.000000 0.005671 0.000000 -0.005402
#
#
# Mechanical properties :
#
#
# Convention : Reuss Voigt Hill
#
# Bulk Modulus (GPa) = 32.49367 48.61568 40.55467
# Shear Modulus (GPa) = 22.82188 -9.71777 6.55206
#
# Velocity S-wave (km/s) = 3.34742 -2.18432 1.79359
# Velocity P-wave (km/s) = 5.55825 4.18424 4.91945
#
# Compressibility (1/GPa) = 0.03077523
#
# Stress axis : x y z
#
# Youngs Moduli (GPa) = 45.36405 151.83242 86.84575
#
# Poissons Ratio (x) = 0.54478 0.03960
# Poissons Ratio (y) = 0.16277 0.05564
# Poissons Ratio (z) = 0.02069 0.09728
#
# Static dielectric constant tensor:
#      x y z
#    x 1.791610 0.000000 -0.001500 
#    y 0.000000 1.814720 0.000000 
#    z -0.001500 0.000000 1.729400 
# 
# From -- ./inp_files/67938.got.cif
#   From: 2010.05.17/outbox.cif.g08.bks.cpg/sg10_34_cif.got.tgz:67938.got - 2010.06.03 11:33:40.
