data_PCOD9147555
_publ_section_title
;
Structure prediction by ZEFSAII (Michael W. Deem and Ramdas Pophale) SiO2 
 PCOD9147555
Probable space group: P 2/M
;
_chemical_formula_sum "Si O2"
_cell_formula_units_Z 32
_cell_length_a 28.797273
_cell_length_b 8.606376
_cell_length_c 22.315870
_cell_angle_alpha 90.000000
_cell_angle_beta 161.196514
_cell_angle_gamma 90.000000
_cell_volume 1782.695592
_symmetry_space_group_name_H-M "P 2/M"
_symmetry_group_IT_number 10
_symmetry_cell_setting 'monoclinic'
loop_
_space_group_symop_operation_xyz
x,y,z
-x,y,-z
-x,-y,-z
x,-y,z
loop_
_atom_site_type_symbol
_atom_site_label
_atom_site_fract_x
_atom_site_fract_y
_atom_site_fract_z
Si Si1 0.157776 0.188122 0.575181
Si Si2 0.164270 0.684516 0.821677
Si Si3 0.344185 0.810522 0.689270
Si Si4 0.841613 0.312713 0.787220
Si Si5 0.677280 0.188177 0.102199
Si Si6 0.547563 0.312071 0.491777
Si Si7 0.605084 0.814525 0.809795
Si Si8 0.305470 0.813196 0.508208
O O1 0.247603 0.240420 0.626859
O O2 0.238614 0.235125 0.734977
O O3 0.996797 0.250508 0.376076
O O4 0.153587 0.000000 0.569724
O O5 0.162024 0.500000 0.818210
O O6 0.246232 0.746448 0.863007
O O7 0.253431 0.743047 0.988059
O O8 0.288256 0.760599 0.555618
O O9 0.343489 0.000000 0.688208
O O10 0.510349 0.763480 0.900221
O O11 0.843242 0.500000 0.790605
O O12 0.708765 0.261915 0.668010
O O13 0.800051 0.259235 0.669710
O O14 0.000000 0.256913 0.000000
O O15 0.680392 0.000000 0.102362
O O16 0.500000 0.262025 0.500000
O O17 0.545114 0.500000 0.487246
O O18 0.438515 0.249351 0.308343
O O19 0.468200 0.776219 0.685326
O O20 0.618487 0.000000 0.824186
O O21 0.290697 0.000000 0.487933
#
# Coordination Sequence:
#
# PCOD9147555 Si02
#       8
#     4   4   4   4   4   4   4   4
#     4  10  21  36  57  82 111 144 179 225 279 329
#     4  12  24  37  54  78 112 149 185 226 275 327
#     4   9  17  34  58  84 110 137 178 227 276 323
#     4   9  18  33  52  75 105 141 177 211 251 310
#     4  10  19  36  61  84 105 139 185 228 272 329
#     4   9  18  34  55  79 110 143 176 215 265 321
#     4  10  19  35  59  82 106 139 186 232 267 316
#     4   9  17  32  56  81 106 135 173 224 266 310
#
# _framework density 17.950343
#
# number of rings (size 3 to 8) (size 9 to 14) (size 15 to 20)
#    0.000    2.250    1.250    2.250    0.000    4.500 
#    2.250    1.250    0.000    1.500    0.000    0.000 
#    0.000    0.000    0.000    0.000    0.000    0.000 
#
# Total GULP energy -178591.554475 kJ/mol
# GULP energy per Si atom -5580.986077 kJ/mol
# Density = 1.790949 g / cm^3
# Si number density = 17.950343 Si / 1000 Ang^3
#
#
#
# Elastic Constant Matrix: (Units=GPa)
#
#
# Indices 1 2 3 4 5 6 
#
# 1 143.1802 22.8336 79.0027 0.0000 -12.1037 0.0000
# 2 22.8336 10.1594 22.2894 0.0000 -3.3003 0.0000
# 3 79.0027 22.2894 150.0098 0.0000 -11.2507 0.0000
# 4 0.0000 0.0000 0.0000 1.6228 0.0000 5.7648
# 5 -12.1037 -3.3003 -11.2507 0.0000 27.3142 0.0000
# 6 0.0000 0.0000 0.0000 5.7648 0.0000 -17.7103
#
#
#
# Elastic Compliance Matrix: (Units=1/GPa)
#
#
# Indices 1 2 3 4 5 6 
#
# 1 0.012031 -0.019106 -0.003375 0.000000 0.001633 0.000000
# 2 -0.019106 0.178548 -0.015978 0.000000 0.006525 0.000000
# 3 -0.003375 -0.015978 0.010898 0.000000 0.001063 0.000000
# 4 0.000000 0.000000 0.000000 0.285775 0.000000 0.093021
# 5 0.001633 0.006525 0.001063 0.000000 0.038561 0.000000
# 6 0.000000 0.000000 0.000000 0.093021 0.000000 -0.026185
#
#
# Mechanical properties :
#
#
# Convention : Reuss Voigt Hill
#
# Bulk Modulus (GPa) = 8.02835 61.28897 34.65866
# Shear Modulus (GPa) = 8.08977 14.19357 11.14167
#
# Velocity S-wave (km/s) = 2.12521 2.81501 2.49408
# Velocity P-wave (km/s) = 3.24103 6.69205 5.25774
#
# Compressibility (1/GPa) = 0.12455858
#
# Stress axis : x y z
#
# Youngs Moduli (GPa) = 83.11620 5.60074 91.76405
#
# Poissons Ratio (x) = 0.10701 0.30970
# Poissons Ratio (y) = 1.58800 1.46623
# Poissons Ratio (z) = 0.28052 0.08949
#
# Static dielectric constant tensor:
#      x y z
#    x 1.602630 0.000000 0.000730 
#    y 0.000000 1.610350 0.000000 
#    z 0.000730 0.000000 1.593450 
# 
# From -- ./inp_files/86747.got.cif
#   From: 2010.05.17/outbox.cif.g08.bks.cpg/sg10_44_cif.got.tgz:86747.got - 2010.06.03 11:33:40.
