data_PCOD9147042
_publ_section_title
;
Structure prediction by ZEFSAII (Michael W. Deem and Ramdas Pophale) SiO2 
 PCOD9147042
Probable space group: P 2/M
;
_chemical_formula_sum "Si O2"
_cell_formula_units_Z 32
_cell_length_a 15.481516
_cell_length_b 7.887525
_cell_length_c 24.821037
_cell_angle_alpha 90.000000
_cell_angle_beta 28.679876
_cell_angle_gamma 90.000000
_cell_volume 1454.584086
_symmetry_space_group_name_H-M "P 2/M"
_symmetry_group_IT_number 10
_symmetry_cell_setting 'monoclinic'
loop_
_space_group_symop_operation_xyz
x,y,z
-x,y,-z
-x,-y,-z
x,-y,z
loop_
_atom_site_type_symbol
_atom_site_label
_atom_site_fract_x
_atom_site_fract_y
_atom_site_fract_z
Si Si1 0.318232 0.300943 0.474616
Si Si2 0.024454 0.304513 0.125883
Si Si3 0.956491 0.292370 0.285313
Si Si4 0.630275 0.805821 0.786674
Si Si5 0.662857 0.306584 0.881575
Si Si6 0.330712 0.199931 0.875051
Si Si7 0.956067 0.194600 0.466478
Si Si8 0.707907 0.198091 0.223950
O O1 0.356933 0.500000 0.460651
O O2 0.214267 0.236298 0.585206
O O3 0.179613 0.279482 0.500628
O O4 0.504631 0.213032 0.356932
O O5 0.076619 0.500000 0.104809
O O6 0.980829 0.236592 0.209874
O O7 0.844857 0.290085 0.188682
O O8 0.182967 0.225627 0.002600
O O9 0.944281 0.500000 0.292340
O O10 0.138713 0.236928 0.216427
O O11 0.599475 0.693162 0.855138
O O12 0.522598 0.741349 0.793707
O O13 0.843913 0.813146 0.665976
O O14 0.568012 0.000000 0.830503
O O15 0.676265 0.500000 0.894708
O O16 0.500000 0.214421 0.000000
O O17 0.282959 0.269930 0.842207
O O18 0.349755 0.000000 0.854563
O O19 0.000000 0.277163 0.500000
O O20 0.889117 0.000000 0.512539
O O21 0.762838 0.000000 0.193530
#
# Coordination Sequence:
#
# PCOD9147042 Si02
#       8
#     4   4   4   4   4   4   4   4
#     4  11  22  39  62  88 121 160 206 253 298 358
#     4  11  23  41  65  91 118 154 203 255 306 364
#     4   9  20  38  58  85 124 162 195 245 310 358
#     4  10  20  34  55  84 115 151 193 232 280 343
#     4  10  19  34  56  81 114 156 195 232 286 351
#     4  10  22  41  62  87 123 161 196 244 308 368
#     4  10  20  36  57  83 119 161 198 238 294 353
#     4  11  24  43  64  87 120 160 200 251 314 369
#
# _framework density 21.999414000000002
#
# number of rings (size 3 to 8) (size 9 to 14) (size 15 to 20)
#    0.000    1.750    1.250    3.000    0.000    7.000 
#    0.000    7.500    0.000    0.000    0.000    0.000 
#    0.000    0.000    0.000    0.000    0.000    0.000 
#
# Total GULP energy -178519.886325 kJ/mol
# GULP energy per Si atom -5578.746448 kJ/mol
# Density = 2.194934 g / cm^3
# Si number density = 21.999414 Si / 1000 Ang^3
#
#
#
# Elastic Constant Matrix: (Units=GPa)
#
#
# Indices 1 2 3 4 5 6 
#
# 1 109.4963 -3.8662 9.9760 0.0000 10.3256 0.0000
# 2 -3.8662 23.2293 -9.6876 0.0000 2.7163 0.0000
# 3 9.9760 -9.6876 52.4505 0.0000 4.2869 0.0000
# 4 0.0000 0.0000 0.0000 58.3724 0.0000 40.9225
# 5 10.3256 2.7163 4.2869 0.0000 36.6080 0.0000
# 6 0.0000 0.0000 0.0000 40.9225 0.0000 112.3459
#
#
#
# Elastic Compliance Matrix: (Units=1/GPa)
#
#
# Indices 1 2 3 4 5 6 
#
# 1 0.009552 0.001333 -0.001355 0.000000 -0.002634 0.000000
# 2 0.001333 0.047578 0.008939 0.000000 -0.004953 0.000000
# 3 -0.001355 0.008939 0.021200 0.000000 -0.002764 0.000000
# 4 0.000000 0.000000 0.000000 0.023006 0.000000 -0.008380
# 5 -0.002634 -0.004953 -0.002764 0.000000 0.028751 0.000000
# 6 0.000000 0.000000 0.000000 -0.008380 0.000000 0.011954
#
#
# Mechanical properties :
#
#
# Convention : Reuss Voigt Hill
#
# Bulk Modulus (GPa) = 10.39907 19.78007 15.08957
# Shear Modulus (GPa) = 31.99755 54.04887 43.02321
#
# Velocity S-wave (km/s) = 3.81789 4.96202 4.42707
# Velocity P-wave (km/s) = 4.91653 6.46835 5.74508
#
# Compressibility (1/GPa) = 0.09616244
#
# Stress axis : x y z
#
# Youngs Moduli (GPa) = 104.69373 21.01815 47.16922
#
# Poissons Ratio (x) = -0.02801 0.06393
# Poissons Ratio (y) = -0.13951 -0.42165
# Poissons Ratio (z) = 0.14189 -0.18788
#
# Static dielectric constant tensor:
#      x y z
#    x 1.835070 0.000000 0.061260 
#    y 0.000000 1.872350 0.000000 
#    z 0.061260 0.000000 1.873280 
# 
# From -- ./inp_files/89512.got.cif
#   From: 2010.05.17/outbox.cif.g08.bks.cpg/sg10_45_cif.got.tgz:89512.got - 2010.06.03 11:33:40.
