data_PCOD9147962
_publ_section_title
;
Structure prediction by ZEFSAII (Michael W. Deem and Ramdas Pophale) SiO2 
 PCOD9147962
Probable space group: P 2/M
;
_chemical_formula_sum "Si O2"
_cell_formula_units_Z 28
_cell_length_a 14.092976
_cell_length_b 7.649285
_cell_length_c 18.892544
_cell_angle_alpha 90.000000
_cell_angle_beta 147.324402
_cell_angle_gamma 90.000000
_cell_volume 1099.544335
_symmetry_space_group_name_H-M "P 2/M"
_symmetry_group_IT_number 10
_symmetry_cell_setting 'monoclinic'
loop_
_space_group_symop_operation_xyz
x,y,z
-x,y,-z
-x,-y,-z
x,-y,z
loop_
_atom_site_type_symbol
_atom_site_label
_atom_site_fract_x
_atom_site_fract_y
_atom_site_fract_z
Si Si1 0.656823 0.212920 0.882150
Si Si2 0.054577 0.788584 0.456109
Si Si3 0.581235 0.786096 0.392619
Si Si4 0.095543 0.295479 0.780481
Si Si5 0.956492 0.699960 0.898212
Si Si6 0.266033 0.199876 0.371872
Si Si7 0.462250 0.804344 0.050863
O O1 0.582689 0.266989 0.758955
O O2 0.851307 0.285745 0.016711
O O3 0.522225 0.268564 0.860393
O O4 0.661822 0.000000 0.887529
O O5 0.913107 0.727347 0.309451
O O6 0.000000 0.729070 0.500000
O O7 0.244666 0.734199 0.543583
O O8 0.056441 0.000000 0.457905
O O9 0.596512 0.720850 0.483993
O O10 0.580388 0.000000 0.394439
O O11 0.111957 0.500000 0.808063
O O12 0.913271 0.224820 0.696223
O O13 0.252448 0.186312 0.911170
O O14 0.915250 0.500000 0.886661
O O15 0.000000 0.793571 0.000000
O O16 0.801412 0.755624 0.748797
O O17 0.314700 0.000000 0.397402
O O18 0.542560 0.000000 0.099681
O O19 0.500000 0.710430 0.000000
#
# Coordination Sequence:
#
# PCOD9147962 Si02
#       7
#     4   4   4   4   4   4   4
#     4  10  20  37  61  87 118 152 192 246 295 344
#     4   9  18  32  54  77 105 148 199 246 283 334
#     4   8  17  33  55  85 113 144 189 241 294 338
#     4  11  21  33  51  76 113 152 190 237 288 340
#     4  11  24  41  62  89 119 151 189 236 294 359
#     4  10  19  37  62  85 112 148 193 237 281 341
#     4  10  21  34  54  82 113 152 199 242 284 337
#
# _framework density 25.465093
#
# number of rings (size 3 to 8) (size 9 to 14) (size 15 to 20)
#    0.000    2.143    1.429    3.000    2.000    1.714 
#    0.000    4.286    0.000    4.286    0.000    0.000 
#    0.000    0.000    0.000    0.000    0.000    0.000 
#
# Total GULP energy -156256.090810 kJ/mol
# GULP energy per Si atom -5580.574672 kJ/mol
# Density = 2.540713 g / cm^3
# Si number density = 25.465093 Si / 1000 Ang^3
#
#
#
# Elastic Constant Matrix: (Units=GPa)
#
#
# Indices 1 2 3 4 5 6 
#
# 1 97.3338 14.7538 48.9520 0.0000 -41.7700 0.0000
# 2 14.7538 74.2961 17.2687 0.0000 -6.4942 0.0000
# 3 48.9520 17.2687 186.8727 0.0000 -40.2292 0.0000
# 4 0.0000 0.0000 0.0000 -247.5698 0.0000 -59.4455
# 5 -41.7700 -6.4942 -40.2292 0.0000 55.2911 0.0000
# 6 0.0000 0.0000 0.0000 -59.4455 0.0000 -0.0441
#
#
#
# Elastic Compliance Matrix: (Units=1/GPa)
#
#
# Indices 1 2 3 4 5 6 
#
# 1 0.015968 -0.001843 -0.001734 0.000000 0.010585 0.000000
# 2 -0.001843 0.013999 -0.000897 0.000000 -0.000401 0.000000
# 3 -0.001734 -0.000897 0.006621 0.000000 0.003402 0.000000
# 4 0.000000 0.000000 0.000000 0.000013 0.000000 -0.016874
# 5 0.010585 -0.000401 0.003402 0.000000 0.028511 0.000000
# 6 0.000000 0.000000 0.000000 -0.016874 0.000000 0.070276
#
#
# Mechanical properties :
#
#
# Convention : Reuss Voigt Hill
#
# Bulk Modulus (GPa) = 36.17933 57.82796 47.00365
# Shear Modulus (GPa) = 32.56334 -19.96269 6.30033
#
# Velocity S-wave (km/s) = 3.57983 -2.80290 1.57463
# Velocity P-wave (km/s) = 5.59689 3.50471 4.66949
#
# Compressibility (1/GPa) = 0.02764009
#
# Stress axis : x y z
#
# Youngs Moduli (GPa) = 62.62666 71.43318 151.04193
#
# Poissons Ratio (x) = 0.13163 0.26188
# Poissons Ratio (y) = 0.11540 0.13551
# Poissons Ratio (z) = 0.10858 0.06409
#
# Static dielectric constant tensor:
#      x y z
#    x 2.146770 0.000000 -0.066190 
#    y 0.000000 1.939170 0.000000 
#    z -0.066190 0.000000 2.090920 
# 
# From -- ./inp_files/77798.got.cif
#   From: 2010.05.17/outbox.cif.g08.bks.cpg/sg10_39_cif.got.tgz:77798.got - 2010.06.03 11:33:40.
