data_PCOD9147685
_publ_section_title
;
Structure prediction by ZEFSAII (Michael W. Deem and Ramdas Pophale) SiO2 
 PCOD9147685
Probable space group: P 2/M
;
_chemical_formula_sum "Si O2"
_cell_formula_units_Z 28
_cell_length_a 24.260602
_cell_length_b 9.137039
_cell_length_c 7.718757
_cell_angle_alpha 90.000000
_cell_angle_beta 44.515397
_cell_angle_gamma 90.000000
_cell_volume 1199.595840
_symmetry_space_group_name_H-M "P 2/M"
_symmetry_group_IT_number 10
_symmetry_cell_setting 'monoclinic'
loop_
_space_group_symop_operation_xyz
x,y,z
-x,y,-z
-x,-y,-z
x,-y,z
loop_
_atom_site_type_symbol
_atom_site_label
_atom_site_fract_x
_atom_site_fract_y
_atom_site_fract_z
Si Si1 0.083503 0.194386 0.127615
Si Si2 0.503107 0.331894 0.282464
Si Si3 0.770124 0.168850 0.408012
Si Si4 0.658490 0.822575 0.359323
Si Si5 0.897028 0.162035 0.526094
Si Si6 0.108763 0.500000 0.587788
Si Si7 0.077669 0.500000 0.041983
Si Si8 0.336296 0.823555 0.050629
O O1 0.115629 0.143122 0.239161
O O2 0.992805 0.158468 0.295036
O O3 0.137749 0.166076 0.839850
O O4 0.091246 0.364783 0.130453
O O5 0.500000 0.332941 0.500000
O O6 0.503537 0.500000 0.222053
O O7 0.425325 0.245580 0.400727
O O8 0.583345 0.247785 0.060384
O O9 0.724613 0.232198 0.343896
O O10 0.734067 0.225503 0.666534
O O11 0.745910 0.000000 0.461748
O O12 0.653011 0.000000 0.372429
O O13 0.676772 0.779376 0.119767
O O14 0.873507 0.331351 0.523727
O O15 0.867582 0.000000 0.518330
O O16 0.127315 0.500000 0.753111
O O17 0.014255 0.500000 0.793674
O O18 0.344696 0.000000 0.030802
#
# Coordination Sequence:
#
# PCOD9147685 Si02
#       8
#     4   4   4   4   4   2   2   4
#     4  10  19  36  57  82 113 151 195 241 292 352
#     4   9  17  32  55  79 106 138 175 227 278 323
#     4  10  20  35  54  78 112 147 185 235 283 338
#     4   9  18  34  55  78 105 141 184 226 272 337
#     4  10  19  35  63  90 114 152 202 251 300 355
#     4   9  19  37  59  85 121 147 190 247 302 359
#     4   9  19  37  57  79 115 156 184 237 301 353
#     4   9  18  34  55  78 105 144 184 222 279 338
#
# _framework density 23.341194999999999
#
# number of rings (size 3 to 8) (size 9 to 14) (size 15 to 20)
#    0.000    2.571    0.000    2.571    0.000    4.000 
#    5.143   10.000    0.000    0.000    0.000    0.000 
#    0.000    0.000    0.000    0.000    0.000    0.000 
#
# Total GULP energy -155977.997481 kJ/mol
# GULP energy per Si atom -5570.642767 kJ/mol
# Density = 2.328807 g / cm^3
# Si number density = 23.341195 Si / 1000 Ang^3
#
#
#
# Elastic Constant Matrix: (Units=GPa)
#
#
# Indices 1 2 3 4 5 6 
#
# 1 65.9486 24.9619 35.6102 0.0000 -0.3809 0.0000
# 2 24.9619 134.7571 28.4645 0.0000 12.8052 0.0000
# 3 35.6102 28.4645 130.9044 0.0000 -0.7879 0.0000
# 4 0.0000 0.0000 0.0000 -36.6599 0.0000 25.0179
# 5 -0.3809 12.8052 -0.7879 0.0000 19.8946 0.0000
# 6 0.0000 0.0000 0.0000 25.0179 0.0000 10.8872
#
#
#
# Elastic Compliance Matrix: (Units=1/GPa)
#
#
# Indices 1 2 3 4 5 6 
#
# 1 0.018601 -0.002684 -0.004465 0.000000 0.001907 0.000000
# 2 -0.002684 0.008713 -0.001199 0.000000 -0.005707 0.000000
# 3 -0.004465 -0.001199 0.009121 0.000000 0.001047 0.000000
# 4 0.000000 0.000000 0.000000 -0.010621 0.000000 0.024407
# 5 0.001907 -0.005707 0.001047 0.000000 0.054016 0.000000
# 6 0.000000 0.000000 0.000000 0.024407 0.000000 0.035765
#
#
# Mechanical properties :
#
#
# Convention : Reuss Voigt Hill
#
# Bulk Modulus (GPa) = 50.65871 56.63150 53.64511
# Shear Modulus (GPa) = 36.00467 14.99595 25.50031
#
# Velocity S-wave (km/s) = 3.93178 2.53744 3.30889
# Velocity P-wave (km/s) = 6.50865 5.73585 6.13443
#
# Compressibility (1/GPa) = 0.01973994
#
# Stress axis : x y z
#
# Youngs Moduli (GPa) = 53.76027 114.76500 109.63916
#
# Poissons Ratio (x) = 0.30799 0.48955
# Poissons Ratio (y) = 0.14427 0.13146
# Poissons Ratio (z) = 0.24004 0.13761
#
# Static dielectric constant tensor:
#      x y z
#    x 1.903070 0.000000 0.030820 
#    y 0.000000 1.900810 0.000000 
#    z 0.030820 0.000000 1.903100 
# 
# From -- ./inp_files/37145.got.cif
#   From: 2010.05.17/outbox.cif.g08.bks.cpg/sg10_19_cif.got.tgz:37145.got - 2010.06.03 11:33:40.
