data_PCOD9147393
_publ_section_title
;
Structure prediction by ZEFSAII (Michael W. Deem and Ramdas Pophale) SiO2 
 PCOD9147393
Probable space group: P 2/M
;
_chemical_formula_sum "Si O2"
_cell_formula_units_Z 28
_cell_length_a 9.063252
_cell_length_b 13.873170
_cell_length_c 13.869568
_cell_angle_alpha 90.000000
_cell_angle_beta 112.144979
_cell_angle_gamma 90.000000
_cell_volume 1615.261890
_symmetry_space_group_name_H-M "P 2/M"
_symmetry_group_IT_number 10
_symmetry_cell_setting 'monoclinic'
loop_
_space_group_symop_operation_xyz
x,y,z
-x,y,-z
-x,-y,-z
x,-y,z
loop_
_atom_site_type_symbol
_atom_site_label
_atom_site_fract_x
_atom_site_fract_y
_atom_site_fract_z
Si Si1 0.861706 0.385010 0.388765
Si Si2 0.324236 0.109088 0.926681
Si Si3 0.511320 0.613224 0.388532
Si Si4 0.250528 0.282192 0.198570
Si Si5 0.110954 0.709269 0.812966
Si Si6 0.663845 0.612734 0.982467
Si Si7 0.846296 0.894733 0.915096
O O1 0.872482 0.500000 0.370518
O O2 0.688372 0.366899 0.392611
O O3 0.880336 0.326521 0.294656
O O4 0.000000 0.362258 0.500000
O O5 0.208171 0.188281 0.848099
O O6 0.332604 0.000000 0.883746
O O7 0.500000 0.145225 0.000000
O O8 0.254971 0.094688 0.015239
O O9 0.500000 0.628104 0.500000
O O10 0.477647 0.500000 0.361112
O O11 0.380477 0.676238 0.302352
O O12 0.292852 0.328043 0.103879
O O13 0.250792 0.167396 0.183581
O O14 0.071545 0.295383 0.195220
O O15 0.203134 0.636553 0.906062
O O16 0.658943 0.500000 0.955003
O O17 0.500000 0.634678 0.000000
O O18 0.896393 0.000000 0.889820
O O19 0.000000 0.842189 0.000000
#
# Coordination Sequence:
#
# PCOD9147393 Si02
#       7
#     4   4   4   4   4   4   4
#     4  10  22  40  60  81 108 146 189 234 281 331
#     4  10  21  36  56  83 115 151 190 230 275 332
#     4  10  22  40  60  81 108 145 190 236 279 330
#     4  12  22  34  55  84 112 148 184 229 280 335
#     4  12  22  34  55  83 114 147 184 229 280 336
#     4  11  23  36  50  75 112 150 184 226 279 333
#     4  10  19  35  55  80 115 151 187 225 272 332
#
# _framework density 17.33465
#
# number of rings (size 3 to 8) (size 9 to 14) (size 15 to 20)
#    0.000    1.286    2.857    3.429    2.000    6.286 
#    0.000    0.000    0.000    0.857    0.000    0.000 
#    0.000    0.000    0.000    0.000    0.000    0.000 
#
# Total GULP energy -155958.593900 kJ/mol
# GULP energy per Si atom -5569.949782 kJ/mol
# Density = 1.729520 g / cm^3
# Si number density = 17.334650 Si / 1000 Ang^3
#
#
#
# Elastic Constant Matrix: (Units=GPa)
#
#
# Indices 1 2 3 4 5 6 
#
# 1 117.7534 57.7483 63.5993 0.0000 8.2661 0.0000
# 2 57.7483 93.2376 60.2864 0.0000 8.2690 0.0000
# 3 63.5993 60.2864 120.2738 0.0000 10.7329 0.0000
# 4 0.0000 0.0000 0.0000 37.1155 0.0000 5.7404
# 5 8.2661 8.2690 10.7329 0.0000 33.6158 0.0000
# 6 0.0000 0.0000 0.0000 5.7404 0.0000 20.2385
#
#
#
# Elastic Compliance Matrix: (Units=1/GPa)
#
#
# Indices 1 2 3 4 5 6 
#
# 1 0.013616 -0.005562 -0.004359 0.000000 -0.000588 0.000000
# 2 -0.005562 0.018205 -0.006079 0.000000 -0.001169 0.000000
# 3 -0.004359 -0.006079 0.013832 0.000000 -0.001849 0.000000
# 4 0.000000 0.000000 0.000000 0.028179 0.000000 -0.007993
# 5 -0.000588 -0.001169 -0.001849 0.000000 0.030770 0.000000
# 6 0.000000 0.000000 0.000000 -0.007993 0.000000 0.051678
#
#
# Mechanical properties :
#
#
# Convention : Reuss Voigt Hill
#
# Bulk Modulus (GPa) = 73.25816 77.17033 75.21424
# Shear Modulus (GPa) = 25.92915 28.16934 27.04924
#
# Velocity S-wave (km/s) = 3.87175 4.03554 3.95449
# Velocity P-wave (km/s) = 7.89558 8.14424 8.02087
#
# Compressibility (1/GPa) = 0.01365036
#
# Stress axis : x y z
#
# Youngs Moduli (GPa) = 73.44272 54.92961 72.29692
#
# Poissons Ratio (x) = 0.30554 0.31517
# Poissons Ratio (y) = 0.40852 0.43953
# Poissons Ratio (z) = 0.32017 0.33394
#
# Static dielectric constant tensor:
#      x y z
#    x 1.449900 0.000000 -0.025220 
#    y 0.000000 1.665040 0.000000 
#    z -0.025220 0.000000 1.544800 
# 
# From -- ./inp_files/43028.got.cif
#   From: 2010.05.17/outbox.cif.g08.bks.cpg/sg10_22_cif.got.tgz:43028.got - 2010.06.03 11:33:40.
