data_PCOD9147281
_publ_section_title
;
Structure prediction by ZEFSAII (Michael W. Deem and Ramdas Pophale) SiO2 
 PCOD9147281
Probable space group: P 2/M
;
_chemical_formula_sum "Si O2"
_cell_formula_units_Z 32
_cell_length_a 9.097635
_cell_length_b 22.259961
_cell_length_c 14.596042
_cell_angle_alpha 90.000000
_cell_angle_beta 29.898901
_cell_angle_gamma 90.000000
_cell_volume 1473.424906
_symmetry_space_group_name_H-M "P 2/M"
_symmetry_group_IT_number 10
_symmetry_cell_setting 'monoclinic'
loop_
_space_group_symop_operation_xyz
x,y,z
-x,y,-z
-x,-y,-z
x,-y,z
loop_
_atom_site_type_symbol
_atom_site_label
_atom_site_fract_x
_atom_site_fract_y
_atom_site_fract_z
Si Si1 0.661123 0.635394 0.671999
Si Si2 0.098671 0.932128 0.048317
Si Si3 0.747661 0.894370 0.685428
Si Si4 0.856234 0.841906 0.814478
Si Si5 0.485325 0.771630 0.751706
Si Si6 0.062550 0.251263 0.819379
Si Si7 0.749021 0.369146 0.936127
Si Si8 0.741601 0.567310 0.448775
O O1 0.642195 0.708071 0.686624
O O2 0.608855 0.611082 0.598200
O O3 0.000000 0.616768 0.500000
O O4 0.438874 0.611823 0.871613
O O5 0.452116 0.930756 0.858391
O O6 0.988534 0.000000 0.122985
O O7 0.032695 0.885448 0.164248
O O8 0.000000 0.912479 0.000000
O O9 0.899121 0.874689 0.697255
O O10 0.660269 0.832415 0.679190
O O11 0.000000 0.930266 0.500000
O O12 0.029357 0.781018 0.739873
O O13 0.500000 0.830346 0.000000
O O14 0.347172 0.764652 0.725037
O O15 0.211703 0.772970 0.971113
O O16 0.982864 0.320218 0.846502
O O17 0.948896 0.413274 0.766209
O O18 0.500000 0.343851 0.000000
O O19 0.500000 0.565834 0.500000
O O20 0.775363 0.500000 0.469274
#
# Coordination Sequence:
#
# PCOD9147281 Si02
#       8
#     4   4   4   4   4   4   4   4
#     4  11  23  42  64  94 128 167 211 265 318 381
#     4  10  21  40  64  85 113 159 211 253 296 362
#     4  11  23  36  56  89 126 158 197 253 310 361
#     4  10  19  34  59  85 117 160 202 247 297 365
#     4  10  20  35  58  89 128 161 199 249 311 374
#     4  10  19  34  61  89 122 162 202 253 306 369
#     4  11  23  40  67  98 126 167 215 265 320 382
#     4  11  26  47  68  94 129 167 213 267 322 384
#
# _framework density 21.718108000000001
#
# number of rings (size 3 to 8) (size 9 to 14) (size 15 to 20)
#    0.000    1.500    3.750    2.250    1.750    6.000 
#    0.000    5.000    0.000    1.500    0.000    0.000 
#    0.000    0.000    0.000    0.000    0.000    0.000 
#
# Total GULP energy -178432.699078 kJ/mol
# GULP energy per Si atom -5576.021846 kJ/mol
# Density = 2.166868 g / cm^3
# Si number density = 21.718108 Si / 1000 Ang^3
#
#
#
# Elastic Constant Matrix: (Units=GPa)
#
#
# Indices 1 2 3 4 5 6 
#
# 1 114.9858 17.3862 7.0893 0.0000 6.9261 0.0000
# 2 17.3862 74.3658 15.0636 0.0000 7.2689 0.0000
# 3 7.0893 15.0636 75.2388 0.0000 19.5591 0.0000
# 4 0.0000 0.0000 0.0000-1500.3330 0.0000 -461.0053
# 5 6.9261 7.2689 19.5591 0.0000 18.3332 0.0000
# 6 0.0000 0.0000 0.0000 -461.0053 0.0000 -147.5432
#
#
#
# Elastic Compliance Matrix: (Units=1/GPa)
#
#
# Indices 1 2 3 4 5 6 
#
# 1 0.009148 -0.001905 0.000307 0.000000 -0.003028 0.000000
# 2 -0.001905 0.014581 -0.001970 0.000000 -0.002959 0.000000
# 3 0.000307 -0.001970 0.018658 0.000000 -0.019241 0.000000
# 4 0.000000 0.000000 0.000000 -0.016694 0.000000 0.052162
# 5 -0.003028 -0.002959 -0.019241 0.000000 0.077390 0.000000
# 6 0.000000 0.000000 0.000000 0.052162 0.000000 -0.169759
#
#
# Mechanical properties :
#
#
# Convention : Reuss Voigt Hill
#
# Bulk Modulus (GPa) = 28.36896 38.18541 33.27718
# Shear Modulus (GPa) = -104.62867 -310.90518 -207.76692
#
# Velocity S-wave (km/s) = -6.94841 -11.97771 -9.79147
# Velocity P-wave (km/s) = 7.16122 13.17828 10.60543
#
# Compressibility (1/GPa) = 0.03524979
#
# Stress axis : x y z
#
# Youngs Moduli (GPa) = 109.31070 68.58341 53.59500
#
# Poissons Ratio (x) = 0.13065 -0.01643
# Poissons Ratio (y) = 0.20823 0.10561
# Poissons Ratio (z) = -0.03351 0.13514
#
# Static dielectric constant tensor:
#      x y z
#    x 1.831320 0.000000 0.040200 
#    y 0.000000 1.798000 0.000000 
#    z 0.040200 0.000000 1.837450 
# 
# From -- ./inp_files/62681.got.cif
#   From: 2010.05.17/outbox.cif.g08.bks.cpg/sg10_32_cif.got.tgz:62681.got - 2010.06.03 11:33:40.
