data_PCOD9147391
_publ_section_title
;
Structure prediction by ZEFSAII (Michael W. Deem and Ramdas Pophale) SiO2 
 PCOD9147391
Probable space group: P 2/M
;
_chemical_formula_sum "Si O2"
_cell_formula_units_Z 28
_cell_length_a 15.457015
_cell_length_b 8.654302
_cell_length_c 12.764823
_cell_angle_alpha 90.000000
_cell_angle_beta 74.326353
_cell_angle_gamma 90.000000
_cell_volume 1644.053017
_symmetry_space_group_name_H-M "P 2/M"
_symmetry_group_IT_number 10
_symmetry_cell_setting 'monoclinic'
loop_
_space_group_symop_operation_xyz
x,y,z
-x,y,-z
-x,-y,-z
x,-y,z
loop_
_atom_site_type_symbol
_atom_site_label
_atom_site_fract_x
_atom_site_fract_y
_atom_site_fract_z
Si Si1 0.408677 0.185322 0.235934
Si Si2 0.716760 0.686146 0.303559
Si Si3 0.097075 0.816136 0.084062
Si Si4 0.594107 0.813739 0.520607
Si Si5 0.905665 0.685725 0.149723
Si Si6 0.395928 0.313551 0.865572
Si Si7 0.276972 0.684949 0.107470
O O1 0.401008 0.234276 0.360021
O O2 0.506098 0.239200 0.163479
O O3 0.331773 0.259196 0.190024
O O4 0.403110 0.000000 0.232458
O O5 0.714219 0.500000 0.308609
O O6 0.674239 0.753060 0.422352
O O7 0.819153 0.732113 0.245730
O O8 0.655420 0.733672 0.224080
O O9 0.179648 0.761237 0.127533
O O10 0.000014 0.757383 0.154256
O O11 0.095863 0.000000 0.074088
O O12 0.109778 0.741403 0.964599
O O13 0.500000 0.760254 0.500000
O O14 0.594373 0.000000 0.517891
O O15 0.912298 0.500000 0.146805
O O16 0.405302 0.500000 0.861935
O O17 0.335695 0.271807 0.985481
O O18 0.267527 0.500000 0.110715
#
# Coordination Sequence:
#
# PCOD9147391 Si02
#       7
#     4   4   4   4   4   4   4
#     4  11  23  37  53  78 110 145 186 226 269 322
#     4  10  20  34  56  82 108 140 183 225 264 315
#     4  11  21  33  53  83 112 142 180 221 268 326
#     4  10  21  37  54  76 108 145 181 224 274 318
#     4  10  19  35  55  80 112 145 178 221 273 321
#     4  10  20  35  53  78 109 145 182 220 267 321
#     4  11  22  38  56  77 110 149 183 221 273 325
#
# _framework density 17.031081
#
# number of rings (size 3 to 8) (size 9 to 14) (size 15 to 20)
#    0.000    1.571    2.857    3.857    0.000    5.429 
#    0.000    0.000    0.000    0.857    0.000    6.000 
#    0.000    0.000    0.000    0.000    0.000    0.000 
#
# Total GULP energy -156413.099849 kJ/mol
# GULP energy per Si atom -5586.182137 kJ/mol
# Density = 1.699232 g / cm^3
# Si number density = 17.031081 Si / 1000 Ang^3
#
#
#
# Elastic Constant Matrix: (Units=GPa)
#
#
# Indices 1 2 3 4 5 6 
#
# 1 148.9033 32.5433 54.6631 0.0000 -8.4873 0.0000
# 2 32.5433 36.6447 20.8378 0.0000 -1.0443 0.0000
# 3 54.6631 20.8378 64.2519 0.0000 -2.9770 0.0000
# 4 0.0000 0.0000 0.0000 27.7599 0.0000 -1.9120
# 5 -8.4873 -1.0443 -2.9770 0.0000 29.7682 0.0000
# 6 0.0000 0.0000 0.0000 -1.9120 0.0000 31.6528
#
#
#
# Elastic Compliance Matrix: (Units=1/GPa)
#
#
# Indices 1 2 3 4 5 6 
#
# 1 0.010653 -0.005275 -0.007254 0.000000 0.002127 0.000000
# 2 -0.005275 0.036072 -0.007256 0.000000 -0.000964 0.000000
# 3 -0.007254 -0.007256 0.024092 0.000000 0.000087 0.000000
# 4 0.000000 0.000000 0.000000 0.036174 0.000000 0.002185
# 5 0.002127 -0.000964 0.000087 0.000000 0.034174 0.000000
# 6 0.000000 0.000000 0.000000 0.002185 0.000000 0.031725
#
#
# Mechanical properties :
#
#
# Convention : Reuss Voigt Hill
#
# Bulk Modulus (GPa) = 32.00175 51.76538 41.88357
# Shear Modulus (GPa) = 22.43423 27.28657 24.86040
#
# Velocity S-wave (km/s) = 3.63333 4.00705 3.82476
# Velocity P-wave (km/s) = 6.03593 7.20203 6.64461
#
# Compressibility (1/GPa) = 0.03124829
#
# Stress axis : x y z
#
# Youngs Moduli (GPa) = 93.87278 27.72227 41.50771
#
# Poissons Ratio (x) = 0.14624 0.30108
# Poissons Ratio (y) = 0.49519 0.30116
# Poissons Ratio (z) = 0.68092 0.20114
#
# Static dielectric constant tensor:
#      x y z
#    x 1.568580 0.000000 -0.001860 
#    y 0.000000 1.573290 0.000000 
#    z -0.001860 0.000000 1.554480 
# 
# From -- ./inp_files/49197.got.cif
#   From: 2010.05.17/outbox.cif.g08.bks.cpg/sg10_25_cif.got.tgz:49197.got - 2010.06.03 11:33:40.
