data_PCOD9147826
_publ_section_title
;
Structure prediction by ZEFSAII (Michael W. Deem and Ramdas Pophale) SiO2 
 PCOD9147826
Probable space group: P 2/M
;
_chemical_formula_sum "Si O2"
_cell_formula_units_Z 24
_cell_length_a 11.988578
_cell_length_b 14.039066
_cell_length_c 14.891751
_cell_angle_alpha 90.000000
_cell_angle_beta 151.541944
_cell_angle_gamma 90.000000
_cell_volume 1194.341411
_symmetry_space_group_name_H-M "P 2/M"
_symmetry_group_IT_number 10
_symmetry_cell_setting 'monoclinic'
loop_
_space_group_symop_operation_xyz
x,y,z
-x,y,-z
-x,-y,-z
x,-y,z
loop_
_atom_site_type_symbol
_atom_site_label
_atom_site_fract_x
_atom_site_fract_y
_atom_site_fract_z
Si Si1 0.744834 0.391716 0.365670
Si Si2 0.677114 0.815961 0.703441
Si Si3 0.811308 0.888687 0.983373
Si Si4 0.770394 0.395642 0.774206
Si Si5 0.608688 0.750450 0.981012
Si Si6 0.037748 0.393035 0.292382
O O1 0.658674 0.500000 0.288860
O O2 0.571798 0.315183 0.201866
O O3 0.000000 0.383876 0.500000
O O4 0.785458 0.378719 0.500300
O O5 0.500000 0.845262 0.500000
O O6 0.665485 0.872192 0.788528
O O7 0.642298 0.703877 0.699590
O O8 0.942384 0.833597 0.856723
O O9 0.678944 0.841340 0.972306
O O10 0.859100 0.000000 0.028585
O O11 0.655779 0.500000 0.708213
O O12 0.847955 0.391343 0.725061
O O13 0.000000 0.393853 0.000000
O O14 0.500000 0.774804 0.000000
O O15 0.837878 0.685507 0.156657
O O16 0.937644 0.500000 0.234216
#
# Coordination Sequence:
#
# PCOD9147826 Si02
#       6
#     4   4   4   4   4   4
#     4  10  21  36  58  91 128 167 209 247 290 363
#     4  11  22  42  72  94 120 162 207 258 316 372
#     4  11  26  46  64  91 122 154 213 275 321 376
#     4  10  19  36  60  93 135 168 197 239 297 368
#     4  12  23  38  65  91 123 168 206 254 316 370
#     4  10  20  36  58  89 129 167 203 241 290 364
#
# _framework density 20.094756
#
# number of rings (size 3 to 8) (size 9 to 14) (size 15 to 20)
#    0.000    1.333    5.000    1.500    2.333    2.667 
#    0.000    0.833    0.000    0.500    0.000    0.000 
#    0.000    0.000    0.000    0.000    0.000    0.000 
#
# Total GULP energy -134239.328129 kJ/mol
# GULP energy per Si atom -5593.305339 kJ/mol
# Density = 2.004902 g / cm^3
# Si number density = 20.094756 Si / 1000 Ang^3
#
#
#
# Elastic Constant Matrix: (Units=GPa)
#
#
# Indices 1 2 3 4 5 6 
#
# 1 101.4895 46.4448 31.0945 0.0000 -19.9362 0.0000
# 2 46.4448 119.2206 28.6547 0.0000 2.4091 0.0000
# 3 31.0945 28.6547 88.1506 0.0000 -25.4713 0.0000
# 4 0.0000 0.0000 0.0000 6.8288 0.0000 0.1915
# 5 -19.9362 2.4091 -25.4713 0.0000 29.5920 0.0000
# 6 0.0000 0.0000 0.0000 0.1915 0.0000 12.1518
#
#
#
# Elastic Compliance Matrix: (Units=1/GPa)
#
#
# Indices 1 2 3 4 5 6 
#
# 1 0.014576 -0.005788 -0.000381 0.000000 0.009963 0.000000
# 2 -0.005788 0.011843 -0.004277 0.000000 -0.008545 0.000000
# 3 -0.000381 -0.004277 0.017165 0.000000 0.014866 0.000000
# 4 0.000000 0.000000 0.000000 0.146503 0.000000 -0.002309
# 5 0.009963 -0.008545 0.014866 0.000000 0.053996 0.000000
# 6 0.000000 0.000000 0.000000 -0.002309 0.000000 0.082329
#
#
# Mechanical properties :
#
#
# Convention : Reuss Voigt Hill
#
# Bulk Modulus (GPa) = 44.07113 57.91653 50.99383
# Shear Modulus (GPa) = 14.08971 23.22562 18.65766
#
# Velocity S-wave (km/s) = 2.65082 3.40340 3.05041
# Velocity P-wave (km/s) = 5.59896 6.65796 6.15130
#
# Compressibility (1/GPa) = 0.02269059
#
# Stress axis : x y z
#
# Youngs Moduli (GPa) = 68.60645 84.43530 58.25921
#
# Poissons Ratio (x) = 0.48871 0.02221
# Poissons Ratio (y) = 0.39709 0.24920
# Poissons Ratio (z) = 0.02616 0.36116
#
# Static dielectric constant tensor:
#      x y z
#    x 1.719050 0.000000 0.008540 
#    y 0.000000 1.685210 0.000000 
#    z 0.008540 0.000000 1.721950 
# 
# From -- ./inp_files/65168.got.cif
#   From: 2010.05.17/outbox.cif.g08.bks.cpg/sg10_33_cif.got.tgz:65168.got - 2010.06.03 11:33:40.
