data_PCOD9147793
_publ_section_title
;
Structure prediction by ZEFSAII (Michael W. Deem and Ramdas Pophale) SiO2 
 PCOD9147793
Probable space group: P 2/M
;
_chemical_formula_sum "Si O2"
_cell_formula_units_Z 20
_cell_length_a 10.155885
_cell_length_b 15.719329
_cell_length_c 9.661320
_cell_angle_alpha 90.000000
_cell_angle_beta 42.664139
_cell_angle_gamma 90.000000
_cell_volume 1045.262689
_symmetry_space_group_name_H-M "P 2/M"
_symmetry_group_IT_number 10
_symmetry_cell_setting 'monoclinic'
loop_
_space_group_symop_operation_xyz
x,y,z
-x,y,-z
-x,-y,-z
x,-y,z
loop_
_atom_site_type_symbol
_atom_site_label
_atom_site_fract_x
_atom_site_fract_y
_atom_site_fract_z
Si Si1 0.867402 0.401450 0.465105
Si Si2 0.917022 0.908846 0.908751
Si Si3 0.078806 0.277337 0.094688
Si Si4 0.468124 0.908475 0.190666
Si Si5 0.472258 0.278994 0.187305
O O1 0.834538 0.500000 0.455211
O O2 0.669115 0.351703 0.650078
O O3 0.000000 0.397988 0.500000
O O4 0.981557 0.350656 0.258997
O O5 0.969867 0.817032 0.806127
O O6 0.974154 0.000000 0.798993
O O7 0.682777 0.908819 0.091600
O O8 0.000000 0.909078 0.000000
O O9 0.311959 0.285455 0.916986
O O10 0.000000 0.280039 0.000000
O O11 0.385214 0.815322 0.287162
O O12 0.374047 0.000000 0.299166
O O13 0.500000 0.908763 0.000000
O O14 0.500000 0.285337 0.000000
#
# Coordination Sequence:
#
# PCOD9147793 Si02
#       5
#     4   4   4   4   4
#     4  11  24  40  60  85 110 144 195 241 281 341
#     4   8  14  27  50  78 109 147 182 213 263 329
#     4  10  21  38  60  87 118 148 184 234 283 329
#     4   8  14  25  46  76 108 142 178 219 268 320
#     4  10  19  36  60  82 112 153 187 224 281 339
#
# _framework density 19.133946000000002
#
# number of rings (size 3 to 8) (size 9 to 14) (size 15 to 20)
#    0.000    2.600    2.000    0.000    0.000    2.400 
#    0.000    2.000    0.000    1.200    0.000   14.000 
#    0.000    0.000    0.000    0.000    0.000    0.000 
#
# Total GULP energy -111363.861637 kJ/mol
# GULP energy per Si atom -5568.193082 kJ/mol
# Density = 1.909040 g / cm^3
# Si number density = 19.133946 Si / 1000 Ang^3
#
#
#
# Elastic Constant Matrix: (Units=GPa)
#
#
# Indices 1 2 3 4 5 6 
#
# 1 83.3795 29.0100 9.0343 0.0000 -13.2652 0.0000
# 2 29.0100 251.7904 73.7136 0.0000 -11.2493 0.0000
# 3 9.0343 73.7136 56.7968 0.0000 -14.7120 0.0000
# 4 0.0000 0.0000 0.0000 186.6658 0.0000 24.5039
# 5 -13.2652 -11.2493 -14.7120 0.0000 14.6115 0.0000
# 6 0.0000 0.0000 0.0000 24.5039 0.0000 31.5089
#
#
#
# Elastic Compliance Matrix: (Units=1/GPa)
#
#
# Indices 1 2 3 4 5 6 
#
# 1 0.015001 -0.002515 0.005282 0.000000 0.017000 0.000000
# 2 -0.002515 0.007070 -0.010764 0.000000 -0.007679 0.000000
# 3 0.005282 -0.010764 0.040358 0.000000 0.037143 0.000000
# 4 0.000000 0.000000 0.000000 0.005966 0.000000 -0.004640
# 5 0.017000 -0.007679 0.037143 0.000000 0.115359 0.000000
# 6 0.000000 0.000000 0.000000 -0.004640 0.000000 0.035345
#
#
# Mechanical properties :
#
#
# Convention : Reuss Voigt Hill
#
# Bulk Modulus (GPa) = 21.53649 68.38696 44.96172
# Shear Modulus (GPa) = 19.95436 65.23783 42.59610
#
# Velocity S-wave (km/s) = 3.23286 5.84546 4.72339
# Velocity P-wave (km/s) = 5.02148 9.02097 7.30045
#
# Compressibility (1/GPa) = 0.04643283
#
# Stress axis : x y z
#
# Youngs Moduli (GPa) = 66.66335 141.45186 24.77839
#
# Poissons Ratio (x) = 0.35575 -0.13087
# Poissons Ratio (y) = 0.16766 0.26672
# Poissons Ratio (z) = -0.35208 1.52260
#
# Static dielectric constant tensor:
#      x y z
#    x 1.549980 0.000000 -0.255300 
#    y 0.000000 1.729910 0.000000 
#    z -0.255300 0.000000 1.022290 
# 
# From -- ./inp_files/19533.got.cif
#   From: 2010.05.17/outbox.cif.g08.bks.cpg/sg10_10_cif.got.tgz:19533.got - 2010.06.03 11:33:40.
