data_PCOD9147630
_publ_section_title
;
Structure prediction by ZEFSAII (Michael W. Deem and Ramdas Pophale) SiO2 
 PCOD9147630
Probable space group: P 2/M
;
_chemical_formula_sum "Si O2"
_cell_formula_units_Z 28
_cell_length_a 17.682510
_cell_length_b 8.381204
_cell_length_c 14.504968
_cell_angle_alpha 90.000000
_cell_angle_beta 41.120271
_cell_angle_gamma 90.000000
_cell_volume 1413.697586
_symmetry_space_group_name_H-M "P 2/M"
_symmetry_group_IT_number 10
_symmetry_cell_setting 'monoclinic'
loop_
_space_group_symop_operation_xyz
x,y,z
-x,y,-z
-x,-y,-z
x,-y,z
loop_
_atom_site_type_symbol
_atom_site_label
_atom_site_fract_x
_atom_site_fract_y
_atom_site_fract_z
Si Si1 0.841869 0.311385 0.320077
Si Si2 0.714301 0.811556 0.263968
Si Si3 0.099899 0.688197 0.049361
Si Si4 0.632521 0.309961 0.864691
Si Si5 0.743346 0.188989 0.944928
Si Si6 0.687794 0.810094 0.612152
Si Si7 0.458514 0.192873 0.725580
O O1 0.847830 0.500000 0.329522
O O2 0.750557 0.272090 0.324260
O O3 0.802133 0.229704 0.450794
O O4 0.967799 0.258909 0.169903
O O5 0.600493 0.751316 0.314976
O O6 0.701464 0.000000 0.293880
O O7 0.818374 0.782419 0.096114
O O8 0.105946 0.500000 0.020270
O O9 0.152662 0.718131 0.102234
O O10 0.633377 0.500000 0.876477
O O11 0.712292 0.233536 0.869712
O O12 0.675035 0.266725 0.723823
O O13 0.500000 0.253662 0.000000
O O14 0.763884 0.000000 0.934667
O O15 0.631297 0.229078 0.110047
O O16 0.582042 0.749814 0.645207
O O17 0.675987 0.000000 0.633678
O O18 0.464572 0.000000 0.712010
#
# Coordination Sequence:
#
# PCOD9147630 Si02
#       7
#     4   4   4   4   4   4   4
#     4  11  24  40  55  79 117 156 191 235 290 340
#     4  10  20  36  60  87 112 146 194 239 282 337
#     4  10  21  38  59  83 115 151 189 237 290 337
#     4  11  22  36  58  89 120 150 185 227 280 341
#     4  10  19  35  60  88 115 145 188 237 282 332
#     4  11  22  38  59  82 114 153 193 235 282 338
#     4   8  17  33  54  83 114 144 180 232 285 327
#
# _framework density 19.806215999999999
#
# number of rings (size 3 to 8) (size 9 to 14) (size 15 to 20)
#    0.000    1.857    1.429    3.857    0.000    5.143 
#    0.000    5.714    0.000    4.286    0.000    0.000 
#    0.000    0.000    0.000    0.000    0.000    0.000 
#
# Total GULP energy -156409.248660 kJ/mol
# GULP energy per Si atom -5586.044595 kJ/mol
# Density = 1.976114 g / cm^3
# Si number density = 19.806216 Si / 1000 Ang^3
#
#
#
# Elastic Constant Matrix: (Units=GPa)
#
#
# Indices 1 2 3 4 5 6 
#
# 1 73.6951 -7.7121 10.3182 0.0000 16.5637 0.0000
# 2 -7.7121 17.7811 -6.6736 0.0000 -4.7085 0.0000
# 3 10.3182 -6.6736 38.3333 0.0000 17.1292 0.0000
# 4 0.0000 0.0000 0.0000 -29.0308 0.0000 43.8584
# 5 16.5637 -4.7085 17.1292 0.0000 17.8797 0.0000
# 6 0.0000 0.0000 0.0000 43.8584 0.0000 -0.7350
#
#
#
# Elastic Compliance Matrix: (Units=1/GPa)
#
#
# Indices 1 2 3 4 5 6 
#
# 1 0.017852 0.004262 0.004940 0.000000 -0.020149 0.000000
# 2 0.004262 0.062263 0.007221 0.000000 0.005531 0.000000
# 3 0.004940 0.007221 0.047577 0.000000 -0.048255 0.000000
# 4 0.000000 0.000000 0.000000 0.000386 0.000000 0.023056
# 5 -0.020149 0.005531 -0.048255 0.000000 0.122281 0.000000
# 6 0.000000 0.000000 0.000000 0.023056 0.000000 0.015262
#
#
# Mechanical properties :
#
#
# Convention : Reuss Voigt Hill
#
# Bulk Modulus (GPa) = 6.22909 13.51939 9.87424
# Shear Modulus (GPa) = 17.46491 6.54790 12.00640
#
# Velocity S-wave (km/s) = 2.97271 1.82021 2.46477
# Velocity P-wave (km/s) = 3.86453 3.35532 3.61889
#
# Compressibility (1/GPa) = 0.16053707
#
# Stress axis : x y z
#
# Youngs Moduli (GPa) = 56.01498 16.06097 21.01859
#
# Poissons Ratio (x) = -0.06844 -0.10383
# Poissons Ratio (y) = -0.23871 -0.15177
# Poissons Ratio (z) = -0.27672 -0.11598
#
# Static dielectric constant tensor:
#      x y z
#    x 1.703490 0.000000 -0.016730 
#    y 0.000000 1.667010 0.000000 
#    z -0.016730 0.000000 1.692630 
# 
# From -- ./inp_files/68591.got.cif
#   From: 2010.05.17/outbox.cif.g08.bks.cpg/sg10_35_cif.got.tgz:68591.got - 2010.06.03 11:33:40.
