data_PCOD9147803
_publ_section_title
;
Structure prediction by ZEFSAII (Michael W. Deem and Ramdas Pophale) SiO2 
 PCOD9147803
Probable space group: P 2/M
;
_chemical_formula_sum "Si O2"
_cell_formula_units_Z 22
_cell_length_a 8.664840
_cell_length_b 12.243433
_cell_length_c 11.058617
_cell_angle_alpha 90.000000
_cell_angle_beta 68.365446
_cell_angle_gamma 90.000000
_cell_volume 1090.534330
_symmetry_space_group_name_H-M "P 2/M"
_symmetry_group_IT_number 10
_symmetry_cell_setting 'monoclinic'
loop_
_space_group_symop_operation_xyz
x,y,z
-x,y,-z
-x,-y,-z
x,-y,z
loop_
_atom_site_type_symbol
_atom_site_label
_atom_site_fract_x
_atom_site_fract_y
_atom_site_fract_z
Si Si1 0.159549 0.291986 0.092032
Si Si2 0.595012 0.244510 0.349568
Si Si3 0.000000 0.271158 0.500000
Si Si4 0.319817 0.370337 0.282508
Si Si5 0.922380 0.872110 0.286308
Si Si6 0.189856 0.382117 0.837537
O O1 0.286824 0.334662 0.153899
O O2 0.065640 0.181310 0.160083
O O3 0.003924 0.375472 0.134392
O O4 0.223597 0.297100 0.936488
O O5 0.500000 0.222311 0.500000
O O6 0.456046 0.286275 0.296219
O O7 0.735891 0.152044 0.290335
O O8 0.714868 0.350749 0.311508
O O9 0.149744 0.343368 0.403806
O O10 0.061538 0.193296 0.591745
O O11 0.359156 0.500000 0.280953
O O12 0.947739 0.000000 0.294521
O O13 0.239882 0.500000 0.867153
#
# Coordination Sequence:
#
# PCOD9147803 Si02
#       6
#     4   4   2   4   4   4
#     4   9  20  37  58  88 113 143 204 240 282 348
#     4  11  23  39  51  86 123 154 199 231 278 352
#     4  10  20  38  56  90 112 146 198 244 282 358
#     4  11  21  35  56  85 123 158 186 233 289 347
#     4  10  21  40  63  83 111 153 197 251 297 327
#     4  10  19  36  60  84 119 158 188 238 292 345
#
# _framework density 20.173597000000001
#
# number of rings (size 3 to 8) (size 9 to 14) (size 15 to 20)
#    0.000    1.818    1.818    3.273    0.000    2.545 
#    0.000   10.000    0.000    0.000    0.000   14.000 
#    0.000    0.000    0.000    0.000    0.000    0.000 
#
# Total GULP energy -122524.942544 kJ/mol
# GULP energy per Si atom -5569.315570 kJ/mol
# Density = 2.012768 g / cm^3
# Si number density = 20.173597 Si / 1000 Ang^3
#
#
#
# Elastic Constant Matrix: (Units=GPa)
#
#
# Indices 1 2 3 4 5 6 
#
# 1 80.9345 25.6130 1.8707 0.0000 10.8023 0.0000
# 2 25.6130 92.1365 32.9957 0.0000 12.5898 0.0000
# 3 1.8707 32.9957 36.2935 0.0000 0.1132 0.0000
# 4 0.0000 0.0000 0.0000 9.1098 0.0000 9.0375
# 5 10.8023 12.5898 0.1132 0.0000 38.3631 0.0000
# 6 0.0000 0.0000 0.0000 9.0375 0.0000 5.7546
#
#
#
# Elastic Compliance Matrix: (Units=1/GPa)
#
#
# Indices 1 2 3 4 5 6 
#
# 1 0.014157 -0.004973 0.003798 0.000000 -0.002366 0.000000
# 2 -0.004973 0.018966 -0.016971 0.000000 -0.004774 0.000000
# 3 0.003798 -0.016971 0.042773 0.000000 0.004374 0.000000
# 4 0.000000 0.000000 0.000000 -0.196710 0.000000 0.308933
# 5 -0.002366 -0.004774 0.004374 0.000000 0.028287 0.000000
# 6 0.000000 0.000000 0.000000 0.308933 0.000000 -0.311403
#
#
# Mechanical properties :
#
#
# Convention : Reuss Voigt Hill
#
# Bulk Modulus (GPa) = 25.24929 36.70259 30.97594
# Shear Modulus (GPa) = -14.10685 20.57117 3.23216
#
# Velocity S-wave (km/s) = -2.64725 3.19675 1.26714
# Velocity P-wave (km/s) = 1.78866 5.64433 4.18675
#
# Compressibility (1/GPa) = 0.03960507
#
# Stress axis : x y z
#
# Youngs Moduli (GPa) = 70.63501 52.72632 23.37927
#
# Poissons Ratio (x) = 0.26219 -0.08881
# Poissons Ratio (y) = 0.35124 0.39678
# Poissons Ratio (z) = -0.26830 0.89484
#
# Static dielectric constant tensor:
#      x y z
#    x 1.787930 0.000000 -0.014080 
#    y 0.000000 1.681260 0.000000 
#    z -0.014080 0.000000 1.755090 
# 
# From -- ./inp_files/24149.got.cif
#   From: 2010.05.17/outbox.cif.g08.bks.cpg/sg10_13_cif.got.tgz:24149.got - 2010.06.03 11:33:40.
