data_PCOD9147696
_publ_section_title
;
Structure prediction by ZEFSAII (Michael W. Deem and Ramdas Pophale) SiO2 
 PCOD9147696
Probable space group: P 2/M
;
_chemical_formula_sum "Si O2"
_cell_formula_units_Z 20
_cell_length_a 9.661959
_cell_length_b 14.991565
_cell_length_c 12.264807
_cell_angle_alpha 90.000000
_cell_angle_beta 37.005386
_cell_angle_gamma 90.000000
_cell_volume 1069.276635
_symmetry_space_group_name_H-M "P 2/M"
_symmetry_group_IT_number 10
_symmetry_cell_setting 'monoclinic'
loop_
_space_group_symop_operation_xyz
x,y,z
-x,y,-z
-x,-y,-z
x,-y,z
loop_
_atom_site_type_symbol
_atom_site_label
_atom_site_fract_x
_atom_site_fract_y
_atom_site_fract_z
Si Si1 0.000000 0.761466 0.000000
Si Si2 0.716184 0.309235 0.981522
Si Si3 0.500000 0.147901 0.000000
Si Si4 0.390697 0.895689 0.687862
Si Si5 0.216476 0.393740 0.287489
Si Si6 0.758282 0.899864 0.629456
O O1 0.869524 0.702503 0.991610
O O2 0.820510 0.828631 0.170450
O O3 0.458004 0.346233 0.167073
O O4 0.676565 0.212081 0.952694
O O5 0.818746 0.367508 0.817555
O O6 0.631087 0.095835 0.824499
O O7 0.500000 0.895632 0.500000
O O8 0.583106 0.861626 0.652162
O O9 0.331792 0.000000 0.752423
O O10 0.248444 0.500000 0.275415
O O11 0.000000 0.369159 0.500000
O O12 0.000000 0.852825 0.500000
O O13 0.810121 0.000000 0.554819
#
# Coordination Sequence:
#
# PCOD9147696 Si02
#       6
#     2   4   2   4   4   4
#     4  12  23  40  53  84 120 158 184 236 287 338
#     4  10  22  35  58  88 117 145 187 223 281 335
#     4  10  19  36  53  78 108 146 182 234 289 332
#     4  10  23  40  56  76 109 159 205 241 286 338
#     4   9  19  41  68  89 113 147 182 222 273 338
#     4  10  21  35  54  78 103 140 196 250 287 326
#
# _framework density 18.704235000000001
#
# number of rings (size 3 to 8) (size 9 to 14) (size 15 to 20)
#    0.000    2.200    2.000    1.800    2.800    4.800 
#    0.000    2.000    0.000    2.400    0.000    0.000 
#    0.000    0.000    0.000    0.000    0.000    0.000 
#
# Total GULP energy -111511.574227 kJ/mol
# GULP energy per Si atom -5575.578711 kJ/mol
# Density = 1.866166 g / cm^3
# Si number density = 18.704235 Si / 1000 Ang^3
#
#
#
# Elastic Constant Matrix: (Units=GPa)
#
#
# Indices 1 2 3 4 5 6 
#
# 1 156.4138 38.5715 61.9860 0.0000 2.1702 0.0000
# 2 38.5715 68.1302 32.3525 0.0000 -3.5658 0.0000
# 3 61.9860 32.3525 135.0591 0.0000 2.9222 0.0000
# 4 0.0000 0.0000 0.0000 -20.4753 0.0000 20.2391
# 5 2.1702 -3.5658 2.9222 0.0000 20.9559 0.0000
# 6 0.0000 0.0000 0.0000 20.2391 0.0000 10.3734
#
#
#
# Elastic Compliance Matrix: (Units=1/GPa)
#
#
# Indices 1 2 3 4 5 6 
#
# 1 0.008450 -0.003393 -0.003043 0.000000 -0.001028 0.000000
# 2 -0.003393 0.018166 -0.002878 0.000000 0.003844 0.000000
# 3 -0.003043 -0.002878 0.009523 0.000000 -0.001502 0.000000
# 4 0.000000 0.000000 0.000000 -0.016677 0.000000 0.032538
# 5 -0.001028 0.003844 -0.001502 0.000000 0.048689 0.000000
# 6 0.000000 0.000000 0.000000 0.032538 0.000000 0.032918
#
#
# Mechanical properties :
#
#
# Convention : Reuss Voigt Hill
#
# Bulk Modulus (GPa) = 57.10435 69.49147 63.29791
# Shear Modulus (GPa) = 39.82992 17.28366 28.55679
#
# Velocity S-wave (km/s) = 4.61961 3.04312 3.91161
# Velocity P-wave (km/s) = 7.68446 7.04137 7.36993
#
# Compressibility (1/GPa) = 0.01751180
#
# Stress axis : x y z
#
# Youngs Moduli (GPa) = 118.33953 55.04730 105.01159
#
# Poissons Ratio (x) = 0.18676 0.31959
# Poissons Ratio (y) = 0.40149 0.30219
# Poissons Ratio (z) = 0.36015 0.15841
#
# Static dielectric constant tensor:
#      x y z
#    x 1.657460 0.000000 -0.017790 
#    y 0.000000 1.666630 0.000000 
#    z -0.017790 0.000000 1.663140 
# 
# From -- ./inp_files/43204.got.cif
#   From: 2010.05.17/outbox.cif.g08.bks.cpg/sg10_22_cif.got.tgz:43204.got - 2010.06.03 11:33:40.
