data_PCOD9147254
_publ_section_title
;
Structure prediction by ZEFSAII (Michael W. Deem and Ramdas Pophale) SiO2 
 PCOD9147254
Probable space group: P 2/M
;
_chemical_formula_sum "Si O2"
_cell_formula_units_Z 32
_cell_length_a 17.031603
_cell_length_b 14.852031
_cell_length_c 11.680613
_cell_angle_alpha 90.000000
_cell_angle_beta 30.527381
_cell_angle_gamma 90.000000
_cell_volume 1500.818001
_symmetry_space_group_name_H-M "P 2/M"
_symmetry_group_IT_number 10
_symmetry_cell_setting 'monoclinic'
loop_
_space_group_symop_operation_xyz
x,y,z
-x,y,-z
-x,-y,-z
x,-y,z
loop_
_atom_site_type_symbol
_atom_site_label
_atom_site_fract_x
_atom_site_fract_y
_atom_site_fract_z
Si Si1 0.273316 0.098335 0.690886
Si Si2 0.465137 0.333664 0.328448
Si Si3 0.599508 0.861367 0.212372
Si Si4 0.043416 0.289642 0.233502
Si Si5 0.073536 0.900044 0.282050
Si Si6 0.166459 0.704027 0.833956
Si Si7 0.273118 0.393722 0.365298
Si Si8 0.754076 0.402405 0.867320
O O1 0.331543 0.115372 0.748649
O O2 0.431019 0.094232 0.419064
O O3 0.184864 0.190714 0.772283
O O4 0.196486 0.000000 0.781101
O O5 0.550295 0.241852 0.256817
O O6 0.318904 0.345800 0.595984
O O7 0.386570 0.335845 0.301720
O O8 0.605838 0.401748 0.136138
O O9 0.739701 0.887462 0.952891
O O10 0.008735 0.184093 0.291860
O O11 0.131192 0.325362 0.235218
O O12 0.895088 0.351572 0.402630
O O13 0.153847 0.299548 0.985878
O O14 0.000000 0.895262 0.500000
O O15 0.041356 0.000000 0.275090
O O16 0.000000 0.670200 0.000000
O O17 0.283357 0.500000 0.384034
O O18 0.298767 0.388614 0.196872
O O19 0.832188 0.500000 0.776441
#
# Coordination Sequence:
#
# PCOD9147254 Si02
#       8
#     4   4   4   4   4   4   4   4
#     4  10  19  34  61  89 121 167 221 272 314 364
#     4  11  22  40  62  92 129 169 203 255 326 389
#     4  10  19  34  58  89 124 160 212 257 312 371
#     4  12  23  42  67  94 130 169 216 269 323 373
#     4  11  22  37  62  95 130 170 216 261 315 379
#     4  11  23  40  59  88 128 174 213 260 324 392
#     4  11  24  43  68  95 129 169 213 265 328 390
#     4  11  23  42  68  98 123 158 219 278 318 376
#
# _framework density 21.321705999999999
#
# number of rings (size 3 to 8) (size 9 to 14) (size 15 to 20)
#    0.000    1.125    3.750    3.750    0.000    2.750 
#    0.000    3.750    0.000    0.000    0.000    2.625 
#    0.000    0.000    0.000    0.000    0.000    0.000 
#
# Total GULP energy -178526.051593 kJ/mol
# GULP energy per Si atom -5578.939112 kJ/mol
# Density = 2.127318 g / cm^3
# Si number density = 21.321706 Si / 1000 Ang^3
#
#
#
# Elastic Constant Matrix: (Units=GPa)
#
#
# Indices 1 2 3 4 5 6 
#
# 1 37.7129 8.7200 8.9664 0.0000 2.8331 0.0000
# 2 8.7200 68.8393 27.8045 0.0000 14.1349 0.0000
# 3 8.9664 27.8045 153.7366 0.0000 6.1097 0.0000
# 4 0.0000 0.0000 0.0000 15.6688 0.0000 5.3805
# 5 2.8331 14.1349 6.1097 0.0000 26.7396 0.0000
# 6 0.0000 0.0000 0.0000 5.3805 0.0000 7.4937
#
#
#
# Elastic Compliance Matrix: (Units=1/GPa)
#
#
# Indices 1 2 3 4 5 6 
#
# 1 0.027506 -0.002818 -0.001048 0.000000 -0.001185 0.000000
# 2 -0.002818 0.017709 -0.002703 0.000000 -0.008445 0.000000
# 3 -0.001048 -0.002703 0.007057 0.000000 -0.000073 0.000000
# 4 0.000000 0.000000 0.000000 0.084706 0.000000 -0.060819
# 5 -0.001185 -0.008445 -0.000073 0.000000 0.042004 0.000000
# 6 0.000000 0.000000 0.000000 -0.060819 0.000000 0.177114
#
#
# Mechanical properties :
#
#
# Convention : Reuss Voigt Hill
#
# Bulk Modulus (GPa) = 25.55171 39.03004 32.29087
# Shear Modulus (GPa) = 13.07946 24.30026 18.68986
#
# Velocity S-wave (km/s) = 2.47945 3.37960 2.96390
# Velocity P-wave (km/s) = 4.49520 5.79431 5.18559
#
# Compressibility (1/GPa) = 0.03913633
#
# Stress axis : x y z
#
# Youngs Moduli (GPa) = 36.35601 56.46748 141.69402
#
# Poissons Ratio (x) = 0.15911 0.14842
# Poissons Ratio (y) = 0.10244 0.38299
# Poissons Ratio (z) = 0.03808 0.15263
#
# Static dielectric constant tensor:
#      x y z
#    x 1.754410 0.000000 0.002700 
#    y 0.000000 1.791240 0.000000 
#    z 0.002700 0.000000 1.811960 
# 
# From -- ./inp_files/54032.got.cif
#   From: 2010.05.17/outbox.cif.g08.bks.cpg/sg10_28_cif.got.tgz:54032.got - 2010.06.03 11:33:40.
