data_PCOD9147291
_publ_section_title
;
Structure prediction by ZEFSAII (Michael W. Deem and Ramdas Pophale) SiO2 
 PCOD9147291
Probable space group: P 2/M
;
_chemical_formula_sum "Si O2"
_cell_formula_units_Z 32
_cell_length_a 21.611484
_cell_length_b 8.395362
_cell_length_c 27.742286
_cell_angle_alpha 90.000000
_cell_angle_beta 19.600682
_cell_angle_gamma 90.000000
_cell_volume 1688.537100
_symmetry_space_group_name_H-M "P 2/M"
_symmetry_group_IT_number 10
_symmetry_cell_setting 'monoclinic'
loop_
_space_group_symop_operation_xyz
x,y,z
-x,y,-z
-x,-y,-z
x,-y,z
loop_
_atom_site_type_symbol
_atom_site_label
_atom_site_fract_x
_atom_site_fract_y
_atom_site_fract_z
Si Si1 0.288228 0.807364 0.153790
Si Si2 0.281918 0.189404 0.776314
Si Si3 0.626038 0.193924 0.666105
Si Si4 0.325542 0.807091 0.480033
Si Si5 0.085705 0.688954 0.205960
Si Si6 0.943892 0.687396 0.967710
Si Si7 0.998639 0.194710 0.445779
Si Si8 0.764438 0.808731 0.004879
O O1 0.181735 0.757095 0.183576
O O2 0.170678 0.754148 0.286622
O O3 0.291124 0.000000 0.152294
O O4 0.500000 0.751176 0.000000
O O5 0.495038 0.240811 0.620932
O O6 0.149206 0.273659 0.835513
O O7 0.273328 0.000000 0.774710
O O8 0.192542 0.224608 0.894455
O O9 0.636072 0.243939 0.603239
O O10 0.809785 0.245508 0.558723
O O11 0.439021 0.245862 0.829175
O O12 0.625045 0.000000 0.666917
O O13 0.127495 0.742349 0.640175
O O14 0.317112 0.000000 0.486944
O O15 0.095000 0.500000 0.201216
O O16 0.186412 0.750225 0.084177
O O17 0.910289 0.500000 0.996456
O O18 0.903318 0.745363 0.943757
O O19 0.000000 0.247995 0.500000
O O20 0.000634 0.000000 0.444669
O O21 0.768602 0.000000 0.002450
#
# Coordination Sequence:
#
# PCOD9147291 Si02
#       8
#     4   4   4   4   4   4   4   4
#     4  10  21  38  62  88 115 155 203 244 289 351
#     4  10  19  34  59  87 117 156 204 248 294 349
#     4   9  17  32  58  87 114 145 193 252 297 333
#     4  10  19  38  63  88 113 151 204 252 290 346
#     4  12  26  41  58  85 123 163 196 240 306 365
#     4  11  21  34  54  87 127 158 192 242 304 361
#     4   9  17  30  54  89 120 140 180 246 296 334
#     4  11  22  39  62  87 116 156 205 252 294 348
#
# _framework density 18.951317
#
# number of rings (size 3 to 8) (size 9 to 14) (size 15 to 20)
#    0.000    1.750    2.500    3.750    1.750    1.250 
#    0.000    0.625    0.000    4.125    0.000    0.000 
#    0.000    0.000    0.000    0.000    0.000    0.000 
#
# Total GULP energy -178724.724030 kJ/mol
# GULP energy per Si atom -5585.147626 kJ/mol
# Density = 1.890818 g / cm^3
# Si number density = 18.951317 Si / 1000 Ang^3
#
#
#
# Elastic Constant Matrix: (Units=GPa)
#
#
# Indices 1 2 3 4 5 6 
#
# 1 91.7296 6.5359 53.3592 0.0000 2.7625 0.0000
# 2 6.5359 19.2711 18.2137 0.0000 -0.8706 0.0000
# 3 53.3592 18.2137 126.4165 0.0000 0.6460 0.0000
# 4 0.0000 0.0000 0.0000 -12.8451 0.0000 6.6687
# 5 2.7625 -0.8706 0.6460 0.0000 35.4912 0.0000
# 6 0.0000 0.0000 0.0000 6.6687 0.0000 -0.8810
#
#
#
# Elastic Compliance Matrix: (Units=1/GPa)
#
#
# Indices 1 2 3 4 5 6 
#
# 1 0.014501 0.000946 -0.006252 0.000000 -0.000992 0.000000
# 2 0.000946 0.060228 -0.009085 0.000000 0.001569 0.000000
# 3 -0.006252 -0.009085 0.011858 0.000000 0.000048 0.000000
# 4 0.000000 0.000000 0.000000 0.026572 0.000000 0.201135
# 5 -0.000992 0.001569 0.000048 0.000000 0.028291 0.000000
# 6 0.000000 0.000000 0.000000 0.201135 0.000000 0.387421
#
#
# Mechanical properties :
#
#
# Convention : Reuss Voigt Hill
#
# Bulk Modulus (GPa) = 17.29953 43.73720 30.51837
# Shear Modulus (GPa) = 8.66673 14.97359 11.82016
#
# Velocity S-wave (km/s) = 2.14081 2.81394 2.50013
# Velocity P-wave (km/s) = 3.90628 5.80400 4.94699
#
# Compressibility (1/GPa) = 0.05780504
#
# Stress axis : x y z
#
# Youngs Moduli (GPa) = 68.96174 16.60370 84.33213
#
# Poissons Ratio (x) = -0.01571 0.52723
# Poissons Ratio (y) = -0.06524 0.76614
# Poissons Ratio (z) = 0.43114 0.15084
#
# Static dielectric constant tensor:
#      x y z
#    x 1.636850 0.000000 -0.012830 
#    y 0.000000 1.636590 0.000000 
#    z -0.012830 0.000000 1.652570 
# 
# From -- ./inp_files/93667.got.cif
#   From: 2010.05.17/outbox.cif.g08.bks.cpg/sg10_47_cif.got.tgz:93667.got - 2010.06.03 11:33:40.
