data_PCOD9147027
_publ_section_title
;
Structure prediction by ZEFSAII (Michael W. Deem and Ramdas Pophale) SiO2 
 PCOD9147027
Probable space group: P 2/M
;
_chemical_formula_sum "Si O2"
_cell_formula_units_Z 32
_cell_length_a 27.676119
_cell_length_b 7.623685
_cell_length_c 21.668039
_cell_angle_alpha 90.000000
_cell_angle_beta 18.325529
_cell_angle_gamma 90.000000
_cell_volume 1437.452915
_symmetry_space_group_name_H-M "P 2/M"
_symmetry_group_IT_number 10
_symmetry_cell_setting 'monoclinic'
loop_
_space_group_symop_operation_xyz
x,y,z
-x,y,-z
-x,-y,-z
x,-y,z
loop_
_atom_site_type_symbol
_atom_site_label
_atom_site_fract_x
_atom_site_fract_y
_atom_site_fract_z
Si Si1 0.612550 0.699533 0.726741
Si Si2 0.228306 0.700052 0.347897
Si Si3 0.274039 0.798130 0.154096
Si Si4 0.660458 0.214304 0.274270
Si Si5 0.703330 0.202895 0.482259
Si Si6 0.384429 0.785523 0.812661
Si Si7 0.893303 0.211713 0.761210
Si Si8 0.024877 0.785730 0.041154
O O1 0.671291 0.500000 0.653702
O O2 0.666957 0.780060 0.725572
O O3 0.671151 0.789554 0.594004
O O4 0.429570 0.698451 0.950480
O O5 0.279355 0.500000 0.275315
O O6 0.234001 0.787396 0.274247
O O7 0.055180 0.707426 0.582568
O O8 0.143028 0.740073 0.265665
O O9 0.306638 0.000000 0.098306
O O10 0.500000 0.269696 0.500000
O O11 0.656301 0.266814 0.207535
O O12 0.814031 0.273361 0.124049
O O13 0.661720 0.000000 0.274013
O O14 0.552398 0.278290 0.631159
O O15 0.709558 0.000000 0.454569
O O16 0.871141 0.275784 0.262901
O O17 0.388356 0.000000 0.809663
O O18 0.250252 0.733611 0.022720
O O19 0.909534 0.000000 0.746086
O O20 0.030795 0.000000 0.036486
O O21 0.000000 0.736753 0.000000
#
# Coordination Sequence:
#
# PCOD9147027 Si02
#       8
#     4   4   4   4   4   4   4   4
#     4  11  24  40  57  81 116 152 190 234 285 342
#     4  11  25  40  56  82 115 150 189 234 287 342
#     4  11  22  40  63  87 110 143 190 237 289 343
#     4   9  16  26  44  74 113 152 183 220 277 333
#     4  10  19  34  56  80 111 148 190 236 282 333
#     4   9  17  31  49  74 109 145 182 231 280 329
#     4  10  21  37  57  83 114 146 188 237 287 339
#     4   9  17  28  47  80 116 149 184 227 278 331
#
# _framework density 22.261599
#
# number of rings (size 3 to 8) (size 9 to 14) (size 15 to 20)
#    0.000    2.000    1.250    2.625    1.750    9.000 
#    0.000    0.000    0.000    0.375    0.000    0.000 
#    0.000    2.500    0.000    0.000    0.000    0.000 
#
# Total GULP energy -178779.626648 kJ/mol
# GULP energy per Si atom -5586.863333 kJ/mol
# Density = 2.221093 g / cm^3
# Si number density = 22.261599 Si / 1000 Ang^3
#
#
#
# Elastic Constant Matrix: (Units=GPa)
#
#
# Indices 1 2 3 4 5 6 
#
# 1 81.8582 2.2583 1.3628 0.0000 17.2933 0.0000
# 2 2.2583 42.7590 -1.0793 0.0000 -2.5289 0.0000
# 3 1.3628 -1.0793 90.9857 0.0000 17.8288 0.0000
# 4 0.0000 0.0000 0.0000 -128.2973 0.0000 -154.5386
# 5 17.2933 -2.5289 17.8288 0.0000 22.6447 0.0000
# 6 0.0000 0.0000 0.0000 -154.5386 0.0000 -156.8634
#
#
#
# Elastic Compliance Matrix: (Units=1/GPa)
#
#
# Indices 1 2 3 4 5 6 
#
# 1 0.015092 -0.001541 0.002421 0.000000 -0.013604 0.000000
# 2 -0.001541 0.023706 -0.000526 0.000000 0.004238 0.000000
# 3 0.002421 -0.000526 0.013387 0.000000 -0.012448 0.000000
# 4 0.000000 0.000000 0.000000 0.041752 0.000000 -0.041133
# 5 -0.013604 0.004238 -0.012448 0.000000 0.064824 0.000000
# 6 0.000000 0.000000 0.000000 -0.041133 0.000000 0.034149
#
#
# Mechanical properties :
#
#
# Convention : Reuss Voigt Hill
#
# Bulk Modulus (GPa) = 18.90538 24.52071 21.71305
# Shear Modulus (GPa) = 23.82855 -38.29913 -7.23529
#
# Velocity S-wave (km/s) = 3.27523 -4.15229 -1.80476
# Velocity P-wave (km/s) = 4.77636 3.45686 2.33064
#
# Compressibility (1/GPa) = 0.05289498
#
# Stress axis : x y z
#
# Youngs Moduli (GPa) = 66.25820 42.18410 74.69657
#
# Poissons Ratio (x) = 0.06499 -0.18087
# Poissons Ratio (y) = 0.10207 0.03930
# Poissons Ratio (z) = -0.16044 0.02220
#
# Static dielectric constant tensor:
#      x y z
#    x 1.797120 0.000000 -0.007680 
#    y 0.000000 1.724230 0.000000 
#    z -0.007680 0.000000 1.771430 
# 
# From -- ./inp_files/86848.got.cif
#   From: 2010.05.17/outbox.cif.g08.bks.cpg/sg10_44_cif.got.tgz:86848.got - 2010.06.03 11:33:40.
