data_PCOD9147056
_publ_section_title
;
Structure prediction by ZEFSAII (Michael W. Deem and Ramdas Pophale) SiO2 
 PCOD9147056
Probable space group: P 2/M
;
_chemical_formula_sum "Si O2"
_cell_formula_units_Z 28
_cell_length_a 15.806131
_cell_length_b 17.793333
_cell_length_c 9.475689
_cell_angle_alpha 90.000000
_cell_angle_beta 39.065532
_cell_angle_gamma 90.000000
_cell_volume 1679.492900
_symmetry_space_group_name_H-M "P 2/M"
_symmetry_group_IT_number 10
_symmetry_cell_setting 'monoclinic'
loop_
_space_group_symop_operation_xyz
x,y,z
-x,y,-z
-x,-y,-z
x,-y,z
loop_
_atom_site_type_symbol
_atom_site_label
_atom_site_fract_x
_atom_site_fract_y
_atom_site_fract_z
Si Si1 0.381954 0.000000 0.952697
Si Si2 0.112261 0.586584 0.561939
Si Si3 0.805009 0.413883 0.868290
Si Si4 0.351820 0.300530 0.746554
Si Si5 0.850756 0.703749 0.249720
Si Si6 0.301556 0.000000 0.380204
Si Si7 0.846972 0.880124 0.240633
Si Si8 0.645229 0.124813 0.241842
O O1 0.543948 0.000000 0.764812
O O2 0.342402 0.072219 0.910065
O O3 0.313983 0.000000 0.194726
O O4 0.130166 0.500000 0.587608
O O5 0.175882 0.593053 0.324244
O O6 0.170141 0.647989 0.593021
O O7 0.952432 0.598953 0.745841
O O8 0.767012 0.500000 0.949232
O O9 0.700400 0.355559 0.065702
O O10 0.500000 0.317393 0.500000
O O11 0.253211 0.309253 0.741229
O O12 0.348139 0.213524 0.799997
O O13 0.844071 0.792699 0.290759
O O14 0.000000 0.688398 0.000000
O O15 0.220676 0.070236 0.550246
O O16 0.756758 0.890197 0.216863
O O17 0.000000 0.899606 0.000000
O O18 0.500000 0.109561 0.500000
#
# Coordination Sequence:
#
# PCOD9147056 Si02
#       8
#     2   4   4   4   4   2   4   4
#     4  11  22  36  60  82 104 142 187 220 253 315
#     4   9  18  33  56  80 106 144 184 220 260 315
#     4   9  18  34  54  79 110 144 180 218 267 319
#     4  10  21  34  54  82 110 139 176 224 270 313
#     4  10  19  34  56  83 107 138 183 223 261 314
#     4  11  22  37  56  85 110 135 180 228 263 307
#     4  10  21  36  57  81 111 141 172 221 277 317
#     4  10  19  37  59  78 104 147 186 210 257 330
#
# _framework density 16.671699
#
# number of rings (size 3 to 8) (size 9 to 14) (size 15 to 20)
#    0.000    2.143    2.857    1.714    0.000    2.286 
#    0.000    2.143    0.000    1.714    0.000    0.000 
#    0.000    0.000    0.000    0.000    0.000    0.000 
#
# Total GULP energy -156173.845198 kJ/mol
# GULP energy per Si atom -5577.637329 kJ/mol
# Density = 1.663375 g / cm^3
# Si number density = 16.671699 Si / 1000 Ang^3
#
#
#
# Elastic Constant Matrix: (Units=GPa)
#
#
# Indices 1 2 3 4 5 6 
#
# 1 85.8561 57.9297 54.6287 0.0000 -1.4970 0.0000
# 2 57.9297 102.3843 78.8488 0.0000 18.6002 0.0000
# 3 54.6287 78.8488 118.7137 0.0000 -0.5910 0.0000
# 4 0.0000 0.0000 0.0000 -63.8749 0.0000 -56.3150
# 5 -1.4970 18.6002 -0.5910 0.0000 29.5439 0.0000
# 6 0.0000 0.0000 0.0000 -56.3150 0.0000 -50.0734
#
#
#
# Elastic Compliance Matrix: (Units=1/GPa)
#
#
# Indices 1 2 3 4 5 6 
#
# 1 0.021118 -0.012532 -0.001350 0.000000 0.008933 0.000000
# 2 -0.012532 0.033890 -0.016854 0.000000 -0.022309 0.000000
# 3 -0.001350 -0.016854 0.020293 0.000000 0.010948 0.000000
# 4 0.000000 0.000000 0.000000 -1.850719 0.000000 2.081410
# 5 0.008933 -0.022309 0.010948 0.000000 0.048565 0.000000
# 6 0.000000 0.000000 0.000000 2.081410 0.000000 -2.360827
#
#
# Mechanical properties :
#
#
# Convention : Reuss Voigt Hill
#
# Bulk Modulus (GPa) = 72.30468 76.64096 74.47282
# Shear Modulus (GPa) = -1.24329 -9.17776 -5.21052
#
# Velocity S-wave (km/s) = -0.86450 -2.34882 -1.76979
# Velocity P-wave (km/s) = 6.51670 6.22210 6.37110
#
# Compressibility (1/GPa) = 0.01383036
#
# Stress axis : x y z
#
# Youngs Moduli (GPa) = 47.35402 29.50711 49.27708
#
# Poissons Ratio (x) = 0.36978 0.06651
# Poissons Ratio (y) = 0.59343 0.83051
# Poissons Ratio (z) = 0.06391 0.49731
#
# Static dielectric constant tensor:
#      x y z
#    x 1.548260 0.000000 -0.008300 
#    y 0.000000 1.572480 0.000000 
#    z -0.008300 0.000000 1.533440 
# 
# From -- ./inp_files/30127.got.cif
#   From: 2010.05.17/outbox.cif.g08.bks.cpg/sg10_16_cif.got.tgz:30127.got - 2010.06.03 11:33:40.
