data_PCOD9147809
_publ_section_title
;
Structure prediction by ZEFSAII (Michael W. Deem and Ramdas Pophale) SiO2 
 PCOD9147809
Probable space group: P 2/M
;
_chemical_formula_sum "Si O2"
_cell_formula_units_Z 32
_cell_length_a 23.233795
_cell_length_b 9.280284
_cell_length_c 29.148327
_cell_angle_alpha 90.000000
_cell_angle_beta 163.636459
_cell_angle_gamma 90.000000
_cell_volume 1770.637378
_symmetry_space_group_name_H-M "P 2/M"
_symmetry_group_IT_number 10
_symmetry_cell_setting 'monoclinic'
loop_
_space_group_symop_operation_xyz
x,y,z
-x,y,-z
-x,-y,-z
x,-y,z
loop_
_atom_site_type_symbol
_atom_site_label
_atom_site_fract_x
_atom_site_fract_y
_atom_site_fract_z
Si Si1 0.495048 0.327774 0.309690
Si Si2 0.563458 0.837013 0.101520
Si Si3 0.931766 0.172143 0.999928
Si Si4 0.128797 0.169413 0.808865
Si Si5 0.028146 0.335987 0.575821
Si Si6 0.174905 0.328632 0.358675
Si Si7 0.266280 0.827474 0.333585
Si Si8 0.199790 0.169717 0.523243
O O1 0.486164 0.500000 0.296833
O O2 0.272359 0.259521 0.144756
O O3 0.631986 0.297903 0.459975
O O4 0.615620 0.252990 0.360078
O O5 0.748171 0.728172 0.245704
O O6 0.627134 0.000000 0.163943
O O7 0.500000 0.844199 0.000000
O O8 0.363138 0.795434 0.977188
O O9 0.890489 0.000000 0.971347
O O10 0.000000 0.203165 0.000000
O O11 0.112792 0.205831 0.174303
O O12 0.021250 0.264325 0.765170
O O13 0.994561 0.186399 0.659816
O O14 0.116794 0.000000 0.812085
O O15 0.012152 0.500000 0.580617
O O16 0.000000 0.334101 0.500000
O O17 0.866698 0.238964 0.479746
O O18 0.157818 0.500000 0.340775
O O19 0.203807 0.253837 0.331973
O O20 0.500000 0.790444 0.500000
O O21 0.257624 0.000000 0.334771
O O22 0.243387 0.000000 0.560627
#
# Coordination Sequence:
#
# PCOD9147809 Si02
#       8
#     4   4   4   4   4   4   4   4
#     4  10  21  37  58  86 117 150 188 231 282 339
#     4  10  19  36  60  86 111 141 191 243 287 337
#     4  10  21  38  61  88 115 148 194 236 276 331
#     4   9  18  34  58  85 112 143 185 239 285 332
#     4  11  24  39  54  80 117 154 190 233 288 344
#     4  10  21  36  56  84 117 151 187 227 279 341
#     4  10  21  38  61  87 115 148 187 233 281 328
#     4  10  19  36  61  84 110 148 192 237 284 335
#
# _framework density 18.072586999999999
#
# number of rings (size 3 to 8) (size 9 to 14) (size 15 to 20)
#    0.000    2.000    1.250    2.250    0.000    5.750 
#    2.250    0.000    0.000    0.000    0.000    0.000 
#    0.000    0.000    0.000    0.000    0.000    0.000 
#
# Total GULP energy -178674.169761 kJ/mol
# GULP energy per Si atom -5583.567805 kJ/mol
# Density = 1.803145 g / cm^3
# Si number density = 18.072587 Si / 1000 Ang^3
#
#
#
# Elastic Constant Matrix: (Units=GPa)
#
#
# Indices 1 2 3 4 5 6 
#
# 1 135.9000 72.6664 62.1294 0.0000 15.5670 0.0000
# 2 72.6664 81.7206 60.1445 0.0000 9.9400 0.0000
# 3 62.1294 60.1445 96.6555 0.0000 18.1796 0.0000
# 4 0.0000 0.0000 0.0000 21.5999 0.0000 -0.5488
# 5 15.5670 9.9400 18.1796 0.0000 23.2574 0.0000
# 6 0.0000 0.0000 0.0000 -0.5488 0.0000 26.3555
#
#
#
# Elastic Compliance Matrix: (Units=1/GPa)
#
#
# Indices 1 2 3 4 5 6 
#
# 1 0.014572 -0.011299 -0.001652 0.000000 -0.003633 0.000000
# 2 -0.011299 0.031386 -0.013091 0.000000 0.004382 0.000000
# 3 -0.001652 -0.013091 0.021447 0.000000 -0.010064 0.000000
# 4 0.000000 0.000000 0.000000 0.046321 0.000000 0.000965
# 5 -0.003633 0.004382 -0.010064 0.000000 0.051422 0.000000
# 6 0.000000 0.000000 0.000000 0.000965 0.000000 0.037963
#
#
# Mechanical properties :
#
#
# Convention : Reuss Voigt Hill
#
# Bulk Modulus (GPa) = 65.27795 78.23965 71.75880
# Shear Modulus (GPa) = 19.20842 22.19828 20.70335
#
# Velocity S-wave (km/s) = 3.26367 3.50849 3.38829
# Velocity P-wave (km/s) = 7.09932 7.73295 7.42290
#
# Compressibility (1/GPa) = 0.01531911
#
# Stress axis : x y z
#
# Youngs Moduli (GPa) = 68.62663 31.86121 46.62660
#
# Poissons Ratio (x) = 0.36001 0.07704
# Poissons Ratio (y) = 0.77543 0.61040
# Poissons Ratio (z) = 0.11338 0.41710
#
# Static dielectric constant tensor:
#      x y z
#    x 1.596340 0.000000 -0.006970 
#    y 0.000000 1.608990 0.000000 
#    z -0.006970 0.000000 1.600120 
# 
# From -- ./inp_files/93815.got.cif
#   From: 2010.05.17/outbox.cif.g08.bks.cpg/sg10_47_cif.got.tgz:93815.got - 2010.06.03 11:33:40.
