data_PCOD9147762
_publ_section_title
;
Structure prediction by ZEFSAII (Michael W. Deem and Ramdas Pophale) SiO2 
 PCOD9147762
Probable space group: P 2/M
;
_chemical_formula_sum "Si O2"
_cell_formula_units_Z 28
_cell_length_a 14.283539
_cell_length_b 7.461711
_cell_length_c 20.817280
_cell_angle_alpha 90.000000
_cell_angle_beta 145.711317
_cell_angle_gamma 90.000000
_cell_volume 1249.932186
_symmetry_space_group_name_H-M "P 2/M"
_symmetry_group_IT_number 10
_symmetry_cell_setting 'monoclinic'
loop_
_space_group_symop_operation_xyz
x,y,z
-x,y,-z
-x,-y,-z
x,-y,z
loop_
_atom_site_type_symbol
_atom_site_label
_atom_site_fract_x
_atom_site_fract_y
_atom_site_fract_z
Si Si1 0.152218 0.716896 0.168786
Si Si2 0.318179 0.793759 0.393445
Si Si3 0.145933 0.784008 0.535183
Si Si4 0.039323 0.779932 0.332376
Si Si5 0.331091 0.204971 0.874739
Si Si6 0.566057 0.290111 0.206505
Si Si7 0.218794 0.718292 0.061312
O O1 0.156207 0.500000 0.172870
O O2 0.260091 0.789123 0.287457
O O3 0.215844 0.771580 0.134523
O O4 0.959808 0.772907 0.067389
O O5 0.500000 0.709100 0.500000
O O6 0.170916 0.718268 0.353894
O O7 0.335927 0.000000 0.425806
O O8 0.319338 0.729707 0.665692
O O9 0.000000 0.721404 0.500000
O O10 0.105603 0.724980 0.440193
O O11 0.143401 0.000000 0.533328
O O12 0.850422 0.716461 0.213455
O O13 0.031469 0.000000 0.327851
O O14 0.350700 0.203699 0.808676
O O15 0.326742 0.000000 0.896443
O O16 0.500000 0.286766 0.000000
O O17 0.553437 0.500000 0.184112
O O18 0.381881 0.219032 0.116897
O O19 0.222795 0.500000 0.062843
#
# Coordination Sequence:
#
# PCOD9147762 Si02
#       7
#     4   4   4   4   4   4   4
#     4   9  18  38  61  77 102 145 190 219 260 330
#     4  10  22  37  54  81 115 143 175 228 285 318
#     4  10  19  36  59  77 103 144 189 222 259 325
#     4   9  19  37  56  77 109 148 181 221 274 323
#     4  10  21  38  59  81 108 149 193 221 257 329
#     4  11  22  35  55  85 116 139 173 229 285 322
#     4   8  18  36  57  80 109 143 175 222 278 323
#
# _framework density 22.401215000000001
#
# number of rings (size 3 to 8) (size 9 to 14) (size 15 to 20)
#    0.000    2.429    1.429    1.286    4.000    0.857 
#    0.000    4.286    0.000    0.000    0.000    0.000 
#    0.000    0.000    0.000    0.000    0.000    0.000 
#
# Total GULP energy -156414.600835 kJ/mol
# GULP energy per Si atom -5586.235744 kJ/mol
# Density = 2.235023 g / cm^3
# Si number density = 22.401215 Si / 1000 Ang^3
#
#
#
# Elastic Constant Matrix: (Units=GPa)
#
#
# Indices 1 2 3 4 5 6 
#
# 1 91.5694 3.4870 65.5405 0.0000 38.2662 0.0000
# 2 3.4870 68.7389 -2.8588 0.0000 5.5239 0.0000
# 3 65.5405 -2.8588 155.6464 0.0000 15.8671 0.0000
# 4 0.0000 0.0000 0.0000 36.8075 0.0000 -43.1981
# 5 38.2662 5.5239 15.8671 0.0000 39.4712 0.0000
# 6 0.0000 0.0000 0.0000 -43.1981 0.0000 62.3445
#
#
#
# Elastic Compliance Matrix: (Units=1/GPa)
#
#
# Indices 1 2 3 4 5 6 
#
# 1 0.026584 0.000063 -0.008931 0.000000 -0.022191 0.000000
# 2 0.000063 0.014751 0.000481 0.000000 -0.002319 0.000000
# 3 -0.008931 0.000481 0.009717 0.000000 0.004685 0.000000
# 4 0.000000 0.000000 0.000000 0.145437 0.000000 0.100772
# 5 -0.022191 -0.002319 0.004685 0.000000 0.045290 0.000000
# 6 0.000000 0.000000 0.000000 0.100772 0.000000 0.085864
#
#
# Mechanical properties :
#
#
# Convention : Reuss Voigt Hill
#
# Bulk Modulus (GPa) = 29.17321 49.81025 39.49173
# Shear Modulus (GPa) = 14.05120 44.37704 29.21412
#
# Velocity S-wave (km/s) = 2.50722 4.45568 3.61519
# Velocity P-wave (km/s) = 4.62956 6.98245 5.92399
#
# Compressibility (1/GPa) = 0.03427802
#
# Stress axis : x y z
#
# Youngs Moduli (GPa) = 37.61675 67.79235 102.91588
#
# Poissons Ratio (x) = -0.00429 0.91911
# Poissons Ratio (y) = -0.00238 -0.04947
# Poissons Ratio (z) = 0.33594 -0.03259
#
# Static dielectric constant tensor:
#      x y z
#    x 1.790440 0.000000 0.027520 
#    y 0.000000 1.858840 0.000000 
#    z 0.027520 0.000000 1.802200 
# 
# From -- ./inp_files/49132.got.cif
#   From: 2010.05.17/outbox.cif.g08.bks.cpg/sg10_25_cif.got.tgz:49132.got - 2010.06.03 11:33:40.
