data_PCOD9147256
_publ_section_title
;
Structure prediction by ZEFSAII (Michael W. Deem and Ramdas Pophale) SiO2 
 PCOD9147256
Probable space group: P 2/M
;
_chemical_formula_sum "Si O2"
_cell_formula_units_Z 28
_cell_length_a 12.081198
_cell_length_b 14.642082
_cell_length_c 9.965934
_cell_angle_alpha 90.000000
_cell_angle_beta 126.382913
_cell_angle_gamma 90.000000
_cell_volume 1419.269542
_symmetry_space_group_name_H-M "P 2/M"
_symmetry_group_IT_number 10
_symmetry_cell_setting 'monoclinic'
loop_
_space_group_symop_operation_xyz
x,y,z
-x,y,-z
-x,-y,-z
x,-y,z
loop_
_atom_site_type_symbol
_atom_site_label
_atom_site_fract_x
_atom_site_fract_y
_atom_site_fract_z
Si Si1 0.876543 0.169506 0.242220
Si Si2 0.684357 0.400762 0.888728
Si Si3 0.982003 0.333533 0.139289
Si Si4 0.162349 0.103243 0.492543
Si Si5 0.408800 0.207549 0.065729
Si Si6 0.403354 0.792770 0.558019
Si Si7 0.289128 0.602729 0.407640
O O1 0.940410 0.261368 0.223847
O O2 0.837472 0.165724 0.372320
O O3 0.006060 0.102448 0.327738
O O4 0.735034 0.155630 0.060499
O O5 0.631563 0.500000 0.893645
O O6 0.627367 0.312645 0.923277
O O7 0.661394 0.390620 0.712059
O O8 0.849445 0.397707 0.027983
O O9 0.124686 0.380918 0.281439
O O10 0.000000 0.292760 0.000000
O O11 0.264807 0.148118 0.459759
O O12 0.203233 0.000000 0.557182
O O13 0.504180 0.173470 0.253236
O O14 0.500000 0.204160 0.000000
O O15 0.500000 0.801430 0.500000
O O16 0.356278 0.686725 0.535076
O O17 0.318923 0.500000 0.477311
#
# Coordination Sequence:
#
# PCOD9147256 Si02
#       7
#     4   4   4   4   4   4   4
#     4  10  20  39  67  91 125 160 208 258 318 377
#     4   9  18  32  54  87 126 169 219 263 307 365
#     4   9  17  31  58  92 124 166 213 265 314 365
#     4  11  24  44  71  96 122 161 213 264 325 392
#     4  11  22  38  60  91 129 172 204 255 322 382
#     4  12  24  42  65  96 132 170 211 263 321 378
#     4  10  19  34  58  90 128 172 219 259 305 369
#
# _framework density 19.728458
#
# number of rings (size 3 to 8) (size 9 to 14) (size 15 to 20)
#    0.000    1.714    4.286    1.286    0.000    3.143 
#    0.000    2.143    0.000    6.857    0.000    0.000 
#    0.000    0.000    0.000    0.000    0.000    0.000 
#
# Total GULP energy -156108.923922 kJ/mol
# GULP energy per Si atom -5575.318711 kJ/mol
# Density = 1.968356 g / cm^3
# Si number density = 19.728458 Si / 1000 Ang^3
#
#
#
# Elastic Constant Matrix: (Units=GPa)
#
#
# Indices 1 2 3 4 5 6 
#
# 1 100.1973 22.1185 15.0094 0.0000 11.4405 0.0000
# 2 22.1185 67.4219 16.6624 0.0000 -10.3454 0.0000
# 3 15.0094 16.6624 60.6442 0.0000 19.4714 0.0000
# 4 0.0000 0.0000 0.0000 8.3668 0.0000 2.5660
# 5 11.4405 -10.3454 19.4714 0.0000 33.5986 0.0000
# 6 0.0000 0.0000 0.0000 2.5660 0.0000 4.5231
#
#
#
# Elastic Compliance Matrix: (Units=1/GPa)
#
#
# Indices 1 2 3 4 5 6 
#
# 1 0.011620 -0.004704 0.000187 0.000000 -0.005514 0.000000
# 2 -0.004704 0.020480 -0.008602 0.000000 0.012893 0.000000
# 3 0.000187 -0.008602 0.024176 0.000000 -0.016723 0.000000
# 4 0.000000 0.000000 0.000000 0.144694 0.000000 -0.082085
# 5 -0.005514 0.012893 -0.016723 0.000000 0.045302 0.000000
# 6 0.000000 0.000000 0.000000 -0.082085 0.000000 0.267654
#
#
# Mechanical properties :
#
#
# Convention : Reuss Voigt Hill
#
# Bulk Modulus (GPa) = 33.29259 37.31599 35.30429
# Shear Modulus (GPa) = 9.08797 20.92925 15.00861
#
# Velocity S-wave (km/s) = 2.14861 3.26063 2.76118
# Velocity P-wave (km/s) = 4.80286 5.75599 5.30089
#
# Compressibility (1/GPa) = 0.03003672
#
# Stress axis : x y z
#
# Youngs Moduli (GPa) = 86.05598 48.82918 41.36275
#
# Poissons Ratio (x) = 0.22971 -0.00773
# Poissons Ratio (y) = 0.40484 0.35581
# Poissons Ratio (z) = -0.01607 0.42004
#
# Static dielectric constant tensor:
#      x y z
#    x 1.647590 0.000000 0.046900 
#    y 0.000000 1.672820 0.000000 
#    z 0.046900 0.000000 1.703820 
# 
# From -- ./inp_files/25427.got.cif
#   From: 2010.05.17/outbox.cif.g08.bks.cpg/sg10_13_cif.got.tgz:25427.got - 2010.06.03 11:33:40.
