data_PCOD9147655
_publ_section_title
;
Structure prediction by ZEFSAII (Michael W. Deem and Ramdas Pophale) SiO2 
 PCOD9147655
Probable space group: P 2/M
;
_chemical_formula_sum "Si O2"
_cell_formula_units_Z 32
_cell_length_a 25.773534
_cell_length_b 7.668533
_cell_length_c 20.217532
_cell_angle_alpha 90.000000
_cell_angle_beta 158.739731
_cell_angle_gamma 90.000000
_cell_volume 1448.932918
_symmetry_space_group_name_H-M "P 2/M"
_symmetry_group_IT_number 10
_symmetry_cell_setting 'monoclinic'
loop_
_space_group_symop_operation_xyz
x,y,z
-x,y,-z
-x,-y,-z
x,-y,z
loop_
_atom_site_type_symbol
_atom_site_label
_atom_site_fract_x
_atom_site_fract_y
_atom_site_fract_z
Si Si1 0.078237 0.800181 0.030319
Si Si2 0.906173 0.210088 0.098893
Si Si3 0.605726 0.294318 0.567776
Si Si4 0.123391 0.198190 0.690230
Si Si5 0.600828 0.210797 0.795213
Si Si6 0.943485 0.700314 0.593563
Si Si7 0.570290 0.786165 0.909701
Si Si8 0.617446 0.789324 0.193662
O O1 0.244683 0.800098 0.246432
O O2 0.023743 0.000000 0.960506
O O3 0.065856 0.722820 0.941983
O O4 0.000000 0.715432 0.000000
O O5 0.028692 0.254853 0.297018
O O6 0.895690 0.000000 0.082093
O O7 0.753411 0.272592 0.946882
O O8 0.500000 0.232987 0.500000
O O9 0.631928 0.500000 0.608445
O O10 0.525361 0.265285 0.403582
O O11 0.000000 0.284929 0.500000
O O12 0.056392 0.193220 0.683770
O O13 0.141704 0.000000 0.686083
O O14 0.280745 0.274695 0.880475
O O15 0.571758 0.271003 0.835473
O O16 0.606435 0.000000 0.803142
O O17 0.980012 0.500000 0.626232
O O18 0.780514 0.731552 0.378073
O O19 0.440799 0.734774 0.803343
O O20 0.574100 0.000000 0.913570
O O21 0.619331 0.000000 0.193362
O O22 0.500000 0.731257 0.000000
#
# Coordination Sequence:
#
# PCOD9147655 Si02
#       8
#     4   4   4   4   4   4   4   4
#     4  10  22  40  63  90 117 151 200 251 297 345
#     4  10  20  38  63  86 115 154 197 247 294 345
#     4  11  23  37  57  86 120 157 195 235 291 362
#     4  10  19  36  63  90 115 147 197 250 291 342
#     4  10  19  35  61  87 114 149 195 250 297 341
#     4  12  25  38  57  87 125 163 195 234 294 363
#     4   9  18  34  58  88 112 139 190 249 292 333
#     4  10  21  40  64  86 113 153 199 245 293 345
#
# _framework density 22.085218000000001
#
# number of rings (size 3 to 8) (size 9 to 14) (size 15 to 20)
#    0.000    1.750    2.500    2.250    0.000    5.250 
#    0.000    6.250    0.000    0.000    0.000    0.000 
#    0.000    0.000    0.000    0.000    0.000    0.000 
#
# Total GULP energy -178813.445552 kJ/mol
# GULP energy per Si atom -5587.920174 kJ/mol
# Density = 2.203495 g / cm^3
# Si number density = 22.085218 Si / 1000 Ang^3
#
#
#
# Elastic Constant Matrix: (Units=GPa)
#
#
# Indices 1 2 3 4 5 6 
#
# 1 90.9133 3.6395 -0.7417 0.0000 -4.1682 0.0000
# 2 3.6395 49.7636 -11.2389 0.0000 1.3477 0.0000
# 3 -0.7417 -11.2389 63.1419 0.0000 -9.3578 0.0000
# 4 0.0000 0.0000 0.0000 67.4181 0.0000 -38.2483
# 5 -4.1682 1.3477 -9.3578 0.0000 43.3186 0.0000
# 6 0.0000 0.0000 0.0000 -38.2483 0.0000 6.1839
#
#
#
# Elastic Compliance Matrix: (Units=1/GPa)
#
#
# Indices 1 2 3 4 5 6 
#
# 1 0.011085 -0.000807 0.000153 0.000000 0.001125 0.000000
# 2 -0.000807 0.020996 0.003739 0.000000 0.000077 0.000000
# 3 0.000153 0.003739 0.017035 0.000000 0.003578 0.000000
# 4 0.000000 0.000000 0.000000 -0.005912 0.000000 -0.036565
# 5 0.001125 0.000077 0.003578 0.000000 0.023964 0.000000
# 6 0.000000 0.000000 0.000000 -0.036565 0.000000 -0.064452
#
#
# Mechanical properties :
#
#
# Convention : Reuss Voigt Hill
#
# Bulk Modulus (GPa) = 18.08710 20.79296 19.44003
# Shear Modulus (GPa) = 333.92625 37.52811 185.72718
#
# Velocity S-wave (km/s) = 12.30964 4.12666 9.18032
# Velocity P-wave (km/s) = 14.49978 5.66931 11.00874
#
# Compressibility (1/GPa) = 0.05528802
#
# Stress axis : x y z
#
# Youngs Moduli (GPa) = 90.21527 47.62720 58.70255
#
# Poissons Ratio (x) = 0.03841 -0.00900
# Poissons Ratio (y) = 0.07276 -0.21950
# Poissons Ratio (z) = -0.01383 -0.17809
#
# Static dielectric constant tensor:
#      x y z
#    x 1.827120 0.000000 -0.028830 
#    y 0.000000 1.863280 0.000000 
#    z -0.028830 0.000000 1.748440 
# 
# From -- ./inp_files/86929.got.cif
#   From: 2010.05.17/outbox.cif.g08.bks.cpg/sg10_44_cif.got.tgz:86929.got - 2010.06.03 11:33:40.
