data_PCOD9147488
_publ_section_title
;
Structure prediction by ZEFSAII (Michael W. Deem and Ramdas Pophale) SiO2 
 PCOD9147488
Probable space group: P 2/M
;
_chemical_formula_sum "Si O2"
_cell_formula_units_Z 28
_cell_length_a 27.226351
_cell_length_b 7.501182
_cell_length_c 10.289243
_cell_angle_alpha 90.000000
_cell_angle_beta 38.290395
_cell_angle_gamma 90.000000
_cell_volume 1302.108706
_symmetry_space_group_name_H-M "P 2/M"
_symmetry_group_IT_number 10
_symmetry_cell_setting 'monoclinic'
loop_
_space_group_symop_operation_xyz
x,y,z
-x,y,-z
-x,-y,-z
x,-y,z
loop_
_atom_site_type_symbol
_atom_site_label
_atom_site_fract_x
_atom_site_fract_y
_atom_site_fract_z
Si Si1 0.358586 0.203924 0.015317
Si Si2 0.066503 0.281572 0.760407
Si Si3 0.241615 0.216232 0.034612
Si Si4 0.240783 0.290664 0.481613
Si Si5 0.691830 0.214855 0.380442
Si Si6 0.515297 0.218441 0.818948
Si Si7 0.939762 0.710565 0.518228
O O1 0.302158 0.281491 0.020682
O O2 0.308034 0.203033 0.253318
O O3 0.374054 0.000000 0.942548
O O4 0.443701 0.282365 0.875948
O O5 0.066990 0.500000 0.759471
O O6 0.154061 0.224543 0.622087
O O7 0.050058 0.218309 0.648584
O O8 0.000000 0.224621 0.000000
O O9 0.151659 0.269754 0.251051
O O10 0.242344 0.000000 0.035848
O O11 0.270784 0.276692 0.832516
O O12 0.244637 0.500000 0.442988
O O13 0.257982 0.265982 0.597380
O O14 0.601583 0.275537 0.591348
O O15 0.689850 0.000000 0.379774
O O16 0.513661 0.000000 0.822089
O O17 0.500000 0.272946 0.000000
O O18 0.956909 0.500000 0.473203
O O19 0.000000 0.786079 0.500000
#
# Coordination Sequence:
#
# PCOD9147488 Si02
#       7
#     4   4   4   4   4   4   4
#     4  10  19  35  58  80 108 147 184 222 271 327
#     4   9  19  35  54  80 108 135 178 227 265 313
#     4  10  22  37  56  82 114 147 179 226 279 325
#     4  11  21  34  57  84 109 143 182 227 274 321
#     4  10  21  37  55  80 113 146 184 227 271 322
#     4   9  16  30  55  81 105 142 187 226 265 317
#     4  10  21  37  59  81 107 146 184 221 267 325
#
# _framework density 21.503582000000002
#
# number of rings (size 3 to 8) (size 9 to 14) (size 15 to 20)
#    0.000    2.143    2.857    0.429    2.000    1.429 
#    0.000    4.286    0.000    2.143    0.000    3.000 
#    0.000    0.000    0.000    0.000    0.000    0.000 
#
# Total GULP energy -156446.658807 kJ/mol
# GULP energy per Si atom -5587.380672 kJ/mol
# Density = 2.145464 g / cm^3
# Si number density = 21.503582 Si / 1000 Ang^3
#
#
#
# Elastic Constant Matrix: (Units=GPa)
#
#
# Indices 1 2 3 4 5 6 
#
# 1 218.0113 0.8312 83.2191 0.0000 5.9124 0.0000
# 2 0.8312 56.8695 -5.0808 0.0000 -1.6248 0.0000
# 3 83.2191 -5.0808 136.8663 0.0000 14.2348 0.0000
# 4 0.0000 0.0000 0.0000 10.6315 0.0000 -6.6783
# 5 5.9124 -1.6248 14.2348 0.0000 37.3028 0.0000
# 6 0.0000 0.0000 0.0000 -6.6783 0.0000 -5.9218
#
#
#
# Elastic Compliance Matrix: (Units=1/GPa)
#
#
# Indices 1 2 3 4 5 6 
#
# 1 0.005990 -0.000406 -0.003704 0.000000 0.000446 0.000000
# 2 -0.000406 0.017681 0.000850 0.000000 0.000510 0.000000
# 3 -0.003704 0.000850 0.009919 0.000000 -0.003161 0.000000
# 4 0.000000 0.000000 0.000000 0.055057 0.000000 -0.062091
# 5 0.000446 0.000510 -0.003161 0.000000 0.027965 0.000000
# 6 0.000000 0.000000 0.000000 -0.062091 0.000000 -0.098845
#
#
# Mechanical properties :
#
#
# Convention : Reuss Voigt Hill
#
# Bulk Modulus (GPa) = 36.94047 63.29844 50.11945
# Shear Modulus (GPa) = 150.11126 30.58769 90.34947
#
# Velocity S-wave (km/s) = 8.36416 3.77562 6.48901
# Velocity P-wave (km/s) = 10.51165 6.96472 8.91634
#
# Compressibility (1/GPa) = 0.02707059
#
# Stress axis : x y z
#
# Youngs Moduli (GPa) = 166.94161 56.55926 100.82026
#
# Poissons Ratio (x) = 0.02295 0.37340
# Poissons Ratio (y) = 0.06773 -0.08569
# Poissons Ratio (z) = 0.61829 -0.04807
#
# Static dielectric constant tensor:
#      x y z
#    x 1.765240 0.000000 0.002140 
#    y 0.000000 1.862220 0.000000 
#    z 0.002140 0.000000 1.721450 
# 
# From -- ./inp_files/36931.got.cif
#   From: 2010.05.17/outbox.cif.g08.bks.cpg/sg10_19_cif.got.tgz:36931.got - 2010.06.03 11:33:40.
