data_PCOD9147093
_publ_section_title
;
Structure prediction by ZEFSAII (Michael W. Deem and Ramdas Pophale) SiO2 
 PCOD9147093
Probable space group: P 2/M
;
_chemical_formula_sum "Si O2"
_cell_formula_units_Z 32
_cell_length_a 21.747483
_cell_length_b 8.736665
_cell_length_c 21.720761
_cell_angle_alpha 90.000000
_cell_angle_beta 25.553779
_cell_angle_gamma 90.000000
_cell_volume 1780.195382
_symmetry_space_group_name_H-M "P 2/M"
_symmetry_group_IT_number 10
_symmetry_cell_setting 'monoclinic'
loop_
_space_group_symop_operation_xyz
x,y,z
-x,y,-z
-x,-y,-z
x,-y,z
loop_
_atom_site_type_symbol
_atom_site_label
_atom_site_fract_x
_atom_site_fract_y
_atom_site_fract_z
Si Si1 0.302300 0.683643 0.628732
Si Si2 0.438648 0.313587 0.121278
Si Si3 0.315412 0.316203 0.006396
Si Si4 0.931151 0.183223 0.251039
Si Si5 0.627112 0.684722 0.301342
Si Si6 0.007163 0.815922 0.317483
Si Si7 0.118033 0.685222 0.444253
Si Si8 0.256909 0.182817 0.929621
O O1 0.293659 0.500000 0.636713
O O2 0.186398 0.747458 0.687059
O O3 0.461486 0.723485 0.462560
O O4 0.290128 0.733353 0.711146
O O5 0.436027 0.500000 0.122174
O O6 0.276703 0.264519 0.280934
O O7 0.500000 0.262053 0.000000
O O8 0.549990 0.268922 0.073781
O O9 0.304919 0.500000 0.017121
O O10 0.168263 0.247766 0.166225
O O11 0.328940 0.259055 0.924161
O O12 0.927071 0.230554 0.326480
O O13 0.918194 0.000000 0.260999
O O14 0.089609 0.223928 0.084922
O O15 0.637651 0.500000 0.286760
O O16 0.681568 0.760287 0.190168
O O17 0.929224 0.752607 0.447778
O O18 0.013832 0.000000 0.313032
O O19 0.118213 0.500000 0.448346
O O20 0.000000 0.728408 0.500000
O O21 0.269101 0.000000 0.924098
#
# Coordination Sequence:
#
# PCOD9147093 Si02
#       8
#     4   4   4   4   4   4   4   4
#     4   9  19  35  55  77 103 135 174 220 263 307
#     4   9  18  33  54  81 108 133 170 219 263 305
#     4  10  19  34  57  80 104 137 175 217 262 307
#     4   9  20  36  52  74 105 138 173 213 259 313
#     4   9  19  36  54  76 105 136 173 217 263 310
#     4  10  21  37  54  76 109 143 174 213 261 312
#     4  10  20  35  57  82 106 137 178 219 261 311
#     4  10  21  36  53  77 108 140 174 214 260 312
#
# _framework density 17.975553999999999
#
# number of rings (size 3 to 8) (size 9 to 14) (size 15 to 20)
#    0.000    2.500    0.000    3.375    0.000    7.750 
#    0.000    8.750    0.000    2.625    0.000    0.000 
#    0.000    0.000    0.000    0.000    0.000    0.000 
#
# Total GULP energy -178541.715128 kJ/mol
# GULP energy per Si atom -5579.428598 kJ/mol
# Density = 1.793464 g / cm^3
# Si number density = 17.975554 Si / 1000 Ang^3
#
#
#
# Elastic Constant Matrix: (Units=GPa)
#
#
# Indices 1 2 3 4 5 6 
#
# 1 207.2847 45.2094 120.3053 0.0000 -1.1513 0.0000
# 2 45.2094 23.2077 33.4380 0.0000 1.0038 0.0000
# 3 120.3053 33.4380 120.0002 0.0000 13.4076 0.0000
# 4 0.0000 0.0000 0.0000-2382.5029 0.0000 5082.3354
# 5 -1.1513 1.0038 13.4076 0.0000 38.8240 0.0000
# 6 0.0000 0.0000 0.0000 5082.3354 0.0000**********
#
#
#
# Elastic Compliance Matrix: (Units=1/GPa)
#
#
# Indices 1 2 3 4 5 6 
#
# 1 0.013749 -0.010664 -0.011326 0.000000 0.004595 0.000000
# 2 -0.010664 0.081316 -0.012167 0.000000 0.001783 0.000000
# 3 -0.011326 -0.012167 0.024007 0.000000 -0.008312 0.000000
# 4 0.000000 0.000000 0.000000 0.036094 0.000000 0.017117
# 5 0.004595 0.001783 -0.008312 0.000000 0.028718 0.000000
# 6 0.000000 0.000000 0.000000 0.017117 0.000000 0.008024
#
#
# Mechanical properties :
#
#
# Convention : Reuss Voigt Hill
#
# Bulk Modulus (GPa) = 19.70113 83.15534 51.42824
# Shear Modulus (GPa) = 18.04146 -2602.02705 -1291.99280
#
# Velocity S-wave (km/s) = 3.17151 -38.08778 -26.83860
# Velocity P-wave (km/s) = 4.93913 43.44972 30.52444
#
# Compressibility (1/GPa) = 0.05075850
#
# Stress axis : x y z
#
# Youngs Moduli (GPa) = 72.73268 12.29777 41.65458
#
# Poissons Ratio (x) = 0.13114 0.47177
# Poissons Ratio (y) = 0.77560 0.50681
# Poissons Ratio (z) = 0.82376 0.14963
#
# Static dielectric constant tensor:
#      x y z
#    x 1.607980 0.000000 -0.003270 
#    y 0.000000 1.604680 0.000000 
#    z -0.003270 0.000000 1.593770 
# 
# From -- ./inp_files/90529.got.cif
#   From: 2010.05.17/outbox.cif.g08.bks.cpg/sg10_46_cif.got.tgz:90529.got - 2010.06.03 11:33:40.
