data_PCOD9147632
_publ_section_title
;
Structure prediction by ZEFSAII (Michael W. Deem and Ramdas Pophale) SiO2 
 PCOD9147632
Probable space group: P 2/M
;
_chemical_formula_sum "Si O2"
_cell_formula_units_Z 18
_cell_length_a 17.089849
_cell_length_b 9.625998
_cell_length_c 12.635861
_cell_angle_alpha 90.000000
_cell_angle_beta 155.808528
_cell_angle_gamma 90.000000
_cell_volume 851.818941
_symmetry_space_group_name_H-M "P 2/M"
_symmetry_group_IT_number 10
_symmetry_cell_setting 'monoclinic'
loop_
_space_group_symop_operation_xyz
x,y,z
-x,y,-z
-x,-y,-z
x,-y,z
loop_
_atom_site_type_symbol
_atom_site_label
_atom_site_fract_x
_atom_site_fract_y
_atom_site_fract_z
Si Si1 0.195571 0.662373 0.788103
Si Si2 0.770563 0.842230 0.740936
Si Si3 0.500000 0.240652 0.000000
Si Si4 0.834810 0.333233 0.016714
Si Si5 0.784408 0.842442 0.527535
O O1 0.156018 0.500000 0.756145
O O2 0.360790 0.676570 0.906387
O O3 0.244320 0.712163 0.966242
O O4 0.000000 0.727102 0.500000
O O5 0.688060 0.812505 0.522699
O O6 0.722885 0.000000 0.712331
O O7 0.734889 0.738444 0.792976
O O8 0.000000 0.835356 0.000000
O O9 0.637591 0.160359 0.250155
O O10 0.833516 0.500000 0.002556
O O11 0.050863 0.271606 0.285370
O O12 0.865630 0.000000 0.635201
#
# Coordination Sequence:
#
# PCOD9147632 Si02
#       5
#     4   4   2   4   4
#     4  10  21  38  58  87 122 155 195 244 297 351
#     4   8  16  33  56  82 116 156 194 239 295 347
#     4  12  22  38  62  84 117 162 201 240 289 350
#     4  10  19  35  60  88 117 151 199 246 290 352
#     4  10  21  37  57  86 123 156 195 244 292 349
#
# _framework density 21.131250999999999
#
# number of rings (size 3 to 8) (size 9 to 14) (size 15 to 20)
#    0.000    2.222    2.222    2.667    0.000    4.889 
#    0.000    6.667    0.000    5.333    0.000    0.000 
#    0.000    0.000    0.000    0.000    0.000    0.000 
#
# Total GULP energy -100337.419916 kJ/mol
# GULP energy per Si atom -5574.301106 kJ/mol
# Density = 2.108316 g / cm^3
# Si number density = 21.131251 Si / 1000 Ang^3
#
#
#
# Elastic Constant Matrix: (Units=GPa)
#
#
# Indices 1 2 3 4 5 6 
#
# 1 146.2952 47.4440 53.8672 0.0000 -43.3954 0.0000
# 2 47.4440 67.9142 36.3595 0.0000 -24.9611 0.0000
# 3 53.8672 36.3595 90.0493 0.0000 -31.2406 0.0000
# 4 0.0000 0.0000 0.0000 0.5142 0.0000 -14.5161
# 5 -43.3954 -24.9611 -31.2406 0.0000 50.9578 0.0000
# 6 0.0000 0.0000 0.0000 -14.5161 0.0000 42.1376
#
#
#
# Elastic Compliance Matrix: (Units=1/GPa)
#
#
# Indices 1 2 3 4 5 6 
#
# 1 0.010842 -0.003968 -0.002991 0.000000 0.005456 0.000000
# 2 -0.003968 0.021681 -0.004914 0.000000 0.004229 0.000000
# 3 -0.002991 -0.004914 0.016715 0.000000 0.005293 0.000000
# 4 0.000000 0.000000 0.000000 -0.222891 0.000000 -0.076785
# 5 0.005456 0.004229 0.005293 0.000000 0.029587 0.000000
# 6 0.000000 0.000000 0.000000 -0.076785 0.000000 -0.002720
#
#
# Mechanical properties :
#
#
# Convention : Reuss Voigt Hill
#
# Bulk Modulus (GPa) = 39.22582 64.40001 51.81291
# Shear Modulus (GPa) = -43.65096 29.82779 -6.91159
#
# Velocity S-wave (km/s) = -4.54994 3.76113 -1.81049
# Velocity P-wave (km/s) = 2.99988 7.02879 4.49469
#
# Compressibility (1/GPa) = 0.02549341
#
# Stress axis : x y z
#
# Youngs Moduli (GPa) = 92.23614 46.12299 59.82817
#
# Poissons Ratio (x) = 0.18299 0.17893
# Poissons Ratio (y) = 0.36595 0.29398
# Poissons Ratio (z) = 0.27586 0.22664
#
# Static dielectric constant tensor:
#      x y z
#    x 1.779950 0.000000 -0.024940 
#    y 0.000000 1.731460 0.000000 
#    z -0.024940 0.000000 1.835910 
# 
# From -- ./inp_files/53112.got.cif
#   From: 2010.05.17/outbox.cif.g08.bks.cpg/sg10_27_cif.got.tgz:53112.got - 2010.06.03 11:33:40.
