data_PCOD9147893
_publ_section_title
;
Structure prediction by ZEFSAII (Michael W. Deem and Ramdas Pophale) SiO2 
 PCOD9147893
Probable space group: P 2/M
;
_chemical_formula_sum "Si O2"
_cell_formula_units_Z 32
_cell_length_a 14.734933
_cell_length_b 14.992503
_cell_length_c 20.818927
_cell_angle_alpha 90.000000
_cell_angle_beta 20.153584
_cell_angle_gamma 90.000000
_cell_volume 1584.592259
_symmetry_space_group_name_H-M "P 2/M"
_symmetry_group_IT_number 10
_symmetry_cell_setting 'monoclinic'
loop_
_space_group_symop_operation_xyz
x,y,z
-x,y,-z
-x,-y,-z
x,-y,z
loop_
_atom_site_type_symbol
_atom_site_label
_atom_site_fract_x
_atom_site_fract_y
_atom_site_fract_z
Si Si1 0.093890 0.780051 0.690035
Si Si2 0.499328 0.841478 0.072594
Si Si3 0.777065 0.403793 0.201993
Si Si4 0.994908 0.715806 0.432662
Si Si5 0.819552 0.399034 0.430448
Si Si6 0.909287 0.784681 0.166815
Si Si7 0.475630 0.899807 0.660356
Si Si8 0.504619 0.844948 0.213372
O O1 0.130205 0.674418 0.657715
O O2 0.176302 0.812719 0.705425
O O3 0.277066 0.836272 0.520706
O O4 0.787735 0.798074 0.882317
O O5 0.258816 0.770660 0.238074
O O6 0.486108 0.886013 0.153363
O O7 0.500000 0.885251 0.000000
O O8 0.793345 0.500000 0.225805
O O9 0.495698 0.400742 0.354481
O O10 0.811603 0.315296 0.219947
O O11 0.000000 0.400864 0.000000
O O12 0.000000 0.672632 0.500000
O O13 0.939029 0.644350 0.414905
O O14 0.753933 0.785529 0.601891
O O15 0.910888 0.500000 0.357494
O O16 0.775517 0.849123 0.203474
O O17 0.226328 0.787318 0.959542
O O18 0.465631 0.905675 0.743937
O O19 0.501468 0.000000 0.616949
#
# Coordination Sequence:
#
# PCOD9147893 Si02
#       8
#     4   4   4   4   4   4   4   4
#     4  11  23  40  58  90 124 165 206 250 305 364
#     4  10  19  37  67  89 117 165 202 248 307 359
#     4  10  20  34  57  87 122 165 206 246 297 361
#     4  10  19  36  63  89 118 162 208 254 307 353
#     4  11  21  35  58  88 127 167 207 251 299 357
#     4  11  22  37  62  89 127 162 202 250 304 366
#     4  12  24  41  65  91 124 160 199 252 311 373
#     4  10  21  37  63  93 120 157 204 252 305 367
#
# _framework density 20.194469999999999
#
# number of rings (size 3 to 8) (size 9 to 14) (size 15 to 20)
#    0.000    1.375    3.750    2.250    0.000    2.750 
#    0.000    4.375    0.000   17.625    0.000    0.000 
#    0.000    0.000    0.000    0.000    0.000    0.000 
#
# Total GULP energy -178286.354551 kJ/mol
# GULP energy per Si atom -5571.448580 kJ/mol
# Density = 2.014851 g / cm^3
# Si number density = 20.194470 Si / 1000 Ang^3
#
#
#
# Elastic Constant Matrix: (Units=GPa)
#
#
# Indices 1 2 3 4 5 6 
#
# 1 129.4109 40.6563 37.4844 0.0000 14.1612 0.0000
# 2 40.6563 90.5711 9.3625 0.0000 -5.8006 0.0000
# 3 37.4844 9.3625 89.2008 0.0000 -17.2237 0.0000
# 4 0.0000 0.0000 0.0000 -9.1890 0.0000 7.2588
# 5 14.1612 -5.8006 -17.2237 0.0000 35.1620 0.0000
# 6 0.0000 0.0000 0.0000 7.2588 0.0000 -27.1807
#
#
#
# Elastic Compliance Matrix: (Units=1/GPa)
#
#
# Indices 1 2 3 4 5 6 
#
# 1 0.012218 -0.005404 -0.006284 0.000000 -0.008890 0.000000
# 2 -0.005404 0.013615 0.001873 0.000000 0.005340 0.000000
# 3 -0.006284 0.001873 0.015687 0.000000 0.010524 0.000000
# 4 0.000000 0.000000 0.000000 -0.137922 0.000000 -0.036833
# 5 -0.008890 0.005340 0.010524 0.000000 0.038056 0.000000
# 6 0.000000 0.000000 0.000000 -0.036833 0.000000 -0.046627
#
#
# Mechanical properties :
#
#
# Convention : Reuss Voigt Hill
#
# Bulk Modulus (GPa) = 45.68265 53.79881 49.74073
# Shear Modulus (GPa) = -64.06470 14.53712 -24.76379
#
# Velocity S-wave (km/s) = -5.63851 2.68592 -3.50561
# Velocity P-wave (km/s) = 4.44071 6.02637 2.88073
#
# Compressibility (1/GPa) = 0.02189015
#
# Stress axis : x y z
#
# Youngs Moduli (GPa) = 81.84543 73.44629 63.74845
#
# Poissons Ratio (x) = 0.39693 0.40058
# Poissons Ratio (y) = 0.44232 -0.11941
# Poissons Ratio (z) = 0.51430 -0.13757
#
# Static dielectric constant tensor:
#      x y z
#    x 1.793300 0.000000 0.026000 
#    y 0.000000 1.686810 0.000000 
#    z 0.026000 0.000000 1.713280 
# 
# From -- ./inp_files/25354.got.cif
#   From: 2010.05.17/outbox.cif.g08.bks.cpg/sg10_13_cif.got.tgz:25354.got - 2010.06.03 11:33:40.
