data_PCOD9147180
_publ_section_title
;
Structure prediction by ZEFSAII (Michael W. Deem and Ramdas Pophale) SiO2 
 PCOD9147180
Probable space group: P 2/M
;
_chemical_formula_sum "Si O2"
_cell_formula_units_Z 32
_cell_length_a 18.763021
_cell_length_b 8.865496
_cell_length_c 23.414319
_cell_angle_alpha 90.000000
_cell_angle_beta 155.523930
_cell_angle_gamma 90.000000
_cell_volume 1613.674946
_symmetry_space_group_name_H-M "P 2/M"
_symmetry_group_IT_number 10
_symmetry_cell_setting 'monoclinic'
loop_
_space_group_symop_operation_xyz
x,y,z
-x,y,-z
-x,-y,-z
x,-y,z
loop_
_atom_site_type_symbol
_atom_site_label
_atom_site_fract_x
_atom_site_fract_y
_atom_site_fract_z
Si Si1 0.168035 0.177145 0.798134
Si Si2 0.846963 0.677053 0.514058
Si Si3 0.204073 0.172177 0.639048
Si Si4 0.527321 0.180092 0.338340
Si Si5 0.592994 0.816057 0.510346
Si Si6 0.989788 0.822315 0.792905
Si Si7 0.687002 0.321763 0.920140
Si Si8 0.492889 0.679607 0.087900
O O1 0.038203 0.258603 0.660525
O O2 0.067944 0.191762 0.786131
O O3 0.185896 0.000000 0.797781
O O4 0.351929 0.255434 0.941436
O O5 0.843639 0.500000 0.522599
O O6 0.776750 0.715354 0.400148
O O7 0.718548 0.764305 0.462162
O O8 0.325909 0.233629 0.778020
O O9 0.000000 0.169510 0.500000
O O10 0.256620 0.000000 0.663021
O O11 0.497781 0.228529 0.382270
O O12 0.402126 0.245223 0.198994
O O13 0.522603 0.000000 0.331956
O O14 0.500000 0.764060 0.500000
O O15 0.793041 0.769471 0.653190
O O16 0.593959 0.000000 0.511613
O O17 0.994275 0.000000 0.810302
O O18 0.119760 0.735084 0.928813
O O19 0.681425 0.500000 0.908095
O O20 0.587743 0.289364 0.907543
O O21 0.513334 0.500000 0.095512
#
# Coordination Sequence:
#
# PCOD9147180 Si02
#       8
#     4   4   4   4   4   4   4   4
#     4  10  19  34  57  85 114 147 189 238 282 331
#     4  12  23  36  57  86 117 149 188 236 283 333
#     4  11  24  41  61  85 115 152 190 230 279 337
#     4  11  20  34  57  84 111 145 189 237 283 332
#     4   9  18  34  56  83 113 144 186 237 284 332
#     4   9  17  32  54  81 109 145 186 229 281 332
#     4  10  20  33  52  82 113 145 183 231 281 331
#     4  10  20  35  56  85 117 150 185 229 284 337
#
# _framework density 19.830513
#
# number of rings (size 3 to 8) (size 9 to 14) (size 15 to 20)
#    0.000    1.750    2.500    3.000    0.000    2.500 
#    0.000    1.250    0.000   10.875    0.000    0.000 
#    0.000    0.000    0.000    0.000    0.000    0.000 
#
# Total GULP energy -178781.758616 kJ/mol
# GULP energy per Si atom -5586.929957 kJ/mol
# Density = 1.978538 g / cm^3
# Si number density = 19.830513 Si / 1000 Ang^3
#
#
#
# Elastic Constant Matrix: (Units=GPa)
#
#
# Indices 1 2 3 4 5 6 
#
# 1 47.0973 7.7001 8.0544 0.0000 -5.3592 0.0000
# 2 7.7001 41.6287 34.6540 0.0000 -7.6969 0.0000
# 3 8.0544 34.6540 122.2314 0.0000 -20.3657 0.0000
# 4 0.0000 0.0000 0.0000 0.1062 0.0000 -6.1895
# 5 -5.3592 -7.6969 -20.3657 0.0000 29.3323 0.0000
# 6 0.0000 0.0000 0.0000 -6.1895 0.0000 5.1566
#
#
#
# Elastic Compliance Matrix: (Units=1/GPa)
#
#
# Indices 1 2 3 4 5 6 
#
# 1 0.022165 -0.003583 0.000083 0.000000 0.003167 0.000000
# 2 -0.003583 0.032164 -0.008578 0.000000 0.001829 0.000000
# 3 0.000083 -0.008578 0.011574 0.000000 0.005800 0.000000
# 4 0.000000 0.000000 0.000000 -0.136557 0.000000 -0.163908
# 5 0.003167 0.001829 0.005800 0.000000 0.039178 0.000000
# 6 0.000000 0.000000 0.000000 -0.163908 0.000000 -0.002814
#
#
# Mechanical properties :
#
#
# Convention : Reuss Voigt Hill
#
# Bulk Modulus (GPa) = 23.95434 34.64160 29.29797
# Shear Modulus (GPa) = 1322.04314 17.62228 669.83271
#
# Velocity S-wave (km/s) = 25.84799 2.98425 18.39870
# Velocity P-wave (km/s) = 30.04880 5.42043 21.59064
#
# Compressibility (1/GPa) = 0.04174609
#
# Stress axis : x y z
#
# Youngs Moduli (GPa) = 45.11679 31.09099 86.40005
#
# Poissons Ratio (x) = 0.11141 -0.00718
# Poissons Ratio (y) = 0.16167 0.74112
# Poissons Ratio (z) = -0.00375 0.26669
#
# Static dielectric constant tensor:
#      x y z
#    x 1.736790 0.000000 0.001030 
#    y 0.000000 1.655360 0.000000 
#    z 0.001030 0.000000 1.699330 
# 
# From -- ./inp_files/93715.got.cif
#   From: 2010.05.17/outbox.cif.g08.bks.cpg/sg10_47_cif.got.tgz:93715.got - 2010.06.03 11:33:40.
