data_PCOD9147674
_publ_section_title
;
Structure prediction by ZEFSAII (Michael W. Deem and Ramdas Pophale) SiO2 
 PCOD9147674
Probable space group: P 2/M
;
_chemical_formula_sum "Si O2"
_cell_formula_units_Z 32
_cell_length_a 9.677872
_cell_length_b 14.085562
_cell_length_c 12.534166
_cell_angle_alpha 90.000000
_cell_angle_beta 59.848069
_cell_angle_gamma 90.000000
_cell_volume 1477.451397
_symmetry_space_group_name_H-M "P 2/M"
_symmetry_group_IT_number 10
_symmetry_cell_setting 'monoclinic'
loop_
_space_group_symop_operation_xyz
x,y,z
-x,y,-z
-x,-y,-z
x,-y,z
loop_
_atom_site_type_symbol
_atom_site_label
_atom_site_fract_x
_atom_site_fract_y
_atom_site_fract_z
Si Si1 0.552831 0.103124 0.694056
Si Si2 0.645181 0.893976 0.010744
Si Si3 0.446981 0.393188 0.828447
Si Si4 0.239065 0.113784 0.709549
Si Si5 0.893733 0.732362 0.381574
Si Si6 0.828578 0.241088 0.054300
Si Si7 0.238164 0.282087 0.333633
Si Si8 0.351881 0.393667 0.619426
O O1 0.433595 0.096934 0.841882
O O2 0.431741 0.125759 0.644896
O O3 0.677099 0.181698 0.678879
O O4 0.626410 0.000000 0.647544
O O5 0.802968 0.832956 0.966756
O O6 0.677917 0.000000 0.955566
O O7 0.500000 0.850032 0.000000
O O8 0.432971 0.500000 0.879320
O O9 0.314443 0.315302 0.911868
O O10 0.626334 0.351848 0.764801
O O11 0.408437 0.399455 0.717855
O O12 0.166591 0.163753 0.632761
O O13 0.181032 0.175980 0.834477
O O14 0.206803 0.000000 0.730141
O O15 0.823218 0.695908 0.522488
O O16 0.810686 0.663035 0.329208
O O17 0.083271 0.726462 0.319679
O O18 0.000000 0.289160 0.000000
O O19 0.500000 0.346809 0.500000
O O20 0.329798 0.500000 0.584097
#
# Coordination Sequence:
#
# PCOD9147674 Si02
#       8
#     4   4   4   4   4   4   4   4
#     4   9  18  35  58  80 113 157 197 235 279 345
#     4   9  18  34  58  88 115 148 191 236 291 351
#     4  11  22  40  64  85 114 157 197 242 302 356
#     4  10  21  39  60  88 120 156 200 243 289 346
#     4  11  23  35  57  90 123 153 196 244 288 349
#     4  11  22  39  63  89 115 150 195 253 296 344
#     4  11  22  37  56  85 124 161 192 237 295 354
#     4  10  19  35  62  87 110 146 195 245 292 351
#
# _framework density 21.658918
#
# number of rings (size 3 to 8) (size 9 to 14) (size 15 to 20)
#    0.000    1.750    5.000    1.125    0.000    3.750 
#    0.000    5.000    0.000    0.375    0.000    0.000 
#    0.000    0.000    0.000    0.000    0.000    0.000 
#
# Total GULP energy -178390.415586 kJ/mol
# GULP energy per Si atom -5574.700487 kJ/mol
# Density = 2.160962 g / cm^3
# Si number density = 21.658918 Si / 1000 Ang^3
#
#
#
# Elastic Constant Matrix: (Units=GPa)
#
#
# Indices 1 2 3 4 5 6 
#
# 1 163.2572 59.1353 13.9814 0.0000 -27.6336 0.0000
# 2 59.1353 117.3442 8.8906 0.0000 -24.3540 0.0000
# 3 13.9814 8.8906 20.6381 0.0000 -5.8817 0.0000
# 4 0.0000 0.0000 0.0000 8.5774 0.0000 -7.0235
# 5 -27.6336 -24.3540 -5.8817 0.0000 31.8492 0.0000
# 6 0.0000 0.0000 0.0000 -7.0235 0.0000 38.2054
#
#
#
# Elastic Compliance Matrix: (Units=1/GPa)
#
#
# Indices 1 2 3 4 5 6 
#
# 1 0.008198 -0.003021 -0.003044 0.000000 0.004241 0.000000
# 2 -0.003021 0.011345 -0.001177 0.000000 0.005837 0.000000
# 3 -0.003044 -0.001177 0.052793 0.000000 0.006208 0.000000
# 4 0.000000 0.000000 0.000000 0.137244 0.000000 0.025230
# 5 0.004241 0.005837 0.006208 0.000000 0.040687 0.000000
# 6 0.000000 0.000000 0.000000 0.025230 0.000000 0.030813
#
#
# Mechanical properties :
#
#
# Convention : Reuss Voigt Hill
#
# Bulk Modulus (GPa) = 17.28558 51.69492 34.49025
# Shear Modulus (GPa) = 15.88072 30.34187 23.11130
#
# Velocity S-wave (km/s) = 2.71074 3.74691 3.27013
# Velocity P-wave (km/s) = 4.21848 6.52983 5.49701
#
# Compressibility (1/GPa) = 0.05785170
#
# Stress axis : x y z
#
# Youngs Moduli (GPa) = 121.98188 88.14681 18.94198
#
# Poissons Ratio (x) = 0.26625 0.05766
# Poissons Ratio (y) = 0.36845 0.02230
# Poissons Ratio (z) = 0.37130 0.10379
#
# Static dielectric constant tensor:
#      x y z
#    x 1.789580 0.000000 -0.003640 
#    y 0.000000 1.865840 0.000000 
#    z -0.003640 0.000000 1.887020 
# 
# From -- ./inp_files/61813.got.cif
#   From: 2010.05.17/outbox.cif.g08.bks.cpg/sg10_31_cif.got.tgz:61813.got - 2010.06.03 11:33:40.
