data_PCOD9147078
_publ_section_title
;
Structure prediction by ZEFSAII (Michael W. Deem and Ramdas Pophale) SiO2 
 PCOD9147078
Probable space group: P 2/M
;
_chemical_formula_sum "Si O2"
_cell_formula_units_Z 28
_cell_length_a 11.929576
_cell_length_b 14.786293
_cell_length_c 9.084521
_cell_angle_alpha 90.000000
_cell_angle_beta 55.142748
_cell_angle_gamma 90.000000
_cell_volume 1314.941689
_symmetry_space_group_name_H-M "P 2/M"
_symmetry_group_IT_number 10
_symmetry_cell_setting 'monoclinic'
loop_
_space_group_symop_operation_xyz
x,y,z
-x,y,-z
-x,-y,-z
x,-y,z
loop_
_atom_site_type_symbol
_atom_site_label
_atom_site_fract_x
_atom_site_fract_y
_atom_site_fract_z
Si Si1 0.629588 0.104083 0.796024
Si Si2 0.923532 0.243148 0.216166
Si Si3 0.499223 0.221143 0.326279
Si Si4 0.253513 0.899195 0.808039
Si Si5 0.905910 0.098100 0.775056
Si Si6 0.124691 0.393217 0.517753
Si Si7 0.561355 0.602927 0.791131
O O1 0.624998 0.173652 0.665668
O O2 0.771878 0.108924 0.776363
O O3 0.612024 0.000000 0.760356
O O4 0.500000 0.125096 0.000000
O O5 0.805621 0.172408 0.261355
O O6 0.880169 0.334481 0.329527
O O7 0.005919 0.187807 0.280510
O O8 0.000000 0.260278 0.000000
O O9 0.500000 0.228527 0.500000
O O10 0.619317 0.148697 0.209950
O O11 0.511851 0.320346 0.249694
O O12 0.285518 0.000000 0.726979
O O13 0.142229 0.909012 0.019359
O O14 0.972058 0.000000 0.689804
O O15 0.111027 0.500000 0.561575
O O16 0.275114 0.380451 0.333428
O O17 0.000000 0.370681 0.500000
O O18 0.539300 0.500000 0.753872
O O19 0.500000 0.609257 0.000000
#
# Coordination Sequence:
#
# PCOD9147078 Si02
#       7
#     4   4   4   4   4   4   4
#     4  10  19  34  56  85 123 171 223 275 320 380
#     4  10  21  37  64  96 131 176 220 266 324 395
#     4  12  24  36  59  91 129 167 208 266 337 400
#     4  10  20  36  56  87 131 175 217 262 315 380
#     4   9  18  34  59  89 123 170 222 266 314 378
#     4  10  23  44  68  96 132 171 217 277 339 400
#     4  10  24  46  71  97 127 167 221 282 343 402
#
# _framework density 21.29372
#
# number of rings (size 3 to 8) (size 9 to 14) (size 15 to 20)
#    0.000    1.857    1.429    2.143    2.000    4.571 
#    0.000    0.714    0.000    0.857    0.000    0.000 
#    0.000    0.000    0.000    0.000    0.000    0.000 
#
# Total GULP energy -156253.503816 kJ/mol
# GULP energy per Si atom -5580.482279 kJ/mol
# Density = 2.124525 g / cm^3
# Si number density = 21.293720 Si / 1000 Ang^3
#
#
#
# Elastic Constant Matrix: (Units=GPa)
#
#
# Indices 1 2 3 4 5 6 
#
# 1 81.1109 67.8231 26.6599 0.0000 14.2078 0.0000
# 2 67.8231 136.9596 65.9123 0.0000 19.1427 0.0000
# 3 26.6599 65.9123 93.9013 0.0000 11.1965 0.0000
# 4 0.0000 0.0000 0.0000 116.8288 0.0000 27.4546
# 5 14.2078 19.1427 11.1965 0.0000 29.1927 0.0000
# 6 0.0000 0.0000 0.0000 27.4546 0.0000 37.3877
#
#
#
# Elastic Compliance Matrix: (Units=1/GPa)
#
#
# Indices 1 2 3 4 5 6 
#
# 1 0.021723 -0.011260 0.002218 0.000000 -0.004039 0.000000
# 2 -0.011260 0.017448 -0.008739 0.000000 -0.002609 0.000000
# 3 0.002218 -0.008739 0.016347 0.000000 -0.001619 0.000000
# 4 0.000000 0.000000 0.000000 0.010345 0.000000 -0.007596
# 5 -0.004039 -0.002609 -0.001619 0.000000 0.038553 0.000000
# 6 0.000000 0.000000 0.000000 -0.007596 0.000000 0.032325
#
#
# Mechanical properties :
#
#
# Convention : Reuss Voigt Hill
#
# Bulk Modulus (GPa) = 50.11221 70.30691 60.20956
# Shear Modulus (GPa) = 27.94006 46.78693 37.36350
#
# Velocity S-wave (km/s) = 3.62626 4.69253 4.19343
# Velocity P-wave (km/s) = 6.41232 7.90248 7.19608
#
# Compressibility (1/GPa) = 0.01995522
#
# Stress axis : x y z
#
# Youngs Moduli (GPa) = 46.03475 57.31326 61.17289
#
# Poissons Ratio (x) = 0.64535 -0.13568
# Poissons Ratio (y) = 0.51835 0.53461
# Poissons Ratio (z) = -0.10211 0.50088
#
# Static dielectric constant tensor:
#      x y z
#    x 2.001030 0.000000 -0.108280 
#    y 0.000000 1.801010 0.000000 
#    z -0.108280 0.000000 1.823800 
# 
# From -- ./inp_files/25184.got.cif
#   From: 2010.05.17/outbox.cif.g08.bks.cpg/sg10_13_cif.got.tgz:25184.got - 2010.06.03 11:33:40.
