data_PCOD9147501
_publ_section_title
;
Structure prediction by ZEFSAII (Michael W. Deem and Ramdas Pophale) SiO2 
 PCOD9147501
Probable space group: P 2/M
;
_chemical_formula_sum "Si O2"
_cell_formula_units_Z 32
_cell_length_a 20.253193
_cell_length_b 7.507091
_cell_length_c 25.785228
_cell_angle_alpha 90.000000
_cell_angle_beta 21.542958
_cell_angle_gamma 90.000000
_cell_volume 1439.584981
_symmetry_space_group_name_H-M "P 2/M"
_symmetry_group_IT_number 10
_symmetry_cell_setting 'monoclinic'
loop_
_space_group_symop_operation_xyz
x,y,z
-x,y,-z
-x,-y,-z
x,-y,z
loop_
_atom_site_type_symbol
_atom_site_label
_atom_site_fract_x
_atom_site_fract_y
_atom_site_fract_z
Si Si1 0.505764 0.295832 0.325721
Si Si2 0.439753 0.714933 0.102384
Si Si3 0.437542 0.794820 0.490432
Si Si4 0.960750 0.715288 0.191947
Si Si5 0.197166 0.282723 0.113049
Si Si6 0.967677 0.796340 0.580246
Si Si7 0.097447 0.281586 0.981519
Si Si8 0.882509 0.293330 0.419153
O O1 0.504894 0.500000 0.307318
O O2 0.506522 0.294902 0.387832
O O3 0.695647 0.219011 0.168637
O O4 0.314806 0.214091 0.447825
O O5 0.421900 0.500000 0.119377
O O6 0.245376 0.792187 0.255169
O O7 0.500000 0.755424 0.000000
O O8 0.602496 0.776673 0.019911
O O9 0.500000 0.717225 0.500000
O O10 0.222314 0.785969 0.649671
O O11 0.498014 0.000000 0.444172
O O12 0.947364 0.500000 0.202223
O O13 0.124671 0.765710 0.109588
O O14 0.992563 0.773355 0.109866
O O15 0.202539 0.500000 0.112471
O O16 0.048573 0.220341 0.263756
O O17 0.000000 0.714391 0.500000
O O18 0.063459 0.712882 0.560190
O O19 0.033041 0.000000 0.530824
O O20 0.099982 0.500000 0.979170
O O21 0.000000 0.224835 0.000000
O O22 0.868495 0.500000 0.412692
#
# Coordination Sequence:
#
# PCOD9147501 Si02
#       8
#     4   4   4   4   4   4   4   4
#     4  10  20  36  60  87 112 146 191 234 284 345
#     4  10  19  35  60  85 111 145 187 235 285 335
#     4  11  23  36  52  80 115 150 192 235 276 332
#     4  10  19  35  58  82 111 145 184 235 285 331
#     4   9  17  32  56  87 114 137 177 238 290 331
#     4  11  25  41  56  82 120 156 192 231 275 334
#     4   9  18  32  53  84 116 144 181 230 282 334
#     4  10  19  36  60  86 114 144 187 238 287 341
#
# _framework density 22.228626999999999
#
# number of rings (size 3 to 8) (size 9 to 14) (size 15 to 20)
#    0.000    2.000    2.500    1.500    0.000    4.750 
#    0.000    3.750    0.000    2.250    0.000    0.000 
#    0.000    0.000    0.000    0.000    0.000    0.000 
#
# Total GULP energy -178786.138626 kJ/mol
# GULP energy per Si atom -5587.066832 kJ/mol
# Density = 2.217803 g / cm^3
# Si number density = 22.228627 Si / 1000 Ang^3
#
#
#
# Elastic Constant Matrix: (Units=GPa)
#
#
# Indices 1 2 3 4 5 6 
#
# 1 75.4881 -3.5744 -11.2268 0.0000 -2.0172 0.0000
# 2 -3.5744 55.3086 -4.0537 0.0000 0.0502 0.0000
# 3 -11.2268 -4.0537 59.5874 0.0000 1.5310 0.0000
# 4 0.0000 0.0000 0.0000 -16.3570 0.0000 106.2405
# 5 -2.0172 0.0502 1.5310 0.0000 45.0938 0.0000
# 6 0.0000 0.0000 0.0000 106.2405 0.0000 -494.8017
#
#
#
# Elastic Compliance Matrix: (Units=1/GPa)
#
#
# Indices 1 2 3 4 5 6 
#
# 1 0.013705 0.001079 0.002642 0.000000 0.000522 0.000000
# 2 0.001079 0.018256 0.001446 0.000000 -0.000021 0.000000
# 3 0.002642 0.001446 0.017390 0.000000 -0.000474 0.000000
# 4 0.000000 0.000000 0.000000 0.154937 0.000000 0.033267
# 5 0.000522 -0.000021 -0.000474 0.000000 0.022215 0.000000
# 6 0.000000 0.000000 0.000000 0.033267 0.000000 0.005122
#
#
# Mechanical properties :
#
#
# Convention : Reuss Voigt Hill
#
# Bulk Modulus (GPa) = 16.75458 16.96382 16.85920
# Shear Modulus (GPa) = 20.73073 -79.26372 -29.26649
#
# Velocity S-wave (km/s) = 3.05719 -5.97794 -3.63245
# Velocity P-wave (km/s) = 4.47388 6.32453 3.16102
#
# Compressibility (1/GPa) = 0.05968517
#
# Stress axis : x y z
#
# Youngs Moduli (GPa) = 72.96555 54.77631 57.50299
#
# Poissons Ratio (x) = -0.05910 -0.15193
# Poissons Ratio (y) = -0.07872 -0.08314
# Poissons Ratio (z) = -0.19278 -0.07919
#
# Static dielectric constant tensor:
#      x y z
#    x 1.806040 0.000000 -0.027430 
#    y 0.000000 1.893260 0.000000 
#    z -0.027430 0.000000 1.786860 
# 
# From -- ./inp_files/87042.got.cif
#   From: 2010.05.17/outbox.cif.g08.bks.cpg/sg10_44_cif.got.tgz:87042.got - 2010.06.03 11:33:40.
