data_PCOD9147605
_publ_section_title
;
Structure prediction by ZEFSAII (Michael W. Deem and Ramdas Pophale) SiO2 
 PCOD9147605
Probable space group: P 2/M
;
_chemical_formula_sum "Si O2"
_cell_formula_units_Z 32
_cell_length_a 20.514589
_cell_length_b 7.801718
_cell_length_c 26.647418
_cell_angle_alpha 90.000000
_cell_angle_beta 159.176710
_cell_angle_gamma 90.000000
_cell_volume 1516.113931
_symmetry_space_group_name_H-M "P 2/M"
_symmetry_group_IT_number 10
_symmetry_cell_setting 'monoclinic'
loop_
_space_group_symop_operation_xyz
x,y,z
-x,y,-z
-x,-y,-z
x,-y,z
loop_
_atom_site_type_symbol
_atom_site_label
_atom_site_fract_x
_atom_site_fract_y
_atom_site_fract_z
Si Si1 0.712631 0.209798 0.654373
Si Si2 0.080393 0.698604 0.658776
Si Si3 0.833652 0.799080 0.848566
Si Si4 0.615099 0.797659 0.193922
Si Si5 0.665677 0.291859 0.343548
Si Si6 0.867552 0.208352 0.659203
Si Si7 0.516315 0.297693 0.340528
Si Si8 0.760112 0.798299 0.122158
O O1 0.500000 0.262772 0.500000
O O2 0.801355 0.273208 0.769837
O O3 0.815980 0.262976 0.678301
O O4 0.712334 0.000000 0.654732
O O5 0.060438 0.500000 0.658008
O O6 0.200844 0.714915 0.695511
O O7 0.192250 0.780992 0.785041
O O8 0.875396 0.768460 0.503747
O O9 0.646768 0.786837 0.745678
O O10 0.876316 0.000000 0.871567
O O11 0.000000 0.721705 0.000000
O O12 0.598417 0.769076 0.241180
O O13 0.632440 0.000000 0.196357
O O14 0.435913 0.727365 0.036045
O O15 0.667833 0.500000 0.344479
O O16 0.543725 0.236106 0.303181
O O17 0.707642 0.267929 0.506873
O O18 0.064622 0.271391 0.781998
O O19 0.867258 0.000000 0.657667
O O20 0.478637 0.500000 0.312306
O O21 0.750659 0.000000 0.103414
#
# Coordination Sequence:
#
# PCOD9147605 Si02
#       8
#     4   4   4   4   4   4   4   4
#     4   9  16  30  55  84 111 140 182 232 276 323
#     4  11  22  39  62  85 114 156 200 237 286 353
#     4  10  21  37  59  87 116 151 193 233 279 341
#     4  11  24  39  57  87 121 150 191 246 298 346
#     4  10  23  41  59  83 115 154 197 240 288 349
#     4  10  19  35  60  83 110 150 192 234 285 339
#     4  11  22  38  59  84 117 150 188 238 287 338
#     4  10  22  38  58  87 119 149 189 244 295 343
#
# _framework density 21.106593
#
# number of rings (size 3 to 8) (size 9 to 14) (size 15 to 20)
#    0.000    1.750    2.500    1.875    0.000    7.250 
#    0.000    3.750    0.000    0.000    0.000    0.000 
#    0.000    0.000    0.000    0.000    0.000    0.000 
#
# Total GULP energy -178813.948239 kJ/mol
# GULP energy per Si atom -5587.935882 kJ/mol
# Density = 2.105855 g / cm^3
# Si number density = 21.106593 Si / 1000 Ang^3
#
#
#
# Elastic Constant Matrix: (Units=GPa)
#
#
# Indices 1 2 3 4 5 6 
#
# 1 93.4032 -8.4528 -10.5371 0.0000 -9.1201 0.0000
# 2 -8.4528 25.1299 -0.5643 0.0000 -2.3321 0.0000
# 3 -10.5371 -0.5643 47.5408 0.0000 -15.3066 0.0000
# 4 0.0000 0.0000 0.0000 -4.7367 0.0000 -19.8363
# 5 -9.1201 -2.3321 -15.3066 0.0000 30.9905 0.0000
# 6 0.0000 0.0000 0.0000 -19.8363 0.0000 1.0729
#
#
#
# Elastic Compliance Matrix: (Units=1/GPa)
#
#
# Indices 1 2 3 4 5 6 
#
# 1 0.012313 0.004842 0.004840 0.000000 0.006379 0.000000
# 2 0.004842 0.042096 0.003629 0.000000 0.006385 0.000000
# 3 0.004840 0.003629 0.026989 0.000000 0.015028 0.000000
# 4 0.000000 0.000000 0.000000 -0.002692 0.000000 -0.049770
# 5 0.006379 0.006385 0.015028 0.000000 0.042048 0.000000
# 6 0.000000 0.000000 0.000000 -0.049770 0.000000 0.011885
#
#
# Mechanical properties :
#
#
# Convention : Reuss Voigt Hill
#
# Bulk Modulus (GPa) = 9.25738 14.10727 11.68232
# Shear Modulus (GPa) = 35.20556 17.84055 26.52305
#
# Velocity S-wave (km/s) = 4.08853 2.91049 3.54874
# Velocity P-wave (km/s) = 5.16562 4.24181 4.72634
#
# Compressibility (1/GPa) = 0.10802192
#
# Stress axis : x y z
#
# Youngs Moduli (GPa) = 81.21227 23.75518 37.05218
#
# Poissons Ratio (x) = -0.11503 -0.17935
# Poissons Ratio (y) = -0.39327 -0.13446
# Poissons Ratio (z) = -0.39310 -0.08620
#
# Static dielectric constant tensor:
#      x y z
#    x 1.736000 0.000000 -0.004780 
#    y 0.000000 1.774060 0.000000 
#    z -0.004780 0.000000 1.743580 
# 
# From -- ./inp_files/93700.got.cif
#   From: 2010.05.17/outbox.cif.g08.bks.cpg/sg10_47_cif.got.tgz:93700.got - 2010.06.03 11:33:40.
