data_PCOD9147191
_publ_section_title
;
Structure prediction by ZEFSAII (Michael W. Deem and Ramdas Pophale) SiO2 
 PCOD9147191
Probable space group: P 2/M
;
_chemical_formula_sum "Si O2"
_cell_formula_units_Z 32
_cell_length_a 26.952823
_cell_length_b 7.870710
_cell_length_c 20.844197
_cell_angle_alpha 90.000000
_cell_angle_beta 20.388196
_cell_angle_gamma 90.000000
_cell_volume 1540.477061
_symmetry_space_group_name_H-M "P 2/M"
_symmetry_group_IT_number 10
_symmetry_cell_setting 'monoclinic'
loop_
_space_group_symop_operation_xyz
x,y,z
-x,y,-z
-x,-y,-z
x,-y,z
loop_
_atom_site_type_symbol
_atom_site_label
_atom_site_fract_x
_atom_site_fract_y
_atom_site_fract_z
Si Si1 0.154897 0.197724 0.428246
Si Si2 0.386249 0.793986 0.252166
Si Si3 0.844138 0.705338 0.213015
Si Si4 0.856661 0.702487 0.960819
Si Si5 0.840637 0.697749 0.839074
Si Si6 0.338135 0.291789 0.686012
Si Si7 0.172014 0.201325 0.620063
Si Si8 0.287682 0.700084 0.136041
O O1 0.284899 0.256900 0.315745
O O2 0.201623 0.215855 0.298231
O O3 0.008544 0.292129 0.620442
O O4 0.129526 0.000000 0.474478
O O5 0.303162 0.738799 0.417269
O O6 0.398052 0.000000 0.236797
O O7 0.544547 0.723372 0.056787
O O8 0.846911 0.500000 0.209558
O O9 0.728977 0.762314 0.300269
O O10 0.813898 0.759761 0.322017
O O11 0.000000 0.763119 0.000000
O O12 0.832774 0.500000 0.987353
O O13 0.761811 0.767931 0.134516
O O14 0.819418 0.773637 0.935684
O O15 0.022606 0.727553 0.775377
O O16 0.797694 0.500000 0.894899
O O17 0.757890 0.771312 0.878256
O O18 0.500000 0.238178 0.500000
O O19 0.335703 0.500000 0.688992
O O20 0.164098 0.000000 0.621020
O O21 0.252243 0.500000 0.180719
#
# Coordination Sequence:
#
# PCOD9147191 Si02
#       8
#     4   4   4   4   4   4   4   4
#     4  11  22  39  62  85 113 155 199 236 284 347
#     4  10  23  41  58  82 115 152 197 241 286 344
#     4  10  19  34  57  86 113 145 189 232 276 332
#     4  10  19  36  60  83 111 149 190 234 285 337
#     4  10  22  38  59  87 118 149 191 244 292 343
#     4   9  18  33  56  85 115 146 185 231 278 333
#     4  11  22  37  58  85 115 149 191 239 285 334
#     4  11  24  39  57  88 122 150 188 241 296 344
#
# _framework density 20.772784999999999
#
# number of rings (size 3 to 8) (size 9 to 14) (size 15 to 20)
#    0.000    1.750    2.500    1.875    0.000    7.250 
#    0.000    2.500    0.000    1.500    0.000    0.000 
#    0.000    0.000    0.000    0.000    0.000    0.000 
#
# Total GULP energy -178807.591659 kJ/mol
# GULP energy per Si atom -5587.737239 kJ/mol
# Density = 2.072551 g / cm^3
# Si number density = 20.772785 Si / 1000 Ang^3
#
#
#
# Elastic Constant Matrix: (Units=GPa)
#
#
# Indices 1 2 3 4 5 6 
#
# 1 119.0264 6.4800 -9.9937 0.0000 4.2374 0.0000
# 2 6.4800 21.0420 -4.4942 0.0000 2.3152 0.0000
# 3 -9.9937 -4.4942 18.7776 0.0000 1.7454 0.0000
# 4 0.0000 0.0000 0.0000 33.0455 0.0000 -4.7531
# 5 4.2374 2.3152 1.7454 0.0000 39.5333 0.0000
# 6 0.0000 0.0000 0.0000 -4.7531 0.0000 18.0578
#
#
#
# Elastic Compliance Matrix: (Units=1/GPa)
#
#
# Indices 1 2 3 4 5 6 
#
# 1 0.008903 -0.001679 0.004434 0.000000 -0.001052 0.000000
# 2 -0.001679 0.050881 0.011592 0.000000 -0.003312 0.000000
# 3 0.004434 0.011592 0.058738 0.000000 -0.003747 0.000000
# 4 0.000000 0.000000 0.000000 0.031452 0.000000 0.008279
# 5 -0.001052 -0.003312 -0.003747 0.000000 0.025767 0.000000
# 6 0.000000 0.000000 0.000000 0.008279 0.000000 0.057557
#
#
# Mechanical properties :
#
#
# Convention : Reuss Voigt Hill
#
# Bulk Modulus (GPa) = 6.79274 15.87003 11.33139
# Shear Modulus (GPa) = 19.71025 29.25091 24.48058
#
# Velocity S-wave (km/s) = 3.08368 3.75658 3.43664
# Velocity P-wave (km/s) = 3.99449 5.14512 4.60588
#
# Compressibility (1/GPa) = 0.14721591
#
# Stress axis : x y z
#
# Youngs Moduli (GPa) = 112.32640 19.65365 17.02486
#
# Poissons Ratio (x) = 0.03300 -0.07549
# Poissons Ratio (y) = 0.18858 -0.19735
# Poissons Ratio (z) = -0.49806 -0.22783
#
# Static dielectric constant tensor:
#      x y z
#    x 1.748100 0.000000 0.014100 
#    y 0.000000 1.777290 0.000000 
#    z 0.014100 0.000000 1.697220 
# 
# From -- ./inp_files/86792.got.cif
#   From: 2010.05.17/outbox.cif.g08.bks.cpg/sg10_44_cif.got.tgz:86792.got - 2010.06.03 11:33:40.
