data_PCOD9147216
_publ_section_title
;
Structure prediction by ZEFSAII (Michael W. Deem and Ramdas Pophale) SiO2 
 PCOD9147216
Probable space group: P 2/M
;
_chemical_formula_sum "Si O2"
_cell_formula_units_Z 32
_cell_length_a 21.683108
_cell_length_b 15.118067
_cell_length_c 15.728724
_cell_angle_alpha 90.000000
_cell_angle_beta 162.430385
_cell_angle_gamma 90.000000
_cell_volume 1556.406809
_symmetry_space_group_name_H-M "P 2/M"
_symmetry_group_IT_number 10
_symmetry_cell_setting 'monoclinic'
loop_
_space_group_symop_operation_xyz
x,y,z
-x,y,-z
-x,-y,-z
x,-y,z
loop_
_atom_site_type_symbol
_atom_site_label
_atom_site_fract_x
_atom_site_fract_y
_atom_site_fract_z
Si Si1 0.509867 0.598143 0.830587
Si Si2 0.759559 0.603043 0.682405
Si Si3 0.948140 0.600228 0.340461
Si Si4 0.983452 0.907265 0.377860
Si Si5 0.506330 0.900068 0.749969
Si Si6 0.520015 0.761893 0.622612
Si Si7 0.994187 0.744507 0.706121
Si Si8 0.435964 0.778314 0.817790
O O1 0.513533 0.500000 0.875477
O O2 0.315869 0.605859 0.514406
O O3 0.527990 0.682158 0.915047
O O4 0.702857 0.601444 0.019534
O O5 0.734800 0.500000 0.678727
O O6 0.615603 0.672729 0.543291
O O7 0.000000 0.625233 0.000000
O O8 0.021605 0.500000 0.438108
O O9 0.038551 0.650451 0.380354
O O10 0.000000 0.641808 0.500000
O O11 0.052425 0.817958 0.426614
O O12 0.000000 0.903043 0.500000
O O13 0.082549 0.000000 0.478685
O O14 0.745105 0.911148 0.043647
O O15 0.439762 0.830875 0.589084
O O16 0.499905 0.852888 0.833838
O O17 0.415875 0.000000 0.631159
O O18 0.500000 0.795540 0.500000
O O19 0.766191 0.748311 0.956526
O O20 0.807089 0.765227 0.521359
O O21 0.500000 0.797832 0.000000
#
# Coordination Sequence:
#
# PCOD9147216 Si02
#       8
#     4   4   4   4   4   4   4   4
#     4  10  20  38  59  85 125 166 207 252 301 363
#     4  10  21  40  68  95 124 163 205 253 310 368
#     4  10  19  34  58  83 115 162 206 245 293 352
#     4   9  17  33  58  83 111 152 198 248 303 355
#     4  10  22  42  63  87 123 163 205 256 312 369
#     4  11  24  41  66  92 120 158 207 261 313 366
#     4  11  22  35  55  86 122 153 199 253 300 358
#     4  12  24  37  59  93 128 168 208 248 307 369
#
# _framework density 20.560176999999999
#
# number of rings (size 3 to 8) (size 9 to 14) (size 15 to 20)
#    0.000    1.625    2.500    2.625    1.750    2.000 
#    0.000    0.000    0.000    2.625    0.000    0.000 
#    0.000    0.000    0.000    0.000    0.000    0.000 
#
# Total GULP energy -178247.339171 kJ/mol
# GULP energy per Si atom -5570.229349 kJ/mol
# Density = 2.051338 g / cm^3
# Si number density = 20.560177 Si / 1000 Ang^3
#
#
#
# Elastic Constant Matrix: (Units=GPa)
#
#
# Indices 1 2 3 4 5 6 
#
# 1 61.6900 42.4095 9.4545 0.0000 -12.1488 0.0000
# 2 42.4095 112.8483 17.4355 0.0000 -1.0858 0.0000
# 3 9.4545 17.4355 95.1902 0.0000 2.1896 0.0000
# 4 0.0000 0.0000 0.0000 -27.8837 0.0000 -112.0841
# 5 -12.1488 -1.0858 2.1896 0.0000 31.9276 0.0000
# 6 0.0000 0.0000 0.0000 -112.0841 0.0000 -207.6496
#
#
#
# Elastic Compliance Matrix: (Units=1/GPa)
#
#
# Indices 1 2 3 4 5 6 
#
# 1 0.024225 -0.008865 -0.000989 0.000000 0.008984 0.000000
# 2 -0.008865 0.012369 -0.001319 0.000000 -0.002862 0.000000
# 3 -0.000989 -0.001319 0.010872 0.000000 -0.001167 0.000000
# 4 0.000000 0.000000 0.000000 0.030659 0.000000 -0.016549
# 5 0.008984 -0.002862 -0.001167 0.000000 0.034722 0.000000
# 6 0.000000 0.000000 0.000000 -0.016549 0.000000 0.004117
#
#
# Mechanical properties :
#
#
# Convention : Reuss Voigt Hill
#
# Bulk Modulus (GPa) = 39.80872 45.36972 42.58922
# Shear Modulus (GPa) = 33.85592 -27.35921 3.24835
#
# Velocity S-wave (km/s) = 4.06233 -3.65182 1.25831
# Velocity P-wave (km/s) = 6.43486 2.08174 4.78231
#
# Compressibility (1/GPa) = 0.02512012
#
# Stress axis : x y z
#
# Youngs Moduli (GPa) = 41.27940 80.84577 91.97932
#
# Poissons Ratio (x) = 0.71668 0.09097
# Poissons Ratio (y) = 0.36593 0.12135
# Poissons Ratio (z) = 0.04083 0.10666
#
# Static dielectric constant tensor:
#      x y z
#    x 1.744450 0.000000 0.025340 
#    y 0.000000 1.787840 0.000000 
#    z 0.025340 0.000000 1.823840 
# 
# From -- ./inp_files/61827.got.cif
#   From: 2010.05.17/outbox.cif.g08.bks.cpg/sg10_31_cif.got.tgz:61827.got - 2010.06.03 11:33:40.
