data_PCOD9147713
_publ_section_title
;
Structure prediction by ZEFSAII (Michael W. Deem and Ramdas Pophale) SiO2 
 PCOD9147713
Probable space group: P 2/M
;
_chemical_formula_sum "Si O2"
_cell_formula_units_Z 24
_cell_length_a 9.358970
_cell_length_b 17.178324
_cell_length_c 13.614890
_cell_angle_alpha 90.000000
_cell_angle_beta 34.572692
_cell_angle_gamma 90.000000
_cell_volume 1242.085879
_symmetry_space_group_name_H-M "P 2/M"
_symmetry_group_IT_number 10
_symmetry_cell_setting 'monoclinic'
loop_
_space_group_symop_operation_xyz
x,y,z
-x,y,-z
-x,-y,-z
x,-y,z
loop_
_atom_site_type_symbol
_atom_site_label
_atom_site_fract_x
_atom_site_fract_y
_atom_site_fract_z
Si Si1 0.260629 0.181820 0.902316
Si Si2 0.114654 0.651581 0.678140
Si Si3 0.275648 0.089805 0.296119
Si Si4 0.367675 0.653085 0.738271
Si Si5 0.922123 0.500000 0.695861
Si Si6 0.554186 0.500000 0.729480
Si Si7 0.767400 0.210804 0.855087
O O1 0.507977 0.127353 0.757370
O O2 0.332917 0.267175 0.818608
O O3 0.201830 0.184315 0.051074
O O4 0.000000 0.155702 0.000000
O O5 0.157915 0.651955 0.771012
O O6 0.377343 0.649566 0.470895
O O7 0.949119 0.577354 0.744209
O O8 0.985459 0.729147 0.711367
O O9 0.255842 0.140981 0.208600
O O10 0.000000 0.093179 0.500000
O O11 0.338365 0.000000 0.239925
O O12 0.394807 0.576753 0.790922
O O13 0.672541 0.500000 0.770955
O O14 0.183202 0.500000 0.483073
O O15 0.500000 0.254387 0.000000
#
# Coordination Sequence:
#
# PCOD9147713 Si02
#       7
#     4   4   4   4   2   2   4
#     4  11  22  39  61  92 126 159 196 242 303 363
#     4  10  19  36  56  83 112 160 206 252 295 348
#     4  10  23  44  68  92 119 155 198 242 293 359
#     4  10  20  35  59  80 118 158 205 249 299 349
#     4   9  19  31  53  81 117 150 209 260 296 343
#     4   9  19  33  51  85 111 157 207 257 299 342
#     4  10  22  37  60  86 120 156 192 240 298 362
#
# _framework density 19.322336
#
# number of rings (size 3 to 8) (size 9 to 14) (size 15 to 20)
#    0.000    2.000    1.667    1.500    4.667    5.333 
#    0.000    1.667    0.000    2.000    0.000    0.000 
#    0.000    0.000    0.000    0.000    0.000    0.000 
#
# Total GULP energy -133847.167061 kJ/mol
# GULP energy per Si atom -5576.965294 kJ/mol
# Density = 1.927836 g / cm^3
# Si number density = 19.322336 Si / 1000 Ang^3
#
#
#
# Elastic Constant Matrix: (Units=GPa)
#
#
# Indices 1 2 3 4 5 6 
#
# 1 163.6247 85.8898 31.5176 0.0000 -15.3621 0.0000
# 2 85.8898 155.5399 32.7239 0.0000 -11.7630 0.0000
# 3 31.5176 32.7239 37.1425 0.0000 -10.8374 0.0000
# 4 0.0000 0.0000 0.0000 17.3711 0.0000 2.3399
# 5 -15.3621 -11.7630 -10.8374 0.0000 27.2819 0.0000
# 6 0.0000 0.0000 0.0000 2.3399 0.0000 27.7181
#
#
#
# Elastic Compliance Matrix: (Units=1/GPa)
#
#
# Indices 1 2 3 4 5 6 
#
# 1 0.009164 -0.004169 -0.003531 0.000000 0.001960 0.000000
# 2 -0.004169 0.009802 -0.005146 0.000000 -0.000166 0.000000
# 3 -0.003531 -0.005146 0.037582 0.000000 0.010722 0.000000
# 4 0.000000 0.000000 0.000000 0.058229 0.000000 -0.004916
# 5 0.001960 -0.000166 0.010722 0.000000 0.041946 0.000000
# 6 0.000000 0.000000 0.000000 -0.004916 0.000000 0.036493
#
#
# Mechanical properties :
#
#
# Convention : Reuss Voigt Hill
#
# Bulk Modulus (GPa) = 32.40992 72.95220 52.68106
# Shear Modulus (GPa) = 21.81562 28.21927 25.01744
#
# Velocity S-wave (km/s) = 3.36376 3.82573 3.60216
# Velocity P-wave (km/s) = 5.64767 7.57313 6.68014
#
# Compressibility (1/GPa) = 0.03085475
#
# Stress axis : x y z
#
# Youngs Moduli (GPa) = 109.11830 102.02265 26.60844
#
# Poissons Ratio (x) = 0.42538 0.09396
# Poissons Ratio (y) = 0.45496 0.13693
# Poissons Ratio (z) = 0.38532 0.52501
#
# Static dielectric constant tensor:
#      x y z
#    x 1.681220 0.000000 -0.008850 
#    y 0.000000 1.651730 0.000000 
#    z -0.008850 0.000000 1.711330 
# 
# From -- ./inp_files/61691.got.cif
#   From: 2010.05.17/outbox.cif.g08.bks.cpg/sg10_31_cif.got.tgz:61691.got - 2010.06.03 11:33:40.
