data_PCOD9147631
_publ_section_title
;
Structure prediction by ZEFSAII (Michael W. Deem and Ramdas Pophale) SiO2 
 PCOD9147631
Probable space group: P 2/M
;
_chemical_formula_sum "Si O2"
_cell_formula_units_Z 20
_cell_length_a 10.029536
_cell_length_b 14.120679
_cell_length_c 12.099990
_cell_angle_alpha 90.000000
_cell_angle_beta 144.447084
_cell_angle_gamma 90.000000
_cell_volume 996.408073
_symmetry_space_group_name_H-M "P 2/M"
_symmetry_group_IT_number 10
_symmetry_cell_setting 'monoclinic'
loop_
_space_group_symop_operation_xyz
x,y,z
-x,y,-z
-x,-y,-z
x,-y,z
loop_
_atom_site_type_symbol
_atom_site_label
_atom_site_fract_x
_atom_site_fract_y
_atom_site_fract_z
Si Si1 0.890826 0.111271 0.549325
Si Si2 0.728631 0.231752 0.094932
Si Si3 0.050518 0.391546 0.371166
Si Si4 0.785264 0.605558 0.772201
Si Si5 0.470551 0.728423 0.699720
O O1 0.660473 0.172621 0.404637
O O2 0.000000 0.126639 0.500000
O O3 0.072800 0.154165 0.758927
O O4 0.854785 0.000000 0.539224
O O5 0.831307 0.323311 0.226922
O O6 0.500000 0.195794 0.000000
O O7 0.648572 0.261043 0.919603
O O8 0.006589 0.500000 0.370280
O O9 0.128336 0.386894 0.294607
O O10 0.262149 0.345628 0.579991
O O11 0.680131 0.500000 0.716377
O O12 0.610392 0.686064 0.691445
O O13 0.000000 0.609910 0.000000
#
# Coordination Sequence:
#
# PCOD9147631 Si02
#       5
#     4   4   4   4   4
#     4  10  22  40  62  86 110 144 192 240 290 349
#     4  11  22  37  57  86 120 150 189 236 289 339
#     4  10  22  37  57  86 118 158 200 232 272 330
#     4  10  19  35  60  88 115 152 200 236 271 327
#     4  11  21  36  60  85 117 149 189 241 287 332
#
# _framework density 20.072096999999999
#
# number of rings (size 3 to 8) (size 9 to 14) (size 15 to 20)
#    0.000    1.600    4.000    1.200    0.000    4.000 
#    0.000    1.000    0.000   10.200    0.000    0.000 
#    0.000    0.000    0.000    0.000    0.000    0.000 
#
# Total GULP energy -111741.355582 kJ/mol
# GULP energy per Si atom -5587.067779 kJ/mol
# Density = 2.002641 g / cm^3
# Si number density = 20.072097 Si / 1000 Ang^3
#
#
#
# Elastic Constant Matrix: (Units=GPa)
#
#
# Indices 1 2 3 4 5 6 
#
# 1 61.8415 22.9707 24.1698 0.0000 -12.2124 0.0000
# 2 22.9707 153.3471 52.7576 0.0000 11.2901 0.0000
# 3 24.1698 52.7576 132.2366 0.0000 -5.7033 0.0000
# 4 0.0000 0.0000 0.0000 3.8492 0.0000 7.3163
# 5 -12.2124 11.2901 -5.7033 0.0000 30.1820 0.0000
# 6 0.0000 0.0000 0.0000 7.3163 0.0000 28.5521
#
#
#
# Elastic Compliance Matrix: (Units=1/GPa)
#
#
# Indices 1 2 3 4 5 6 
#
# 1 0.019773 -0.002882 -0.002089 0.000000 0.008684 0.000000
# 2 -0.002882 0.008347 -0.003013 0.000000 -0.004858 0.000000
# 3 -0.002089 -0.003013 0.009234 0.000000 0.002026 0.000000
# 4 0.000000 0.000000 0.000000 0.506456 0.000000 -0.129776
# 5 0.008684 -0.004858 0.002026 0.000000 0.038846 0.000000
# 6 0.000000 0.000000 0.000000 -0.129776 0.000000 0.068278
#
#
# Mechanical properties :
#
#
# Convention : Reuss Voigt Hill
#
# Bulk Modulus (GPa) = 46.76439 60.80238 53.78339
# Shear Modulus (GPa) = 7.41807 29.01847 18.21827
#
# Velocity S-wave (km/s) = 1.92451 3.80638 3.01598
# Velocity P-wave (km/s) = 5.31856 7.04810 6.24351
#
# Compressibility (1/GPa) = 0.02138379
#
# Stress axis : x y z
#
# Youngs Moduli (GPa) = 50.57522 119.80148 108.30073
#
# Poissons Ratio (x) = 0.34531 0.22629
# Poissons Ratio (y) = 0.14577 0.32630
# Poissons Ratio (z) = 0.10568 0.36095
#
# Static dielectric constant tensor:
#      x y z
#    x 1.732380 0.000000 -0.016330 
#    y 0.000000 1.686900 0.000000 
#    z -0.016330 0.000000 1.725610 
# 
# From -- ./inp_files/50943.got.cif
#   From: 2010.05.17/outbox.cif.g08.bks.cpg/sg10_26_cif.got.tgz:50943.got - 2010.06.03 11:33:40.
