data_PCOD9147058
_publ_section_title
;
Structure prediction by ZEFSAII (Michael W. Deem and Ramdas Pophale) SiO2 
 PCOD9147058
Probable space group: P 2/M
;
_chemical_formula_sum "Si O2"
_cell_formula_units_Z 32
_cell_length_a 11.198256
_cell_length_b 7.920894
_cell_length_c 20.502292
_cell_angle_alpha 90.000000
_cell_angle_beta 127.028280
_cell_angle_gamma 90.000000
_cell_volume 1451.824130
_symmetry_space_group_name_H-M "P 2/M"
_symmetry_group_IT_number 10
_symmetry_cell_setting 'monoclinic'
loop_
_space_group_symop_operation_xyz
x,y,z
-x,y,-z
-x,-y,-z
x,-y,z
loop_
_atom_site_type_symbol
_atom_site_label
_atom_site_fract_x
_atom_site_fract_y
_atom_site_fract_z
Si Si1 0.751939 0.295562 0.276602
Si Si2 0.944157 0.699441 0.673728
Si Si3 0.256583 0.192146 0.163760
Si Si4 0.200542 0.806439 0.009406
Si Si5 0.541205 0.692012 0.320356
Si Si6 0.458080 0.806311 0.914226
Si Si7 0.609659 0.703819 0.596545
Si Si8 0.010626 0.312259 0.165861
O O1 0.756026 0.500000 0.282060
O O2 0.668343 0.232276 0.314829
O O3 0.656749 0.259132 0.178801
O O4 0.924099 0.232583 0.329097
O O5 0.924518 0.500000 0.651032
O O6 0.775905 0.767081 0.630862
O O7 0.022506 0.712625 0.770129
O O8 0.396554 0.305315 0.226287
O O9 0.141456 0.192848 0.184903
O O10 0.306514 0.000000 0.167857
O O11 0.166391 0.253913 0.070916
O O12 0.130366 0.707847 0.926802
O O13 0.147347 0.000000 0.985078
O O14 0.379219 0.804937 0.065288
O O15 0.587477 0.500000 0.351676
O O16 0.473980 0.769377 0.365390
O O17 0.409337 0.000000 0.912053
O O18 0.500000 0.729751 0.000000
O O19 0.500000 0.730229 0.500000
O O20 0.627616 0.500000 0.613131
O O21 0.074002 0.500000 0.179720
#
# Coordination Sequence:
#
# PCOD9147058 Si02
#       8
#     4   4   4   4   4   4   4   4
#     4  10  20  33  53  78 109 143 180 229 272 314
#     4   9  18  33  51  78 112 141 173 219 272 320
#     4  11  21  34  52  73 104 143 181 226 278 321
#     4  10  21  34  46  69 104 140 183 231 274 316
#     4  10  19  34  56  83 108 138 183 225 266 329
#     4  10  20  34  50  69 101 145 192 234 267 314
#     4   9  17  33  59  85 111 142 173 214 274 336
#     4  11  21  33  51  74 105 143 184 229 271 317
#
# _framework density 22.041236999999999
#
# number of rings (size 3 to 8) (size 9 to 14) (size 15 to 20)
#    0.000    2.000    2.500    1.875    0.000    3.250 
#    0.000    1.250    0.000    4.125    0.000    0.000 
#    0.000    2.000    0.000    0.000    0.000    0.000 
#
# Total GULP energy -178283.328933 kJ/mol
# GULP energy per Si atom -5571.354029 kJ/mol
# Density = 2.199107 g / cm^3
# Si number density = 22.041237 Si / 1000 Ang^3
#
#
#
# Elastic Constant Matrix: (Units=GPa)
#
#
# Indices 1 2 3 4 5 6 
#
# 1 167.3642 20.0740 47.4966 0.0000 10.7268 0.0000
# 2 20.0740 18.3035 11.8543 0.0000 -5.3143 0.0000
# 3 47.4966 11.8543 74.7931 0.0000 1.3482 0.0000
# 4 0.0000 0.0000 0.0000 -154.6147 0.0000 -7.7003
# 5 10.7268 -5.3143 1.3482 0.0000 19.9231 0.0000
# 6 0.0000 0.0000 0.0000 -7.7003 0.0000 6.3163
#
#
#
# Elastic Compliance Matrix: (Units=1/GPa)
#
#
# Indices 1 2 3 4 5 6 
#
# 1 0.008576 -0.008806 -0.003930 0.000000 -0.006700 0.000000
# 2 -0.008806 0.076206 -0.006947 0.000000 0.025538 0.000000
# 3 -0.003930 -0.006947 0.016983 0.000000 -0.000886 0.000000
# 4 0.000000 0.000000 0.000000 -0.006097 0.000000 -0.007434
# 5 -0.006700 0.025538 -0.000886 0.000000 0.060673 0.000000
# 6 0.000000 0.000000 0.000000 -0.007434 0.000000 0.149259
#
#
# Mechanical properties :
#
#
# Convention : Reuss Voigt Hill
#
# Bulk Modulus (GPa) = 16.02552 46.59008 31.30780
# Shear Modulus (GPa) = 13.67010 -13.60601 0.03204
#
# Velocity S-wave (km/s) = 2.49309 -2.48724 0.12070
# Velocity P-wave (km/s) = 3.94637 3.59654 3.77551
#
# Compressibility (1/GPa) = 0.06240046
#
# Stress axis : x y z
#
# Youngs Moduli (GPa) = 116.60764 13.12238 58.88382
#
# Poissons Ratio (x) = 0.11555 0.23139
# Poissons Ratio (y) = 1.02681 0.40904
# Poissons Ratio (z) = 0.45821 0.09116
#
# Static dielectric constant tensor:
#      x y z
#    x 1.906070 0.000000 -0.032830 
#    y 0.000000 1.820970 0.000000 
#    z -0.032830 0.000000 1.800470 
# 
# From -- ./inp_files/83630.got.cif
#   From: 2010.05.17/outbox.cif.g08.bks.cpg/sg10_42_cif.got.tgz:83630.got - 2010.06.03 11:33:40.
