data_PCOD9147441
_publ_section_title
;
Structure prediction by ZEFSAII (Michael W. Deem and Ramdas Pophale) SiO2 
 PCOD9147441
Probable space group: P 2/M
;
_chemical_formula_sum "Si O2"
_cell_formula_units_Z 32
_cell_length_a 26.654565
_cell_length_b 7.741527
_cell_length_c 21.774912
_cell_angle_alpha 90.000000
_cell_angle_beta 159.826341
_cell_angle_gamma 90.000000
_cell_volume 1549.551108
_symmetry_space_group_name_H-M "P 2/M"
_symmetry_group_IT_number 10
_symmetry_cell_setting 'monoclinic'
loop_
_space_group_symop_operation_xyz
x,y,z
-x,y,-z
-x,-y,-z
x,-y,z
loop_
_atom_site_type_symbol
_atom_site_label
_atom_site_fract_x
_atom_site_fract_y
_atom_site_fract_z
Si Si1 0.636746 0.201787 0.454544
Si Si2 0.223636 0.291201 0.908795
Si Si3 0.143139 0.303894 0.193167
Si Si4 0.470677 0.298630 0.794844
Si Si5 0.662754 0.206268 0.831217
Si Si6 0.361745 0.711287 0.799921
Si Si7 0.954413 0.288642 0.516247
Si Si8 0.327258 0.202865 0.292503
O O1 0.779050 0.222118 0.658978
O O2 0.632819 0.285596 0.383247
O O3 0.497124 0.272356 0.332073
O O4 0.610172 0.000000 0.413636
O O5 0.226771 0.500000 0.910487
O O6 0.079554 0.233624 0.707807
O O7 0.371802 0.226678 0.045400
O O8 0.234635 0.240706 0.992848
O O9 0.106638 0.500000 0.169054
O O10 0.254401 0.300547 0.264587
O O11 0.000000 0.218871 0.000000
O O12 0.498458 0.500000 0.840077
O O13 0.396839 0.227305 0.771193
O O14 0.708682 0.270753 0.816996
O O15 0.648181 0.000000 0.806352
O O16 0.355138 0.500000 0.792382
O O17 0.206566 0.769015 0.648532
O O18 0.500000 0.760548 0.000000
O O19 0.953150 0.500000 0.514705
O O20 0.000000 0.234874 0.500000
O O21 0.500000 0.210262 0.500000
O O22 0.284873 0.000000 0.249058
#
# Coordination Sequence:
#
# PCOD9147441 Si02
#       8
#     4   4   4   4   4   4   4   4
#     4  10  19  35  57  77 102 139 180 217 261 318
#     4   9  17  29  47  72 101 132 166 207 254 305
#     4  11  24  39  54  79 111 141 176 223 274 319
#     4   9  17  30  49  74 102 132 170 213 257 307
#     4   9  18  33  54  78 103 133 171 217 258 307
#     4   9  16  27  46  72 102 136 170 208 255 305
#     4   9  16  27  45  71 102 133 166 206 252 303
#     4  10  19  36  59  81 105 137 181 224 264 316
#
# _framework density 20.651143000000001
#
# number of rings (size 3 to 8) (size 9 to 14) (size 15 to 20)
#    0.000    2.500    1.250    1.500    0.000    5.250 
#    2.250    0.000    0.000    0.750    0.000    0.000 
#    0.000    0.000    0.000    0.000    0.000    0.000 
#
# Total GULP energy -178514.631944 kJ/mol
# GULP energy per Si atom -5578.582248 kJ/mol
# Density = 2.060414 g / cm^3
# Si number density = 20.651143 Si / 1000 Ang^3
#
#
#
# Elastic Constant Matrix: (Units=GPa)
#
#
# Indices 1 2 3 4 5 6 
#
# 1 132.9542 -1.0525 66.2753 0.0000 -17.5436 0.0000
# 2 -1.0525 27.1045 -4.2807 0.0000 3.4745 0.0000
# 3 66.2753 -4.2807 142.5054 0.0000 -14.9458 0.0000
# 4 0.0000 0.0000 0.0000 78.1250 0.0000 -47.4076
# 5 -17.5436 3.4745 -14.9458 0.0000 28.5083 0.0000
# 6 0.0000 0.0000 0.0000 -47.4076 0.0000 34.2737
#
#
#
# Elastic Compliance Matrix: (Units=1/GPa)
#
#
# Indices 1 2 3 4 5 6 
#
# 1 0.010225 -0.000817 -0.004349 0.000000 0.004112 0.000000
# 2 -0.000817 0.037608 0.001033 0.000000 -0.004545 0.000000
# 3 -0.004349 0.001033 0.009288 0.000000 0.002067 0.000000
# 4 0.000000 0.000000 0.000000 0.079678 0.000000 0.110211
# 5 0.004112 -0.004545 0.002067 0.000000 0.039246 0.000000
# 6 0.000000 0.000000 0.000000 0.110211 0.000000 0.181622
#
#
# Mechanical properties :
#
#
# Convention : Reuss Voigt Hill
#
# Bulk Modulus (GPa) = 20.46839 47.16091 33.81465
# Shear Modulus (GPa) = 13.08154 44.28951 28.68552
#
# Velocity S-wave (km/s) = 2.51958 4.63606 3.73104
# Velocity P-wave (km/s) = 4.28922 7.17941 5.91360
#
# Compressibility (1/GPa) = 0.04885582
#
# Stress axis : x y z
#
# Youngs Moduli (GPa) = 97.79646 26.58992 107.67052
#
# Poissons Ratio (x) = 0.02172 0.46823
# Poissons Ratio (y) = 0.07989 -0.11122
# Poissons Ratio (z) = 0.42529 -0.02747
#
# Static dielectric constant tensor:
#      x y z
#    x 1.734680 0.000000 0.008060 
#    y 0.000000 1.760170 0.000000 
#    z 0.008060 0.000000 1.734140 
# 
# From -- ./inp_files/87049.got.cif
#   From: 2010.05.17/outbox.cif.g08.bks.cpg/sg10_44_cif.got.tgz:87049.got - 2010.06.03 11:33:40.
