data_PCOD9147118
_publ_section_title
;
Structure prediction by ZEFSAII (Michael W. Deem and Ramdas Pophale) SiO2 
 PCOD9147118
Probable space group: P 2/M
;
_chemical_formula_sum "Si O2"
_cell_formula_units_Z 32
_cell_length_a 15.401921
_cell_length_b 8.951259
_cell_length_c 22.422068
_cell_angle_alpha 90.000000
_cell_angle_beta 34.276764
_cell_angle_gamma 90.000000
_cell_volume 1740.966334
_symmetry_space_group_name_H-M "P 2/M"
_symmetry_group_IT_number 10
_symmetry_cell_setting 'monoclinic'
loop_
_space_group_symop_operation_xyz
x,y,z
-x,y,-z
-x,-y,-z
x,-y,z
loop_
_atom_site_type_symbol
_atom_site_label
_atom_site_fract_x
_atom_site_fract_y
_atom_site_fract_z
Si Si1 0.805204 0.674078 0.554089
Si Si2 0.383686 0.673841 0.462853
Si Si3 0.919486 0.318966 0.300157
Si Si4 0.995653 0.819317 0.130442
Si Si5 0.320851 0.179595 0.753037
Si Si6 0.320353 0.817935 0.890075
Si Si7 0.105188 0.320698 0.312682
Si Si8 0.641722 0.177847 0.757903
O O1 0.808556 0.500000 0.571639
O O2 0.702124 0.681954 0.552696
O O3 0.732148 0.773115 0.646825
O O4 0.976210 0.718320 0.435804
O O5 0.415676 0.500000 0.457216
O O6 0.254733 0.728005 0.582845
O O7 0.543012 0.759736 0.365779
O O8 0.918657 0.500000 0.297909
O O9 0.973290 0.249397 0.208156
O O10 0.032958 0.275885 0.290191
O O11 0.847405 0.776752 0.175101
O O12 0.997766 0.000000 0.133205
O O13 0.155930 0.770982 0.009432
O O14 0.341945 0.231992 0.809386
O O15 0.328686 0.000000 0.748834
O O16 0.465782 0.771001 0.847456
O O17 0.320613 0.000000 0.888738
O O18 0.117010 0.500000 0.306125
O O19 0.266069 0.249467 0.239774
O O20 0.643464 0.000000 0.762537
#
# Coordination Sequence:
#
# PCOD9147118 Si02
#       8
#     4   4   4   4   4   4   4   4
#     4   9  17  31  50  73 105 142 174 205 253 317
#     4   9  18  33  54  79 108 142 173 211 265 317
#     4   9  20  39  57  75 106 144 180 217 260 310
#     4  10  21  37  58  78 100 140 185 221 262 312
#     4  10  19  34  57  82 107 136 174 219 266 318
#     4   9  19  36  54  77 110 141 172 215 268 317
#     4   9  19  35  53  73 103 143 177 208 255 315
#     4  11  20  30  50  80 108 135 170 216 265 309
#
# _framework density 18.380597000000002
#
# number of rings (size 3 to 8) (size 9 to 14) (size 15 to 20)
#    0.000    2.500    1.250    2.625    0.000    5.500 
#    0.000    7.500    0.000    5.250    0.000    0.000 
#    0.000    0.000    0.000    0.000    0.000    0.000 
#
# Total GULP energy -178539.405930 kJ/mol
# GULP energy per Si atom -5579.356435 kJ/mol
# Density = 1.833876 g / cm^3
# Si number density = 18.380597 Si / 1000 Ang^3
#
#
#
# Elastic Constant Matrix: (Units=GPa)
#
#
# Indices 1 2 3 4 5 6 
#
# 1 59.8171 22.1388 93.4063 0.0000 -25.6588 0.0000
# 2 22.1388 3.1642 -11.8966 0.0000 -3.8971 0.0000
# 3 93.4063 -11.8966 -156.1743 0.0000 13.3875 0.0000
# 4 0.0000 0.0000 0.0000 36.2022 0.0000 1.2320
# 5 -25.6588 -3.8971 13.3875 0.0000 29.6342 0.0000
# 6 0.0000 0.0000 0.0000 1.2320 0.0000 28.0087
#
#
#
# Elastic Compliance Matrix: (Units=1/GPa)
#
#
# Indices 1 2 3 4 5 6 
#
# 1 0.016605 -0.061690 0.014602 0.000000 -0.000332 0.000000
# 2 -0.061690 0.533592 -0.073269 0.000000 0.049856 0.000000
# 3 0.014602 -0.073269 0.007865 0.000000 -0.000545 0.000000
# 4 0.000000 0.000000 0.000000 0.027664 0.000000 -0.001217
# 5 -0.000332 0.049856 -0.000545 0.000000 0.040260 0.000000
# 6 0.000000 0.000000 0.000000 -0.001217 0.000000 0.035757
#
#
# Mechanical properties :
#
#
# Convention : Reuss Voigt Hill
#
# Bulk Modulus (GPa) = 3.15110 12.67823 7.91466
# Shear Modulus (GPa) = 4.95914 5.64623 5.30269
#
# Velocity S-wave (km/s) = 1.64435 1.75457 1.70035
# Velocity P-wave (km/s) = 2.30722 3.31923 2.85837
#
# Compressibility (1/GPa) = 0.31734986
#
# Stress axis : x y z
#
# Youngs Moduli (GPa) = 60.22144 1.87409 127.14632
#
# Poissons Ratio (x) = 0.11561 -1.85663
# Poissons Ratio (y) = 3.71505 9.31585
# Poissons Ratio (z) = -0.87937 0.13731
#
# Static dielectric constant tensor:
#      x y z
#    x 1.645000 0.000000 -0.022040 
#    y 0.000000 1.617600 0.000000 
#    z -0.022040 0.000000 1.618490 
# 
# From -- ./inp_files/89544.got.cif
#   From: 2010.05.17/outbox.cif.g08.bks.cpg/sg10_45_cif.got.tgz:89544.got - 2010.06.03 11:33:40.
