data_PCOD9147155
_publ_section_title
;
Structure prediction by ZEFSAII (Michael W. Deem and Ramdas Pophale) SiO2 
 PCOD9147155
Probable space group: P 2/M
;
_chemical_formula_sum "Si O2"
_cell_formula_units_Z 28
_cell_length_a 10.121088
_cell_length_b 7.712773
_cell_length_c 31.045129
_cell_angle_alpha 90.000000
_cell_angle_beta 36.761810
_cell_angle_gamma 90.000000
_cell_volume 1450.400472
_symmetry_space_group_name_H-M "P 2/M"
_symmetry_group_IT_number 10
_symmetry_cell_setting 'monoclinic'
loop_
_space_group_symop_operation_xyz
x,y,z
-x,y,-z
-x,-y,-z
x,-y,z
loop_
_atom_site_type_symbol
_atom_site_label
_atom_site_fract_x
_atom_site_fract_y
_atom_site_fract_z
Si Si1 0.155319 0.195486 0.178914
Si Si2 0.235428 0.698883 0.425826
Si Si3 0.741796 0.709729 0.421334
Si Si4 0.294523 0.710546 0.667480
Si Si5 0.205609 0.201871 0.338128
Si Si6 0.551854 0.795156 0.813107
Si Si7 0.263668 0.500000 0.929265
Si Si8 0.425581 0.500000 0.068515
O O1 0.259894 0.222344 0.199301
O O2 0.274571 0.333599 0.117931
O O3 0.894426 0.223305 0.251486
O O4 0.204388 0.000000 0.152662
O O5 0.228004 0.500000 0.444236
O O6 0.459761 0.774909 0.386332
O O7 0.255346 0.700705 0.369183
O O8 0.000000 0.780069 0.500000
O O9 0.500000 0.765343 0.500000
O O10 0.749019 0.500000 0.422234
O O11 0.766285 0.760617 0.365220
O O12 0.947182 0.778341 0.394609
O O13 0.293415 0.500000 0.670170
O O14 0.344410 0.257825 0.259891
O O15 0.254591 0.000000 0.332632
O O16 0.358219 0.668482 0.879370
O O17 0.491579 0.000000 0.827090
O O18 0.377554 0.500000 0.947132
O O19 0.000000 0.500000 0.000000
O O20 0.500000 0.500000 0.000000
#
# Coordination Sequence:
#
# PCOD9147155 Si02
#       8
#     4   4   4   4   4   4   2   2
#     4  10  19  36  63  89 118 157 193 235 293 346
#     4  10  22  39  56  78 114 161 203 247 303 353
#     4  10  20  33  56  85 112 148 197 250 295 342
#     4  10  19  34  57  83 115 154 201 250 296 347
#     4  11  22  36  55  82 115 155 198 242 295 347
#     4   9  20  37  60  90 121 153 194 240 285 347
#     4  10  22  40  66  94 115 156 190 220 295 352
#     4  10  22  42  64  90 125 148 186 236 279 354
#
# _framework density 19.305014
#
# number of rings (size 3 to 8) (size 9 to 14) (size 15 to 20)
#    0.000    2.000    2.143    1.286    2.000    4.000 
#    2.571    1.429    0.000    0.000    0.000    0.000 
#    0.000    0.000    0.000    0.000    0.000    0.000 
#
# Total GULP energy -156347.234748 kJ/mol
# GULP energy per Si atom -5583.829812 kJ/mol
# Density = 1.926107 g / cm^3
# Si number density = 19.305014 Si / 1000 Ang^3
#
#
#
# Elastic Constant Matrix: (Units=GPa)
#
#
# Indices 1 2 3 4 5 6 
#
# 1 23.1539 1.9512 -2.8141 0.0000 -11.8485 0.0000
# 2 1.9512 58.3807 33.2493 0.0000 -1.5177 0.0000
# 3 -2.8141 33.2493 102.5391 0.0000 -9.9186 0.0000
# 4 0.0000 0.0000 0.0000 -1.3507 0.0000 -3.8775
# 5 -11.8485 -1.5177 -9.9186 0.0000 40.4081 0.0000
# 6 0.0000 0.0000 0.0000 -3.8775 0.0000 24.0267
#
#
#
# Elastic Compliance Matrix: (Units=1/GPa)
#
#
# Indices 1 2 3 4 5 6 
#
# 1 0.052325 -0.003727 0.004215 0.000000 0.016237 0.000000
# 2 -0.003727 0.021307 -0.007211 0.000000 -0.002063 0.000000
# 3 0.004215 -0.007211 0.012599 0.000000 0.004058 0.000000
# 4 0.000000 0.000000 0.000000 -0.505943 0.000000 -0.081650
# 5 0.016237 -0.002063 0.004058 0.000000 0.030427 0.000000
# 6 0.000000 0.000000 0.000000 -0.081650 0.000000 0.028444
#
#
# Mechanical properties :
#
#
# Convention : Reuss Voigt Hill
#
# Bulk Modulus (GPa) = 13.73918 27.64960 20.69439
# Shear Modulus (GPa) = -15.47337 22.72930 3.62797
#
# Velocity S-wave (km/s) = -2.83419 3.43502 1.37236
# Velocity P-wave (km/s) = 1.89151 5.48507 3.64062
#
# Compressibility (1/GPa) = 0.07278456
#
# Stress axis : x y z
#
# Youngs Moduli (GPa) = 19.11138 46.93394 79.37338
#
# Poissons Ratio (x) = 0.17494 -0.33458
# Poissons Ratio (y) = 0.07124 0.57233
# Poissons Ratio (z) = -0.08056 0.33842
#
# Static dielectric constant tensor:
#      x y z
#    x 1.656760 0.000000 -0.002360 
#    y 0.000000 1.716570 0.000000 
#    z -0.002360 0.000000 1.684010 
# 
# From -- ./inp_files/92016.got.cif
#   From: 2010.05.17/outbox.cif.g08.bks.cpg/sg10_47_cif.got.tgz:92016.got - 2010.06.03 11:33:40.
