data_PCOD9147164
_publ_section_title
;
Structure prediction by ZEFSAII (Michael W. Deem and Ramdas Pophale) SiO2 
 PCOD9147164
Probable space group: P 2/M
;
_chemical_formula_sum "Si O2"
_cell_formula_units_Z 20
_cell_length_a 7.184637
_cell_length_b 14.107254
_cell_length_c 12.111116
_cell_angle_alpha 90.000000
_cell_angle_beta 42.025117
_cell_angle_gamma 90.000000
_cell_volume 821.776513
_symmetry_space_group_name_H-M "P 2/M"
_symmetry_group_IT_number 10
_symmetry_cell_setting 'monoclinic'
loop_
_space_group_symop_operation_xyz
x,y,z
-x,y,-z
-x,-y,-z
x,-y,z
loop_
_atom_site_type_symbol
_atom_site_label
_atom_site_fract_x
_atom_site_fract_y
_atom_site_fract_z
Si Si1 0.072958 0.198540 0.126492
Si Si2 0.262047 0.194148 0.523541
Si Si3 0.428263 0.112129 0.799005
Si Si4 0.680162 0.395257 0.600312
Si Si5 0.706674 0.394050 0.013676
O O1 0.013606 0.184565 0.281793
O O2 0.825826 0.147799 0.167684
O O3 0.354155 0.159112 0.948549
O O4 0.074378 0.310380 0.098735
O O5 0.500000 0.153853 0.500000
O O6 0.303436 0.146168 0.386933
O O7 0.331292 0.304418 0.472169
O O8 0.424862 0.000000 0.811181
O O9 0.621698 0.500000 0.578839
O O10 0.478502 0.381769 0.794769
O O11 0.000000 0.396343 0.500000
O O12 0.829159 0.500000 0.960578
O O13 0.500000 0.388124 0.000000
#
# Coordination Sequence:
#
# PCOD9147164 Si02
#       5
#     4   4   4   4   4
#     4  10  19  34  57  84 112 147 186 231 284 333
#     4  10  21  35  57  87 115 149 190 234 286 339
#     4  10  21  38  59  83 111 146 194 239 287 338
#     4  10  20  36  57  83 117 155 192 229 280 343
#     4  10  20  35  57  85 116 152 192 230 277 342
#
# _framework density 24.337517999999999
#
# number of rings (size 3 to 8) (size 9 to 14) (size 15 to 20)
#    0.000    2.000    2.000    2.400    0.000    7.200 
#    0.000    5.000    0.000    3.000    0.000    0.000 
#    0.000    0.000    0.000    0.000    0.000    0.000 
#
# Total GULP energy -111838.148526 kJ/mol
# GULP energy per Si atom -5591.907426 kJ/mol
# Density = 2.428212 g / cm^3
# Si number density = 24.337518 Si / 1000 Ang^3
#
#
#
# Elastic Constant Matrix: (Units=GPa)
#
#
# Indices 1 2 3 4 5 6 
#
# 1 66.8746 6.2744 36.0608 0.0000 6.5316 0.0000
# 2 6.2744 151.8908 78.9149 0.0000 9.7350 0.0000
# 3 36.0608 78.9149 249.3368 0.0000 25.0029 0.0000
# 4 0.0000 0.0000 0.0000 -31.9575 0.0000 42.5904
# 5 6.5316 9.7350 25.0029 0.0000 34.7890 0.0000
# 6 0.0000 0.0000 0.0000 42.5904 0.0000 -123.2593
#
#
#
# Elastic Compliance Matrix: (Units=1/GPa)
#
#
# Indices 1 2 3 4 5 6 
#
# 1 0.016347 0.000684 -0.002429 0.000000 -0.001515 0.000000
# 2 0.000684 0.007914 -0.002553 0.000000 -0.000508 0.000000
# 3 -0.002429 -0.002553 0.005445 0.000000 -0.002743 0.000000
# 4 0.000000 0.000000 0.000000 -0.058001 0.000000 -0.020041
# 5 -0.001515 -0.000508 -0.002743 0.000000 0.031143 0.000000
# 6 0.000000 0.000000 0.000000 -0.020041 0.000000 -0.015038
#
#
# Mechanical properties :
#
#
# Convention : Reuss Voigt Hill
#
# Bulk Modulus (GPa) = 47.37001 78.95585 63.16293
# Shear Modulus (GPa) = 1452.70027 -0.96208 725.86909
#
# Velocity S-wave (km/s) = 24.45799 -0.62942 17.28868
# Velocity P-wave (km/s) = 28.58491 5.65546 20.60438
#
# Compressibility (1/GPa) = 0.02111040
#
# Stress axis : x y z
#
# Youngs Moduli (GPa) = 61.17417 126.35343 183.65843
#
# Poissons Ratio (x) = -0.08638 0.44604
# Poissons Ratio (y) = -0.04182 0.46884
# Poissons Ratio (z) = 0.14857 0.32255
#
# Static dielectric constant tensor:
#      x y z
#    x 2.003770 0.000000 -0.028190 
#    y 0.000000 1.898630 0.000000 
#    z -0.028190 0.000000 1.979820 
# 
# From -- ./inp_files/41304.got.cif
#   From: 2010.05.17/outbox.cif.g08.bks.cpg/sg10_21_cif.got.tgz:41304.got - 2010.06.03 11:33:40.
