data_PCOD9147846
_publ_section_title
;
Structure prediction by ZEFSAII (Michael W. Deem and Ramdas Pophale) SiO2 
 PCOD9147846
Probable space group: P 2/M
;
_chemical_formula_sum "Si O2"
_cell_formula_units_Z 24
_cell_length_a 15.525742
_cell_length_b 8.544736
_cell_length_c 15.218975
_cell_angle_alpha 90.000000
_cell_angle_beta 140.114395
_cell_angle_gamma 90.000000
_cell_volume 1294.697913
_symmetry_space_group_name_H-M "P 2/M"
_symmetry_group_IT_number 10
_symmetry_cell_setting 'monoclinic'
loop_
_space_group_symop_operation_xyz
x,y,z
-x,y,-z
-x,-y,-z
x,-y,z
loop_
_atom_site_type_symbol
_atom_site_label
_atom_site_fract_x
_atom_site_fract_y
_atom_site_fract_z
Si Si1 0.620036 0.810550 0.157773
Si Si2 0.104394 0.187661 0.346200
Si Si3 0.114464 0.687272 0.157858
Si Si4 0.592582 0.189075 0.656461
Si Si5 0.392179 0.190551 0.650424
Si Si6 0.914247 0.312519 0.347364
O O1 0.596909 0.758313 0.240279
O O2 0.763992 0.750903 0.238510
O O3 0.622974 0.000000 0.159954
O O4 0.500000 0.759504 0.000000
O O5 0.090871 0.243270 0.235946
O O6 0.249454 0.240193 0.497775
O O7 0.989564 0.252260 0.319938
O O8 0.102000 0.000000 0.346749
O O9 0.110083 0.500000 0.160434
O O10 0.260974 0.739401 0.239721
O O11 0.000000 0.739554 0.000000
O O12 0.500000 0.229169 0.500000
O O13 0.513040 0.240038 0.681491
O O14 0.605269 0.000000 0.667330
O O15 0.392328 0.000000 0.649882
O O16 0.911855 0.500000 0.344924
O O17 0.000000 0.260187 0.500000
#
# Coordination Sequence:
#
# PCOD9147846 Si02
#       6
#     4   4   4   4   4   4
#     4  10  21  38  60  88 121 157 200 249 298 349
#     4  11  21  38  65  89 114 156 205 254 297 343
#     4  11  25  42  58  86 128 162 192 241 303 364
#     4  10  19  36  61  88 115 150 200 249 292 347
#     4   9  18  34  58  87 116 147 193 250 295 339
#     4  11  23  38  59  90 125 161 199 243 299 361
#
# _framework density 18.537144000000001
#
# number of rings (size 3 to 8) (size 9 to 14) (size 15 to 20)
#    0.000    1.667    3.333    1.500    0.000    4.000 
#    0.000    2.500    0.000    0.000    0.000    0.000 
#    0.000    0.000    0.000    0.000    0.000    0.000 
#
# Total GULP energy -134093.474133 kJ/mol
# GULP energy per Si atom -5587.228089 kJ/mol
# Density = 1.849495 g / cm^3
# Si number density = 18.537144 Si / 1000 Ang^3
#
#
#
# Elastic Constant Matrix: (Units=GPa)
#
#
# Indices 1 2 3 4 5 6 
#
# 1 205.6236 27.1096 104.9295 0.0000 -2.9352 0.0000
# 2 27.1096 20.6996 33.5479 0.0000 -0.0337 0.0000
# 3 104.9295 33.5479 180.1689 0.0000 -2.3245 0.0000
# 4 0.0000 0.0000 0.0000 31.4007 0.0000 34.2470
# 5 -2.9352 -0.0337 -2.3245 0.0000 33.6361 0.0000
# 6 0.0000 0.0000 0.0000 34.2470 0.0000 122.4944
#
#
#
# Elastic Compliance Matrix: (Units=1/GPa)
#
#
# Indices 1 2 3 4 5 6 
#
# 1 0.007120 -0.003740 -0.003445 0.000000 0.000379 0.000000
# 2 -0.003740 0.071178 -0.011088 0.000000 -0.001021 0.000000
# 3 -0.003445 -0.011088 0.009626 0.000000 0.000353 0.000000
# 4 0.000000 0.000000 0.000000 0.045817 0.000000 -0.012810
# 5 0.000379 -0.001021 0.000353 0.000000 0.029786 0.000000
# 6 0.000000 0.000000 0.000000 -0.012810 0.000000 0.011745
#
#
# Mechanical properties :
#
#
# Convention : Reuss Voigt Hill
#
# Bulk Modulus (GPa) = 19.46429 81.96289 50.71359
# Shear Modulus (GPa) = 21.83923 53.56657 37.70290
#
# Velocity S-wave (km/s) = 3.43612 5.38141 4.51478
# Velocity P-wave (km/s) = 5.12499 9.10628 7.38884
#
# Compressibility (1/GPa) = 0.05137614
#
# Stress axis : x y z
#
# Youngs Moduli (GPa) = 140.45127 14.04928 103.88457
#
# Poissons Ratio (x) = 0.05255 0.35791
# Poissons Ratio (y) = 0.52534 1.15190
# Poissons Ratio (z) = 0.48389 0.15578
#
# Static dielectric constant tensor:
#      x y z
#    x 1.609200 0.000000 -0.011910 
#    y 0.000000 1.632130 0.000000 
#    z -0.011910 0.000000 1.619220 
# 
# From -- ./inp_files/66331.got.cif
#   From: 2010.05.17/outbox.cif.g08.bks.cpg/sg10_34_cif.got.tgz:66331.got - 2010.06.03 11:33:40.
