data_PCOD9147025
_publ_section_title
;
Structure prediction by ZEFSAII (Michael W. Deem and Ramdas Pophale) SiO2 
 PCOD9147025
Probable space group: P 2/M
;
_chemical_formula_sum "Si O2"
_cell_formula_units_Z 26
_cell_length_a 13.969261
_cell_length_b 8.083915
_cell_length_c 15.348767
_cell_angle_alpha 90.000000
_cell_angle_beta 132.473124
_cell_angle_gamma 90.000000
_cell_volume 1278.457019
_symmetry_space_group_name_H-M "P 2/M"
_symmetry_group_IT_number 10
_symmetry_cell_setting 'monoclinic'
loop_
_space_group_symop_operation_xyz
x,y,z
-x,y,-z
-x,-y,-z
x,-y,z
loop_
_atom_site_type_symbol
_atom_site_label
_atom_site_fract_x
_atom_site_fract_y
_atom_site_fract_z
Si Si1 0.852801 0.309627 0.177098
Si Si2 0.613149 0.702605 0.136963
Si Si3 0.738189 0.183406 0.935215
Si Si4 0.096991 0.808555 0.233050
Si Si5 0.000000 0.750554 0.000000
Si Si6 0.371232 0.700496 0.474990
Si Si7 0.532735 0.699135 0.280242
O O1 0.884541 0.500000 0.215427
O O2 0.754408 0.244102 0.189610
O O3 0.985983 0.216379 0.237713
O O4 0.768482 0.298828 0.036058
O O5 0.613343 0.500000 0.135535
O O6 0.583591 0.756360 0.217229
O O7 0.500000 0.754786 0.000000
O O8 0.616625 0.246088 0.806304
O O9 0.711086 0.000000 0.952832
O O10 0.867071 0.175798 0.956690
O O11 0.239775 0.771764 0.354450
O O12 0.088391 0.000000 0.197311
O O13 0.057488 0.689001 0.128150
O O14 0.500000 0.747397 0.500000
O O15 0.362319 0.500000 0.467066
O O16 0.390911 0.754496 0.587266
O O17 0.536153 0.500000 0.281809
#
# Coordination Sequence:
#
# PCOD9147025 Si02
#       7
#     4   4   4   4   2   4   4
#     4  10  19  34  56  80 110 143 180 228 278 325
#     4   9  16  31  56  83 109 141 185 226 270 326
#     4  11  20  32  51  79 112 143 180 223 274 329
#     4  11  22  38  58  80 111 146 185 228 277 330
#     4  10  21  36  53  76 107 144 181 220 267 332
#     4  10  22  39  58  83 114 146 186 230 273 324
#     4  10  20  36  57  80 109 145 184 227 270 323
#
# _framework density 20.337015000000001
#
# number of rings (size 3 to 8) (size 9 to 14) (size 15 to 20)
#    0.000    1.846    1.538    4.615    0.000    0.923 
#    0.000   16.154    0.000    4.615    0.000    0.000 
#    0.000    0.000    0.000    0.000    0.000    0.000 
#
# Total GULP energy -144929.163128 kJ/mol
# GULP energy per Si atom -5574.198582 kJ/mol
# Density = 2.029073 g / cm^3
# Si number density = 20.337015 Si / 1000 Ang^3
#
#
#
# Elastic Constant Matrix: (Units=GPa)
#
#
# Indices 1 2 3 4 5 6 
#
# 1 145.8944 21.9448 84.7397 0.0000 1.9952 0.0000
# 2 21.9448 33.8294 16.5713 0.0000 -1.7505 0.0000
# 3 84.7397 16.5713 148.7233 0.0000 13.0736 0.0000
# 4 0.0000 0.0000 0.0000 10.0081 0.0000 -3.8810
# 5 1.9952 -1.7505 13.0736 0.0000 33.6540 0.0000
# 6 0.0000 0.0000 0.0000 -3.8810 0.0000 -8.6593
#
#
#
# Elastic Compliance Matrix: (Units=1/GPa)
#
#
# Indices 1 2 3 4 5 6 
#
# 1 0.010849 -0.004099 -0.005849 0.000000 0.001416 0.000000
# 2 -0.004099 0.033128 -0.001583 0.000000 0.002581 0.000000
# 3 -0.005849 -0.001583 0.010571 0.000000 -0.003842 0.000000
# 4 0.000000 0.000000 0.000000 0.085124 0.000000 -0.038152
# 5 0.001416 0.002581 -0.003842 0.000000 0.031257 0.000000
# 6 0.000000 0.000000 0.000000 -0.038152 0.000000 -0.098383
#
#
# Mechanical properties :
#
#
# Convention : Reuss Voigt Hill
#
# Bulk Modulus (GPa) = 31.76033 63.88431 47.82232
# Shear Modulus (GPa) = 47.12430 20.67997 33.90213
#
# Velocity S-wave (km/s) = 4.81892 3.19229 4.08734
# Velocity P-wave (km/s) = 6.82741 6.71332 6.77061
#
# Compressibility (1/GPa) = 0.03148582
#
# Stress axis : x y z
#
# Youngs Moduli (GPa) = 92.17558 30.18611 94.60095
#
# Poissons Ratio (x) = 0.12373 0.55334
# Poissons Ratio (y) = 0.37783 0.14971
# Poissons Ratio (z) = 0.53915 0.04777
#
# Static dielectric constant tensor:
#      x y z
#    x 1.729930 0.000000 -0.021700 
#    y 0.000000 1.727800 0.000000 
#    z -0.021700 0.000000 1.693130 
# 
# From -- ./inp_files/66883.got.cif
#   From: 2010.05.17/outbox.cif.g08.bks.cpg/sg10_34_cif.got.tgz:66883.got - 2010.06.03 11:33:40.
