data_PCOD9147272
_publ_section_title
;
Structure prediction by ZEFSAII (Michael W. Deem and Ramdas Pophale) SiO2 
 PCOD9147272
Probable space group: P 2/M
;
_chemical_formula_sum "Si O2"
_cell_formula_units_Z 32
_cell_length_a 12.502354
_cell_length_b 17.249723
_cell_length_c 15.338493
_cell_angle_alpha 90.000000
_cell_angle_beta 149.266760
_cell_angle_gamma 90.000000
_cell_volume 1690.491245
_symmetry_space_group_name_H-M "P 2/M"
_symmetry_group_IT_number 10
_symmetry_cell_setting 'monoclinic'
loop_
_space_group_symop_operation_xyz
x,y,z
-x,y,-z
-x,-y,-z
x,-y,z
loop_
_atom_site_type_symbol
_atom_site_label
_atom_site_fract_x
_atom_site_fract_y
_atom_site_fract_z
Si Si1 0.159646 0.908511 0.447840
Si Si2 0.437626 0.593000 0.055645
Si Si3 0.815592 0.408855 0.442446
Si Si4 0.725408 0.209916 0.627297
Si Si5 0.725231 0.163072 0.113005
Si Si6 0.769589 0.917767 0.801827
Si Si7 0.529866 0.088777 0.814659
Si Si8 0.033704 0.317781 0.750613
O O1 0.251524 0.848292 0.440112
O O2 0.286087 0.892279 0.626274
O O3 0.911021 0.892840 0.276037
O O4 0.194614 0.000000 0.451885
O O5 0.443275 0.500000 0.061578
O O6 0.607169 0.619646 0.246076
O O7 0.500000 0.615522 0.000000
O O8 0.204811 0.623326 0.907932
O O9 0.790197 0.500000 0.449233
O O10 0.000000 0.406183 0.500000
O O11 0.891717 0.358604 0.577598
O O12 0.500000 0.241127 0.500000
O O13 0.773126 0.152831 0.739668
O O14 0.886092 0.277944 0.718695
O O15 0.826495 0.247907 0.191300
O O16 0.500000 0.155697 0.000000
O O17 0.667124 0.142698 0.972458
O O18 0.624288 0.908989 0.783923
O O19 0.714666 0.000000 0.718948
O O20 0.000000 0.923724 0.000000
O O21 0.546925 0.000000 0.859478
#
# Coordination Sequence:
#
# PCOD9147272 Si02
#       8
#     4   4   4   4   4   4   4   4
#     4  10  21  38  60  83 108 151 209 265 303 342
#     4  10  19  36  65  95 123 156 194 237 287 340
#     4  10  20  37  66  97 123 153 195 242 282 339
#     4  11  22  38  56  83 120 157 196 247 314 363
#     4  11  25  40  54  84 125 165 193 233 302 376
#     4  10  19  34  59  85 108 144 202 267 315 345
#     4  10  21  38  60  82 109 150 207 263 300 346
#     4  11  23  38  56  90 127 160 192 237 295 362
#
# _framework density 18.929407999999999
#
# number of rings (size 3 to 8) (size 9 to 14) (size 15 to 20)
#    0.000    1.625    2.500    3.000    0.000    5.000 
#    2.250    1.250    0.000    1.500    0.000    1.750 
#    0.000    0.000    0.000    0.000    0.000    0.000 
#
# Total GULP energy -178426.344227 kJ/mol
# GULP energy per Si atom -5575.823257 kJ/mol
# Density = 1.888632 g / cm^3
# Si number density = 18.929408 Si / 1000 Ang^3
#
#
#
# Elastic Constant Matrix: (Units=GPa)
#
#
# Indices 1 2 3 4 5 6 
#
# 1 61.0462 30.7776 38.7262 0.0000 17.3571 0.0000
# 2 30.7776 54.1639 48.5012 0.0000 -7.2528 0.0000
# 3 38.7262 48.5012 160.9701 0.0000 5.6320 0.0000
# 4 0.0000 0.0000 0.0000 32.5847 0.0000 1.3049
# 5 17.3571 -7.2528 5.6320 0.0000 34.0099 0.0000
# 6 0.0000 0.0000 0.0000 1.3049 0.0000 23.2328
#
#
#
# Elastic Compliance Matrix: (Units=1/GPa)
#
#
# Indices 1 2 3 4 5 6 
#
# 1 0.033899 -0.021284 -0.000984 0.000000 -0.021677 0.000000
# 2 -0.021284 0.040259 -0.007735 0.000000 0.020729 0.000000
# 3 -0.000984 -0.007735 0.008871 0.000000 -0.002616 0.000000
# 4 0.000000 0.000000 0.000000 0.030758 0.000000 -0.001728
# 5 -0.021677 0.020729 -0.002616 0.000000 0.045320 0.000000
# 6 0.000000 0.000000 0.000000 -0.001728 0.000000 0.043140
#
#
# Mechanical properties :
#
#
# Convention : Reuss Voigt Hill
#
# Bulk Modulus (GPa) = 43.43462 56.91003 50.17232
# Shear Modulus (GPa) = 18.52351 28.51050 23.51700
#
# Velocity S-wave (km/s) = 3.13158 3.88512 3.52853
# Velocity P-wave (km/s) = 6.00593 7.08909 6.56987
#
# Compressibility (1/GPa) = 0.02302311
#
# Stress axis : x y z
#
# Youngs Moduli (GPa) = 29.49910 24.83942 112.72454
#
# Poissons Ratio (x) = 0.52868 0.11093
# Poissons Ratio (y) = 0.62786 0.87191
# Poissons Ratio (z) = 0.02903 0.19213
#
# Static dielectric constant tensor:
#      x y z
#    x 1.665730 0.000000 0.030570 
#    y 0.000000 1.732240 0.000000 
#    z 0.030570 0.000000 1.723340 
# 
# From -- ./inp_files/65423.got.cif
#   From: 2010.05.17/outbox.cif.g08.bks.cpg/sg10_33_cif.got.tgz:65423.got - 2010.06.03 11:33:40.
