data_PCOD9147827
_publ_section_title
;
Structure prediction by ZEFSAII (Michael W. Deem and Ramdas Pophale) SiO2 
 PCOD9147827
Probable space group: P 2/M
;
_chemical_formula_sum "Si O2"
_cell_formula_units_Z 32
_cell_length_a 21.574559
_cell_length_b 9.428658
_cell_length_c 27.050206
_cell_angle_alpha 90.000000
_cell_angle_beta 161.079563
_cell_angle_gamma 90.000000
_cell_volume 1784.221961
_symmetry_space_group_name_H-M "P 2/M"
_symmetry_group_IT_number 10
_symmetry_cell_setting 'monoclinic'
loop_
_space_group_symop_operation_xyz
x,y,z
-x,y,-z
-x,-y,-z
x,-y,z
loop_
_atom_site_type_symbol
_atom_site_label
_atom_site_fract_x
_atom_site_fract_y
_atom_site_fract_z
Si Si1 0.374231 0.829812 0.031499
Si Si2 0.048071 0.169044 0.270571
Si Si3 0.004999 0.168976 0.444337
Si Si4 0.201829 0.334957 0.297943
Si Si5 0.369387 0.335598 0.852956
Si Si6 0.417476 0.171428 0.712754
Si Si7 0.618609 0.665302 0.665552
Si Si8 0.450121 0.170523 0.625882
O O1 0.516355 0.746855 0.103366
O O2 0.430102 0.793832 0.130018
O O3 0.400676 0.000000 0.044824
O O4 0.152784 0.793335 0.855890
O O5 0.069364 0.244164 0.233706
O O6 0.234304 0.202764 0.443892
O O7 0.046829 0.000000 0.261921
O O8 0.830720 0.256280 0.290350
O O9 0.000000 0.189860 0.500000
O O10 0.207924 0.214007 0.574473
O O11 0.980411 0.000000 0.417083
O O12 0.144945 0.500000 0.254297
O O13 0.233208 0.286187 0.265091
O O14 0.411077 0.328853 0.481950
O O15 0.337881 0.500000 0.815933
O O16 0.500000 0.329679 0.000000
O O17 0.465288 0.221374 0.693772
O O18 0.410761 0.000000 0.704714
O O19 0.656286 0.500000 0.705083
O O20 0.595131 0.756235 0.697129
O O21 0.473415 0.000000 0.641322
#
# Coordination Sequence:
#
# PCOD9147827 Si02
#       8
#     4   4   4   4   4   4   4   4
#     4  10  20  37  56  74 100 136 172 207 250 306
#     4   9  18  29  47  75 101 125 162 207 249 294
#     4  10  19  36  61  82  99 131 177 216 254 306
#     4   8  14  26  45  67  96 131 162 198 246 295
#     4  11  25  40  53  77 110 138 168 212 262 307
#     4   9  18  33  53  76 101 129 165 207 252 302
#     4   8  14  26  44  68  96 128 165 200 240 295
#     4   9  17  29  46  73 102 126 157 206 255 292
#
# _framework density 17.934987
#
# number of rings (size 3 to 8) (size 9 to 14) (size 15 to 20)
#    0.000    2.750    1.250    1.125    1.750    2.250 
#    0.000    3.750    0.000    0.750    0.000    5.250 
#    0.000    0.000    0.000    0.000    0.000    0.000 
#
# Total GULP energy -178328.223568 kJ/mol
# GULP energy per Si atom -5572.756986 kJ/mol
# Density = 1.789417 g / cm^3
# Si number density = 17.934987 Si / 1000 Ang^3
#
#
#
# Elastic Constant Matrix: (Units=GPa)
#
#
# Indices 1 2 3 4 5 6 
#
# 1 79.7420 12.8018 -14.5936 0.0000 -14.7223 0.0000
# 2 12.8018 19.1830 7.9462 0.0000 -7.9198 0.0000
# 3 -14.5936 7.9462 16.0223 0.0000 -5.5021 0.0000
# 4 0.0000 0.0000 0.0000 6.0452 0.0000 -3.1129
# 5 -14.7223 -7.9198 -5.5021 0.0000 15.4356 0.0000
# 6 0.0000 0.0000 0.0000 -3.1129 0.0000 1.7710
#
#
#
# Elastic Compliance Matrix: (Units=1/GPa)
#
#
# Indices 1 2 3 4 5 6 
#
# 1 0.038528 -0.036273 0.067582 0.000000 0.042226 0.000000
# 2 -0.036273 0.109606 -0.091119 0.000000 -0.010839 0.000000
# 3 0.067582 -0.091119 0.199682 0.000000 0.088884 0.000000
# 4 0.000000 0.000000 0.000000 1.743271 0.000000 3.064208
# 5 0.042226 -0.010839 0.088884 0.000000 0.131182 0.000000
# 6 0.000000 0.000000 0.000000 3.064208 0.000000 5.950733
#
#
# Mechanical properties :
#
#
# Convention : Reuss Voigt Hill
#
# Bulk Modulus (GPa) = 4.38221 14.13958 9.26089
# Shear Modulus (GPa) = 0.59747 11.90322 6.25034
#
# Velocity S-wave (km/s) = 0.57780 2.57901 1.86884
# Velocity P-wave (km/s) = 1.70112 4.09503 3.13553
#
# Compressibility (1/GPa) = 0.22819554
#
# Stress axis : x y z
#
# Youngs Moduli (GPa) = 25.95521 9.12363 5.00797
#
# Poissons Ratio (x) = 0.33094 -0.33845
# Poissons Ratio (y) = 0.94147 0.45632
# Poissons Ratio (z) = -1.75411 0.83134
#
# Static dielectric constant tensor:
#      x y z
#    x 1.619250 0.000000 -0.009590 
#    y 0.000000 1.595230 0.000000 
#    z -0.009590 0.000000 1.612550 
# 
# From -- ./inp_files/93701.got.cif
#   From: 2010.05.17/outbox.cif.g08.bks.cpg/sg10_47_cif.got.tgz:93701.got - 2010.06.03 11:33:40.
