data_PCOD9147450
_publ_section_title
;
Structure prediction by ZEFSAII (Michael W. Deem and Ramdas Pophale) SiO2 
 PCOD9147450
Probable space group: P 2/M
;
_chemical_formula_sum "Si O2"
_cell_formula_units_Z 24
_cell_length_a 12.562951
_cell_length_b 16.824638
_cell_length_c 19.036760
_cell_angle_alpha 90.000000
_cell_angle_beta 159.928856
_cell_angle_gamma 90.000000
_cell_volume 1380.895674
_symmetry_space_group_name_H-M "P 2/M"
_symmetry_group_IT_number 10
_symmetry_cell_setting 'monoclinic'
loop_
_space_group_symop_operation_xyz
x,y,z
-x,y,-z
-x,-y,-z
x,-y,z
loop_
_atom_site_type_symbol
_atom_site_label
_atom_site_fract_x
_atom_site_fract_y
_atom_site_fract_z
Si Si1 0.356347 0.330871 0.333128
Si Si2 0.341109 0.500000 0.248970
Si Si3 0.373268 0.909532 0.718623
Si Si4 0.630810 0.330846 0.908325
Si Si5 0.665323 0.232286 0.400325
Si Si6 0.400294 0.795929 0.861865
Si Si7 0.366925 0.500000 0.718302
O O1 0.500000 0.323851 0.500000
O O2 0.391647 0.420433 0.325046
O O3 0.511737 0.269256 0.374583
O O4 0.986298 0.319256 0.106984
O O5 0.572044 0.500000 0.326928
O O6 0.000000 0.500000 0.000000
O O7 0.444738 0.854468 0.695487
O O8 0.486203 0.862017 0.857156
O O9 0.000000 0.911291 0.500000
O O10 0.481729 0.000000 0.780058
O O11 0.419149 0.290812 0.716596
O O12 0.569901 0.284085 0.942225
O O13 0.531385 0.421965 0.850971
O O14 0.034769 0.223411 0.635441
O O15 0.500000 0.822338 0.000000
O O16 0.000000 0.500000 0.500000
#
# Coordination Sequence:
#
# PCOD9147450 Si02
#       7
#     4   2   4   4   4   4   2
#     4  12  23  36  56  82 111 143 184 236 281 320
#     4  12  21  40  57  77 107 148 193 229 266 325
#     4   8  16  32  56  82 107 142 186 223 265 330
#     4  11  21  37  56  77 107 148 192 224 270 331
#     4  10  19  35  57  79 106 146 185 225 267 331
#     4  10  20  34  53  83 116 140 177 232 281 324
#     4  12  22  36  59  81 102 143 193 232 261 309
#
# _framework density 17.380023999999999
#
# number of rings (size 3 to 8) (size 9 to 14) (size 15 to 20)
#    0.000    1.500    3.333    4.250    0.000    0.333 
#    0.000    0.417    0.000    8.500    0.000    0.000 
#    0.000    0.000    0.000    0.000    0.000    0.000 
#
# Total GULP energy -133896.271129 kJ/mol
# GULP energy per Si atom -5579.011297 kJ/mol
# Density = 1.734047 g / cm^3
# Si number density = 17.380024 Si / 1000 Ang^3
#
#
#
# Elastic Constant Matrix: (Units=GPa)
#
#
# Indices 1 2 3 4 5 6 
#
# 1 109.4326 58.2588 27.1994 0.0000 -0.8622 0.0000
# 2 58.2588 153.6358 24.3558 0.0000 -2.8122 0.0000
# 3 27.1994 24.3558 52.2866 0.0000 10.1262 0.0000
# 4 0.0000 0.0000 0.0000 5.5933 0.0000 -2.1285
# 5 -0.8622 -2.8122 10.1262 0.0000 33.3647 0.0000
# 6 0.0000 0.0000 0.0000 -2.1285 0.0000 16.7137
#
#
#
# Elastic Compliance Matrix: (Units=1/GPa)
#
#
# Indices 1 2 3 4 5 6 
#
# 1 0.012464 -0.003914 -0.004950 0.000000 0.001494 0.000000
# 2 -0.003914 0.008347 -0.002092 0.000000 0.001237 0.000000
# 3 -0.004950 -0.002092 0.024153 0.000000 -0.007635 0.000000
# 4 0.000000 0.000000 0.000000 0.187892 0.000000 0.023929
# 5 0.001494 0.001237 -0.007635 0.000000 0.032432 0.000000
# 6 0.000000 0.000000 0.000000 0.023929 0.000000 0.062878
#
#
# Mechanical properties :
#
#
# Convention : Reuss Voigt Hill
#
# Bulk Modulus (GPa) = 43.37855 59.44255 51.41055
# Shear Modulus (GPa) = 13.97574 24.83707 19.40641
#
# Velocity S-wave (km/s) = 2.83879 3.78439 3.34517
# Velocity P-wave (km/s) = 5.97980 7.30557 6.67568
#
# Compressibility (1/GPa) = 0.02305287
#
# Stress axis : x y z
#
# Youngs Moduli (GPa) = 80.23143 119.79694 41.40238
#
# Poissons Ratio (x) = 0.46892 0.20493
# Poissons Ratio (y) = 0.31405 0.08660
# Poissons Ratio (z) = 0.39713 0.25059
#
# Static dielectric constant tensor:
#      x y z
#    x 1.581780 0.000000 0.005830 
#    y 0.000000 1.603320 0.000000 
#    z 0.005830 0.000000 1.604650 
# 
# From -- ./inp_files/54175.got.cif
#   From: 2010.05.17/outbox.cif.g08.bks.cpg/sg10_28_cif.got.tgz:54175.got - 2010.06.03 11:33:40.
