data_PCOD9147602
_publ_section_title
;
Structure prediction by ZEFSAII (Michael W. Deem and Ramdas Pophale) SiO2 
 PCOD9147602
Probable space group: P 2/M
;
_chemical_formula_sum "Si O2"
_cell_formula_units_Z 32
_cell_length_a 10.856285
_cell_length_b 16.194681
_cell_length_c 23.453964
_cell_angle_alpha 90.000000
_cell_angle_beta 22.264668
_cell_angle_gamma 90.000000
_cell_volume 1562.348547
_symmetry_space_group_name_H-M "P 2/M"
_symmetry_group_IT_number 10
_symmetry_cell_setting 'monoclinic'
loop_
_space_group_symop_operation_xyz
x,y,z
-x,y,-z
-x,-y,-z
x,-y,z
loop_
_atom_site_type_symbol
_atom_site_label
_atom_site_fract_x
_atom_site_fract_y
_atom_site_fract_z
Si Si1 0.851842 0.779407 0.825647
Si Si2 0.688499 0.239595 0.092240
Si Si3 0.193524 0.647362 0.596705
Si Si4 0.361539 0.670319 0.322160
Si Si5 0.423352 0.750446 0.662788
Si Si6 0.840057 0.089978 0.506079
Si Si7 0.523302 0.588453 0.837099
Si Si8 0.341990 0.905188 0.184824
O O1 0.817076 0.862526 0.802748
O O2 0.008469 0.711194 0.717244
O O3 0.094677 0.780139 0.774560
O O4 0.500000 0.756928 0.000000
O O5 0.388860 0.254108 0.265198
O O6 0.660365 0.325798 0.068943
O O7 0.624923 0.158228 0.083294
O O8 0.000000 0.236213 0.000000
O O9 0.500000 0.608479 0.500000
O O10 0.361481 0.700351 0.475006
O O11 0.897752 0.594435 0.697826
O O12 0.593840 0.691757 0.274894
O O13 0.469311 0.596154 0.235107
O O14 0.000000 0.660687 0.500000
O O15 0.608129 0.832494 0.601758
O O16 0.000000 0.091706 0.500000
O O17 0.091202 0.094023 0.345477
O O18 0.673318 0.000000 0.572378
O O19 0.385865 0.500000 0.914048
O O20 0.441539 0.000000 0.131883
#
# Coordination Sequence:
#
# PCOD9147602 Si02
#       8
#     4   4   4   4   4   4   4   4
#     4  11  24  38  60  83 117 166 211 249 301 356
#     4  10  22  38  62  87 122 160 200 236 309 363
#     4  10  20  38  60  89 116 157 207 246 302 367
#     4  10  19  35  59  93 119 153 199 243 304 366
#     4  11  19  35  61  83 118 161 202 247 301 357
#     4  10  20  34  58  88 117 151 201 254 304 359
#     4  10  21  37  64  93 125 156 196 252 312 362
#     4  11  22  40  61  87 123 160 205 259 303 359
#
# _framework density 20.481985999999999
#
# number of rings (size 3 to 8) (size 9 to 14) (size 15 to 20)
#    0.750    0.875    3.750    1.875    1.750    1.750 
#    0.000    1.250    0.000    0.375    0.000    0.000 
#    0.000    0.000    0.000    0.000    0.000    0.000 
#
# Total GULP energy -178345.634447 kJ/mol
# GULP energy per Si atom -5573.301076 kJ/mol
# Density = 2.043537 g / cm^3
# Si number density = 20.481986 Si / 1000 Ang^3
#
#
#
# Elastic Constant Matrix: (Units=GPa)
#
#
# Indices 1 2 3 4 5 6 
#
# 1 112.7513 42.7440 18.3999 0.0000 -22.2697 0.0000
# 2 42.7440 118.1677 18.9434 0.0000 -24.4793 0.0000
# 3 18.3999 18.9434 49.6915 0.0000 -5.4285 0.0000
# 4 0.0000 0.0000 0.0000 1.6437 0.0000 4.6434
# 5 -22.2697 -24.4793 -5.4285 0.0000 42.2271 0.0000
# 6 0.0000 0.0000 0.0000 4.6434 0.0000 -12.8925
#
#
#
# Elastic Compliance Matrix: (Units=1/GPa)
#
#
# Indices 1 2 3 4 5 6 
#
# 1 0.011130 -0.002794 -0.002629 0.000000 0.003912 0.000000
# 2 -0.002794 0.010814 -0.002601 0.000000 0.004461 0.000000
# 3 -0.002629 -0.002601 0.022083 0.000000 -0.000055 0.000000
# 4 0.000000 0.000000 0.000000 0.301560 0.000000 0.108611
# 5 0.003912 0.004461 -0.000055 0.000000 0.028324 0.000000
# 6 0.000000 0.000000 0.000000 0.108611 0.000000 -0.038446
#
#
# Mechanical properties :
#
#
# Convention : Reuss Voigt Hill
#
# Bulk Modulus (GPa) = 35.73950 48.97613 42.35782
# Shear Modulus (GPa) = 13.85662 19.56386 16.71024
#
# Velocity S-wave (km/s) = 2.60384 3.09394 2.85941
# Velocity P-wave (km/s) = 5.15044 6.06028 5.62379
#
# Compressibility (1/GPa) = 0.02798024
#
# Stress axis : x y z
#
# Youngs Moduli (GPa) = 89.84728 92.46975 45.28379
#
# Poissons Ratio (x) = 0.25838 0.11904
# Poissons Ratio (y) = 0.25105 0.11777
# Poissons Ratio (z) = 0.23618 0.24048
#
# Static dielectric constant tensor:
#      x y z
#    x 1.768030 0.000000 -0.006580 
#    y 0.000000 1.730110 0.000000 
#    z -0.006580 0.000000 1.734460 
# 
# From -- ./inp_files/92895.got.cif
#   From: 2010.05.17/outbox.cif.g08.bks.cpg/sg10_47_cif.got.tgz:92895.got - 2010.06.03 11:33:40.
