data_PCOD9147912
_publ_section_title
;
Structure prediction by ZEFSAII (Michael W. Deem and Ramdas Pophale) SiO2 
 PCOD9147912
Probable space group: P 2/M
;
_chemical_formula_sum "Si O2"
_cell_formula_units_Z 16
_cell_length_a 5.211534
_cell_length_b 17.940492
_cell_length_c 7.694926
_cell_angle_alpha 90.000000
_cell_angle_beta 68.854298
_cell_angle_gamma 90.000000
_cell_volume 671.012418
_symmetry_space_group_name_H-M "P 2/M"
_symmetry_group_IT_number 10
_symmetry_cell_setting 'monoclinic'
loop_
_space_group_symop_operation_xyz
x,y,z
-x,y,-z
-x,-y,-z
x,-y,z
loop_
_atom_site_type_symbol
_atom_site_label
_atom_site_fract_x
_atom_site_fract_y
_atom_site_fract_z
Si Si1 0.821351 0.790391 0.383724
Si Si2 0.804318 0.414004 0.790409
Si Si3 0.700373 0.646430 0.208561
Si Si4 0.811694 0.915853 0.875294
O O1 0.500000 0.810679 0.500000
O O2 0.792584 0.729139 0.237531
O O3 0.000000 0.758352 0.500000
O O4 0.015051 0.859457 0.283633
O O5 0.721877 0.500000 0.802150
O O6 0.623858 0.366117 0.703575
O O7 0.130692 0.406819 0.704683
O O8 0.754588 0.379513 0.996409
O O9 0.784875 0.000000 0.807959
O O10 0.500000 0.890730 0.000000
O O11 0.000000 0.920498 0.000000
#
# Coordination Sequence:
#
# PCOD9147912 Si02
#       4
#     4   4   4   4
#     4  12  26  43  63  98 145 185 215 264 341 419
#     4  10  19  36  65  93 120 166 231 287 331 386
#     4  10  20  35  58  91 126 166 214 281 324 384
#     4  10  23  45  73 102 132 171 228 285 324 379
#
# _framework density 23.844566
#
# number of rings (size 3 to 8) (size 9 to 14) (size 15 to 20)
#    0.000    1.500    0.000    6.750    3.500    1.000 
#    0.000    0.000    0.000   25.500    0.000    0.000 
#    0.000    0.000    0.000    0.000    0.000    0.000 
#
# Total GULP energy -89272.293172 kJ/mol
# GULP energy per Si atom -5579.518323 kJ/mol
# Density = 2.379029 g / cm^3
# Si number density = 23.844566 Si / 1000 Ang^3
#
#
#
# Elastic Constant Matrix: (Units=GPa)
#
#
# Indices 1 2 3 4 5 6 
#
# 1 236.9478 48.4972 35.8960 0.0000 -23.2653 0.0000
# 2 48.4972 137.4121 55.0892 0.0000 -21.1465 0.0000
# 3 35.8960 55.0892 88.9256 0.0000 -19.4465 0.0000
# 4 0.0000 0.0000 0.0000 15.6989 0.0000 -17.0864
# 5 -23.2653 -21.1465 -19.4465 0.0000 31.9208 0.0000
# 6 0.0000 0.0000 0.0000 -17.0864 0.0000 39.2691
#
#
#
# Elastic Compliance Matrix: (Units=1/GPa)
#
#
# Indices 1 2 3 4 5 6 
#
# 1 0.004776 -0.001009 -0.000793 0.000000 0.002329 0.000000
# 2 -0.001009 0.010184 -0.005292 0.000000 0.002787 0.000000
# 3 -0.000793 -0.005292 0.016095 0.000000 0.005721 0.000000
# 4 0.000000 0.000000 0.000000 0.121001 0.000000 0.052649
# 5 0.002329 0.002787 0.005721 0.000000 0.038357 0.000000
# 6 0.000000 0.000000 0.000000 0.052649 0.000000 0.048373
#
#
# Mechanical properties :
#
#
# Convention : Reuss Voigt Hill
#
# Bulk Modulus (GPa) = 59.29149 82.47226 70.88188
# Shear Modulus (GPa) = 19.33511 38.96463 29.14987
#
# Velocity S-wave (km/s) = 2.85069 4.04680 3.50021
# Velocity P-wave (km/s) = 5.97955 7.51651 6.79165
#
# Compressibility (1/GPa) = 0.01686583
#
# Stress axis : x y z
#
# Youngs Moduli (GPa) = 209.39208 98.19244 62.13010
#
# Poissons Ratio (x) = 0.09908 0.04929
# Poissons Ratio (y) = 0.21128 0.32881
# Poissons Ratio (z) = 0.16613 0.51965
#
# Static dielectric constant tensor:
#      x y z
#    x 4.109140 0.000000 -2.556350 
#    y 0.000000 1.918060 0.000000 
#    z -2.556350 0.000000 4.867160 
# 
# From -- ./inp_files/14457.got.cif
#   From: 2010.05.17/outbox.cif.g08.bks.cpg/sg10_8_cif.got.tgz:14457.got - 2010.06.03 11:33:40.
