data_PCOD9147626
_publ_section_title
;
Structure prediction by ZEFSAII (Michael W. Deem and Ramdas Pophale) SiO2 
 PCOD9147626
Probable space group: P 2/M
;
_chemical_formula_sum "Si O2"
_cell_formula_units_Z 24
_cell_length_a 13.402142
_cell_length_b 15.059101
_cell_length_c 11.682284
_cell_angle_alpha 90.000000
_cell_angle_beta 147.920022
_cell_angle_gamma 90.000000
_cell_volume 1252.216389
_symmetry_space_group_name_H-M "P 2/M"
_symmetry_group_IT_number 10
_symmetry_cell_setting 'monoclinic'
loop_
_space_group_symop_operation_xyz
x,y,z
-x,y,-z
-x,-y,-z
x,-y,z
loop_
_atom_site_type_symbol
_atom_site_label
_atom_site_fract_x
_atom_site_fract_y
_atom_site_fract_z
Si Si1 0.859997 0.271563 0.595908
Si Si2 0.388089 0.097027 0.628520
Si Si3 0.000000 0.762562 0.500000
Si Si4 0.845596 0.747502 0.933735
Si Si5 0.710501 0.398515 0.652992
Si Si6 0.500000 0.148077 0.500000
Si Si7 0.686149 0.898090 0.101833
O O1 0.744486 0.179813 0.473814
O O2 0.905949 0.295484 0.509747
O O3 0.750492 0.337449 0.578355
O O4 0.059025 0.253083 0.851307
O O5 0.402080 0.095123 0.505445
O O6 0.321156 0.000000 0.605532
O O7 0.592407 0.111480 0.885079
O O8 0.157528 0.827616 0.709122
O O9 0.821095 0.647342 0.864638
O O10 0.650146 0.792488 0.713939
O O11 0.000000 0.791461 0.000000
O O12 0.500000 0.397878 0.500000
O O13 0.762736 0.500000 0.679730
O O14 0.755242 0.000000 0.179450
O O15 0.500000 0.888180 0.000000
#
# Coordination Sequence:
#
# PCOD9147626 Si02
#       7
#     4   4   2   4   4   2   4
#     4  11  23  38  58  92 123 158 207 246 295 365
#     4  11  22  37  57  83 120 162 200 246 299 350
#     4  12  23  38  61  86 120 172 198 250 312 346
#     4  10  19  35  60  87 118 149 193 248 291 349
#     4  10  20  39  69  95 117 151 194 250 309 359
#     4  12  19  38  57  82 122 158 187 248 303 366
#     4  10  21  38  59  84 114 161 224 263 284 337
#
# _framework density 19.166017
#
# number of rings (size 3 to 8) (size 9 to 14) (size 15 to 20)
#    0.000    1.333    5.833    1.500    0.000    3.667 
#    0.000    2.917    0.000    0.000    0.000    4.667 
#    0.000    0.000    0.000    0.000    0.000    0.000 
#
# Total GULP energy -133677.141926 kJ/mol
# GULP energy per Si atom -5569.880914 kJ/mol
# Density = 1.912239 g / cm^3
# Si number density = 19.166017 Si / 1000 Ang^3
#
#
#
# Elastic Constant Matrix: (Units=GPa)
#
#
# Indices 1 2 3 4 5 6 
#
# 1 97.9908 24.6452 18.4451 0.0000 -22.8439 0.0000
# 2 24.6452 101.5805 41.3260 0.0000 1.9822 0.0000
# 3 18.4451 41.3260 95.4789 0.0000 -4.2151 0.0000
# 4 0.0000 0.0000 0.0000 58.0661 0.0000 -36.5232
# 5 -22.8439 1.9822 -4.2151 0.0000 37.4393 0.0000
# 6 0.0000 0.0000 0.0000 -36.5232 0.0000 51.6159
#
#
#
# Elastic Compliance Matrix: (Units=1/GPa)
#
#
# Indices 1 2 3 4 5 6 
#
# 1 0.012969 -0.002944 -0.000879 0.000000 0.007970 0.000000
# 2 -0.002944 0.012673 -0.005050 0.000000 -0.003036 0.000000
# 3 -0.000879 -0.005050 0.012881 0.000000 0.001181 0.000000
# 4 0.000000 0.000000 0.000000 0.031034 0.000000 0.021960
# 5 0.007970 -0.003036 0.001181 0.000000 0.031867 0.000000
# 6 0.000000 0.000000 0.000000 0.021960 0.000000 0.034912
#
#
# Mechanical properties :
#
#
# Convention : Reuss Voigt Hill
#
# Bulk Modulus (GPa) = 48.13380 51.54255 49.83817
# Shear Modulus (GPa) = 31.05409 43.46651 37.26030
#
# Velocity S-wave (km/s) = 4.02962 4.76741 4.41396
# Velocity P-wave (km/s) = 6.84245 7.56672 7.21368
#
# Compressibility (1/GPa) = 0.02077542
#
# Stress axis : x y z
#
# Youngs Moduli (GPa) = 77.10656 78.91019 77.63114
#
# Poissons Ratio (x) = 0.23234 0.06825
# Poissons Ratio (y) = 0.22703 0.39206
# Poissons Ratio (z) = 0.06779 0.39852
#
# Static dielectric constant tensor:
#      x y z
#    x 1.775510 0.000000 0.018240 
#    y 0.000000 1.681410 0.000000 
#    z 0.018240 0.000000 1.716190 
# 
# From -- ./inp_files/51721.got.cif
#   From: 2010.05.17/outbox.cif.g08.bks.cpg/sg10_26_cif.got.tgz:51721.got - 2010.06.03 11:33:40.
