data_PCOD9147704
_publ_section_title
;
Structure prediction by ZEFSAII (Michael W. Deem and Ramdas Pophale) SiO2 
 PCOD9147704
Probable space group: P 2/M
;
_chemical_formula_sum "Si O2"
_cell_formula_units_Z 32
_cell_length_a 11.693054
_cell_length_b 7.536891
_cell_length_c 15.535160
_cell_angle_alpha 90.000000
_cell_angle_beta 85.682874
_cell_angle_gamma 90.000000
_cell_volume 1365.217779
_symmetry_space_group_name_H-M "P 2/M"
_symmetry_group_IT_number 10
_symmetry_cell_setting 'monoclinic'
loop_
_space_group_symop_operation_xyz
x,y,z
-x,y,-z
-x,-y,-z
x,-y,z
loop_
_atom_site_type_symbol
_atom_site_label
_atom_site_fract_x
_atom_site_fract_y
_atom_site_fract_z
Si Si1 0.610411 0.283119 0.051923
Si Si2 0.864378 0.206760 0.490969
Si Si3 0.869979 0.299780 0.989253
Si Si4 0.883171 0.789864 0.301114
Si Si5 0.656089 0.287185 0.237496
Si Si6 0.273609 0.701207 0.335801
Si Si7 0.491557 0.282667 0.598799
Si Si8 0.109691 0.798014 0.201541
O O1 0.612209 0.500000 0.046262
O O2 0.595520 0.229544 0.153036
O O3 0.500000 0.226672 0.000000
O O4 0.742840 0.225235 0.022192
O O5 0.845643 0.282522 0.396401
O O6 0.801228 0.298507 0.573033
O O7 0.000000 0.213140 0.500000
O O8 0.828007 0.000000 0.496139
O O9 0.873487 0.500000 0.026291
O O10 0.863856 0.302832 0.886518
O O11 0.000000 0.223667 0.000000
O O12 0.789191 0.762078 0.233470
O O13 0.003046 0.718448 0.260163
O O14 0.900439 0.000000 0.315642
O O15 0.646968 0.500000 0.239393
O O16 0.607841 0.220753 0.331675
O O17 0.289312 0.500000 0.304578
O O18 0.394789 0.772830 0.357946
O O19 0.212404 0.801137 0.262961
O O20 0.500000 0.221380 0.500000
O O21 0.488224 0.500000 0.595198
O O22 0.080431 0.000000 0.177925
#
# Coordination Sequence:
#
# PCOD9147704 Si02
#       8
#     4   4   4   4   4   4   4   4
#     4   9  19  35  59  87 116 152 193 238 297 359
#     4  10  19  36  55  75 113 159 193 230 286 346
#     4  10  21  38  61  90 118 144 192 256 300 344
#     4  10  21  37  57  81 114 154 193 235 285 345
#     4  10  20  36  61  86 112 151 193 237 290 348
#     4  11  22  35  57  88 116 147 194 246 291 339
#     4   9  19  35  55  84 120 150 184 237 294 346
#     4  11  23  39  58  83 117 158 193 231 294 362
#
# _framework density 23.439482999999999
#
# number of rings (size 3 to 8) (size 9 to 14) (size 15 to 20)
#    0.000    2.000    1.250    2.250    1.750    4.000 
#    0.000    1.875    0.000    4.125    0.000    0.000 
#    0.000    0.000    0.000    0.000    0.000    0.000 
#
# Total GULP energy -178607.735255 kJ/mol
# GULP energy per Si atom -5581.491727 kJ/mol
# Density = 2.338613 g / cm^3
# Si number density = 23.439483 Si / 1000 Ang^3
#
#
#
# Elastic Constant Matrix: (Units=GPa)
#
#
# Indices 1 2 3 4 5 6 
#
# 1 131.9520 0.1923 49.2730 0.0000 18.3011 0.0000
# 2 0.1923 57.6140 1.7793 0.0000 -1.5712 0.0000
# 3 49.2730 1.7793 135.6741 0.0000 16.4831 0.0000
# 4 0.0000 0.0000 0.0000 18.6179 0.0000 3.1260
# 5 18.3011 -1.5712 16.4831 0.0000 31.8907 0.0000
# 6 0.0000 0.0000 0.0000 3.1260 0.0000 2.1935
#
#
#
# Elastic Compliance Matrix: (Units=1/GPa)
#
#
# Indices 1 2 3 4 5 6 
#
# 1 0.009176 -0.000045 -0.002872 0.000000 -0.003783 0.000000
# 2 -0.000045 0.017396 -0.000340 0.000000 0.001059 0.000000
# 3 -0.002872 -0.000340 0.008771 0.000000 -0.002902 0.000000
# 4 0.000000 0.000000 0.000000 0.070607 0.000000 -0.100626
# 5 -0.003783 0.001059 -0.002902 0.000000 0.035080 0.000000
# 6 0.000000 0.000000 0.000000 -0.100626 0.000000 0.599310
#
#
# Mechanical properties :
#
#
# Convention : Reuss Voigt Hill
#
# Bulk Modulus (GPa) = 34.68898 47.52550 41.10724
# Shear Modulus (GPa) = 6.60969 28.80677 17.70823
#
# Velocity S-wave (km/s) = 1.68108 3.50949 2.75159
# Velocity P-wave (km/s) = 4.31272 6.06151 5.26030
#
# Compressibility (1/GPa) = 0.02882759
#
# Stress axis : x y z
#
# Youngs Moduli (GPa) = 108.98193 57.48302 114.01607
#
# Poissons Ratio (x) = 0.00259 0.32747
# Poissons Ratio (y) = 0.00492 0.03881
# Poissons Ratio (z) = 0.31301 0.01957
#
# Static dielectric constant tensor:
#      x y z
#    x 1.988320 0.000000 -0.084990 
#    y 0.000000 1.689110 0.000000 
#    z -0.084990 0.000000 1.896440 
# 
# From -- ./inp_files/63822.got.cif
#   From: 2010.05.17/outbox.cif.g08.bks.cpg/sg10_32_cif.got.tgz:63822.got - 2010.06.03 11:33:40.
