data_PCOD9147294
_publ_section_title
;
Structure prediction by ZEFSAII (Michael W. Deem and Ramdas Pophale) SiO2 
 PCOD9147294
Probable space group: P 2/M
;
_chemical_formula_sum "Si O2"
_cell_formula_units_Z 26
_cell_length_a 8.503401
_cell_length_b 7.349516
_cell_length_c 20.168553
_cell_angle_alpha 90.000000
_cell_angle_beta 123.056875
_cell_angle_gamma 90.000000
_cell_volume 1056.421607
_symmetry_space_group_name_H-M "P 2/M"
_symmetry_group_IT_number 10
_symmetry_cell_setting 'monoclinic'
loop_
_space_group_symop_operation_xyz
x,y,z
-x,y,-z
-x,-y,-z
x,-y,z
loop_
_atom_site_type_symbol
_atom_site_label
_atom_site_fract_x
_atom_site_fract_y
_atom_site_fract_z
Si Si1 0.337680 0.200140 0.265339
Si Si2 0.321443 0.711092 0.007883
Si Si3 0.616601 0.000000 0.860151
Si Si4 0.288232 0.721806 0.462530
Si Si5 0.265128 0.293617 0.601587
Si Si6 0.912600 0.293476 0.164274
Si Si7 0.919512 0.277749 0.307534
O O1 0.509578 0.296011 0.340620
O O2 0.136660 0.293339 0.220095
O O3 0.315746 0.000000 0.291517
O O4 0.389603 0.156296 0.201170
O O5 0.286715 0.500000 0.020039
O O6 0.154327 0.782829 0.921172
O O7 0.356798 0.840980 0.077158
O O8 0.500000 0.714818 0.000000
O O9 0.500000 0.784073 0.500000
O O10 0.293134 0.500000 0.466105
O O11 0.218756 0.784827 0.519122
O O12 0.135624 0.769221 0.372313
O O13 0.192540 0.500000 0.584957
O O14 0.190739 0.211897 0.652997
O O15 0.839995 0.500000 0.146348
O O16 0.848330 0.209719 0.219760
O O17 0.906857 0.500000 0.301289
#
# Coordination Sequence:
#
# PCOD9147294 Si02
#       7
#     4   4   2   4   4   4   4
#     4  10  24  39  56  84 118 159 202 248 307 367
#     4  10  23  42  67  97 128 162 208 260 319 381
#     4  10  25  43  64  92 125 171 204 268 310 380
#     4   9  16  28  53  88 123 157 196 247 308 369
#     4  10  19  34  59  87 121 158 201 255 304 367
#     4  10  21  38  61  87 118 158 203 256 313 377
#     4   9  18  32  56  90 121 152 199 253 310 370
#
# _framework density 24.611387000000001
#
# number of rings (size 3 to 8) (size 9 to 14) (size 15 to 20)
#    0.462    1.846    0.000    2.077    3.231    6.769 
#    0.000    2.308    0.000    6.000    0.000    0.000 
#    0.000    0.000    0.000    0.000    0.000    0.000 
#
# Total GULP energy -144748.058204 kJ/mol
# GULP energy per Si atom -5567.233008 kJ/mol
# Density = 2.455537 g / cm^3
# Si number density = 24.611387 Si / 1000 Ang^3
#
#
#
# Elastic Constant Matrix: (Units=GPa)
#
#
# Indices 1 2 3 4 5 6 
#
# 1 46.6785 2.6901 22.4065 0.0000 -4.4414 0.0000
# 2 2.6901 117.0212 21.2548 0.0000 -17.6448 0.0000
# 3 22.4065 21.2548 115.1177 0.0000 -24.5721 0.0000
# 4 0.0000 0.0000 0.0000 -29.1031 0.0000 -43.6359
# 5 -4.4414 -17.6448 -24.5721 0.0000 52.1905 0.0000
# 6 0.0000 0.0000 0.0000 -43.6359 0.0000 -98.1685
#
#
#
# Elastic Compliance Matrix: (Units=1/GPa)
#
#
# Indices 1 2 3 4 5 6 
#
# 1 0.023642 0.000292 -0.004675 0.000000 -0.000090 0.000000
# 2 0.000292 0.009141 -0.001200 0.000000 0.002550 0.000000
# 3 -0.004675 -0.001200 0.010725 0.000000 0.004246 0.000000
# 4 0.000000 0.000000 0.000000 -0.103019 0.000000 0.045792
# 5 -0.000090 0.002550 0.004246 0.000000 0.022014 0.000000
# 6 0.000000 0.000000 0.000000 0.045792 0.000000 -0.030541
#
#
# Mechanical properties :
#
#
# Convention : Reuss Voigt Hill
#
# Bulk Modulus (GPa) = 30.92019 41.28001 36.10010
# Shear Modulus (GPa) = -108.47972 0.48151 -53.99910
#
# Velocity S-wave (km/s) = -6.64626 0.44280 -4.68917
# Velocity P-wave (km/s) = 6.80488 4.13165 3.82333
#
# Compressibility (1/GPa) = 0.03234133
#
# Stress axis : x y z
#
# Youngs Moduli (GPa) = 42.29813 109.39377 93.24424
#
# Poissons Ratio (x) = -0.03194 0.43590
# Poissons Ratio (y) = -0.01235 0.11192
# Poissons Ratio (z) = 0.19774 0.13130
#
# Static dielectric constant tensor:
#      x y z
#    x 1.996960 0.000000 0.025870 
#    y 0.000000 1.932860 0.000000 
#    z 0.025870 0.000000 1.970040 
# 
# From -- ./inp_files/82235.got.cif
#   From: 2010.05.17/outbox.cif.g08.bks.cpg/sg10_42_cif.got.tgz:82235.got - 2010.06.03 11:33:40.
