data_PCOD9147377
_publ_section_title
;
Structure prediction by ZEFSAII (Michael W. Deem and Ramdas Pophale) SiO2 
 PCOD9147377
Probable space group: P 2/M
;
_chemical_formula_sum "Si O2"
_cell_formula_units_Z 28
_cell_length_a 28.139617
_cell_length_b 9.043588
_cell_length_c 21.663017
_cell_angle_alpha 90.000000
_cell_angle_beta 163.224797
_cell_angle_gamma 90.000000
_cell_volume 1591.111007
_symmetry_space_group_name_H-M "P 2/M"
_symmetry_group_IT_number 10
_symmetry_cell_setting 'monoclinic'
loop_
_space_group_symop_operation_xyz
x,y,z
-x,y,-z
-x,-y,-z
x,-y,z
loop_
_atom_site_type_symbol
_atom_site_label
_atom_site_fract_x
_atom_site_fract_y
_atom_site_fract_z
Si Si1 0.516561 0.677753 0.614497
Si Si2 0.517163 0.824352 0.164430
Si Si3 0.962712 0.331446 0.881150
Si Si4 0.259544 0.174529 0.203273
Si Si5 0.163114 0.822146 0.664325
Si Si6 0.419775 0.672279 0.628698
Si Si7 0.681713 0.671310 0.257489
O O1 0.504275 0.500000 0.591990
O O2 0.671129 0.744201 0.770784
O O3 0.362042 0.753279 0.387503
O O4 0.516958 0.712372 0.687283
O O5 0.542319 0.768945 0.264912
O O6 0.649084 0.749978 0.282211
O O7 0.534433 0.000000 0.181282
O O8 0.330830 0.786895 0.910609
O O9 0.013933 0.500000 0.928670
O O10 0.771351 0.316435 0.628396
O O11 0.000000 0.313192 0.000000
O O12 0.071081 0.214543 0.979440
O O13 0.289213 0.000000 0.237722
O O14 0.192584 0.748250 0.633952
O O15 0.000000 0.776937 0.500000
O O16 0.844345 0.000000 0.352840
O O17 0.452952 0.500000 0.684652
O O18 0.725459 0.500000 0.320354
O O19 0.500000 0.678411 0.000000
#
# Coordination Sequence:
#
# PCOD9147377 Si02
#       7
#     4   4   4   4   4   4   4
#     4  10  19  35  55  73  98 140 181 216 264 323
#     4  10  20  34  54  79 109 142 174 214 268 322
#     4  10  19  36  56  75  99 135 180 220 263 320
#     4  11  21  32  50  79 106 130 169 225 276 318
#     4   9  18  34  56  82 110 142 178 214 258 313
#     4  10  21  36  56  78 103 137 180 224 266 316
#     4   9  17  31  53  79 107 139 177 216 252 301
#
# _framework density 17.597767000000001
#
# number of rings (size 3 to 8) (size 9 to 14) (size 15 to 20)
#    0.000    2.143    1.429    3.429    0.000    4.571 
#    0.000    1.429    0.000    3.429    0.000    0.000 
#    0.000    0.000    0.000    0.000    0.000    0.000 
#
# Total GULP energy -156172.696045 kJ/mol
# GULP energy per Si atom -5577.596287 kJ/mol
# Density = 1.755771 g / cm^3
# Si number density = 17.597767 Si / 1000 Ang^3
#
#
#
# Elastic Constant Matrix: (Units=GPa)
#
#
# Indices 1 2 3 4 5 6 
#
# 1 150.6118 71.6642 38.5246 0.0000 6.0234 0.0000
# 2 71.6642 76.4438 27.1770 0.0000 2.7436 0.0000
# 3 38.5246 27.1770 33.4067 0.0000 5.4233 0.0000
# 4 0.0000 0.0000 0.0000 12.3243 0.0000 2.3630
# 5 6.0234 2.7436 5.4233 0.0000 27.9299 0.0000
# 6 0.0000 0.0000 0.0000 2.3630 0.0000 24.9473
#
#
#
# Elastic Compliance Matrix: (Units=1/GPa)
#
#
# Indices 1 2 3 4 5 6 
#
# 1 0.013120 -0.009752 -0.007117 0.000000 -0.000490 0.000000
# 2 -0.009752 0.025687 -0.009895 0.000000 0.001501 0.000000
# 3 -0.007117 -0.009895 0.047275 0.000000 -0.006673 0.000000
# 4 0.000000 0.000000 0.000000 0.082641 0.000000 -0.007828
# 5 -0.000490 0.001501 -0.006673 0.000000 0.037058 0.000000
# 6 0.000000 0.000000 0.000000 -0.007828 0.000000 0.040826
#
#
# Mechanical properties :
#
#
# Convention : Reuss Voigt Hill
#
# Bulk Modulus (GPa) = 30.71829 59.46599 45.09214
# Shear Modulus (GPa) = 16.07791 21.24675 18.66233
#
# Velocity S-wave (km/s) = 3.02592 3.47847 3.26006
# Velocity P-wave (km/s) = 5.44995 7.07094 6.31269
#
# Compressibility (1/GPa) = 0.03255390
#
# Stress axis : x y z
#
# Youngs Moduli (GPa) = 76.22205 38.92960 21.15295
#
# Poissons Ratio (x) = 0.37962 0.15054
# Poissons Ratio (y) = 0.74328 0.20932
# Poissons Ratio (z) = 0.54247 0.38522
#
# Static dielectric constant tensor:
#      x y z
#    x 1.597580 0.000000 0.015160 
#    y 0.000000 1.593670 0.000000 
#    z 0.015160 0.000000 1.605460 
# 
# From -- ./inp_files/86687.got.cif
#   From: 2010.05.17/outbox.cif.g08.bks.cpg/sg10_44_cif.got.tgz:86687.got - 2010.06.03 11:33:40.
