data_PCOD9147866
_publ_section_title
;
Structure prediction by ZEFSAII (Michael W. Deem and Ramdas Pophale) SiO2 
 PCOD9147866
Probable space group: P 2/M
;
_chemical_formula_sum "Si O2"
_cell_formula_units_Z 32
_cell_length_a 14.900641
_cell_length_b 8.722389
_cell_length_c 13.171975
_cell_angle_alpha 90.000000
_cell_angle_beta 78.429678
_cell_angle_gamma 90.000000
_cell_volume 1677.162796
_symmetry_space_group_name_H-M "P 2/M"
_symmetry_group_IT_number 10
_symmetry_cell_setting 'monoclinic'
loop_
_space_group_symop_operation_xyz
x,y,z
-x,y,-z
-x,-y,-z
x,-y,z
loop_
_atom_site_type_symbol
_atom_site_label
_atom_site_fract_x
_atom_site_fract_y
_atom_site_fract_z
Si Si1 0.850617 0.822531 0.284038
Si Si2 0.895299 0.184685 0.044681
Si Si3 0.717024 0.318106 0.002002
Si Si4 0.903509 0.681843 0.476170
Si Si5 0.374963 0.184852 0.177955
Si Si6 0.577910 0.185847 0.196072
Si Si7 0.637094 0.177227 0.395246
Si Si8 0.709923 0.814270 0.586873
O O1 0.870318 0.772182 0.165693
O O2 0.899033 0.722334 0.358346
O O3 0.742117 0.820429 0.331405
O O4 0.880406 0.000000 0.288023
O O5 0.886831 0.000000 0.038091
O O6 0.821005 0.260105 0.988431
O O7 0.000000 0.226900 0.000000
O O8 0.671120 0.259423 0.908988
O O9 0.631458 0.000000 0.830290
O O10 0.659992 0.249517 0.109606
O O11 0.896645 0.500000 0.492893
O O12 0.813486 0.759081 0.544984
O O13 0.000000 0.735978 0.500000
O O14 0.286322 0.500000 0.992629
O O15 0.481952 0.224236 0.165170
O O16 0.326857 0.229890 0.294693
O O17 0.581091 0.242159 0.312522
O O18 0.586311 0.000000 0.197424
O O19 0.646345 0.242566 0.506953
O O20 0.606937 0.000000 0.413566
O O21 0.709290 0.000000 0.580799
#
# Coordination Sequence:
#
# PCOD9147866 Si02
#       8
#     4   4   4   4   4   4   4   4
#     4   9  17  33  56  81 108 139 180 233 283 332
#     4  10  21  39  63  88 112 143 189 243 296 344
#     4  12  25  39  57  82 119 159 195 238 287 348
#     4  10  21  35  53  79 111 150 191 228 275 339
#     4  10  22  38  59  85 116 155 197 243 291 343
#     4  10  19  36  62  87 113 150 196 243 290 342
#     4   8  14  29  56  84 109 137 175 230 284 333
#     4   9  19  36  56  83 114 145 188 237 291 344
#
# _framework density 19.079839
#
# number of rings (size 3 to 8) (size 9 to 14) (size 15 to 20)
#    0.000    2.250    1.250    2.625    0.000    5.750 
#    0.000    6.250    0.000    0.000    0.000    3.500 
#    0.000    0.000    0.000    0.000    0.000    0.000 
#
# Total GULP energy -178570.422188 kJ/mol
# GULP energy per Si atom -5580.325693 kJ/mol
# Density = 1.903641 g / cm^3
# Si number density = 19.079839 Si / 1000 Ang^3
#
#
#
# Elastic Constant Matrix: (Units=GPa)
#
#
# Indices 1 2 3 4 5 6 
#
# 1 109.2600 28.9493 46.5584 0.0000 24.2296 0.0000
# 2 28.9493 17.8516 18.7390 0.0000 6.9348 0.0000
# 3 46.5584 18.7390 85.8513 0.0000 15.1308 0.0000
# 4 0.0000 0.0000 0.0000 -21.9859 0.0000 -27.6706
# 5 24.2296 6.9348 15.1308 0.0000 31.0600 0.0000
# 6 0.0000 0.0000 0.0000 -27.6706 0.0000 -31.4499
#
#
#
# Elastic Compliance Matrix: (Units=1/GPa)
#
#
# Indices 1 2 3 4 5 6 
#
# 1 0.018553 -0.023353 -0.003645 0.000000 -0.007483 0.000000
# 2 -0.023353 0.104602 -0.010132 0.000000 -0.000202 0.000000
# 3 -0.003645 -0.010132 0.016339 0.000000 -0.002854 0.000000
# 4 0.000000 0.000000 0.000000 0.423806 0.000000 -0.372878
# 5 -0.007483 -0.000202 -0.002854 0.000000 0.039468 0.000000
# 6 0.000000 0.000000 0.000000 -0.372878 0.000000 0.296273
#
#
# Mechanical properties :
#
#
# Convention : Reuss Voigt Hill
#
# Bulk Modulus (GPa) = 15.32936 44.60626 29.96781
# Shear Modulus (GPa) = 5.02489 3.43923 4.23206
#
# Velocity S-wave (km/s) = 1.62460 1.34405 1.49094
# Velocity P-wave (km/s) = 3.40160 5.08312 4.32487
#
# Compressibility (1/GPa) = 0.06523431
#
# Stress axis : x y z
#
# Youngs Moduli (GPa) = 53.90011 9.56005 61.20178
#
# Poissons Ratio (x) = 0.22326 0.22310
# Poissons Ratio (y) = 1.25873 0.62007
# Poissons Ratio (z) = 0.19648 0.09686
#
# Static dielectric constant tensor:
#      x y z
#    x 1.657060 0.000000 0.008470 
#    y 0.000000 1.642210 0.000000 
#    z 0.008470 0.000000 1.671630 
# 
# From -- ./inp_files/49922.got.cif
#   From: 2010.05.17/outbox.cif.g08.bks.cpg/sg10_25_cif.got.tgz:49922.got - 2010.06.03 11:33:40.
