data_PCOD9147650
_publ_section_title
;
Structure prediction by ZEFSAII (Michael W. Deem and Ramdas Pophale) SiO2 
 PCOD9147650
Probable space group: P 2/M
;
_chemical_formula_sum "Si O2"
_cell_formula_units_Z 28
_cell_length_a 16.990152
_cell_length_b 7.631364
_cell_length_c 13.686046
_cell_angle_alpha 90.000000
_cell_angle_beta 136.541562
_cell_angle_gamma 90.000000
_cell_volume 1220.555168
_symmetry_space_group_name_H-M "P 2/M"
_symmetry_group_IT_number 10
_symmetry_cell_setting 'monoclinic'
loop_
_space_group_symop_operation_xyz
x,y,z
-x,y,-z
-x,-y,-z
x,-y,z
loop_
_atom_site_type_symbol
_atom_site_label
_atom_site_fract_x
_atom_site_fract_y
_atom_site_fract_z
Si Si1 0.811799 0.212312 0.177837
Si Si2 0.837641 0.787177 0.417821
Si Si3 0.635855 0.201947 0.366873
Si Si4 0.977009 0.788875 0.734576
Si Si5 0.119738 0.697919 0.149894
Si Si6 0.547567 0.294592 0.939123
Si Si7 0.625678 0.789785 0.576126
O O1 0.854059 0.275796 0.322756
O O2 0.891542 0.266905 0.159490
O O3 0.816911 0.000000 0.183047
O O4 0.681981 0.268621 0.054183
O O5 0.717914 0.724901 0.356270
O O6 0.925056 0.744644 0.582239
O O7 0.838675 0.000000 0.410622
O O8 0.511840 0.207783 0.207408
O O9 0.640518 0.280486 0.478598
O O10 0.673696 0.000000 0.412776
O O11 0.906902 0.706002 0.758594
O O12 0.969122 0.000000 0.740544
O O13 0.120347 0.500000 0.112696
O O14 0.252221 0.760358 0.258417
O O15 0.000000 0.782418 0.000000
O O16 0.519919 0.500000 0.910575
O O17 0.500000 0.223661 0.000000
O O18 0.500000 0.726251 0.500000
O O19 0.614568 0.000000 0.560912
#
# Coordination Sequence:
#
# PCOD9147650 Si02
#       7
#     4   4   4   4   4   4   4
#     4  10  20  34  57  86 117 154 193 238 290 345
#     4   9  16  31  57  86 114 144 185 236 284 338
#     4  10  19  35  61  86 111 148 192 237 290 347
#     4  10  20  37  61  89 116 147 194 244 292 345
#     4  11  25  43  63  89 124 164 202 243 302 369
#     4  11  23  36  51  77 117 159 198 239 284 339
#     4  10  22  42  68  96 121 149 198 260 311 359
#
# _framework density 22.940380000000001
#
# number of rings (size 3 to 8) (size 9 to 14) (size 15 to 20)
#    0.000    1.857    2.857    1.286    0.000    6.000 
#    0.000    5.000    0.000    1.714    0.000    0.000 
#    0.000    0.000    0.000    0.000    0.000    0.000 
#
# Total GULP energy -156151.763660 kJ/mol
# GULP energy per Si atom -5576.848702 kJ/mol
# Density = 2.288817 g / cm^3
# Si number density = 22.940380 Si / 1000 Ang^3
#
#
#
# Elastic Constant Matrix: (Units=GPa)
#
#
# Indices 1 2 3 4 5 6 
#
# 1 100.5935 4.2028 40.6073 0.0000 29.0964 0.0000
# 2 4.2028 46.8590 -5.2555 0.0000 -0.4316 0.0000
# 3 40.6073 -5.2555 106.9204 0.0000 21.5088 0.0000
# 4 0.0000 0.0000 0.0000 29.1460 0.0000 15.3707
# 5 29.0964 -0.4316 21.5088 0.0000 30.8380 0.0000
# 6 0.0000 0.0000 0.0000 15.3707 0.0000 -13.8450
#
#
#
# Elastic Compliance Matrix: (Units=1/GPa)
#
#
# Indices 1 2 3 4 5 6 
#
# 1 0.014716 -0.001802 -0.003349 0.000000 -0.011574 0.000000
# 2 -0.001802 0.021686 0.001567 0.000000 0.000911 0.000000
# 3 -0.003349 0.001567 0.011704 0.000000 -0.004981 0.000000
# 4 0.000000 0.000000 0.000000 0.021640 0.000000 0.024025
# 5 -0.011574 0.000911 -0.004981 0.000000 0.046835 0.000000
# 6 0.000000 0.000000 0.000000 0.024025 0.000000 -0.045556
#
#
# Mechanical properties :
#
#
# Convention : Reuss Voigt Hill
#
# Bulk Modulus (GPa) = 24.42724 37.05355 30.74040
# Shear Modulus (GPa) = 54.44249 23.54903 38.99576
#
# Velocity S-wave (km/s) = 4.87685 3.20743 4.12743
# Velocity P-wave (km/s) = 6.51021 5.46845 6.01194
#
# Compressibility (1/GPa) = 0.04093790
#
# Stress axis : x y z
#
# Youngs Moduli (GPa) = 67.95268 46.11186 85.44201
#
# Poissons Ratio (x) = 0.08310 0.28617
# Poissons Ratio (y) = 0.12246 -0.13390
# Poissons Ratio (z) = 0.22759 -0.07226
#
# Static dielectric constant tensor:
#      x y z
#    x 1.869010 0.000000 0.042880 
#    y 0.000000 1.892360 0.000000 
#    z 0.042880 0.000000 1.907380 
# 
# From -- ./inp_files/68664.got.cif
#   From: 2010.05.17/outbox.cif.g08.bks.cpg/sg10_35_cif.got.tgz:68664.got - 2010.06.03 11:33:40.
