data_PCOD9147199
_publ_section_title
;
Structure prediction by ZEFSAII (Michael W. Deem and Ramdas Pophale) SiO2 
 PCOD9147199
Probable space group: P 2/M
;
_chemical_formula_sum "Si O2"
_cell_formula_units_Z 24
_cell_length_a 6.613898
_cell_length_b 14.121956
_cell_length_c 14.177471
_cell_angle_alpha 90.000000
_cell_angle_beta 79.434037
_cell_angle_gamma 90.000000
_cell_volume 1301.740065
_symmetry_space_group_name_H-M "P 2/M"
_symmetry_group_IT_number 10
_symmetry_cell_setting 'monoclinic'
loop_
_space_group_symop_operation_xyz
x,y,z
-x,y,-z
-x,-y,-z
x,-y,z
loop_
_atom_site_type_symbol
_atom_site_label
_atom_site_fract_x
_atom_site_fract_y
_atom_site_fract_z
Si Si1 0.187892 0.755015 0.262417
Si Si2 0.523620 0.231461 0.386748
Si Si3 0.166576 0.391446 0.713438
Si Si4 0.222794 0.602385 0.933847
Si Si5 0.437152 0.794458 0.909742
Si Si6 0.186931 0.111748 0.762613
O O1 0.306079 0.765945 0.351261
O O2 0.367658 0.762517 0.169428
O O3 0.054921 0.658877 0.277818
O O4 0.022840 0.835104 0.247944
O O5 0.500000 0.224505 0.500000
O O6 0.660593 0.324322 0.348263
O O7 0.649670 0.144411 0.330670
O O8 0.169919 0.500000 0.679400
O O9 0.208138 0.392021 0.821879
O O10 0.319197 0.500000 0.948098
O O11 0.329345 0.698579 0.953946
O O12 0.000000 0.602269 0.000000
O O13 0.282059 0.848833 0.852739
O O14 0.500000 0.848471 0.000000
O O15 0.161198 0.000000 0.769050
#
# Coordination Sequence:
#
# PCOD9147199 Si02
#       6
#     4   4   4   4   4   4
#     4  10  20  39  59  85 115 161 192 248 292 354
#     4  10  22  41  63  88 118 154 196 246 303 356
#     4  10  20  36  57  87 124 160 200 242 286 344
#     4  10  19  34  57  87 122 158 198 237 279 337
#     4  11  22  36  62  87 122 161 199 240 295 346
#     4  10  23  42  60  86 116 149 197 252 303 358
#
# _framework density 18.436861
#
# number of rings (size 3 to 8) (size 9 to 14) (size 15 to 20)
#    0.000    1.833    5.000    1.000    0.000    8.000 
#    0.000    2.500    0.000    0.000    0.000    0.000 
#    0.000    0.000    0.000    0.000    0.000    0.000 
#
# Total GULP energy -133838.353722 kJ/mol
# GULP energy per Si atom -5576.598072 kJ/mol
# Density = 1.839490 g / cm^3
# Si number density = 18.436861 Si / 1000 Ang^3
#
#
#
# Elastic Constant Matrix: (Units=GPa)
#
#
# Indices 1 2 3 4 5 6 
#
# 1 110.7114 41.8240 35.1667 0.0000 22.1238 0.0000
# 2 41.8240 122.9730 16.8449 0.0000 5.9972 0.0000
# 3 35.1667 16.8449 115.4840 0.0000 25.3857 0.0000
# 4 0.0000 0.0000 0.0000 -0.9316 0.0000 -21.5166
# 5 22.1238 5.9972 25.3857 0.0000 21.4394 0.0000
# 6 0.0000 0.0000 0.0000 -21.5166 0.0000 -4.5857
#
#
#
# Elastic Compliance Matrix: (Units=1/GPa)
#
#
# Indices 1 2 3 4 5 6 
#
# 1 0.012992 -0.003742 -0.000938 0.000000 -0.011250 0.000000
# 2 -0.003742 0.009398 -0.000679 0.000000 0.002036 0.000000
# 3 -0.000938 -0.000679 0.011882 0.000000 -0.012912 0.000000
# 4 0.000000 0.000000 0.000000 0.009997 0.000000 -0.046909
# 5 -0.011250 0.002036 -0.012912 0.000000 0.072971 0.000000
# 6 0.000000 0.000000 0.000000 -0.046909 0.000000 0.002031
#
#
# Mechanical properties :
#
#
# Convention : Reuss Voigt Hill
#
# Bulk Modulus (GPa) = 42.45262 59.64883 51.05072
# Shear Modulus (GPa) = 36.27413 20.20661 28.24037
#
# Velocity S-wave (km/s) = 4.44044 3.31416 3.91798
# Velocity P-wave (km/s) = 7.02609 6.86063 6.94385
#
# Compressibility (1/GPa) = 0.02355567
#
# Stress axis : x y z
#
# Youngs Moduli (GPa) = 76.97130 106.40432 84.16098
#
# Poissons Ratio (x) = 0.39812 0.07890
# Poissons Ratio (y) = 0.28799 0.05715
# Poissons Ratio (z) = 0.07216 0.07226
#
# Static dielectric constant tensor:
#      x y z
#    x 1.667420 0.000000 0.026840 
#    y 0.000000 1.637900 0.000000 
#    z 0.026840 0.000000 1.625330 
# 
# From -- ./inp_files/9222.got.cif
#   From: 2010.05.17/outbox.cif.g08.bks.cpg/sg10_5_cif.got.tgz:9222.got - 2010.06.03 11:33:40.
