data_PCOD9147219
_publ_section_title
;
Structure prediction by ZEFSAII (Michael W. Deem and Ramdas Pophale) SiO2 
 PCOD9147219
Probable space group: P 2/M
;
_chemical_formula_sum "Si O2"
_cell_formula_units_Z 24
_cell_length_a 15.553210
_cell_length_b 7.565210
_cell_length_c 15.361616
_cell_angle_alpha 90.000000
_cell_angle_beta 140.396588
_cell_angle_gamma 90.000000
_cell_volume 1152.225794
_symmetry_space_group_name_H-M "P 2/M"
_symmetry_group_IT_number 10
_symmetry_cell_setting 'monoclinic'
loop_
_space_group_symop_operation_xyz
x,y,z
-x,y,-z
-x,-y,-z
x,-y,z
loop_
_atom_site_type_symbol
_atom_site_label
_atom_site_fract_x
_atom_site_fract_y
_atom_site_fract_z
Si Si1 0.870141 0.707147 0.134799
Si Si2 0.414148 0.785571 0.848901
Si Si3 0.409065 0.204612 0.170739
Si Si4 0.378927 0.783360 0.342951
Si Si5 0.892466 0.290967 0.347338
Si Si6 0.922257 0.786193 0.851901
O O1 0.837475 0.500000 0.117764
O O2 0.897258 0.780732 0.252438
O O3 0.996583 0.727534 0.169567
O O4 0.739044 0.790790 0.987688
O O5 0.486577 0.719114 0.817846
O O6 0.259521 0.731691 0.737391
O O7 0.419156 0.000000 0.852603
O O8 0.500000 0.726439 0.000000
O O9 0.401012 0.280293 0.261346
O O10 0.448554 0.000000 0.212892
O O11 0.500000 0.729307 0.500000
O O12 0.232348 0.727465 0.262834
O O13 0.376204 0.000000 0.339195
O O14 0.921956 0.500000 0.362587
O O15 0.000000 0.216467 0.500000
O O16 0.924194 0.000000 0.853436
O O17 0.000000 0.727804 0.000000
#
# Coordination Sequence:
#
# PCOD9147219 Si02
#       6
#     4   4   4   4   4   4
#     4  11  22  35  56  83 109 144 188 230 273 322
#     4  10  20  34  58  88 112 139 182 237 284 325
#     4  10  19  35  57  81 111 142 180 227 275 329
#     4   9  18  33  54  80 109 140 176 217 266 326
#     4  10  23  41  57  78 114 155 190 228 279 338
#     4  10  19  34  58  84 108 143 182 221 272 326
#
# _framework density 20.829250999999999
#
# number of rings (size 3 to 8) (size 9 to 14) (size 15 to 20)
#    0.000    2.000    3.333    0.500    0.000    3.667 
#    0.000    1.667    0.000    2.000    0.000    0.000 
#    0.000    0.000    0.000    0.000    0.000    0.000 
#
# Total GULP energy -134069.103758 kJ/mol
# GULP energy per Si atom -5586.212657 kJ/mol
# Density = 2.078184 g / cm^3
# Si number density = 20.829251 Si / 1000 Ang^3
#
#
#
# Elastic Constant Matrix: (Units=GPa)
#
#
# Indices 1 2 3 4 5 6 
#
# 1 195.1160 -14.8271 98.9252 0.0000 -14.6885 0.0000
# 2 -14.8271 44.4993 -9.7873 0.0000 -6.3004 0.0000
# 3 98.9252 -9.7873 181.7660 0.0000 -6.6563 0.0000
# 4 0.0000 0.0000 0.0000 6.4188 0.0000 7.2813
# 5 -14.6885 -6.3004 -6.6563 0.0000 33.5124 0.0000
# 6 0.0000 0.0000 0.0000 7.2813 0.0000 20.0454
#
#
#
# Elastic Compliance Matrix: (Units=1/GPa)
#
#
# Indices 1 2 3 4 5 6 
#
# 1 0.007442 0.002045 -0.003834 0.000000 0.002885 0.000000
# 2 0.002045 0.024014 0.000381 0.000000 0.005487 0.000000
# 3 -0.003834 0.000381 0.007605 0.000000 -0.000098 0.000000
# 4 0.000000 0.000000 0.000000 0.264977 0.000000 -0.096250
# 5 0.002885 0.005487 -0.000098 0.000000 0.032116 0.000000
# 6 0.000000 0.000000 0.000000 -0.096250 0.000000 0.084848
#
#
# Mechanical properties :
#
#
# Convention : Reuss Voigt Hill
#
# Bulk Modulus (GPa) = 27.59067 63.33366 45.46216
# Shear Modulus (GPa) = 11.47050 35.13336 23.30193
#
# Velocity S-wave (km/s) = 2.34923 4.11144 3.34834
# Velocity P-wave (km/s) = 4.54240 7.28084 6.06812
#
# Compressibility (1/GPa) = 0.03624414
#
# Stress axis : x y z
#
# Youngs Moduli (GPa) = 134.37698 41.64206 131.48627
#
# Poissons Ratio (x) = -0.08514 0.50417
# Poissons Ratio (y) = -0.27475 -0.05012
# Poissons Ratio (z) = 0.51526 -0.01587
#
# Static dielectric constant tensor:
#      x y z
#    x 1.723960 0.000000 -0.026760 
#    y 0.000000 1.801270 0.000000 
#    z -0.026760 0.000000 1.706670 
# 
# From -- ./inp_files/66305.got.cif
#   From: 2010.05.17/outbox.cif.g08.bks.cpg/sg10_34_cif.got.tgz:66305.got - 2010.06.03 11:33:40.
