data_PCOD9147070
_publ_section_title
;
Structure prediction by ZEFSAII (Michael W. Deem and Ramdas Pophale) SiO2 
 PCOD9147070
Probable space group: P 2/M
;
_chemical_formula_sum "Si O2"
_cell_formula_units_Z 32
_cell_length_a 14.688013
_cell_length_b 23.259541
_cell_length_c 8.428022
_cell_angle_alpha 90.000000
_cell_angle_beta 33.013695
_cell_angle_gamma 90.000000
_cell_volume 1568.766907
_symmetry_space_group_name_H-M "P 2/M"
_symmetry_group_IT_number 10
_symmetry_cell_setting 'monoclinic'
loop_
_space_group_symop_operation_xyz
x,y,z
-x,y,-z
-x,-y,-z
x,-y,z
loop_
_atom_site_type_symbol
_atom_site_label
_atom_site_fract_x
_atom_site_fract_y
_atom_site_fract_z
Si Si1 0.671834 0.131557 0.806412
Si Si2 0.680608 0.621233 0.793213
Si Si3 0.345355 0.434896 0.837085
Si Si4 0.995811 0.933792 0.700170
Si Si5 0.227635 0.746677 0.336411
Si Si6 0.958236 0.387050 0.877302
Si Si7 0.842320 0.738393 0.934732
Si Si8 0.683730 0.855930 0.172347
O O1 0.831100 0.097179 0.510909
O O2 0.679950 0.197423 0.738052
O O3 0.500000 0.104361 0.000000
O O4 0.680215 0.139098 0.985045
O O5 0.694820 0.687596 0.715851
O O6 0.864945 0.600875 0.468190
O O7 0.500000 0.598096 0.000000
O O8 0.674879 0.608257 0.987789
O O9 0.500000 0.418642 0.500000
O O10 0.373417 0.500000 0.855496
O O11 0.178183 0.432477 0.978006
O O12 0.000000 0.932942 0.500000
O O13 0.989129 0.000000 0.759977
O O14 0.835931 0.898216 0.994130
O O15 0.216407 0.736096 0.162806
O O16 0.034630 0.758419 0.660085
O O17 0.866895 0.325526 0.969989
O O18 0.000000 0.387436 0.000000
O O19 0.729820 0.790941 0.163338
O O20 0.500000 0.871804 0.500000
#
# Coordination Sequence:
#
# PCOD9147070 Si02
#       8
#     4   4   4   4   4   4   4   4
#     4  10  19  34  56  84 114 150 198 246 294 360
#     4  11  22  39  63  94 125 161 206 253 307 367
#     4  11  25  45  67  92 125 165 207 254 304 361
#     4   9  18  35  59  81 111 159 203 243 290 357
#     4   9  16  33  59  82 113 155 195 241 296 358
#     4  11  23  41  63  92 125 163 207 254 309 366
#     4   9  17  34  56  82 116 154 192 240 301 361
#     4  10  20  36  55  83 116 153 197 245 302 358
#
# _framework density 20.398187
#
# number of rings (size 3 to 8) (size 9 to 14) (size 15 to 20)
#    0.000    2.000    2.500    1.500    0.000    2.500 
#    9.000    0.625    0.000    0.750    0.000    0.000 
#    0.000    0.000    0.000    0.000    0.000    0.000 
#
# Total GULP energy -178229.964663 kJ/mol
# GULP energy per Si atom -5569.686396 kJ/mol
# Density = 2.035176 g / cm^3
# Si number density = 20.398187 Si / 1000 Ang^3
#
#
#
# Elastic Constant Matrix: (Units=GPa)
#
#
# Indices 1 2 3 4 5 6 
#
# 1 58.5375 13.3176 29.3520 0.0000 -25.7053 0.0000
# 2 13.3176 66.0764 50.5560 0.0000 -7.2280 0.0000
# 3 29.3520 50.5560 144.0671 0.0000 -26.0930 0.0000
# 4 0.0000 0.0000 0.0000 10.9602 0.0000 82.7096
# 5 -25.7053 -7.2280 -26.0930 0.0000 25.4263 0.0000
# 6 0.0000 0.0000 0.0000 82.7096 0.0000 -219.1976
#
#
#
# Elastic Compliance Matrix: (Units=1/GPa)
#
#
# Indices 1 2 3 4 5 6 
#
# 1 0.031277 -0.003193 0.000382 0.000000 0.031104 0.000000
# 2 -0.003193 0.021092 -0.007677 0.000000 -0.005110 0.000000
# 3 0.000382 -0.007677 0.011340 0.000000 0.009841 0.000000
# 4 0.000000 0.000000 0.000000 0.023714 0.000000 0.008948
# 5 0.031104 -0.005110 0.009841 0.000000 0.079420 0.000000
# 6 0.000000 0.000000 0.000000 0.008948 0.000000 -0.001186
#
#
# Mechanical properties :
#
#
# Convention : Reuss Voigt Hill
#
# Bulk Modulus (GPa) = 23.40183 50.57025 36.98604
# Shear Modulus (GPa) = 24.89085 -24.86517 0.01284
#
# Velocity S-wave (km/s) = 3.49700 -3.49519 0.07943
# Velocity P-wave (km/s) = 5.27283 2.92522 4.26378
#
# Compressibility (1/GPa) = 0.04273170
#
# Stress axis : x y z
#
# Youngs Moduli (GPa) = 31.97286 47.41115 88.18658
#
# Poissons Ratio (x) = 0.15141 -0.03367
# Poissons Ratio (y) = 0.10210 0.67697
# Poissons Ratio (z) = -0.01221 0.36396
#
# Static dielectric constant tensor:
#      x y z
#    x 1.755480 0.000000 -0.035970 
#    y 0.000000 1.754240 0.000000 
#    z -0.035970 0.000000 1.782520 
# 
# From -- ./inp_files/30592.got.cif
#   From: 2010.05.17/outbox.cif.g08.bks.cpg/sg10_16_cif.got.tgz:30592.got - 2010.06.03 11:33:40.
