data_PCOD9147759
_publ_section_title
;
Structure prediction by ZEFSAII (Michael W. Deem and Ramdas Pophale) SiO2 
 PCOD9147759
Probable space group: P 2/M
;
_chemical_formula_sum "Si O2"
_cell_formula_units_Z 24
_cell_length_a 22.510175
_cell_length_b 8.585253
_cell_length_c 11.895097
_cell_angle_alpha 90.000000
_cell_angle_beta 148.992567
_cell_angle_gamma 90.000000
_cell_volume 1184.221787
_symmetry_space_group_name_H-M "P 2/M"
_symmetry_group_IT_number 10
_symmetry_cell_setting 'monoclinic'
loop_
_space_group_symop_operation_xyz
x,y,z
-x,y,-z
-x,-y,-z
x,-y,z
loop_
_atom_site_type_symbol
_atom_site_label
_atom_site_fract_x
_atom_site_fract_y
_atom_site_fract_z
Si Si1 0.960783 0.187645 0.629169
Si Si2 0.463126 0.690054 0.064272
Si Si3 0.878498 0.814738 0.739271
Si Si4 0.240622 0.685962 0.834361
Si Si5 0.324382 0.314961 0.438983
Si Si6 0.772132 0.186304 0.946864
O O1 0.899088 0.237306 0.644958
O O2 0.883408 0.247582 0.401915
O O3 0.093753 0.238908 0.846387
O O4 0.961731 0.000000 0.628608
O O5 0.462972 0.500000 0.061111
O O6 0.558141 0.737613 0.310155
O O7 0.500000 0.743956 0.000000
O O8 0.337279 0.739994 0.901910
O O9 0.778932 0.725664 0.643009
O O10 0.852045 0.000000 0.697971
O O11 0.000000 0.794977 0.000000
O O12 0.235853 0.500000 0.824544
O O13 0.273802 0.742107 0.012219
O O14 0.330016 0.500000 0.431728
O O15 0.296382 0.237001 0.274731
O O16 0.771607 0.000000 0.953892
#
# Coordination Sequence:
#
# PCOD9147759 Si02
#       6
#     4   4   4   4   4   4
#     4  10  21  38  60  84 118 161 197 235 293 358
#     4   9  20  40  62  85 119 156 188 236 303 355
#     4  10  19  36  58  84 119 158 192 231 292 352
#     4  11  23  39  61  88 117 152 200 250 292 344
#     4  11  22  37  61  91 119 153 200 248 291 342
#     4  11  23  41  60  83 121 162 195 237 300 360
#
# _framework density 20.266473999999999
#
# number of rings (size 3 to 8) (size 9 to 14) (size 15 to 20)
#    0.000    1.667    1.667    3.000    0.000    6.333 
#    0.000    6.667    0.000    6.000    0.000    0.000 
#    0.000    0.000    0.000    0.000    0.000    0.000 
#
# Total GULP energy -134155.759268 kJ/mol
# GULP energy per Si atom -5589.823303 kJ/mol
# Density = 2.022035 g / cm^3
# Si number density = 20.266474 Si / 1000 Ang^3
#
#
#
# Elastic Constant Matrix: (Units=GPa)
#
#
# Indices 1 2 3 4 5 6 
#
# 1 98.2791 8.0861 32.8564 0.0000 -16.7107 0.0000
# 2 8.0861 7.2790 3.7565 0.0000 0.2585 0.0000
# 3 32.8564 3.7565 105.0554 0.0000 -8.4994 0.0000
# 4 0.0000 0.0000 0.0000 27.9543 0.0000 -7.1810
# 5 -16.7107 0.2585 -8.4994 0.0000 28.8840 0.0000
# 6 0.0000 0.0000 0.0000 -7.1810 0.0000 28.9641
#
#
#
# Elastic Compliance Matrix: (Units=1/GPa)
#
#
# Indices 1 2 3 4 5 6 
#
# 1 0.013559 -0.013670 -0.003183 0.000000 0.007030 0.000000
# 2 -0.013670 0.153965 -0.002030 0.000000 -0.009884 0.000000
# 3 -0.003183 -0.002030 0.010694 0.000000 0.001323 0.000000
# 4 0.000000 0.000000 0.000000 0.038206 0.000000 0.009472
# 5 0.007030 -0.009884 0.001323 0.000000 0.039166 0.000000
# 6 0.000000 0.000000 0.000000 0.009472 0.000000 0.036874
#
#
# Mechanical properties :
#
#
# Convention : Reuss Voigt Hill
#
# Bulk Modulus (GPa) = 7.11984 33.33462 20.22723
# Shear Modulus (GPa) = 13.26094 28.22144 20.74119
#
# Velocity S-wave (km/s) = 2.56076 3.73569 3.20257
# Velocity P-wave (km/s) = 3.50201 5.92377 4.86596
#
# Compressibility (1/GPa) = 0.14045265
#
# Stress axis : x y z
#
# Youngs Moduli (GPa) = 73.74952 6.49500 93.51057
#
# Poissons Ratio (x) = 0.08879 0.29766
# Poissons Ratio (y) = 1.00814 0.18979
# Poissons Ratio (z) = 0.23476 0.01318
#
# Static dielectric constant tensor:
#      x y z
#    x 1.721520 0.000000 0.002030 
#    y 0.000000 1.686240 0.000000 
#    z 0.002030 0.000000 1.703480 
# 
# From -- ./inp_files/45249.got.cif
#   From: 2010.05.17/outbox.cif.g08.bks.cpg/sg10_23_cif.got.tgz:45249.got - 2010.06.03 11:33:40.
