data_PCOD9147841
_publ_section_title
;
Structure prediction by ZEFSAII (Michael W. Deem and Ramdas Pophale) SiO2 
 PCOD9147841
Probable space group: P 2/M
;
_chemical_formula_sum "Si O2"
_cell_formula_units_Z 28
_cell_length_a 16.389873
_cell_length_b 7.678669
_cell_length_c 16.592991
_cell_angle_alpha 90.000000
_cell_angle_beta 34.422912
_cell_angle_gamma 90.000000
_cell_volume 1180.491398
_symmetry_space_group_name_H-M "P 2/M"
_symmetry_group_IT_number 10
_symmetry_cell_setting 'monoclinic'
loop_
_space_group_symop_operation_xyz
x,y,z
-x,y,-z
-x,-y,-z
x,-y,z
loop_
_atom_site_type_symbol
_atom_site_label
_atom_site_fract_x
_atom_site_fract_y
_atom_site_fract_z
Si Si1 0.033113 0.747135 0.835033
Si Si2 0.792162 0.204453 0.917809
Si Si3 0.446422 0.706001 0.763181
Si Si4 0.337887 0.212447 0.143413
Si Si5 0.133594 0.789586 0.446911
Si Si6 0.205689 0.804809 0.836740
Si Si7 0.230569 0.296048 0.538236
O O1 0.141815 0.686436 0.817843
O O2 0.152233 0.806634 0.673263
O O3 0.912871 0.686382 0.867195
O O4 0.913145 0.821083 0.995064
O O5 0.642540 0.212448 0.090153
O O6 0.839883 0.000000 0.878840
O O7 0.759705 0.262299 0.853582
O O8 0.452515 0.500000 0.773355
O O9 0.349324 0.740618 0.763178
O O10 0.609056 0.767467 0.615233
O O11 0.272888 0.264872 0.281732
O O12 0.338661 0.000000 0.141352
O O13 0.500000 0.274499 0.000000
O O14 0.138809 0.715901 0.531480
O O15 0.000000 0.738506 0.500000
O O16 0.130734 0.000000 0.456365
O O17 0.224476 0.000000 0.787910
O O18 0.238106 0.500000 0.557861
#
# Coordination Sequence:
#
# PCOD9147841 Si02
#       7
#     4   4   4   4   4   4   4
#     4  10  20  36  60  85 112 145 186 235 284 339
#     4  10  19  36  61  86 114 149 191 240 291 341
#     4  10  22  39  57  82 119 157 193 235 283 340
#     4   9  17  30  52  82 111 141 182 231 280 330
#     4  10  21  37  58  84 113 148 192 241 290 337
#     4  10  21  40  63  88 114 143 188 241 292 345
#     4  11  25  41  57  83 120 159 195 232 282 345
#
# _framework density 23.718937
#
# number of rings (size 3 to 8) (size 9 to 14) (size 15 to 20)
#    0.000    2.000    0.000    4.714    0.000    8.857 
#    0.000    6.429    0.000    2.571    0.000    0.000 
#    0.000    0.000    0.000    0.000    0.000    0.000 
#
# Total GULP energy -155998.102122 kJ/mol
# GULP energy per Si atom -5571.360790 kJ/mol
# Density = 2.366495 g / cm^3
# Si number density = 23.718937 Si / 1000 Ang^3
#
#
#
# Elastic Constant Matrix: (Units=GPa)
#
#
# Indices 1 2 3 4 5 6 
#
# 1 123.4510 0.6114 31.5003 0.0000 26.7046 0.0000
# 2 0.6114 73.6732 2.0832 0.0000 5.3027 0.0000
# 3 31.5003 2.0832 124.3546 0.0000 13.1697 0.0000
# 4 0.0000 0.0000 0.0000 -169.3554 0.0000 489.0621
# 5 26.7046 5.3027 13.1697 0.0000 44.9744 0.0000
# 6 0.0000 0.0000 0.0000 489.0621 0.0000-1424.8107
#
#
#
# Elastic Compliance Matrix: (Units=1/GPa)
#
#
# Indices 1 2 3 4 5 6 
#
# 1 0.009723 0.000352 -0.001912 0.000000 -0.005255 0.000000
# 2 0.000352 0.013703 -0.000129 0.000000 -0.001787 0.000000
# 3 -0.001912 -0.000129 0.008675 0.000000 -0.001390 0.000000
# 4 0.000000 0.000000 0.000000 -0.672823 0.000000 -0.230945
# 5 -0.005255 -0.001787 -0.001390 0.000000 0.025973 0.000000
# 6 0.000000 0.000000 0.000000 -0.230945 0.000000 -0.079973
#
#
# Mechanical properties :
#
#
# Convention : Reuss Voigt Hill
#
# Bulk Modulus (GPa) = 34.81770 43.31872 39.06821
# Shear Modulus (GPa) = -7.33388 -290.68609 -149.00998
#
# Velocity S-wave (km/s) = -1.76031 -11.08244 -7.93471
# Velocity P-wave (km/s) = 3.25262 12.06058 8.21213
#
# Compressibility (1/GPa) = 0.02872103
#
# Stress axis : x y z
#
# Youngs Moduli (GPa) = 102.84523 72.97783 115.27004
#
# Poissons Ratio (x) = -0.02566 0.22044
# Poissons Ratio (y) = -0.03616 0.01492
# Poissons Ratio (z) = 0.19668 0.00944
#
# Static dielectric constant tensor:
#      x y z
#    x 1.870710 0.000000 -0.028330 
#    y 0.000000 1.274280 0.000000 
#    z -0.028330 0.000000 1.869290 
# 
# From -- ./inp_files/67111.got.cif
#   From: 2010.05.17/outbox.cif.g08.bks.cpg/sg10_34_cif.got.tgz:67111.got - 2010.06.03 11:33:40.
