data_PCOD9147297
_publ_section_title
;
Structure prediction by ZEFSAII (Michael W. Deem and Ramdas Pophale) SiO2 
 PCOD9147297
Probable space group: P 2/M
;
_chemical_formula_sum "Si O2"
_cell_formula_units_Z 32
_cell_length_a 14.850700
_cell_length_b 7.696007
_cell_length_c 12.418558
_cell_angle_alpha 90.000000
_cell_angle_beta 85.168210
_cell_angle_gamma 90.000000
_cell_volume 1414.286638
_symmetry_space_group_name_H-M "P 2/M"
_symmetry_group_IT_number 10
_symmetry_cell_setting 'monoclinic'
loop_
_space_group_symop_operation_xyz
x,y,z
-x,y,-z
-x,-y,-z
x,-y,z
loop_
_atom_site_type_symbol
_atom_site_label
_atom_site_fract_x
_atom_site_fract_y
_atom_site_fract_z
Si Si1 0.376774 0.298001 0.248230
Si Si2 0.250258 0.699560 0.901288
Si Si3 0.239982 0.204231 0.662770
Si Si4 0.546961 0.294196 0.111073
Si Si5 0.183825 0.705088 0.255983
Si Si6 0.603170 0.789608 0.510568
Si Si7 0.916886 0.801149 0.941783
Si Si8 0.104007 0.289100 0.488659
O O1 0.381692 0.500000 0.212830
O O2 0.472527 0.220107 0.201274
O O3 0.282634 0.222748 0.212924
O O4 0.368333 0.285127 0.377335
O O5 0.251499 0.500000 0.941548
O O6 0.226850 0.703686 0.777420
O O7 0.351437 0.776486 0.900578
O O8 0.172331 0.792226 0.975806
O O9 0.329803 0.266878 0.590970
O O10 0.158768 0.228803 0.587195
O O11 0.250788 0.000000 0.684717
O O12 0.559911 0.500000 0.134734
O O13 0.500000 0.278713 0.000000
O O14 0.198271 0.500000 0.270919
O O15 0.110620 0.724049 0.170101
O O16 0.150573 0.775567 0.373853
O O17 0.500000 0.739664 0.500000
O O18 0.608440 0.000000 0.516859
O O19 0.942022 0.000000 0.916887
O O20 0.000000 0.720045 0.000000
O O21 0.105964 0.500000 0.488313
O O22 0.000000 0.234350 0.500000
#
# Coordination Sequence:
#
# PCOD9147297 Si02
#       8
#     4   4   4   4   4   4   4   4
#     4  10  19  34  59  88 117 151 196 247 295 350
#     4  11  23  40  64  91 122 160 203 252 303 356
#     4  11  23  39  60  88 126 166 203 246 301 362
#     4   9  18  34  58  88 119 152 195 249 304 354
#     4  10  21  39  64  93 123 157 201 252 302 357
#     4  10  21  36  54  81 120 163 200 238 290 352
#     4  11  26  45  64  89 121 158 201 249 303 363
#     4  10  22  40  63  93 123 156 203 255 304 357
#
# _framework density 22.626248
#
# number of rings (size 3 to 8) (size 9 to 14) (size 15 to 20)
#    0.000    1.750    1.250    2.625    1.750    5.000 
#    0.000    0.625    0.000    2.625    0.000    0.000 
#    0.000    0.000    0.000    0.000    0.000    0.000 
#
# Total GULP energy -178871.177123 kJ/mol
# GULP energy per Si atom -5589.724285 kJ/mol
# Density = 2.257475 g / cm^3
# Si number density = 22.626248 Si / 1000 Ang^3
#
#
#
# Elastic Constant Matrix: (Units=GPa)
#
#
# Indices 1 2 3 4 5 6 
#
# 1 129.5605 1.8962 16.2223 0.0000 18.1058 0.0000
# 2 1.8962 39.5713 -10.8331 0.0000 -2.6168 0.0000
# 3 16.2223 -10.8331 54.5303 0.0000 6.3073 0.0000
# 4 0.0000 0.0000 0.0000 11.5066 0.0000 40.3127
# 5 18.1058 -2.6168 6.3073 0.0000 36.6517 0.0000
# 6 0.0000 0.0000 0.0000 40.3127 0.0000 -19.0929
#
#
#
# Elastic Compliance Matrix: (Units=1/GPa)
#
#
# Indices 1 2 3 4 5 6 
#
# 1 0.008582 -0.001317 -0.002360 0.000000 -0.003927 0.000000
# 2 -0.001317 0.026963 0.005561 0.000000 0.001619 0.000000
# 3 -0.002360 0.005561 0.020370 0.000000 -0.001942 0.000000
# 4 0.000000 0.000000 0.000000 0.010350 0.000000 0.021852
# 5 -0.003927 0.001619 -0.001942 0.000000 0.029674 0.000000
# 6 0.000000 0.000000 0.000000 0.021852 0.000000 -0.006237
#
#
# Mechanical properties :
#
#
# Convention : Reuss Voigt Hill
#
# Bulk Modulus (GPa) = 16.75526 26.47032 21.61279
# Shear Modulus (GPa) = 47.24613 20.23820 33.74216
#
# Velocity S-wave (km/s) = 4.57454 2.99399 3.86590
# Velocity P-wave (km/s) = 5.94334 4.86583 5.43137
#
# Compressibility (1/GPa) = 0.05968275
#
# Stress axis : x y z
#
# Youngs Moduli (GPa) = 116.52196 37.08727 49.09154
#
# Poissons Ratio (x) = 0.04885 0.11588
# Poissons Ratio (y) = 0.15348 -0.27301
# Poissons Ratio (z) = 0.27505 -0.20625
#
# Static dielectric constant tensor:
#      x y z
#    x 2.045570 0.000000 0.017750 
#    y 0.000000 1.830990 0.000000 
#    z 0.017750 0.000000 1.801990 
# 
# From -- ./inp_files/49876.got.cif
#   From: 2010.05.17/outbox.cif.g08.bks.cpg/sg10_25_cif.got.tgz:49876.got - 2010.06.03 11:33:40.
