data_PCOD9147230
_publ_section_title
;
Structure prediction by ZEFSAII (Michael W. Deem and Ramdas Pophale) SiO2 
 PCOD9147230
Probable space group: P 2/M
;
_chemical_formula_sum "Si O2"
_cell_formula_units_Z 32
_cell_length_a 11.149096
_cell_length_b 8.881252
_cell_length_c 22.108489
_cell_angle_alpha 90.000000
_cell_angle_beta 130.514855
_cell_angle_gamma 90.000000
_cell_volume 1664.264048
_symmetry_space_group_name_H-M "P 2/M"
_symmetry_group_IT_number 10
_symmetry_cell_setting 'monoclinic'
loop_
_space_group_symop_operation_xyz
x,y,z
-x,y,-z
-x,-y,-z
x,-y,z
loop_
_atom_site_type_symbol
_atom_site_label
_atom_site_fract_x
_atom_site_fract_y
_atom_site_fract_z
Si Si1 0.316387 0.181459 0.950962
Si Si2 0.145306 0.180465 0.502823
Si Si3 0.021072 0.681364 0.340253
Si Si4 0.012684 0.679609 0.804490
Si Si5 0.658401 0.328092 0.230678
Si Si6 0.762133 0.819341 0.808820
Si Si7 0.444920 0.327337 0.663266
Si Si8 0.341118 0.819816 0.093021
O O1 0.191518 0.260432 0.866612
O O2 0.300879 0.000000 0.940493
O O3 0.500000 0.218340 0.000000
O O4 0.276012 0.228959 0.006830
O O5 0.308764 0.250580 0.579502
O O6 0.000000 0.226547 0.500000
O O7 0.109319 0.237871 0.423612
O O8 0.154194 0.000000 0.507353
O O9 0.031241 0.500000 0.352081
O O10 0.066471 0.717681 0.286179
O O11 0.836714 0.724913 0.283451
O O12 0.013481 0.500000 0.810095
O O13 0.914253 0.753654 0.826018
O O14 0.648191 0.500000 0.204394
O O15 0.619443 0.329853 0.289127
O O16 0.523600 0.229010 0.156272
O O17 0.608641 0.762030 0.721990
O O18 0.741414 0.766679 0.872010
O O19 0.767146 0.000000 0.810337
O O20 0.472500 0.500000 0.653087
O O21 0.333813 0.000000 0.091240
#
# Coordination Sequence:
#
# PCOD9147230 Si02
#       8
#     4   4   4   4   4   4   4   4
#     4  10  21  38  60  87 119 151 186 230 288 348
#     4  11  22  34  54  88 122 150 186 231 280 339
#     4  10  21  37  55  79 113 151 189 232 287 344
#     4  11  24  40  59  83 113 151 196 240 285 339
#     4   9  17  30  52  81 111 145 182 225 281 339
#     4  10  21  39  60  81 113 152 196 242 284 334
#     4  10  19  34  58  84 115 150 187 232 282 339
#     4   9  19  34  55  83 112 148 190 233 281 335
#
# _framework density 19.227719
#
# number of rings (size 3 to 8) (size 9 to 14) (size 15 to 20)
#    0.000    2.000    1.250    2.250    0.000    4.250 
#    0.000    3.125    0.000    3.750    0.000    0.000 
#    0.000    0.000    0.000    0.000    0.000    0.000 
#
# Total GULP energy -178637.125759 kJ/mol
# GULP energy per Si atom -5582.410180 kJ/mol
# Density = 1.918396 g / cm^3
# Si number density = 19.227719 Si / 1000 Ang^3
#
#
#
# Elastic Constant Matrix: (Units=GPa)
#
#
# Indices 1 2 3 4 5 6 
#
# 1 67.8208 26.4739 23.8298 0.0000 0.8719 0.0000
# 2 26.4739 43.0966 36.1513 0.0000 -6.9861 0.0000
# 3 23.8298 36.1513 118.2285 0.0000 -10.7419 0.0000
# 4 0.0000 0.0000 0.0000 30.2251 0.0000 9.9327
# 5 0.8719 -6.9861 -10.7419 0.0000 18.8862 0.0000
# 6 0.0000 0.0000 0.0000 9.9327 0.0000 35.0323
#
#
#
# Elastic Compliance Matrix: (Units=1/GPa)
#
#
# Indices 1 2 3 4 5 6 
#
# 1 0.020020 -0.012683 -0.000704 0.000000 -0.006016 0.000000
# 2 -0.012683 0.040007 -0.008730 0.000000 0.010419 0.000000
# 3 -0.000704 -0.008730 0.011577 0.000000 0.003388 0.000000
# 4 0.000000 0.000000 0.000000 0.036484 0.000000 -0.010344
# 5 -0.006016 0.010419 0.003388 0.000000 0.059008 0.000000
# 6 0.000000 0.000000 0.000000 -0.010344 0.000000 0.031478
#
#
# Mechanical properties :
#
#
# Convention : Reuss Voigt Hill
#
# Bulk Modulus (GPa) = 36.53556 44.67289 40.60423
# Shear Modulus (GPa) = 19.84664 26.34145 23.09405
#
# Velocity S-wave (km/s) = 3.21626 3.70533 3.46942
# Velocity P-wave (km/s) = 5.73020 6.44903 6.10021
#
# Compressibility (1/GPa) = 0.02737059
#
# Stress axis : x y z
#
# Youngs Moduli (GPa) = 49.94956 24.99563 86.37599
#
# Poissons Ratio (x) = 0.31703 0.06077
# Poissons Ratio (y) = 0.63352 0.75407
# Poissons Ratio (z) = 0.03514 0.21821
#
# Static dielectric constant tensor:
#      x y z
#    x 1.686600 0.000000 -0.028160 
#    y 0.000000 1.648760 0.000000 
#    z -0.028160 0.000000 1.658000 
# 
# From -- ./inp_files/83605.got.cif
#   From: 2010.05.17/outbox.cif.g08.bks.cpg/sg10_42_cif.got.tgz:83605.got - 2010.06.03 11:33:40.
