data_PCOD9147899
_publ_section_title
;
Structure prediction by ZEFSAII (Michael W. Deem and Ramdas Pophale) SiO2 
 PCOD9147899
Probable space group: P 2/M
;
_chemical_formula_sum "Si O2"
_cell_formula_units_Z 26
_cell_length_a 13.763930
_cell_length_b 10.011215
_cell_length_c 14.405612
_cell_angle_alpha 90.000000
_cell_angle_beta 140.855299
_cell_angle_gamma 90.000000
_cell_volume 1253.094212
_symmetry_space_group_name_H-M "P 2/M"
_symmetry_group_IT_number 10
_symmetry_cell_setting 'monoclinic'
loop_
_space_group_symop_operation_xyz
x,y,z
-x,y,-z
-x,-y,-z
x,-y,z
loop_
_atom_site_type_symbol
_atom_site_label
_atom_site_fract_x
_atom_site_fract_y
_atom_site_fract_z
Si Si1 0.118227 0.754248 0.725334
Si Si2 0.876326 0.259569 0.778125
Si Si3 0.993913 0.000000 0.759952
Si Si4 0.792356 0.646313 0.520553
Si Si5 0.676323 0.840711 0.287041
Si Si6 0.791493 0.652811 0.903885
Si Si7 0.399139 0.654118 0.053393
O O1 0.180034 0.804696 0.672451
O O2 0.968177 0.661367 0.615469
O O3 0.070466 0.882502 0.750763
O O4 0.257898 0.679253 0.879638
O O5 0.796291 0.336895 0.634267
O O6 0.783708 0.258642 0.805888
O O7 0.917500 0.116031 0.769048
O O8 0.040450 0.326961 0.925582
O O9 0.731101 0.500000 0.449155
O O10 0.705514 0.768551 0.407017
O O11 0.529676 0.764607 0.135741
O O12 0.658298 0.000000 0.281129
O O13 0.778509 0.500000 0.863203
O O14 0.668139 0.676278 0.892809
O O15 0.451797 0.500000 0.083419
#
# Coordination Sequence:
#
# PCOD9147899 Si02
#       7
#     4   4   2   4   4   4   4
#     4  11  23  41  68  91 124 165 217 259 317 370
#     4  10  20  35  62  94 127 157 201 260 316 376
#     4  10  20  35  58  96 127 157 200 257 312 369
#     4  11  23  41  66  96 127 162 212 264 312 374
#     4  12  28  42  62  87 131 179 212 254 315 378
#     4  10  19  36  63  93 122 159 205 259 321 374
#     4  11  24  43  65  95 129 164 214 266 312 372
#
# _framework density 20.748640999999999
#
# number of rings (size 3 to 8) (size 9 to 14) (size 15 to 20)
#    0.000    1.231    3.846    3.692    5.385    6.154 
#    1.385    0.769    0.000    3.692    0.000    0.000 
#    0.000    0.000    0.000    0.000    0.000    0.000 
#
# Total GULP energy -144751.051668 kJ/mol
# GULP energy per Si atom -5567.348141 kJ/mol
# Density = 2.070142 g / cm^3
# Si number density = 20.748641 Si / 1000 Ang^3
#
#
#
# Elastic Constant Matrix: (Units=GPa)
#
#
# Indices 1 2 3 4 5 6 
#
# 1 68.6045 30.0191 2.7242 0.0000 -23.7380 0.0000
# 2 30.0191 125.4609 21.2373 0.0000 -16.6857 0.0000
# 3 2.7242 21.2373 65.3093 0.0000 -10.4305 0.0000
# 4 0.0000 0.0000 0.0000 13.5212 0.0000 -1.0751
# 5 -23.7380 -16.6857 -10.4305 0.0000 29.8579 0.0000
# 6 0.0000 0.0000 0.0000 -1.0751 0.0000 28.8651
#
#
#
# Elastic Compliance Matrix: (Units=1/GPa)
#
#
# Indices 1 2 3 4 5 6 
#
# 1 0.021600 -0.003490 0.002823 0.000000 0.016208 0.000000
# 2 -0.003490 0.009470 -0.002681 0.000000 0.001580 0.000000
# 3 0.002823 -0.002681 0.017141 0.000000 0.006734 0.000000
# 4 0.000000 0.000000 0.000000 0.074177 0.000000 0.002763
# 5 0.016208 0.001580 0.006734 0.000000 0.049613 0.000000
# 6 0.000000 0.000000 0.000000 0.002763 0.000000 0.034747
#
#
# Mechanical properties :
#
#
# Convention : Reuss Voigt Hill
#
# Bulk Modulus (GPa) = 24.08913 40.81510 32.45212
# Shear Modulus (GPa) = 21.99888 28.14179 25.07034
#
# Velocity S-wave (km/s) = 3.25969 3.68682 3.47981
# Velocity P-wave (km/s) = 5.07963 6.15121 5.64093
#
# Compressibility (1/GPa) = 0.04151249
#
# Stress axis : x y z
#
# Youngs Moduli (GPa) = 46.29709 105.59855 58.33829
#
# Poissons Ratio (x) = 0.36858 -0.16466
# Poissons Ratio (y) = 0.16159 0.15643
# Poissons Ratio (z) = -0.13068 0.28315
#
# Static dielectric constant tensor:
#      x y z
#    x 1.776770 0.000000 -0.008680 
#    y 0.000000 1.690280 0.000000 
#    z -0.008680 0.000000 1.786360 
# 
# From -- ./inp_files/66880.got.cif
#   From: 2010.05.17/outbox.cif.g08.bks.cpg/sg10_34_cif.got.tgz:66880.got - 2010.06.03 11:33:40.
