data_PCOD9147244
_publ_section_title
;
Structure prediction by ZEFSAII (Michael W. Deem and Ramdas Pophale) SiO2 
 PCOD9147244
Probable space group: P 2/M
;
_chemical_formula_sum "Si O2"
_cell_formula_units_Z 20
_cell_length_a 24.887198
_cell_length_b 8.503903
_cell_length_c 8.081336
_cell_angle_alpha 90.000000
_cell_angle_beta 143.763194
_cell_angle_gamma 90.000000
_cell_volume 1011.011283
_symmetry_space_group_name_H-M "P 2/M"
_symmetry_group_IT_number 10
_symmetry_cell_setting 'monoclinic'
loop_
_space_group_symop_operation_xyz
x,y,z
-x,y,-z
-x,-y,-z
x,-y,z
loop_
_atom_site_type_symbol
_atom_site_label
_atom_site_fract_x
_atom_site_fract_y
_atom_site_fract_z
Si Si1 0.210116 0.688150 0.854861
Si Si2 0.786441 0.812671 0.784251
Si Si3 0.105306 0.190142 0.273578
Si Si4 0.401514 0.308559 0.194354
Si Si5 0.399323 0.689784 0.806209
O O1 0.210396 0.500000 0.855963
O O2 0.151258 0.746330 0.554051
O O3 0.178192 0.747602 0.953828
O O4 0.314346 0.743511 0.082207
O O5 0.841043 0.755768 0.757595
O O6 0.682180 0.760643 0.501319
O O7 0.792264 0.000000 0.802422
O O8 0.109798 0.000000 0.289670
O O9 0.000000 0.236440 0.000000
O O10 0.500000 0.252673 0.500000
O O11 0.403700 0.500000 0.207283
O O12 0.386906 0.265558 0.967000
O O13 0.394388 0.500000 0.780284
O O14 0.500000 0.737504 0.000000
#
# Coordination Sequence:
#
# PCOD9147244 Si02
#       5
#     4   4   4   4   4
#     4  11  22  38  63  91 123 158 200 254 302 357
#     4  11  23  39  61  88 123 160 200 250 302 363
#     4  10  23  44  66  87 118 162 206 250 306 366
#     4   9  17  31  53  84 118 154 195 238 290 348
#     4  10  19  34  58  86 120 160 203 247 294 356
#
# _framework density 19.782173
#
# number of rings (size 3 to 8) (size 9 to 14) (size 15 to 20)
#    0.000    1.800    2.000    2.400    0.000    5.600 
#    0.000    4.000    0.000    3.000    0.000    0.000 
#    0.000    0.000    0.000    0.000    0.000    0.000 
#
# Total GULP energy -111739.151398 kJ/mol
# GULP energy per Si atom -5586.957570 kJ/mol
# Density = 1.973715 g / cm^3
# Si number density = 19.782173 Si / 1000 Ang^3
#
#
#
# Elastic Constant Matrix: (Units=GPa)
#
#
# Indices 1 2 3 4 5 6 
#
# 1 138.8472 30.7008 84.4760 0.0000 -21.4191 0.0000
# 2 30.7008 20.6475 29.4228 0.0000 -2.8433 0.0000
# 3 84.4760 29.4228 145.4973 0.0000 -11.4268 0.0000
# 4 0.0000 0.0000 0.0000 29.8072 0.0000 -8.1557
# 5 -21.4191 -2.8433 -11.4268 0.0000 37.6894 0.0000
# 6 0.0000 0.0000 0.0000 -8.1557 0.0000 23.8911
#
#
#
# Elastic Compliance Matrix: (Units=1/GPa)
#
#
# Indices 1 2 3 4 5 6 
#
# 1 0.013961 -0.012739 -0.005104 0.000000 0.005426 0.000000
# 2 -0.012739 0.079698 -0.009032 0.000000 -0.003965 0.000000
# 3 -0.005104 -0.009032 0.011659 0.000000 -0.000047 0.000000
# 4 0.000000 0.000000 0.000000 0.037005 0.000000 0.012633
# 5 0.005426 -0.003965 -0.000047 0.000000 0.029303 0.000000
# 6 0.000000 0.000000 0.000000 0.012633 0.000000 0.046169
#
#
# Mechanical properties :
#
#
# Convention : Reuss Voigt Hill
#
# Bulk Modulus (GPa) = 19.39143 66.02126 42.70635
# Shear Modulus (GPa) = 17.31702 28.97035 23.14369
#
# Velocity S-wave (km/s) = 2.96190 3.83099 3.42413
# Velocity P-wave (km/s) = 4.63906 7.28115 6.10476
#
# Compressibility (1/GPa) = 0.05156916
#
# Stress axis : x y z
#
# Youngs Moduli (GPa) = 71.62863 12.54737 85.77148
#
# Poissons Ratio (x) = 0.15984 0.43774
# Poissons Ratio (y) = 0.91246 0.77469
# Poissons Ratio (z) = 0.36556 0.11333
#
# Static dielectric constant tensor:
#      x y z
#    x 1.708140 0.000000 0.009560 
#    y 0.000000 1.678890 0.000000 
#    z 0.009560 0.000000 1.670360 
# 
# From -- ./inp_files/26908.got.cif
#   From: 2010.05.17/outbox.cif.g08.bks.cpg/sg10_14_cif.got.tgz:26908.got - 2010.06.03 11:33:40.
