data_PCOD9147247
_publ_section_title
;
Structure prediction by ZEFSAII (Michael W. Deem and Ramdas Pophale) SiO2 
 PCOD9147247
Probable space group: P 2/M
;
_chemical_formula_sum "Si O2"
_cell_formula_units_Z 32
_cell_length_a 8.969330
_cell_length_b 24.911004
_cell_length_c 15.324423
_cell_angle_alpha 90.000000
_cell_angle_beta 151.147835
_cell_angle_gamma 90.000000
_cell_volume 1652.261805
_symmetry_space_group_name_H-M "P 2/M"
_symmetry_group_IT_number 10
_symmetry_cell_setting 'monoclinic'
loop_
_space_group_symop_operation_xyz
x,y,z
-x,y,-z
-x,-y,-z
x,-y,z
loop_
_atom_site_type_symbol
_atom_site_label
_atom_site_fract_x
_atom_site_fract_y
_atom_site_fract_z
Si Si1 0.279777 0.869216 0.969463
Si Si2 0.630030 0.148546 0.797928
Si Si3 0.130118 0.758629 0.825946
Si Si4 0.316565 0.062661 0.315887
Si Si5 0.862999 0.361119 0.164286
Si Si6 0.831000 0.562141 0.820321
Si Si7 0.242053 0.752403 0.545288
Si Si8 0.777361 0.369750 0.469091
O O1 0.088098 0.813453 0.857476
O O2 0.034573 0.916897 0.851872
O O3 0.500000 0.876600 0.000000
O O4 0.480061 0.862089 0.159739
O O5 0.550169 0.100274 0.691987
O O6 0.501627 0.203648 0.694314
O O7 0.000000 0.149844 0.000000
O O8 0.061725 0.699762 0.829554
O O9 0.937863 0.761586 0.637795
O O10 0.500000 0.757576 0.000000
O O11 0.500000 0.070832 0.500000
O O12 0.326298 0.000000 0.298139
O O13 0.982524 0.403403 0.155292
O O14 0.032197 0.369517 0.343341
O O15 0.500000 0.365212 0.000000
O O16 0.810402 0.500000 0.782635
O O17 0.495003 0.587869 0.661751
O O18 0.000000 0.564802 0.000000
O O19 0.354502 0.690888 0.606810
O O20 0.000000 0.758151 0.500000
O O21 0.000000 0.379236 0.500000
#
# Coordination Sequence:
#
# PCOD9147247 Si02
#       8
#     4   4   4   4   4   4   4   4
#     4  10  20  35  57  84 113 146 186 229 277 332
#     4  10  22  36  56  85 116 151 187 228 284 339
#     4   9  18  33  55  85 118 148 182 227 282 340
#     4  10  22  40  58  77 107 148 192 237 284 333
#     4  10  21  39  63  88 118 154 190 236 290 344
#     4  11  25  42  60  84 114 152 199 245 287 339
#     4  10  19  34  58  87 118 149 187 232 280 337
#     4  10  22  39  61  89 118 153 191 235 291 345
#
# _framework density 19.367391000000001
#
# number of rings (size 3 to 8) (size 9 to 14) (size 15 to 20)
#    0.000    2.000    0.000    3.375    0.000    9.500 
#    0.000    2.500    0.000    1.875    0.000    0.000 
#    0.000    0.000    0.000    0.000    0.000    0.000 
#
# Total GULP energy -178688.043293 kJ/mol
# GULP energy per Si atom -5584.001353 kJ/mol
# Density = 1.932331 g / cm^3
# Si number density = 19.367391 Si / 1000 Ang^3
#
#
#
# Elastic Constant Matrix: (Units=GPa)
#
#
# Indices 1 2 3 4 5 6 
#
# 1 95.0238 49.7412 11.5830 0.0000 -16.1100 0.0000
# 2 49.7412 135.9137 47.3996 0.0000 -15.3128 0.0000
# 3 11.5830 47.3996 71.6163 0.0000 -8.5654 0.0000
# 4 0.0000 0.0000 0.0000 29.6177 0.0000 1.5237
# 5 -16.1100 -15.3128 -8.5654 0.0000 23.7861 0.0000
# 6 0.0000 0.0000 0.0000 1.5237 0.0000 32.4997
#
#
#
# Elastic Compliance Matrix: (Units=1/GPa)
#
#
# Indices 1 2 3 4 5 6 
#
# 1 0.014116 -0.005036 0.001887 0.000000 0.006998 0.000000
# 2 -0.005036 0.011751 -0.006757 0.000000 0.001721 0.000000
# 3 0.001887 -0.006757 0.018562 0.000000 0.003612 0.000000
# 4 0.000000 0.000000 0.000000 0.033845 0.000000 -0.001587
# 5 0.006998 0.001721 0.003612 0.000000 0.049190 0.000000
# 6 0.000000 0.000000 0.000000 -0.001587 0.000000 0.030844
#
#
# Mechanical properties :
#
#
# Convention : Reuss Voigt Hill
#
# Bulk Modulus (GPa) = 40.62161 57.77795 49.19978
# Shear Modulus (GPa) = 26.83457 30.10267 28.46862
#
# Velocity S-wave (km/s) = 3.72634 3.94673 3.83812
# Velocity P-wave (km/s) = 6.28760 7.11803 6.71566
#
# Compressibility (1/GPa) = 0.02461744
#
# Stress axis : x y z
#
# Youngs Moduli (GPa) = 70.84077 85.09896 53.87225
#
# Poissons Ratio (x) = 0.42854 -0.10165
# Poissons Ratio (y) = 0.35674 0.36402
# Poissons Ratio (z) = -0.13366 0.57503
#
# Static dielectric constant tensor:
#      x y z
#    x 1.697710 0.000000 -0.019890 
#    y 0.000000 1.674290 0.000000 
#    z -0.019890 0.000000 1.591380 
# 
# From -- ./inp_files/62704.got.cif
#   From: 2010.05.17/outbox.cif.g08.bks.cpg/sg10_32_cif.got.tgz:62704.got - 2010.06.03 11:33:40.
