data_PCOD9147946
_publ_section_title
;
Structure prediction by ZEFSAII (Michael W. Deem and Ramdas Pophale) SiO2 
 PCOD9147946
Probable space group: P 2/M
;
_chemical_formula_sum "Si O2"
_cell_formula_units_Z 28
_cell_length_a 10.094637
_cell_length_b 20.745368
_cell_length_c 15.236386
_cell_angle_alpha 90.000000
_cell_angle_beta 25.755904
_cell_angle_gamma 90.000000
_cell_volume 1386.505652
_symmetry_space_group_name_H-M "P 2/M"
_symmetry_group_IT_number 10
_symmetry_cell_setting 'monoclinic'
loop_
_space_group_symop_operation_xyz
x,y,z
-x,y,-z
-x,-y,-z
x,-y,z
loop_
_atom_site_type_symbol
_atom_site_label
_atom_site_fract_x
_atom_site_fract_y
_atom_site_fract_z
Si Si1 0.636486 0.931486 0.696303
Si Si2 0.739497 0.930210 0.435055
Si Si3 0.852760 0.654538 0.823254
Si Si4 0.284674 0.330543 0.893206
Si Si5 0.038423 0.790500 0.275194
Si Si6 0.540848 0.205332 0.823650
Si Si7 0.190124 0.575745 0.476737
O O1 0.591195 0.932688 0.619495
O O2 0.497892 0.865736 0.812378
O O3 0.000000 0.929247 0.500000
O O4 0.523611 0.000000 0.801182
O O5 0.500000 0.930798 0.500000
O O6 0.889404 0.859559 0.345518
O O7 0.915445 0.000000 0.324187
O O8 0.070632 0.717263 0.675507
O O9 0.995007 0.599554 0.676928
O O10 0.500000 0.664946 0.000000
O O11 0.824235 0.645288 0.944924
O O12 0.468428 0.264039 0.802727
O O13 0.506386 0.382353 0.716829
O O14 0.000000 0.317516 0.000000
O O15 0.137364 0.791259 0.318091
O O16 0.306283 0.789435 0.043635
O O17 0.255235 0.500000 0.445238
O O18 0.000000 0.586427 0.500000
#
# Coordination Sequence:
#
# PCOD9147946 Si02
#       7
#     4   4   4   4   4   4   4
#     4  10  20  33  53  84 114 153 207 256 311 374
#     4  10  22  38  55  83 123 161 201 260 325 376
#     4  11  21  43  67  97 138 169 219 279 318 386
#     4  11  25  44  66 100 139 172 214 276 337 384
#     4  10  19  37  60  86 116 158 211 251 316 377
#     4  10  20  36  60  86 117 157 205 260 309 374
#     4  11  24  42  73 106 129 178 230 257 324 402
#
# _framework density 20.194652000000001
#
# number of rings (size 3 to 8) (size 9 to 14) (size 15 to 20)
#    0.000    1.571    5.714    0.000    2.000    5.143 
#    0.000    2.143    0.000    3.000    0.000    0.000 
#    0.000    0.000    0.000    0.000    0.000    0.000 
#
# Total GULP energy -155936.922764 kJ/mol
# GULP energy per Si atom -5569.175813 kJ/mol
# Density = 2.014869 g / cm^3
# Si number density = 20.194652 Si / 1000 Ang^3
#
#
#
# Elastic Constant Matrix: (Units=GPa)
#
#
# Indices 1 2 3 4 5 6 
#
# 1 125.8931 36.6898 30.5617 0.0000 3.1704 0.0000
# 2 36.6898 158.9600 50.2278 0.0000 -4.6738 0.0000
# 3 30.5617 50.2278 40.6075 0.0000 6.5788 0.0000
# 4 0.0000 0.0000 0.0000 211.8850 0.0000 28.0450
# 5 3.1704 -4.6738 6.5788 0.0000 25.7150 0.0000
# 6 0.0000 0.0000 0.0000 28.0450 0.0000 32.3976
#
#
#
# Elastic Compliance Matrix: (Units=1/GPa)
#
#
# Indices 1 2 3 4 5 6 
#
# 1 0.009735 0.000220 -0.007732 0.000000 0.000818 0.000000
# 2 0.000220 0.011095 -0.014825 0.000000 0.005782 0.000000
# 3 -0.007732 -0.014825 0.051186 0.000000 -0.014836 0.000000
# 4 0.000000 0.000000 0.000000 0.005330 0.000000 -0.004614
# 5 0.000818 0.005782 -0.014836 0.000000 0.043634 0.000000
# 6 0.000000 0.000000 0.000000 -0.004614 0.000000 0.034861
#
#
# Mechanical properties :
#
#
# Convention : Reuss Voigt Hill
#
# Bulk Modulus (GPa) = 36.57338 62.26879 49.42109
# Shear Modulus (GPa) = 23.85168 67.86496 45.85832
#
# Velocity S-wave (km/s) = 3.44043 5.80331 4.77048
# Velocity P-wave (km/s) = 5.82510 8.70665 7.40734
#
# Compressibility (1/GPa) = 0.02734229
#
# Stress axis : x y z
#
# Youngs Moduli (GPa) = 102.71736 90.13393 19.53652
#
# Poissons Ratio (x) = -0.01983 0.15105
# Poissons Ratio (y) = -0.02260 0.28964
# Poissons Ratio (z) = 0.79417 1.33627
#
# Static dielectric constant tensor:
#      x y z
#    x 1.701740 0.000000 -0.011710 
#    y 0.000000 1.791220 0.000000 
#    z -0.011710 0.000000 1.750190 
# 
# From -- ./inp_files/62547.got.cif
#   From: 2010.05.17/outbox.cif.g08.bks.cpg/sg10_32_cif.got.tgz:62547.got - 2010.06.03 11:33:40.
