data_PCOD9147494
_publ_section_title
;
Structure prediction by ZEFSAII (Michael W. Deem and Ramdas Pophale) SiO2 
 PCOD9147494
Probable space group: P 2/M
;
_chemical_formula_sum "Si O2"
_cell_formula_units_Z 20
_cell_length_a 20.813300
_cell_length_b 7.519843
_cell_length_c 13.913162
_cell_angle_alpha 90.000000
_cell_angle_beta 155.469972
_cell_angle_gamma 90.000000
_cell_volume 904.069072
_symmetry_space_group_name_H-M "P 2/M"
_symmetry_group_IT_number 10
_symmetry_cell_setting 'monoclinic'
loop_
_space_group_symop_operation_xyz
x,y,z
-x,y,-z
-x,-y,-z
x,-y,z
loop_
_atom_site_type_symbol
_atom_site_label
_atom_site_fract_x
_atom_site_fract_y
_atom_site_fract_z
Si Si1 0.267015 0.717598 0.436522
Si Si2 0.668652 0.717133 0.695147
Si Si3 0.893286 0.792719 0.438432
Si Si4 0.457794 0.285111 0.049701
Si Si5 0.005187 0.292695 0.800150
O O1 0.263630 0.500000 0.433300
O O2 0.292275 0.769325 0.361065
O O3 0.111079 0.781721 0.277267
O O4 0.413472 0.774216 0.699807
O O5 0.500000 0.780375 0.500000
O O6 0.660369 0.500000 0.687343
O O7 0.819038 0.776805 0.960612
O O8 0.716087 0.772361 0.166753
O O9 0.000000 0.714298 0.500000
O O10 0.924782 0.716471 0.586922
O O11 0.931493 0.000000 0.500114
O O12 0.459764 0.500000 0.052061
O O13 0.500000 0.223936 0.000000
O O14 0.020939 0.500000 0.846796
#
# Coordination Sequence:
#
# PCOD9147494 Si02
#       5
#     4   4   4   4   4
#     4   9  17  31  52  82 116 143 172 222 277 326
#     4   9  18  30  50  84 115 141 177 224 278 328
#     4  11  25  40  54  78 115 152 187 228 279 334
#     4  10  19  35  59  87 113 139 184 233 276 330
#     4  10  19  35  58  81 109 145 185 228 275 325
#
# _framework density 22.122205000000001
#
# number of rings (size 3 to 8) (size 9 to 14) (size 15 to 20)
#    0.000    2.200    2.000    1.200    2.800    4.400 
#    0.000    0.000    0.000    4.200    0.000    0.000 
#    0.000    0.000    0.000    0.000    0.000    0.000 
#
# Total GULP energy -111715.579636 kJ/mol
# GULP energy per Si atom -5585.778982 kJ/mol
# Density = 2.207185 g / cm^3
# Si number density = 22.122205 Si / 1000 Ang^3
#
#
#
# Elastic Constant Matrix: (Units=GPa)
#
#
# Indices 1 2 3 4 5 6 
#
# 1 80.5589 6.0617 40.5558 0.0000 35.0280 0.0000
# 2 6.0617 49.2684 2.3732 0.0000 1.3666 0.0000
# 3 40.5558 2.3732 157.5320 0.0000 28.8280 0.0000
# 4 0.0000 0.0000 0.0000 -19.4416 0.0000 37.7600
# 5 35.0280 1.3666 28.8280 0.0000 44.4453 0.0000
# 6 0.0000 0.0000 0.0000 37.7600 0.0000 -16.7058
#
#
#
# Elastic Compliance Matrix: (Units=1/GPa)
#
#
# Indices 1 2 3 4 5 6 
#
# 1 0.019923 -0.001941 -0.002539 0.000000 -0.013995 0.000000
# 2 -0.001941 0.020510 0.000030 0.000000 0.000880 0.000000
# 3 -0.002539 0.000030 0.007529 0.000000 -0.002883 0.000000
# 4 0.000000 0.000000 0.000000 0.015173 0.000000 0.034295
# 5 -0.013995 0.000880 -0.002883 0.000000 0.035372 0.000000
# 6 0.000000 0.000000 0.000000 0.034295 0.000000 0.017658
#
#
# Mechanical properties :
#
#
# Convention : Reuss Voigt Hill
#
# Bulk Modulus (GPa) = 25.60044 42.81562 34.20803
# Shear Modulus (GPa) = 36.20988 17.55083 26.88036
#
# Velocity S-wave (km/s) = 4.05014 2.81972 3.48959
# Velocity P-wave (km/s) = 5.78523 5.47697 5.63321
#
# Compressibility (1/GPa) = 0.03906182
#
# Stress axis : x y z
#
# Youngs Moduli (GPa) = 50.19450 48.75688 132.82523
#
# Poissons Ratio (x) = 0.09462 0.33720
# Poissons Ratio (y) = 0.09741 -0.00394
# Poissons Ratio (z) = 0.12743 -0.00145
#
# Static dielectric constant tensor:
#      x y z
#    x 1.775870 0.000000 0.014400 
#    y 0.000000 1.839770 0.000000 
#    z 0.014400 0.000000 1.793300 
# 
# From -- ./inp_files/22131.got.cif
#   From: 2010.05.17/outbox.cif.g08.bks.cpg/sg10_12_cif.got.tgz:22131.got - 2010.06.03 11:33:40.
