data_PCOD9147643
_publ_section_title
;
Structure prediction by ZEFSAII (Michael W. Deem and Ramdas Pophale) SiO2 
 PCOD9147643
Probable space group: P 2/M
;
_chemical_formula_sum "Si O2"
_cell_formula_units_Z 20
_cell_length_a 7.514566
_cell_length_b 13.009614
_cell_length_c 8.965723
_cell_angle_alpha 90.000000
_cell_angle_beta 111.124072
_cell_angle_gamma 90.000000
_cell_volume 817.604354
_symmetry_space_group_name_H-M "P 2/M"
_symmetry_group_IT_number 10
_symmetry_cell_setting 'monoclinic'
loop_
_space_group_symop_operation_xyz
x,y,z
-x,y,-z
-x,-y,-z
x,-y,z
loop_
_atom_site_type_symbol
_atom_site_label
_atom_site_fract_x
_atom_site_fract_y
_atom_site_fract_z
Si Si1 0.203078 0.389077 0.434607
Si Si2 0.802754 0.653268 0.167762
Si Si3 0.566336 0.111292 0.692034
Si Si4 0.620150 0.664681 0.814813
Si Si5 0.822920 0.820422 0.366870
O O1 0.236412 0.500000 0.520089
O O2 0.342692 0.382279 0.335210
O O3 0.211598 0.282614 0.534145
O O4 0.988780 0.394076 0.300662
O O5 0.591034 0.642454 0.180401
O O6 0.854505 0.772602 0.214302
O O7 0.766972 0.628735 0.985539
O O8 0.500000 0.127888 0.500000
O O9 0.652756 0.213677 0.790389
O O10 0.358847 0.110409 0.703051
O O11 0.662967 0.000000 0.732724
O O12 0.000000 0.871809 0.500000
#
# Coordination Sequence:
#
# PCOD9147643 Si02
#       5
#     4   4   4   4   4
#     4  11  22  37  59  83 112 154 194 228 275 335
#     4   9  21  36  56  81 116 148 181 233 279 326
#     4  10  19  35  61  85 108 144 188 231 279 337
#     4  10  20  39  58  82 116 149 184 232 286 329
#     4   9  19  37  56  83 115 146 185 235 279 326
#
# _framework density 24.461708999999999
#
# number of rings (size 3 to 8) (size 9 to 14) (size 15 to 20)
#    0.000    2.200    2.000    0.600    0.000    6.400 
#    0.000   17.000    0.000    3.600    0.000    0.000 
#    0.000    0.000    0.000    0.000    0.000    0.000 
#
# Total GULP energy -111365.506071 kJ/mol
# GULP energy per Si atom -5568.275304 kJ/mol
# Density = 2.440603 g / cm^3
# Si number density = 24.461709 Si / 1000 Ang^3
#
#
#
# Elastic Constant Matrix: (Units=GPa)
#
#
# Indices 1 2 3 4 5 6 
#
# 1 52.4561 6.8421 9.7339 0.0000 -1.5513 0.0000
# 2 6.8421 142.9792 20.2877 0.0000 -3.4444 0.0000
# 3 9.7339 20.2877 101.8228 0.0000 6.6752 0.0000
# 4 0.0000 0.0000 0.0000 3.5768 0.0000 -3.7106
# 5 -1.5513 -3.4444 6.6752 0.0000 37.7179 0.0000
# 6 0.0000 0.0000 0.0000 -3.7106 0.0000 16.7842
#
#
#
# Elastic Compliance Matrix: (Units=1/GPa)
#
#
# Indices 1 2 3 4 5 6 
#
# 1 0.019515 -0.000652 -0.001805 0.000000 0.001063 0.000000
# 2 -0.000652 0.007251 -0.001441 0.000000 0.000890 0.000000
# 3 -0.001805 -0.001441 0.010415 0.000000 -0.002049 0.000000
# 4 0.000000 0.000000 0.000000 0.362773 0.000000 0.080200
# 5 0.001063 0.000890 -0.002049 0.000000 0.027000 0.000000
# 6 0.000000 0.000000 0.000000 0.080200 0.000000 0.077310
#
#
# Mechanical properties :
#
#
# Convention : Reuss Voigt Hill
#
# Bulk Modulus (GPa) = 34.03125 41.22060 37.62593
# Shear Modulus (GPa) = 9.58119 28.97542 19.27831
#
# Velocity S-wave (km/s) = 1.98124 3.44542 2.81036
# Velocity P-wave (km/s) = 4.37904 5.71975 5.09370
#
# Compressibility (1/GPa) = 0.02938475
#
# Stress axis : x y z
#
# Youngs Moduli (GPa) = 51.24249 137.90977 96.01572
#
# Poissons Ratio (x) = 0.08993 0.17334
# Poissons Ratio (y) = 0.03342 0.13834
# Poissons Ratio (z) = 0.09251 0.19870
#
# Static dielectric constant tensor:
#      x y z
#    x 2.117940 0.000000 -0.073900 
#    y 0.000000 2.015420 0.000000 
#    z -0.073900 0.000000 2.005160 
# 
# From -- ./inp_files/18676.got.cif
#   From: 2010.05.17/outbox.cif.g08.bks.cpg/sg10_10_cif.got.tgz:18676.got - 2010.06.03 11:33:40.
