data_PCOD9147652
_publ_section_title
;
Structure prediction by ZEFSAII (Michael W. Deem and Ramdas Pophale) SiO2 
 PCOD9147652
Probable space group: P 2/M
;
_chemical_formula_sum "Si O2"
_cell_formula_units_Z 32
_cell_length_a 12.601187
_cell_length_b 15.489075
_cell_length_c 17.617865
_cell_angle_alpha 90.000000
_cell_angle_beta 26.400236
_cell_angle_gamma 90.000000
_cell_volume 1528.965343
_symmetry_space_group_name_H-M "P 2/M"
_symmetry_group_IT_number 10
_symmetry_cell_setting 'monoclinic'
loop_
_space_group_symop_operation_xyz
x,y,z
-x,y,-z
-x,-y,-z
x,-y,z
loop_
_atom_site_type_symbol
_atom_site_label
_atom_site_fract_x
_atom_site_fract_y
_atom_site_fract_z
Si Si1 0.843597 0.241478 0.333799
Si Si2 0.330844 0.140819 0.840184
Si Si3 0.241653 0.751765 0.191273
Si Si4 0.235951 0.596098 0.708092
Si Si5 0.732520 0.903801 0.703657
Si Si6 0.532670 0.317138 0.304347
Si Si7 0.927897 0.403667 0.458603
Si Si8 0.192030 0.096022 0.763851
O O1 0.897109 0.329477 0.253081
O O2 0.638528 0.266039 0.525750
O O3 0.762015 0.169451 0.327056
O O4 0.078928 0.211749 0.227358
O O5 0.549451 0.111698 0.752005
O O6 0.339086 0.244685 0.827552
O O7 0.335486 0.106709 0.750735
O O8 0.084152 0.109126 0.034365
O O9 0.281923 0.826547 0.227143
O O10 0.089946 0.670615 0.318344
O O11 0.500000 0.721854 0.000000
O O12 0.500000 0.592737 0.500000
O O13 0.133224 0.500000 0.769993
O O14 0.285867 0.627575 0.761476
O O15 0.000000 0.901653 0.500000
O O16 0.311989 0.000000 0.235717
O O17 0.346786 0.375553 0.377215
O O18 0.960831 0.500000 0.404581
O O19 0.000000 0.405979 0.500000
O O20 0.226837 0.000000 0.711051
#
# Coordination Sequence:
#
# PCOD9147652 Si02
#       8
#     4   4   4   4   4   4   4   4
#     4  10  21  37  57  85 116 149 193 245 292 350
#     4  11  21  38  62  84 117 155 199 246 292 356
#     4  11  23  38  59  86 120 161 200 244 303 357
#     4   9  17  32  56  83 110 142 181 232 292 347
#     4  11  23  40  61  87 119 161 212 256 299 353
#     4  10  19  35  61  86 118 145 192 245 297 345
#     4  10  21  38  61  90 119 154 199 245 298 361
#     4  11  23  39  58  85 120 162 199 237 298 359
#
# _framework density 20.929186000000001
#
# number of rings (size 3 to 8) (size 9 to 14) (size 15 to 20)
#    0.000    1.625    1.250    5.250    0.000    4.000 
#    0.000    2.500    0.000    2.250    0.000    0.000 
#    0.000    0.000    0.000    0.000    0.000    0.000 
#
# Total GULP energy -178875.520789 kJ/mol
# GULP energy per Si atom -5589.860025 kJ/mol
# Density = 2.088155 g / cm^3
# Si number density = 20.929186 Si / 1000 Ang^3
#
#
#
# Elastic Constant Matrix: (Units=GPa)
#
#
# Indices 1 2 3 4 5 6 
#
# 1 124.9658 41.8128 23.3126 0.0000 -25.5154 0.0000
# 2 41.8128 150.9671 16.8789 0.0000 -1.5265 0.0000
# 3 23.3126 16.8789 34.0206 0.0000 -12.5141 0.0000
# 4 0.0000 0.0000 0.0000 265.8367 0.0000 81.5328
# 5 -25.5154 -1.5265 -12.5141 0.0000 21.2965 0.0000
# 6 0.0000 0.0000 0.0000 81.5328 0.0000 39.8021
#
#
#
# Elastic Compliance Matrix: (Units=1/GPa)
#
#
# Indices 1 2 3 4 5 6 
#
# 1 0.012029 -0.002980 -0.001967 0.000000 0.013043 0.000000
# 2 -0.002980 0.007816 -0.003755 0.000000 -0.005216 0.000000
# 3 -0.001967 -0.003755 0.040363 0.000000 0.021092 0.000000
# 4 0.000000 0.000000 0.000000 0.010119 0.000000 -0.020729
# 5 0.013043 -0.005216 0.021092 0.000000 0.074603 0.000000
# 6 0.000000 0.000000 0.000000 -0.020729 0.000000 0.067587
#
#
# Mechanical properties :
#
#
# Convention : Reuss Voigt Hill
#
# Bulk Modulus (GPa) = 23.36141 52.66245 38.01193
# Shear Modulus (GPa) = 20.47587 80.58367 50.52977
#
# Velocity S-wave (km/s) = 3.13124 6.21181 4.91890
# Velocity P-wave (km/s) = 4.92536 8.75589 7.10369
#
# Compressibility (1/GPa) = 0.04280564
#
# Stress axis : x y z
#
# Youngs Moduli (GPa) = 83.13062 127.93697 24.77503
#
# Poissons Ratio (x) = 0.38124 0.04873
# Poissons Ratio (y) = 0.24772 0.09302
# Poissons Ratio (z) = 0.16351 0.48037
#
# Static dielectric constant tensor:
#      x y z
#    x 1.754900 0.000000 0.010390 
#    y 0.000000 1.772170 0.000000 
#    z 0.010390 0.000000 1.758690 
# 
# From -- ./inp_files/77013.got.cif
#   From: 2010.05.17/outbox.cif.g08.bks.cpg/sg10_39_cif.got.tgz:77013.got - 2010.06.03 11:33:40.
