data_PCOD9147978
_publ_section_title
;
Structure prediction by ZEFSAII (Michael W. Deem and Ramdas Pophale) SiO2 
 PCOD9147978
Probable space group: P 2/M
;
_chemical_formula_sum "Si O2"
_cell_formula_units_Z 24
_cell_length_a 17.916413
_cell_length_b 11.785215
_cell_length_c 10.984934
_cell_angle_alpha 90.000000
_cell_angle_beta 31.446059
_cell_angle_gamma 90.000000
_cell_volume 1210.049718
_symmetry_space_group_name_H-M "P 2/M"
_symmetry_group_IT_number 10
_symmetry_cell_setting 'monoclinic'
loop_
_space_group_symop_operation_xyz
x,y,z
-x,y,-z
-x,-y,-z
x,-y,z
loop_
_atom_site_type_symbol
_atom_site_label
_atom_site_fract_x
_atom_site_fract_y
_atom_site_fract_z
Si Si1 0.404740 0.748727 0.509227
Si Si2 0.520881 0.500000 0.612425
Si Si3 0.618228 0.753660 0.728603
Si Si4 0.892086 0.131225 0.047102
Si Si5 0.000000 0.694138 0.500000
Si Si6 0.883008 0.871286 0.476789
Si Si7 0.790641 0.500000 0.827953
Si Si8 0.332772 0.500000 0.268063
O O1 0.500000 0.764970 0.500000
O O2 0.397642 0.616366 0.485812
O O3 0.445337 0.790504 0.315239
O O4 0.251853 0.798989 0.753523
O O5 0.500000 0.500000 0.500000
O O6 0.367055 0.500000 0.893684
O O7 0.747414 0.836840 0.583981
O O8 0.681371 0.623410 0.648250
O O9 0.500000 0.759617 0.000000
O O10 0.858233 0.000000 0.124675
O O11 0.000000 0.174950 0.000000
O O12 0.977055 0.132789 0.802934
O O13 0.092958 0.776389 0.455195
O O14 0.112849 0.609882 0.276661
O O15 0.866960 0.000000 0.546153
O O16 0.762374 0.500000 0.721650
O O17 0.500000 0.500000 0.000000
#
# Coordination Sequence:
#
# PCOD9147978 Si02
#       8
#     4   2   4   4   2   4   2   2
#     4  11  24  41  66  98 133 175 221 277 333 394
#     4  10  23  39  60  93 137 165 204 273 344 385
#     4  11  22  39  66  96 132 173 222 276 335 401
#     4  10  22  44  68  88 124 175 224 270 325 392
#     4  11  25  40  68  96 133 169 220 270 326 403
#     4  11  24  42  65  93 130 175 222 273 331 389
#     4  11  22  42  65  99 128 172 216 267 332 408
#     4  10  19  37  63  87 119 167 209 257 323 398
#
# _framework density 19.833895999999999
#
# number of rings (size 3 to 8) (size 9 to 14) (size 15 to 20)
#    0.000    1.333    3.333    2.750    4.667    0.667 
#    0.000    1.250    0.000    0.000    0.000    0.000 
#    0.000    0.000    0.000    0.000    0.000    0.000 
#
# Total GULP energy -133704.324974 kJ/mol
# GULP energy per Si atom -5571.013541 kJ/mol
# Density = 1.978875 g / cm^3
# Si number density = 19.833896 Si / 1000 Ang^3
#
#
#
# Elastic Constant Matrix: (Units=GPa)
#
#
# Indices 1 2 3 4 5 6 
#
# 1 130.3260 33.9465 31.2959 0.0000 -1.2998 0.0000
# 2 33.9465 114.5092 56.9707 0.0000 -15.8149 0.0000
# 3 31.2959 56.9707 90.0698 0.0000 -6.4206 0.0000
# 4 0.0000 0.0000 0.0000 19.3708 0.0000 -4.1760
# 5 -1.2998 -15.8149 -6.4206 0.0000 31.6935 0.0000
# 6 0.0000 0.0000 0.0000 -4.1760 0.0000 18.6786
#
#
#
# Elastic Compliance Matrix: (Units=1/GPa)
#
#
# Indices 1 2 3 4 5 6 
#
# 1 0.008577 -0.001680 -0.001981 0.000000 -0.000888 0.000000
# 2 -0.001680 0.013833 -0.007791 0.000000 0.005255 0.000000
# 3 -0.001981 -0.007791 0.016677 0.000000 -0.000591 0.000000
# 4 0.000000 0.000000 0.000000 0.054238 0.000000 0.012126
# 5 -0.000888 0.005255 -0.000591 0.000000 0.034019 0.000000
# 6 0.000000 0.000000 0.000000 0.012126 0.000000 0.056248
#
#
# Mechanical properties :
#
#
# Convention : Reuss Voigt Hill
#
# Bulk Modulus (GPa) = 61.79352 64.37012 63.08182
# Shear Modulus (GPa) = 23.59695 28.12803 25.86249
#
# Velocity S-wave (km/s) = 3.45299 3.76996 3.61495
# Velocity P-wave (km/s) = 6.86445 7.17462 7.02125
#
# Compressibility (1/GPa) = 0.01618293
#
# Stress axis : x y z
#
# Youngs Moduli (GPa) = 116.58417 72.29051 59.96292
#
# Poissons Ratio (x) = 0.12143 0.11880
# Poissons Ratio (y) = 0.19583 0.46719
# Poissons Ratio (z) = 0.23097 0.56324
#
# Static dielectric constant tensor:
#      x y z
#    x 1.707410 0.000000 0.029760 
#    y 0.000000 1.846970 0.000000 
#    z 0.029760 0.000000 1.663550 
# 
# From -- ./inp_files/53638.got.cif
#   From: 2010.05.17/outbox.cif.g08.bks.cpg/sg10_27_cif.got.tgz:53638.got - 2010.06.03 11:33:40.
