data_PCOD9147446
_publ_section_title
;
Structure prediction by ZEFSAII (Michael W. Deem and Ramdas Pophale) SiO2 
 PCOD9147446
Probable space group: P 2/M
;
_chemical_formula_sum "Si O2"
_cell_formula_units_Z 28
_cell_length_a 16.920859
_cell_length_b 7.435574
_cell_length_c 23.008489
_cell_angle_alpha 90.000000
_cell_angle_beta 25.695357
_cell_angle_gamma 90.000000
_cell_volume 1255.163554
_symmetry_space_group_name_H-M "P 2/M"
_symmetry_group_IT_number 10
_symmetry_cell_setting 'monoclinic'
loop_
_space_group_symop_operation_xyz
x,y,z
-x,y,-z
-x,-y,-z
x,-y,z
loop_
_atom_site_type_symbol
_atom_site_label
_atom_site_fract_x
_atom_site_fract_y
_atom_site_fract_z
Si Si1 0.335067 0.286521 0.376342
Si Si2 0.274269 0.281064 0.843873
Si Si3 0.319705 0.205369 0.588459
Si Si4 0.702808 0.220637 0.847947
Si Si5 0.923080 0.717813 0.143630
Si Si6 0.807620 0.785869 0.650405
Si Si7 0.076043 0.793055 0.647879
O O1 0.326017 0.500000 0.390439
O O2 0.523690 0.217536 0.277659
O O3 0.327952 0.247153 0.312938
O O4 0.165785 0.209018 0.524454
O O5 0.275134 0.500000 0.843777
O O6 0.201345 0.228668 0.828956
O O7 0.126549 0.226942 0.990289
O O8 0.500000 0.286931 0.500000
O O9 0.162539 0.207811 0.741242
O O10 0.224679 0.287789 0.594079
O O11 0.373292 0.000000 0.537632
O O12 0.745178 0.281447 0.754199
O O13 0.871893 0.281595 0.776390
O O14 0.705972 0.000000 0.847004
O O15 0.500000 0.276099 0.000000
O O16 0.919663 0.500000 0.150050
O O17 0.000000 0.711412 0.500000
O O18 0.828660 0.000000 0.643125
O O19 0.055112 0.000000 0.680809
#
# Coordination Sequence:
#
# PCOD9147446 Si02
#       7
#     4   4   4   4   4   4   4
#     4  11  21  33  54  82 108 133 174 221 269 315
#     4   8  17  33  52  76 103 137 175 218 262 311
#     4  10  21  34  50  77 111 139 168 216 274 319
#     4   9  18  34  56  78 101 136 181 220 255 308
#     4   9  17  34  56  72  99 141 183 216 254 310
#     4  10  19  35  57  79 104 136 177 218 260 314
#     4  10  20  36  54  73 104 142 176 214 263 318
#
# _framework density 22.307849000000001
#
# number of rings (size 3 to 8) (size 9 to 14) (size 15 to 20)
#    0.000    2.429    1.429    2.143    0.000    2.286 
#    0.000    5.000    0.000    1.714    0.000    0.000 
#    0.000    0.000    0.000    0.000    0.000    0.000 
#
# Total GULP energy -156340.441570 kJ/mol
# GULP energy per Si atom -5583.587199 kJ/mol
# Density = 2.225708 g / cm^3
# Si number density = 22.307849 Si / 1000 Ang^3
#
#
#
# Elastic Constant Matrix: (Units=GPa)
#
#
# Indices 1 2 3 4 5 6 
#
# 1 122.0965 4.3257 59.0376 0.0000 -15.6046 0.0000
# 2 4.3257 72.5289 7.0982 0.0000 -0.4996 0.0000
# 3 59.0376 7.0982 114.9080 0.0000 -16.9823 0.0000
# 4 0.0000 0.0000 0.0000 11.9001 0.0000 6.2954
# 5 -15.6046 -0.4996 -16.9823 0.0000 42.6977 0.0000
# 6 0.0000 0.0000 0.0000 6.2954 0.0000 12.7722
#
#
#
# Elastic Compliance Matrix: (Units=1/GPa)
#
#
# Indices 1 2 3 4 5 6 
#
# 1 0.011040 -0.000118 -0.005385 0.000000 0.001891 0.000000
# 2 -0.000118 0.013874 -0.000827 0.000000 -0.000210 0.000000
# 3 -0.005385 -0.000827 0.011930 0.000000 0.002767 0.000000
# 4 0.000000 0.000000 0.000000 0.113674 0.000000 -0.056029
# 5 0.001891 -0.000210 0.002767 0.000000 0.025210 0.000000
# 6 0.000000 0.000000 0.000000 -0.056029 0.000000 0.105911
#
#
# Mechanical properties :
#
#
# Convention : Reuss Voigt Hill
#
# Bulk Modulus (GPa) = 41.35326 50.05071 45.70199
# Shear Modulus (GPa) = 16.53650 29.41211 22.97430
#
# Velocity S-wave (km/s) = 2.72561 3.63501 3.21265
# Velocity P-wave (km/s) = 5.33695 6.33267 5.85601
#
# Compressibility (1/GPa) = 0.02418189
#
# Stress axis : x y z
#
# Youngs Moduli (GPa) = 90.57814 72.07627 83.82534
#
# Poissons Ratio (x) = 0.00853 0.45143
# Poissons Ratio (y) = 0.01072 0.06935
# Poissons Ratio (z) = 0.48780 0.05963
#
# Static dielectric constant tensor:
#      x y z
#    x 1.831520 0.000000 -0.027800 
#    y 0.000000 1.841040 0.000000 
#    z -0.027800 0.000000 1.795430 
# 
# From -- ./inp_files/49100.got.cif
#   From: 2010.05.17/outbox.cif.g08.bks.cpg/sg10_25_cif.got.tgz:49100.got - 2010.06.03 11:33:40.
