data_PCOD9147463
_publ_section_title
;
Structure prediction by ZEFSAII (Michael W. Deem and Ramdas Pophale) SiO2 
 PCOD9147463
Probable space group: P 2/M
;
_chemical_formula_sum "Si O2"
_cell_formula_units_Z 32
_cell_length_a 10.221185
_cell_length_b 13.636620
_cell_length_c 27.716376
_cell_angle_alpha 90.000000
_cell_angle_beta 150.934158
_cell_angle_gamma 90.000000
_cell_volume 1876.786174
_symmetry_space_group_name_H-M "P 2/M"
_symmetry_group_IT_number 10
_symmetry_cell_setting 'monoclinic'
loop_
_space_group_symop_operation_xyz
x,y,z
-x,y,-z
-x,-y,-z
x,-y,z
loop_
_atom_site_type_symbol
_atom_site_label
_atom_site_fract_x
_atom_site_fract_y
_atom_site_fract_z
Si Si1 0.610831 0.773542 0.483456
Si Si2 0.014995 0.616263 0.100731
Si Si3 0.042345 0.615171 0.456776
Si Si4 0.864039 0.114292 0.311141
Si Si5 0.092447 0.884960 0.278069
Si Si6 0.433651 0.302793 0.762109
Si Si7 0.429517 0.614041 0.866582
Si Si8 0.789624 0.261367 0.116495
O O1 0.500000 0.740348 0.500000
O O2 0.721892 0.683240 0.488370
O O3 0.372355 0.830971 0.380113
O O4 0.860518 0.846262 0.575492
O O5 0.066783 0.500000 0.125174
O O6 0.268112 0.667293 0.157281
O O7 0.946589 0.672733 0.128146
O O8 0.746689 0.623762 0.981533
O O9 0.092379 0.500000 0.464728
O O10 0.000000 0.630980 0.500000
O O11 0.774234 0.648899 0.342297
O O12 0.631621 0.187322 0.254369
O O13 0.913083 0.124578 0.269244
O O14 0.819805 0.000000 0.307486
O O15 0.949954 0.832214 0.187389
O O16 0.135663 0.000000 0.283926
O O17 0.375338 0.346722 0.796025
O O18 0.360292 0.500000 0.847484
O O19 0.269886 0.673303 0.855577
O O20 0.500000 0.235476 0.000000
#
# Coordination Sequence:
#
# PCOD9147463 Si02
#       8
#     4   4   4   4   4   4   4   4
#     4   9  19  35  58  84 105 135 184 232 267 314
#     4  10  21  35  55  81 113 147 178 223 276 325
#     4  10  22  37  52  76 117 156 177 208 268 333
#     4   9  18  35  59  82 107 140 179 232 281 315
#     4  10  19  35  59  82 106 140 185 229 275 321
#     4  11  20  35  57  82 108 145 189 223 264 324
#     4  10  19  35  57  82 108 139 187 231 268 320
#     4  10  21  36  54  82 113 145 178 223 278 328
#
# _framework density 17.050424
#
# number of rings (size 3 to 8) (size 9 to 14) (size 15 to 20)
#    0.000    2.125    1.250    2.250    1.750    4.500 
#    0.000    1.250    0.000    4.125    0.000    0.000 
#    0.000    0.000    0.000    0.000    0.000    0.000 
#
# Total GULP energy -178575.728212 kJ/mol
# GULP energy per Si atom -5580.491507 kJ/mol
# Density = 1.701162 g / cm^3
# Si number density = 17.050424 Si / 1000 Ang^3
#
#
#
# Elastic Constant Matrix: (Units=GPa)
#
#
# Indices 1 2 3 4 5 6 
#
# 1 20.7536 19.4393 -8.3331 0.0000 -23.9382 0.0000
# 2 19.4393 116.8387 11.7902 0.0000 -14.2587 0.0000
# 3 -8.3331 11.7902 0.3877 0.0000 -29.7115 0.0000
# 4 0.0000 0.0000 0.0000 22.4502 0.0000 -1.4533
# 5 -23.9382 -14.2587 -29.7115 0.0000 25.1364 0.0000
# 6 0.0000 0.0000 0.0000 -1.4533 0.0000 27.7743
#
#
#
# Elastic Compliance Matrix: (Units=1/GPa)
#
#
# Indices 1 2 3 4 5 6 
#
# 1 0.028217 -0.002887 -0.029337 0.000000 -0.009442 0.000000
# 2 -0.002887 0.009429 0.001670 0.000000 0.004573 0.000000
# 3 -0.029337 0.001670 0.001904 0.000000 -0.024742 0.000000
# 4 0.000000 0.000000 0.000000 0.044694 0.000000 0.002339
# 5 -0.009442 0.004573 -0.024742 0.000000 0.004140 0.000000
# 6 0.000000 0.000000 0.000000 0.002339 0.000000 0.036127
#
#
# Mechanical properties :
#
#
# Convention : Reuss Voigt Hill
#
# Bulk Modulus (GPa) = -46.38424 20.41921 -12.98252
# Shear Modulus (GPa) = 28.02162 22.74443 25.38303
#
# Velocity S-wave (km/s) = 4.05835 3.65629 3.86256
# Velocity P-wave (km/s) = 2.30280 5.46136 3.50168
#
# Compressibility (1/GPa) = -0.02155905
#
# Stress axis : x y z
#
# Youngs Moduli (GPa) = 35.43915 106.05959 525.26029
#
# Poissons Ratio (x) = 0.30615 15.40979
# Poissons Ratio (y) = 0.10230 -0.87697
# Poissons Ratio (z) = 1.03969 -0.17708
#
# Static dielectric constant tensor:
#      x y z
#    x 1.560330 0.000000 0.001200 
#    y 0.000000 1.556880 0.000000 
#    z 0.001200 0.000000 1.572630 
# 
# From -- ./inp_files/25296.got.cif
#   From: 2010.05.17/outbox.cif.g08.bks.cpg/sg10_13_cif.got.tgz:25296.got - 2010.06.03 11:33:40.
