data_PCOD9147645
_publ_section_title
;
Structure prediction by ZEFSAII (Michael W. Deem and Ramdas Pophale) SiO2 
 PCOD9147645
Probable space group: P 2/M
;
_chemical_formula_sum "Si O2"
_cell_formula_units_Z 28
_cell_length_a 26.409586
_cell_length_b 7.562896
_cell_length_c 10.335175
_cell_angle_alpha 90.000000
_cell_angle_beta 39.677183
_cell_angle_gamma 90.000000
_cell_volume 1317.959849
_symmetry_space_group_name_H-M "P 2/M"
_symmetry_group_IT_number 10
_symmetry_cell_setting 'monoclinic'
loop_
_space_group_symop_operation_xyz
x,y,z
-x,y,-z
-x,-y,-z
x,-y,z
loop_
_atom_site_type_symbol
_atom_site_label
_atom_site_fract_x
_atom_site_fract_y
_atom_site_fract_z
Si Si1 0.348342 0.786797 0.064184
Si Si2 0.069933 0.716709 0.764840
Si Si3 0.227055 0.214470 0.075583
Si Si4 0.242459 0.293881 0.517987
Si Si5 0.686638 0.206755 0.346914
Si Si6 0.512034 0.216286 0.626689
Si Si7 0.946736 0.704204 0.491831
O O1 0.293410 0.737074 0.050528
O O2 0.305854 0.726341 0.278275
O O3 0.349886 0.000000 0.066225
O O4 0.437407 0.724664 0.859429
O O5 0.072914 0.500000 0.754726
O O6 0.156959 0.778056 0.640057
O O7 0.051422 0.780495 0.656136
O O8 0.000000 0.766568 0.000000
O O9 0.143442 0.290274 0.283268
O O10 0.219123 0.000000 0.092168
O O11 0.255958 0.277332 0.878225
O O12 0.230233 0.500000 0.567271
O O13 0.276491 0.219220 0.584120
O O14 0.597329 0.278835 0.509989
O O15 0.678335 0.000000 0.330862
O O16 0.500000 0.266281 0.500000
O O17 0.510577 0.000000 0.632302
O O18 0.973380 0.500000 0.425678
O O19 0.000000 0.786863 0.500000
#
# Coordination Sequence:
#
# PCOD9147645 Si02
#       7
#     4   4   4   4   4   4   4
#     4  10  19  35  61  85 109 146 187 230 278 330
#     4   9  19  36  55  77 106 142 184 227 269 318
#     4  10  20  35  58  85 115 145 178 232 288 329
#     4  11  23  38  57  81 114 152 185 226 277 334
#     4  10  21  37  58  85 114 145 187 234 275 326
#     4   9  16  32  59  86 109 141 190 235 272 322
#     4  10  21  36  58  84 109 143 189 232 269 327
#
# _framework density 21.244955999999998
#
# number of rings (size 3 to 8) (size 9 to 14) (size 15 to 20)
#    0.000    2.143    2.857    0.429    2.000    1.429 
#    0.000    3.571    0.000    3.000    0.000    0.000 
#    0.000    0.000    0.000    0.000    0.000    0.000 
#
# Total GULP energy -156382.890602 kJ/mol
# GULP energy per Si atom -5585.103236 kJ/mol
# Density = 2.119660 g / cm^3
# Si number density = 21.244956 Si / 1000 Ang^3
#
#
#
# Elastic Constant Matrix: (Units=GPa)
#
#
# Indices 1 2 3 4 5 6 
#
# 1 145.9575 -2.0577 80.1607 0.0000 11.1705 0.0000
# 2 -2.0577 43.4196 -10.5539 0.0000 -3.3487 0.0000
# 3 80.1607 -10.5539 169.3352 0.0000 3.6317 0.0000
# 4 0.0000 0.0000 0.0000 7.2328 0.0000 -27.7957
# 5 11.1705 -3.3487 3.6317 0.0000 30.3792 0.0000
# 6 0.0000 0.0000 0.0000 -27.7957 0.0000 -39.4861
#
#
#
# Elastic Compliance Matrix: (Units=1/GPa)
#
#
# Indices 1 2 3 4 5 6 
#
# 1 0.009551 -0.000880 -0.004510 0.000000 -0.003070 0.000000
# 2 -0.000880 0.023644 0.001832 0.000000 0.002711 0.000000
# 3 -0.004510 0.001832 0.008136 0.000000 0.000888 0.000000
# 4 0.000000 0.000000 0.000000 0.037314 0.000000 -0.026267
# 5 -0.003070 0.002711 0.000888 0.000000 0.034239 0.000000
# 6 0.000000 0.000000 0.000000 -0.026267 0.000000 -0.006835
#
#
# Mechanical properties :
#
#
# Convention : Reuss Voigt Hill
#
# Bulk Modulus (GPa) = 29.22823 54.86783 42.04803
# Shear Modulus (GPa) = 40.13807 19.03607 29.58707
#
# Velocity S-wave (km/s) = 4.35132 2.99662 3.73589
# Velocity P-wave (km/s) = 6.24763 6.15267 6.20033
#
# Compressibility (1/GPa) = 0.03421350
#
# Stress axis : x y z
#
# Youngs Moduli (GPa) = 104.70211 42.29437 122.91503
#
# Poissons Ratio (x) = 0.03724 0.55438
# Poissons Ratio (y) = 0.09218 -0.22521
# Poissons Ratio (z) = 0.47224 -0.07749
#
# Static dielectric constant tensor:
#      x y z
#    x 1.742920 0.000000 -0.007350 
#    y 0.000000 1.820040 0.000000 
#    z -0.007350 0.000000 1.727530 
# 
# From -- ./inp_files/36930.got.cif
#   From: 2010.05.17/outbox.cif.g08.bks.cpg/sg10_19_cif.got.tgz:36930.got - 2010.06.03 11:33:40.
