data_PCOD9147883
_publ_section_title
;
Structure prediction by ZEFSAII (Michael W. Deem and Ramdas Pophale) SiO2 
 PCOD9147883
Probable space group: P 2/M
;
_chemical_formula_sum "Si O2"
_cell_formula_units_Z 28
_cell_length_a 9.082547
_cell_length_b 14.914276
_cell_length_c 9.148036
_cell_angle_alpha 90.000000
_cell_angle_beta 72.081501
_cell_angle_gamma 90.000000
_cell_volume 1179.082678
_symmetry_space_group_name_H-M "P 2/M"
_symmetry_group_IT_number 10
_symmetry_cell_setting 'monoclinic'
loop_
_space_group_symop_operation_xyz
x,y,z
-x,y,-z
-x,-y,-z
x,-y,z
loop_
_atom_site_type_symbol
_atom_site_label
_atom_site_fract_x
_atom_site_fract_y
_atom_site_fract_z
Si Si1 0.980793 0.136849 0.338820
Si Si2 0.622976 0.730305 0.097125
Si Si3 0.169541 0.101353 0.011690
Si Si4 0.656499 0.704131 0.638814
Si Si5 0.814791 0.601933 0.865844
Si Si6 0.916147 0.652588 0.376430
Si Si7 0.331865 0.099426 0.479094
O O1 0.967105 0.244052 0.338088
O O2 0.807329 0.102183 0.358868
O O3 0.000000 0.107444 0.500000
O O4 0.121817 0.106023 0.196956
O O5 0.704943 0.826306 0.072296
O O6 0.753828 0.657590 0.021454
O O7 0.500000 0.731499 0.000000
O O8 0.524177 0.704497 0.269176
O O9 0.212305 0.000000 0.961063
O O10 0.000000 0.124417 0.000000
O O11 0.738468 0.655433 0.751470
O O12 0.736038 0.656835 0.474588
O O13 0.693250 0.810599 0.609703
O O14 0.759468 0.500000 0.885489
O O15 0.998953 0.603470 0.781239
O O16 0.000000 0.619119 0.500000
O O17 0.500000 0.109847 0.500000
O O18 0.329279 0.000000 0.410649
#
# Coordination Sequence:
#
# PCOD9147883 Si02
#       7
#     4   4   4   4   4   4   4
#     4  10  20  39  62  89 122 162 216 271 310 363
#     4  10  22  39  59  89 125 164 205 262 321 377
#     4  11  25  41  60  89 129 175 218 261 317 385
#     4   9  20  34  54  86 122 156 199 255 313 370
#     4  10  19  36  62  91 121 155 204 264 325 387
#     4   8  15  31  56  84 114 147 195 250 303 359
#     4  10  22  37  58  87 124 167 212 257 312 377
#
# _framework density 23.747274999999998
#
# number of rings (size 3 to 8) (size 9 to 14) (size 15 to 20)
#    0.000    2.286    1.429    1.286    6.000    7.143 
#    0.000    0.000    0.000    0.857    0.000    4.000 
#    0.000    0.000    0.000    0.000    0.000    0.000 
#
# Total GULP energy -156253.978729 kJ/mol
# GULP energy per Si atom -5580.499240 kJ/mol
# Density = 2.369323 g / cm^3
# Si number density = 23.747275 Si / 1000 Ang^3
#
#
#
# Elastic Constant Matrix: (Units=GPa)
#
#
# Indices 1 2 3 4 5 6 
#
# 1 77.5452 27.4767 41.6646 0.0000 -19.6196 0.0000
# 2 27.4767 102.3115 36.6632 0.0000 -17.1236 0.0000
# 3 41.6646 36.6632 125.2653 0.0000 -58.2247 0.0000
# 4 0.0000 0.0000 0.0000 -19.1571 0.0000 -0.2363
# 5 -19.6196 -17.1236 -58.2247 0.0000 49.1757 0.0000
# 6 0.0000 0.0000 0.0000 -0.2363 0.0000 40.9920
#
#
#
# Elastic Compliance Matrix: (Units=1/GPa)
#
#
# Indices 1 2 3 4 5 6 
#
# 1 0.016357 -0.002729 -0.004559 0.000000 0.000177 0.000000
# 2 -0.002729 0.011375 -0.002416 0.000000 0.000011 0.000000
# 3 -0.004559 -0.002416 0.019949 0.000000 0.020959 0.000000
# 4 0.000000 0.000000 0.000000 -0.052196 0.000000 -0.000301
# 5 0.000177 0.000011 0.020959 0.000000 0.045226 0.000000
# 6 0.000000 0.000000 0.000000 -0.000301 0.000000 0.024393
#
#
# Mechanical properties :
#
#
# Convention : Reuss Voigt Hill
#
# Bulk Modulus (GPa) = 35.37203 57.41457 46.39330
# Shear Modulus (GPa) = 53.22677 27.48995 40.35836
#
# Velocity S-wave (km/s) = 4.73946 3.40605 4.12696
# Velocity P-wave (km/s) = 6.69907 6.30064 6.50291
#
# Compressibility (1/GPa) = 0.02827093
#
# Stress axis : x y z
#
# Youngs Moduli (GPa) = 61.13435 87.91374 50.12820
#
# Poissons Ratio (x) = 0.23995 0.22855
# Poissons Ratio (y) = 0.16686 0.12112
# Poissons Ratio (z) = 0.27873 0.21243
#
# Static dielectric constant tensor:
#      x y z
#    x 1.986680 0.000000 0.022410 
#    y 0.000000 1.852010 0.000000 
#    z 0.022410 0.000000 2.023950 
# 
# From -- ./inp_files/42883.got.cif
#   From: 2010.05.17/outbox.cif.g08.bks.cpg/sg10_22_cif.got.tgz:42883.got - 2010.06.03 11:33:40.
