data_PCOD9147902
_publ_section_title
;
Structure prediction by ZEFSAII (Michael W. Deem and Ramdas Pophale) SiO2 
 PCOD9147902
Probable space group: P 2/M
;
_chemical_formula_sum "Si O2"
_cell_formula_units_Z 32
_cell_length_a 14.190976
_cell_length_b 22.653000
_cell_length_c 8.259071
_cell_angle_alpha 90.000000
_cell_angle_beta 34.355375
_cell_angle_gamma 90.000000
_cell_volume 1498.296817
_symmetry_space_group_name_H-M "P 2/M"
_symmetry_group_IT_number 10
_symmetry_cell_setting 'monoclinic'
loop_
_space_group_symop_operation_xyz
x,y,z
-x,y,-z
-x,-y,-z
x,-y,z
loop_
_atom_site_type_symbol
_atom_site_label
_atom_site_fract_x
_atom_site_fract_y
_atom_site_fract_z
Si Si1 0.683900 0.931313 0.665726
Si Si2 0.404777 0.666918 0.471065
Si Si3 0.988392 0.139792 0.706236
Si Si4 0.320062 0.931456 0.717651
Si Si5 0.175206 0.433702 0.658484
Si Si6 0.629462 0.262876 0.944195
Si Si7 0.798815 0.749493 0.053774
Si Si8 0.931305 0.662410 0.419840
O O1 0.691285 0.928926 0.460286
O O2 0.832642 0.888552 0.509224
O O3 0.718397 0.000000 0.664500
O O4 0.500000 0.917413 0.000000
O O5 0.500000 0.652004 0.500000
O O6 0.290238 0.612512 0.589026
O O7 0.324828 0.731822 0.626449
O O8 0.529580 0.679909 0.148396
O O9 0.927222 0.197226 0.890354
O O10 0.000000 0.154487 0.500000
O O11 0.837709 0.095453 0.966017
O O12 0.500000 0.902738 0.500000
O O13 0.327125 0.000000 0.757765
O O14 0.241940 0.500000 0.545464
O O15 0.136037 0.398681 0.550162
O O16 0.000000 0.437383 0.000000
O O17 0.703150 0.239293 0.015142
O O18 0.789628 0.287009 0.621539
O O19 0.500000 0.231963 0.000000
O O20 0.909933 0.690216 0.894466
O O21 0.000000 0.654735 0.500000
#
# Coordination Sequence:
#
# PCOD9147902 Si02
#       8
#     4   4   4   4   4   4   4   4
#     4  10  22  44  71  98 132 176 223 272 330 389
#     4  10  21  40  63  87 119 160 204 255 322 382
#     4  12  24  41  63  96 134 168 223 276 325 389
#     4  10  22  42  66  95 134 176 217 268 327 386
#     4  11  22  38  62  92 122 160 212 260 311 391
#     4  10  19  36  64  89 113 155 209 256 313 376
#     4  10  23  42  59  84 125 167 207 254 309 387
#     4  10  20  39  61  84 122 163 203 252 318 382
#
# _framework density 21.357583000000002
#
# number of rings (size 3 to 8) (size 9 to 14) (size 15 to 20)
#    0.000    1.625    2.500    2.625    0.000    5.000 
#    4.500    7.500    0.000    0.000    0.000    0.000 
#    0.000    0.000    0.000    0.000    0.000    0.000 
#
# Total GULP energy -178422.739585 kJ/mol
# GULP energy per Si atom -5575.710612 kJ/mol
# Density = 2.130897 g / cm^3
# Si number density = 21.357583 Si / 1000 Ang^3
#
#
#
# Elastic Constant Matrix: (Units=GPa)
#
#
# Indices 1 2 3 4 5 6 
#
# 1 62.6247 18.7549 3.8480 0.0000 -30.2492 0.0000
# 2 18.7549 91.0270 17.5420 0.0000 -24.7411 0.0000
# 3 3.8480 17.5420 88.0427 0.0000 -22.9269 0.0000
# 4 0.0000 0.0000 0.0000 24.2920 0.0000 4.4080
# 5 -30.2492 -24.7411 -22.9269 0.0000 25.0159 0.0000
# 6 0.0000 0.0000 0.0000 4.4080 0.0000 8.7947
#
#
#
# Elastic Compliance Matrix: (Units=1/GPa)
#
#
# Indices 1 2 3 4 5 6 
#
# 1 0.066698 0.013095 0.024760 0.000000 0.116295 0.000000
# 2 0.013095 0.017685 0.006019 0.000000 0.038841 0.000000
# 3 0.024760 0.006019 0.024198 0.000000 0.058070 0.000000
# 4 0.000000 0.000000 0.000000 0.045284 0.000000 -0.022697
# 5 0.116295 0.038841 0.058070 0.000000 0.272233 0.000000
# 6 0.000000 0.000000 0.000000 -0.022697 0.000000 0.125080
#
#
# Mechanical properties :
#
#
# Convention : Reuss Voigt Hill
#
# Bulk Modulus (GPa) = 5.09352 35.77603 20.43477
# Shear Modulus (GPa) = 9.45404 25.05715 17.25559
#
# Velocity S-wave (km/s) = 2.10622 3.42895 2.84551
# Velocity P-wave (km/s) = 2.88183 5.69774 4.51493
#
# Compressibility (1/GPa) = 0.19632791
#
# Stress axis : x y z
#
# Youngs Moduli (GPa) = 14.99295 56.54555 41.32489
#
# Poissons Ratio (x) = -0.74047 -1.02319
# Poissons Ratio (y) = -0.19633 -0.24872
# Poissons Ratio (z) = -0.37122 -0.34032
#
# Static dielectric constant tensor:
#      x y z
#    x 1.836470 0.000000 -0.032780 
#    y 0.000000 1.759840 0.000000 
#    z -0.032780 0.000000 1.716730 
# 
# From -- ./inp_files/30593.got.cif
#   From: 2010.05.17/outbox.cif.g08.bks.cpg/sg10_16_cif.got.tgz:30593.got - 2010.06.03 11:33:40.
