data_PCOD9147773
_publ_section_title
;
Structure prediction by ZEFSAII (Michael W. Deem and Ramdas Pophale) SiO2 
 PCOD9147773
Probable space group: P 2/M
;
_chemical_formula_sum "Si O2"
_cell_formula_units_Z 24
_cell_length_a 9.816109
_cell_length_b 7.682420
_cell_length_c 31.351265
_cell_angle_alpha 90.000000
_cell_angle_beta 152.151319
_cell_angle_gamma 90.000000
_cell_volume 1104.428822
_symmetry_space_group_name_H-M "P 2/M"
_symmetry_group_IT_number 10
_symmetry_cell_setting 'monoclinic'
loop_
_space_group_symop_operation_xyz
x,y,z
-x,y,-z
-x,-y,-z
x,-y,z
loop_
_atom_site_type_symbol
_atom_site_label
_atom_site_fract_x
_atom_site_fract_y
_atom_site_fract_z
Si Si1 0.745612 0.212905 0.962142
Si Si2 0.882244 0.207153 0.245082
Si Si3 0.272272 0.302675 0.273717
Si Si4 0.160598 0.213299 0.410185
Si Si5 0.161324 0.798267 0.918188
Si Si6 0.900996 0.200230 0.427606
O O1 0.427392 0.274835 0.858592
O O2 0.727060 0.000000 0.960213
O O3 0.844339 0.275289 0.035891
O O4 0.000000 0.256391 0.000000
O O5 0.131166 0.235093 0.278457
O O6 0.983818 0.274033 0.319376
O O7 0.844015 0.000000 0.239191
O O8 0.364899 0.500000 0.306418
O O9 0.552294 0.202860 0.333587
O O10 0.024726 0.294362 0.169176
O O11 0.500000 0.262149 0.500000
O O12 0.023562 0.273987 0.417171
O O13 0.149330 0.000000 0.406631
O O14 0.060789 0.000000 0.890687
O O15 0.500000 0.798364 0.000000
O O16 0.000000 0.281291 0.500000
O O17 0.008789 0.000000 0.457950
#
# Coordination Sequence:
#
# PCOD9147773 Si02
#       6
#     4   4   4   4   4   4
#     4   9  18  31  54  86 112 141 185 243 296 336
#     4  10  19  36  59  83 113 150 195 241 288 340
#     4  12  25  38  56  84 121 160 196 234 285 344
#     4   9  18  33  59  92 117 140 180 239 295 341
#     4  10  19  36  60  84 111 148 197 243 287 335
#     4  10  21  39  65  93 117 146 189 240 290 342
#
# _framework density 21.730689000000002
#
# number of rings (size 3 to 8) (size 9 to 14) (size 15 to 20)
#    0.000    2.000    1.667    2.500    2.333    3.333 
#    0.000    0.833    0.000    3.000    0.000    0.000 
#    0.000    0.000    0.000    0.000    0.000    0.000 
#
# Total GULP energy -134031.013409 kJ/mol
# GULP energy per Si atom -5584.625559 kJ/mol
# Density = 2.168123 g / cm^3
# Si number density = 21.730689 Si / 1000 Ang^3
#
#
#
# Elastic Constant Matrix: (Units=GPa)
#
#
# Indices 1 2 3 4 5 6 
#
# 1 192.9180 -8.1436 72.5310 0.0000 -20.6915 0.0000
# 2 -8.1436 35.0413 2.4664 0.0000 -3.2882 0.0000
# 3 72.5310 2.4664 105.8060 0.0000 -17.1207 0.0000
# 4 0.0000 0.0000 0.0000 -13.5640 0.0000 4.2994
# 5 -20.6915 -3.2882 -17.1207 0.0000 40.9465 0.0000
# 6 0.0000 0.0000 0.0000 4.2994 0.0000 -22.4628
#
#
#
# Elastic Compliance Matrix: (Units=1/GPa)
#
#
# Indices 1 2 3 4 5 6 
#
# 1 0.007251 0.002192 -0.004719 0.000000 0.001867 0.000000
# 2 0.002192 0.029427 -0.001745 0.000000 0.002741 0.000000
# 3 -0.004719 -0.001745 0.013213 0.000000 0.002999 0.000000
# 4 0.000000 0.000000 0.000000 -0.078486 0.000000 -0.015022
# 5 0.001867 0.002741 0.002999 0.000000 0.026840 0.000000
# 6 0.000000 0.000000 0.000000 -0.015022 0.000000 -0.047393
#
#
# Mechanical properties :
#
#
# Convention : Reuss Voigt Hill
#
# Bulk Modulus (GPa) = 24.18623 51.94142 38.06383
# Shear Modulus (GPa) = -186.41040 18.77803 -83.81619
#
# Velocity S-wave (km/s) = -9.27191 2.94279 -6.21725
# Velocity P-wave (km/s) = 10.17203 5.95826 5.82964
#
# Compressibility (1/GPa) = 0.04134583
#
# Stress axis : x y z
#
# Youngs Moduli (GPa) = 137.91806 33.98196 75.68579
#
# Poissons Ratio (x) = -0.07450 0.35720
# Poissons Ratio (y) = -0.30238 0.13210
# Poissons Ratio (z) = 0.65090 0.05931
#
# Static dielectric constant tensor:
#      x y z
#    x 1.771880 0.000000 0.005790 
#    y 0.000000 1.833890 0.000000 
#    z 0.005790 0.000000 1.761770 
# 
# From -- ./inp_files/27070.got.cif
#   From: 2010.05.17/outbox.cif.g08.bks.cpg/sg10_14_cif.got.tgz:27070.got - 2010.06.03 11:33:40.
