data_PCOD9147527
_publ_section_title
;
Structure prediction by ZEFSAII (Michael W. Deem and Ramdas Pophale) SiO2 
 PCOD9147527
Probable space group: P 2/M
;
_chemical_formula_sum "Si O2"
_cell_formula_units_Z 28
_cell_length_a 15.429486
_cell_length_b 7.514539
_cell_length_c 11.335570
_cell_angle_alpha 90.000000
_cell_angle_beta 112.631835
_cell_angle_gamma 90.000000
_cell_volume 1213.101787
_symmetry_space_group_name_H-M "P 2/M"
_symmetry_group_IT_number 10
_symmetry_cell_setting 'monoclinic'
loop_
_space_group_symop_operation_xyz
x,y,z
-x,y,-z
-x,-y,-z
x,-y,z
loop_
_atom_site_type_symbol
_atom_site_label
_atom_site_fract_x
_atom_site_fract_y
_atom_site_fract_z
Si Si1 0.140755 0.797009 0.391750
Si Si2 0.253776 0.703164 0.661465
Si Si3 0.086411 0.215031 0.967198
Si Si4 0.456235 0.785298 0.350872
Si Si5 0.757742 0.218299 0.784303
Si Si6 0.938792 0.213335 0.319079
Si Si7 0.552391 0.712189 0.146160
O O1 0.228197 0.797100 0.525912
O O2 0.177249 0.717508 0.289643
O O3 0.045627 0.725219 0.402584
O O4 0.114077 0.000000 0.349039
O O5 0.276995 0.500000 0.642779
O O6 0.155483 0.707431 0.677683
O O7 0.340459 0.778697 0.780905
O O8 0.068277 0.252702 0.822932
O O9 0.086084 0.000000 0.977534
O O10 0.187017 0.273004 0.069470
O O11 0.000000 0.281934 0.000000
O O12 0.500000 0.723379 0.500000
O O13 0.348671 0.722098 0.284497
O O14 0.505378 0.741310 0.250796
O O15 0.456920 0.000000 0.357184
O O16 0.754940 0.000000 0.778071
O O17 0.931705 0.000000 0.341017
O O18 0.557485 0.500000 0.131341
O O19 0.500000 0.782366 0.000000
#
# Coordination Sequence:
#
# PCOD9147527 Si02
#       7
#     4   4   4   4   4   4   4
#     4  10  19  35  58  85 116 148 181 220 271 334
#     4  11  24  39  56  77 108 149 189 232 283 329
#     4   9  15  28  50  80 112 141 176 218 265 322
#     4  10  21  37  60  92 121 145 184 242 301 349
#     4   9  17  30  53  83 115 144 173 220 278 330
#     4  10  20  33  56  86 113 145 185 224 267 329
#     4  10  24  45  62  79 111 156 204 248 291 345
#
# _framework density 23.081327999999999
#
# number of rings (size 3 to 8) (size 9 to 14) (size 15 to 20)
#    0.000    2.143    1.429    1.714    2.000    5.143 
#    0.000    0.714    0.000    1.286    0.000    0.000 
#    0.000    0.000    0.000    0.000    0.000    0.000 
#
# Total GULP energy -156233.834058 kJ/mol
# GULP energy per Si atom -5579.779788 kJ/mol
# Density = 2.302879 g / cm^3
# Si number density = 23.081328 Si / 1000 Ang^3
#
#
#
# Elastic Constant Matrix: (Units=GPa)
#
#
# Indices 1 2 3 4 5 6 
#
# 1 118.9570 -2.4805 69.1308 0.0000 25.9122 0.0000
# 2 -2.4805 54.3950 -1.7029 0.0000 4.9364 0.0000
# 3 69.1308 -1.7029 180.7491 0.0000 34.9577 0.0000
# 4 0.0000 0.0000 0.0000 6.9783 0.0000 -1.1286
# 5 25.9122 4.9364 34.9577 0.0000 44.0944 0.0000
# 6 0.0000 0.0000 0.0000 -1.1286 0.0000 14.7962
#
#
#
# Elastic Compliance Matrix: (Units=1/GPa)
#
#
# Indices 1 2 3 4 5 6 
#
# 1 0.011356 0.000762 -0.003577 0.000000 -0.003922 0.000000
# 2 0.000762 0.018695 0.000444 0.000000 -0.002893 0.000000
# 3 -0.003577 0.000444 0.007687 0.000000 -0.004041 0.000000
# 4 0.000000 0.000000 0.000000 0.145092 0.000000 0.011067
# 5 -0.003922 -0.002893 -0.004041 0.000000 0.028511 0.000000
# 6 0.000000 0.000000 0.000000 0.011067 0.000000 0.068429
#
#
# Mechanical properties :
#
#
# Convention : Reuss Voigt Hill
#
# Bulk Modulus (GPa) = 30.30790 53.77733 42.04261
# Shear Modulus (GPa) = 16.91983 32.45069 24.68526
#
# Velocity S-wave (km/s) = 2.71043 3.75364 3.27385
# Velocity P-wave (km/s) = 4.79110 6.49123 5.70485
#
# Compressibility (1/GPa) = 0.03299470
#
# Stress axis : x y z
#
# Youngs Moduli (GPa) = 88.06184 53.48965 130.09717
#
# Poissons Ratio (x) = -0.04075 0.46541
# Poissons Ratio (y) = -0.06708 -0.05780
# Poissons Ratio (z) = 0.31503 -0.02376
#
# Static dielectric constant tensor:
#      x y z
#    x 1.855420 0.000000 0.005190 
#    y 0.000000 1.909860 0.000000 
#    z 0.005190 0.000000 1.885590 
# 
# From -- ./inp_files/50041.got.cif
#   From: 2010.05.17/outbox.cif.g08.bks.cpg/sg10_26_cif.got.tgz:50041.got - 2010.06.03 11:33:40.
