data_PCOD9147217
_publ_section_title
;
Structure prediction by ZEFSAII (Michael W. Deem and Ramdas Pophale) SiO2 
 PCOD9147217
Probable space group: P 2/M
;
_chemical_formula_sum "Si O2"
_cell_formula_units_Z 28
_cell_length_a 13.028695
_cell_length_b 7.449407
_cell_length_c 15.125006
_cell_angle_alpha 90.000000
_cell_angle_beta 120.795838
_cell_angle_gamma 90.000000
_cell_volume 1260.984848
_symmetry_space_group_name_H-M "P 2/M"
_symmetry_group_IT_number 10
_symmetry_cell_setting 'monoclinic'
loop_
_space_group_symop_operation_xyz
x,y,z
-x,y,-z
-x,-y,-z
x,-y,z
loop_
_atom_site_type_symbol
_atom_site_label
_atom_site_fract_x
_atom_site_fract_y
_atom_site_fract_z
Si Si1 0.506134 0.711024 0.283243
Si Si2 0.278159 0.718820 0.279082
Si Si3 0.574407 0.206753 0.114056
Si Si4 0.304597 0.280660 0.489281
Si Si5 0.985736 0.719334 0.892777
Si Si6 0.036900 0.718961 0.418858
Si Si7 0.846071 0.717398 0.187976
O O1 0.500172 0.500000 0.300072
O O2 0.373483 0.779294 0.247688
O O3 0.547160 0.724446 0.200258
O O4 0.602351 0.784234 0.396007
O O5 0.271468 0.500000 0.275477
O O6 0.326131 0.771231 0.397143
O O7 0.142432 0.778272 0.202249
O O8 0.713549 0.219936 0.151264
O O9 0.538059 0.000000 0.103460
O O10 0.500000 0.290328 0.000000
O O11 0.306082 0.500000 0.491690
O O12 0.170319 0.224109 0.454088
O O13 0.985454 0.500000 0.891579
O O14 0.095402 0.774872 0.878800
O O15 0.000000 0.776365 0.000000
O O16 0.037437 0.500000 0.417901
O O17 0.000000 0.776664 0.500000
O O18 0.939166 0.775262 0.304432
O O19 0.841747 0.500000 0.186663
#
# Coordination Sequence:
#
# PCOD9147217 Si02
#       7
#     4   4   4   4   4   4   4
#     4  10  20  33  57  87 111 141 185 228 264 316
#     4   9  16  28  48  82 121 148 172 215 273 325
#     4  11  26  44  57  72 104 147 185 227 282 330
#     4   9  15  27  47  81 122 147 170 212 272 326
#     4   9  17  28  47  81 118 144 170 218 278 318
#     4   9  15  24  44  76 112 142 169 209 260 312
#     4  10  19  34  58  84 107 137 181 226 265 316
#
# _framework density 22.204868000000001
#
# number of rings (size 3 to 8) (size 9 to 14) (size 15 to 20)
#    0.000    2.429    1.429    1.714    2.000    5.143 
#    0.000    0.000    0.000    6.857    0.000    0.000 
#    0.000    0.000    0.000    0.000    0.000    0.000 
#
# Total GULP energy -156408.912984 kJ/mol
# GULP energy per Si atom -5586.032607 kJ/mol
# Density = 2.215433 g / cm^3
# Si number density = 22.204868 Si / 1000 Ang^3
#
#
#
# Elastic Constant Matrix: (Units=GPa)
#
#
# Indices 1 2 3 4 5 6 
#
# 1 169.2388 -12.2217 57.7223 0.0000 -17.3414 0.0000
# 2 -12.2217 59.0091 -3.9572 0.0000 1.6626 0.0000
# 3 57.7223 -3.9572 104.9204 0.0000 -22.1469 0.0000
# 4 0.0000 0.0000 0.0000 5.9262 0.0000 8.8397
# 5 -17.3414 1.6626 -22.1469 0.0000 37.6126 0.0000
# 6 0.0000 0.0000 0.0000 8.8397 0.0000 -60.5490
#
#
#
# Elastic Compliance Matrix: (Units=1/GPa)
#
#
# Indices 1 2 3 4 5 6 
#
# 1 0.007407 0.001248 -0.003790 0.000000 0.001128 0.000000
# 2 0.001248 0.017206 -0.000088 0.000000 -0.000237 0.000000
# 3 -0.003790 -0.000088 0.012841 0.000000 0.005817 0.000000
# 4 0.000000 0.000000 0.000000 0.138566 0.000000 0.020230
# 5 0.001128 -0.000237 0.005817 0.000000 0.030543 0.000000
# 6 0.000000 0.000000 0.000000 0.020230 0.000000 -0.013562
#
#
# Mechanical properties :
#
#
# Convention : Reuss Voigt Hill
#
# Bulk Modulus (GPa) = 31.06076 46.25059 38.65567
# Shear Modulus (GPa) = 23.92448 16.03962 19.98205
#
# Velocity S-wave (km/s) = 3.28600 2.69057 3.00308
# Velocity P-wave (km/s) = 5.33064 5.52507 5.42873
#
# Compressibility (1/GPa) = 0.03219497
#
# Stress axis : x y z
#
# Youngs Moduli (GPa) = 135.00444 58.11976 77.87778
#
# Poissons Ratio (x) = -0.07254 0.29514
# Poissons Ratio (y) = -0.16851 0.00683
# Poissons Ratio (z) = 0.51164 0.00510
#
# Static dielectric constant tensor:
#      x y z
#    x 1.771120 0.000000 -0.007190 
#    y 0.000000 1.865570 0.000000 
#    z -0.007190 0.000000 1.790060 
# 
# From -- ./inp_files/63933.got.cif
#   From: 2010.05.17/outbox.cif.g08.bks.cpg/sg10_32_cif.got.tgz:63933.got - 2010.06.03 11:33:40.
