data_PCOD9147198
_publ_section_title
;
Structure prediction by ZEFSAII (Michael W. Deem and Ramdas Pophale) SiO2 
 PCOD9147198
Probable space group: P 2/M
;
_chemical_formula_sum "Si O2"
_cell_formula_units_Z 24
_cell_length_a 12.537874
_cell_length_b 9.456492
_cell_length_c 10.907500
_cell_angle_alpha 90.000000
_cell_angle_beta 100.922445
_cell_angle_gamma 90.000000
_cell_volume 1269.812546
_symmetry_space_group_name_H-M "P 2/M"
_symmetry_group_IT_number 10
_symmetry_cell_setting 'monoclinic'
loop_
_space_group_symop_operation_xyz
x,y,z
-x,y,-z
-x,-y,-z
x,-y,z
loop_
_atom_site_type_symbol
_atom_site_label
_atom_site_fract_x
_atom_site_fract_y
_atom_site_fract_z
Si Si1 0.780112 0.162550 0.716219
Si Si2 0.585635 0.169607 0.128269
Si Si3 0.798860 0.669765 0.221479
Si Si4 0.871433 0.161928 0.461510
Si Si5 0.975960 0.658984 0.851997
Si Si6 0.534569 0.827863 0.644734
O O1 0.817575 0.163884 0.582911
O O2 0.870534 0.249189 0.806263
O O3 0.657889 0.218290 0.697763
O O4 0.780034 0.000000 0.758837
O O5 0.696974 0.254978 0.135828
O O6 0.538301 0.209224 0.252975
O O7 0.605415 0.000000 0.132865
O O8 0.500000 0.198138 0.000000
O O9 0.789172 0.500000 0.214111
O O10 0.809634 0.729913 0.360938
O O11 0.914320 0.712894 0.187633
O O12 0.000000 0.195087 0.500000
O O13 0.862607 0.000000 0.411404
O O14 0.956332 0.500000 0.799858
O O15 0.000000 0.652164 0.000000
O O16 0.500000 0.780484 0.500000
O O17 0.534960 0.000000 0.640097
#
# Coordination Sequence:
#
# PCOD9147198 Si02
#       6
#     4   4   4   4   4   4
#     4  10  20  35  60  89 113 145 189 235 283 340
#     4  10  22  39  60  86 114 148 193 245 294 337
#     4  11  23  38  59  84 114 153 192 231 283 346
#     4  10  19  34  57  87 117 145 182 231 286 337
#     4  10  23  40  55  78 115 156 189 228 285 340
#     4   9  18  35  58  83 114 150 186 231 287 341
#
# _framework density 18.900428000000002
#
# number of rings (size 3 to 8) (size 9 to 14) (size 15 to 20)
#    0.000    2.000    1.667    1.500    2.333    5.000 
#    0.000    0.833    0.000    2.000    0.000    0.000 
#    0.000    0.000    0.000    0.000    0.000    0.000 
#
# Total GULP energy -133921.580716 kJ/mol
# GULP energy per Si atom -5580.065863 kJ/mol
# Density = 1.885741 g / cm^3
# Si number density = 18.900428 Si / 1000 Ang^3
#
#
#
# Elastic Constant Matrix: (Units=GPa)
#
#
# Indices 1 2 3 4 5 6 
#
# 1 95.9678 31.7806 21.6990 0.0000 28.9153 0.0000
# 2 31.7806 35.8610 27.0295 0.0000 23.6801 0.0000
# 3 21.6990 27.0295 75.7791 0.0000 19.6384 0.0000
# 4 0.0000 0.0000 0.0000 19.4823 0.0000 15.6051
# 5 28.9153 23.6801 19.6384 0.0000 33.7147 0.0000
# 6 0.0000 0.0000 0.0000 15.6051 0.0000 57.7159
#
#
#
# Elastic Compliance Matrix: (Units=1/GPa)
#
#
# Indices 1 2 3 4 5 6 
#
# 1 0.015587 -0.009889 0.000858 0.000000 -0.006922 0.000000
# 2 -0.009889 0.066859 -0.013008 0.000000 -0.030901 0.000000
# 3 0.000858 -0.013008 0.018154 0.000000 -0.002174 0.000000
# 4 0.000000 0.000000 0.000000 0.065518 0.000000 -0.017715
# 5 -0.006922 -0.030901 -0.002174 0.000000 0.058567 0.000000
# 6 0.000000 0.000000 0.000000 -0.017715 0.000000 0.022116
#
#
# Mechanical properties :
#
#
# Convention : Reuss Voigt Hill
#
# Bulk Modulus (GPa) = 17.69253 40.95845 29.32549
# Shear Modulus (GPa) = 16.14371 30.65584 23.39977
#
# Velocity S-wave (km/s) = 2.92575 4.03173 3.52242
# Velocity P-wave (km/s) = 4.56011 6.58717 5.66504
#
# Compressibility (1/GPa) = 0.05652103
#
# Stress axis : x y z
#
# Youngs Moduli (GPa) = 64.15776 14.95689 55.08533
#
# Poissons Ratio (x) = 0.14791 -0.04726
# Poissons Ratio (y) = 0.63446 0.71654
# Poissons Ratio (z) = -0.05504 0.19456
#
# Static dielectric constant tensor:
#      x y z
#    x 1.687040 0.000000 -0.027230 
#    y 0.000000 1.652690 0.000000 
#    z -0.027230 0.000000 1.664280 
# 
# From -- ./inp_files/45296.got.cif
#   From: 2010.05.17/outbox.cif.g08.bks.cpg/sg10_23_cif.got.tgz:45296.got - 2010.06.03 11:33:40.
