data_PCOD9147699
_publ_section_title
;
Structure prediction by ZEFSAII (Michael W. Deem and Ramdas Pophale) SiO2 
 PCOD9147699
Probable space group: P 2/M
;
_chemical_formula_sum "Si O2"
_cell_formula_units_Z 30
_cell_length_a 11.812563
_cell_length_b 18.354999
_cell_length_c 12.243754
_cell_angle_alpha 90.000000
_cell_angle_beta 27.332146
_cell_angle_gamma 90.000000
_cell_volume 1218.893712
_symmetry_space_group_name_H-M "P 2/M"
_symmetry_group_IT_number 10
_symmetry_cell_setting 'monoclinic'
loop_
_space_group_symop_operation_xyz
x,y,z
-x,y,-z
-x,-y,-z
x,-y,z
loop_
_atom_site_type_symbol
_atom_site_label
_atom_site_fract_x
_atom_site_fract_y
_atom_site_fract_z
Si Si1 0.419982 0.918110 0.445469
Si Si2 0.000000 0.664935 0.000000
Si Si3 0.295769 0.728586 0.581498
Si Si4 0.111631 0.082200 0.082021
Si Si5 0.997493 0.278784 0.634085
Si Si6 0.212847 0.871400 0.223085
Si Si7 0.529135 0.582488 0.318890
Si Si8 0.316179 0.582560 0.056169
O O1 0.500000 0.926986 0.500000
O O2 0.647316 0.885063 0.183145
O O3 0.377408 0.000000 0.433762
O O4 0.156041 0.879676 0.688335
O O5 0.954344 0.722658 0.137068
O O6 0.793423 0.611136 0.131248
O O7 0.500000 0.755677 0.500000
O O8 0.355524 0.642414 0.518995
O O9 0.236033 0.744791 0.503953
O O10 0.083082 0.000000 0.057617
O O11 0.157528 0.076734 0.170252
O O12 0.815536 0.210125 0.800755
O O13 0.886752 0.354537 0.770545
O O14 0.000000 0.287218 0.500000
O O15 0.000000 0.879033 0.500000
O O16 0.500000 0.882661 0.000000
O O17 0.476183 0.500000 0.395791
O O18 0.529465 0.586871 0.187541
O O19 0.212182 0.500000 0.152299
O O20 0.500000 0.593731 0.000000
#
# Coordination Sequence:
#
# PCOD9147699 Si02
#       8
#     4   2   4   4   4   4   4   4
#     4   9  17  32  59  94 136 179 222 268 320 386
#     4  10  19  36  54  80 114 156 191 246 310 384
#     4  10  22  38  59  87 118 155 202 259 322 376
#     4  10  20  36  62  96 134 176 217 270 327 382
#     4  11  23  42  66  90 118 169 212 262 324 397
#     4  11  25  44  66  96 127 171 221 271 325 397
#     4  10  20  33  54  83 118 153 197 248 313 389
#     4  10  20  35  57  86 117 150 198 262 323 381
#
# _framework density 24.612482
#
# number of rings (size 3 to 8) (size 9 to 14) (size 15 to 20)
#    0.000    1.867    1.333    2.600    0.000    6.933 
#    0.000    0.667    2.933    0.000    0.000    0.000 
#    0.000    0.000    0.000    0.000    0.000    0.000 
#
# Total GULP energy -167129.058096 kJ/mol
# GULP energy per Si atom -5570.968603 kJ/mol
# Density = 2.455646 g / cm^3
# Si number density = 24.612482 Si / 1000 Ang^3
#
#
#
# Elastic Constant Matrix: (Units=GPa)
#
#
# Indices 1 2 3 4 5 6 
#
# 1 179.1719 4.4771 47.2525 0.0000 6.4667 0.0000
# 2 4.4771 69.5064 13.8924 0.0000 10.5638 0.0000
# 3 47.2525 13.8924 124.4183 0.0000 -2.9208 0.0000
# 4 0.0000 0.0000 0.0000 47.1645 0.0000 -15.1804
# 5 6.4667 10.5638 -2.9208 0.0000 39.2537 0.0000
# 6 0.0000 0.0000 0.0000 -15.1804 0.0000 58.0361
#
#
#
# Elastic Compliance Matrix: (Units=1/GPa)
#
#
# Indices 1 2 3 4 5 6 
#
# 1 0.006264 0.000280 -0.002441 0.000000 -0.001289 0.000000
# 2 0.000280 0.015414 -0.001929 0.000000 -0.004338 0.000000
# 3 -0.002441 -0.001929 0.009218 0.000000 0.001607 0.000000
# 4 0.000000 0.000000 0.000000 0.023151 0.000000 0.006056
# 5 -0.001289 -0.004338 0.001607 0.000000 0.026975 0.000000
# 6 0.000000 0.000000 0.000000 0.006056 0.000000 0.018815
#
#
# Mechanical properties :
#
#
# Convention : Reuss Voigt Hill
#
# Bulk Modulus (GPa) = 44.02133 56.03786 50.02960
# Shear Modulus (GPa) = 43.25692 49.38919 46.32305
#
# Velocity S-wave (km/s) = 4.19683 4.48445 4.34302
# Velocity P-wave (km/s) = 6.43499 7.04494 6.74686
#
# Compressibility (1/GPa) = 0.02271626
#
# Stress axis : x y z
#
# Youngs Moduli (GPa) = 159.63136 64.87603 108.48913
#
# Poissons Ratio (x) = -0.01818 0.26479
# Poissons Ratio (y) = -0.04473 0.20932
# Poissons Ratio (z) = 0.38961 0.12517
#
# Static dielectric constant tensor:
#      x y z
#    x 2.027890 0.000000 -0.079500 
#    y 0.000000 1.994120 0.000000 
#    z -0.079500 0.000000 2.207750 
# 
# From -- ./inp_files/48055.got.cif
#   From: 2010.05.17/outbox.cif.g08.bks.cpg/sg10_25_cif.got.tgz:48055.got - 2010.06.03 11:33:40.
