data_PCOD9147589
_publ_section_title
;
Structure prediction by ZEFSAII (Michael W. Deem and Ramdas Pophale) SiO2 
 PCOD9147589
Probable space group: P 2/M
;
_chemical_formula_sum "Si O2"
_cell_formula_units_Z 24
_cell_length_a 12.827397
_cell_length_b 8.499784
_cell_length_c 24.661357
_cell_angle_alpha 90.000000
_cell_angle_beta 150.384220
_cell_angle_gamma 90.000000
_cell_volume 1328.769708
_symmetry_space_group_name_H-M "P 2/M"
_symmetry_group_IT_number 10
_symmetry_cell_setting 'monoclinic'
loop_
_space_group_symop_operation_xyz
x,y,z
-x,y,-z
-x,-y,-z
x,-y,z
loop_
_atom_site_type_symbol
_atom_site_label
_atom_site_fract_x
_atom_site_fract_y
_atom_site_fract_z
Si Si1 0.256110 0.191716 0.383872
Si Si2 0.124482 0.809896 0.001688
Si Si3 0.017293 0.188537 0.383984
Si Si4 0.586815 0.688282 0.232718
Si Si5 0.800582 0.809555 0.763130
Si Si6 0.628519 0.311351 0.376709
O O1 0.500000 0.241341 0.500000
O O2 0.119564 0.244339 0.373468
O O3 0.173900 0.241009 0.287654
O O4 0.255762 0.000000 0.384568
O O5 0.986918 0.759195 0.887696
O O6 0.135195 0.000000 0.006575
O O7 0.359533 0.744197 0.109543
O O8 0.000000 0.761498 0.000000
O O9 0.165193 0.249902 0.499360
O O10 0.780412 0.245752 0.285761
O O11 0.022768 0.000000 0.386953
O O12 0.594752 0.500000 0.235741
O O13 0.615765 0.741657 0.308422
O O14 0.578245 0.749332 0.685572
O O15 0.792871 0.000000 0.760595
O O16 0.630617 0.500000 0.378460
#
# Coordination Sequence:
#
# PCOD9147589 Si02
#       6
#     4   4   4   4   4   4
#     4   9  17  33  58  85 111 142 182 228 279 327
#     4  10  20  35  59  87 111 141 189 236 271 322
#     4  11  22  37  59  83 111 148 189 231 275 329
#     4  11  24  39  55  79 117 154 184 225 281 339
#     4  10  19  35  59  86 114 142 182 233 276 323
#     4  11  22  35  54  83 117 148 180 224 282 338
#
# _framework density 18.061820999999998
#
# number of rings (size 3 to 8) (size 9 to 14) (size 15 to 20)
#    0.000    1.667    3.333    2.000    0.000    5.000 
#    0.000    3.333    0.000    5.000    0.000    0.000 
#    0.000    0.000    0.000    0.000    0.000    0.000 
#
# Total GULP energy -134062.039818 kJ/mol
# GULP energy per Si atom -5585.918326 kJ/mol
# Density = 1.802071 g / cm^3
# Si number density = 18.061821 Si / 1000 Ang^3
#
#
#
# Elastic Constant Matrix: (Units=GPa)
#
#
# Indices 1 2 3 4 5 6 
#
# 1 85.7474 8.9410 67.2284 0.0000 3.8359 0.0000
# 2 8.9410 14.9117 21.0960 0.0000 -1.1935 0.0000
# 3 67.2284 21.0960 154.6709 0.0000 2.8701 0.0000
# 4 0.0000 0.0000 0.0000 -7.7422 0.0000 -32.6752
# 5 3.8359 -1.1935 2.8701 0.0000 36.0579 0.0000
# 6 0.0000 0.0000 0.0000 -32.6752 0.0000 -31.2470
#
#
#
# Elastic Compliance Matrix: (Units=1/GPa)
#
#
# Indices 1 2 3 4 5 6 
#
# 1 0.017750 0.000170 -0.007715 0.000000 -0.001269 0.000000
# 2 0.000170 0.083582 -0.011542 0.000000 0.003667 0.000000
# 3 -0.007715 -0.011542 0.011401 0.000000 -0.000469 0.000000
# 4 0.000000 0.000000 0.000000 0.037841 0.000000 -0.039570
# 5 -0.001269 0.003667 -0.000469 0.000000 0.028027 0.000000
# 6 0.000000 0.000000 0.000000 -0.039570 0.000000 0.009376
#
#
# Mechanical properties :
#
#
# Convention : Reuss Voigt Hill
#
# Bulk Modulus (GPa) = 13.41203 49.98452 31.69828
# Shear Modulus (GPa) = 19.92009 9.95139 14.93574
#
# Velocity S-wave (km/s) = 3.32457 2.34981 2.87875
# Velocity P-wave (km/s) = 4.70944 5.92422 5.35141
#
# Compressibility (1/GPa) = 0.07455990
#
# Stress axis : x y z
#
# Youngs Moduli (GPa) = 56.33915 11.96432 87.70815
#
# Poissons Ratio (x) = -0.00203 0.67663
# Poissons Ratio (y) = -0.00957 1.01232
# Poissons Ratio (z) = 0.43463 0.13809
#
# Static dielectric constant tensor:
#      x y z
#    x 1.612650 0.000000 -0.021010 
#    y 0.000000 1.612660 0.000000 
#    z -0.021010 0.000000 1.590630 
# 
# From -- ./inp_files/44987.got.cif
#   From: 2010.05.17/outbox.cif.g08.bks.cpg/sg10_23_cif.got.tgz:44987.got - 2010.06.03 11:33:40.
