data_PCOD9147880
_publ_section_title
;
Structure prediction by ZEFSAII (Michael W. Deem and Ramdas Pophale) SiO2 
 PCOD9147880
Probable space group: P 2/M
;
_chemical_formula_sum "Si O2"
_cell_formula_units_Z 24
_cell_length_a 12.276192
_cell_length_b 9.056535
_cell_length_c 11.646778
_cell_angle_alpha 90.000000
_cell_angle_beta 68.061148
_cell_angle_gamma 90.000000
_cell_volume 1201.114406
_symmetry_space_group_name_H-M "P 2/M"
_symmetry_group_IT_number 10
_symmetry_cell_setting 'monoclinic'
loop_
_space_group_symop_operation_xyz
x,y,z
-x,y,-z
-x,-y,-z
x,-y,z
loop_
_atom_site_type_symbol
_atom_site_label
_atom_site_fract_x
_atom_site_fract_y
_atom_site_fract_z
Si Si1 0.114202 0.170329 0.035592
Si Si2 0.035094 0.325624 0.289808
Si Si3 0.654399 0.174683 0.210527
Si Si4 0.546070 0.323966 0.854786
Si Si5 0.766642 0.825319 0.658295
Si Si6 0.782089 0.824304 0.390391
O O1 0.101532 0.279996 0.146439
O O2 0.115320 0.000000 0.077698
O O3 0.230203 0.193519 0.914455
O O4 0.000000 0.186056 0.000000
O O5 0.032368 0.500000 0.306533
O O6 0.109257 0.248847 0.361177
O O7 0.904630 0.260635 0.330839
O O8 0.549747 0.268108 0.198661
O O9 0.692952 0.216403 0.324105
O O10 0.623316 0.000000 0.221487
O O11 0.560655 0.500000 0.843431
O O12 0.667784 0.245192 0.777233
O O13 0.500000 0.284693 0.000000
O O14 0.735629 0.799824 0.537067
O O15 0.774457 0.000000 0.674193
O O16 0.806218 0.000000 0.367138
#
# Coordination Sequence:
#
# PCOD9147880 Si02
#       6
#     4   4   4   4   4   4
#     4  10  19  36  62  89 120 159 204 251 296 352
#     4  12  24  37  59  92 131 165 200 252 311 367
#     4  10  21  39  65  92 121 158 204 254 300 356
#     4  11  25  44  64  89 124 160 198 249 308 369
#     4  11  24  42  66  89 117 162 212 256 300 359
#     4  10  22  42  64  90 122 160 208 255 301 360
#
# _framework density 19.981442000000001
#
# number of rings (size 3 to 8) (size 9 to 14) (size 15 to 20)
#    0.000    1.333    1.667    4.000    0.000    9.667 
#    0.000    3.333    0.000    0.000    0.000    0.000 
#    0.000    0.000    0.000    0.000    0.000    0.000 
#
# Total GULP energy -134267.500722 kJ/mol
# GULP energy per Si atom -5594.479197 kJ/mol
# Density = 1.993596 g / cm^3
# Si number density = 19.981442 Si / 1000 Ang^3
#
#
#
# Elastic Constant Matrix: (Units=GPa)
#
#
# Indices 1 2 3 4 5 6 
#
# 1 94.4147 42.5133 29.0852 0.0000 17.0133 0.0000
# 2 42.5133 75.0667 50.3478 0.0000 7.8745 0.0000
# 3 29.0852 50.3478 90.5476 0.0000 19.2096 0.0000
# 4 0.0000 0.0000 0.0000 -123.3117 0.0000 -30.1268
# 5 17.0133 7.8745 19.2096 0.0000 28.1867 0.0000
# 6 0.0000 0.0000 0.0000 -30.1268 0.0000 -18.1729
#
#
#
# Elastic Compliance Matrix: (Units=1/GPa)
#
#
# Indices 1 2 3 4 5 6 
#
# 1 0.015650 -0.009242 0.001833 0.000000 -0.008114 0.000000
# 2 -0.009242 0.026850 -0.013506 0.000000 0.007281 0.000000
# 3 0.001833 -0.013506 0.020340 0.000000 -0.011195 0.000000
# 4 0.000000 0.000000 0.000000 -0.013630 0.000000 0.022596
# 5 -0.008114 0.007281 -0.011195 0.000000 0.045971 0.000000
# 6 0.000000 0.000000 0.000000 0.022596 0.000000 -0.092485
#
#
# Mechanical properties :
#
#
# Convention : Reuss Voigt Hill
#
# Bulk Modulus (GPa) = 47.59367 55.99130 51.79248
# Shear Modulus (GPa) = 97.03406 -13.45409 41.78999
#
# Velocity S-wave (km/s) = 6.97621 -2.59767 4.57819
# Velocity P-wave (km/s) = 9.42129 4.36867 7.34323
#
# Compressibility (1/GPa) = 0.02101120
#
# Stress axis : x y z
#
# Youngs Moduli (GPa) = 63.89627 37.24394 49.16441
#
# Poissons Ratio (x) = 0.34419 -0.09011
# Poissons Ratio (y) = 0.59051 0.66401
# Poissons Ratio (z) = -0.11712 0.50301
#
# Static dielectric constant tensor:
#      x y z
#    x 1.685180 0.000000 0.016850 
#    y 0.000000 1.664110 0.000000 
#    z 0.016850 0.000000 1.717470 
# 
# From -- ./inp_files/45045.got.cif
#   From: 2010.05.17/outbox.cif.g08.bks.cpg/sg10_23_cif.got.tgz:45045.got - 2010.06.03 11:33:40.
