data_PCOD9147835
_publ_section_title
;
Structure prediction by ZEFSAII (Michael W. Deem and Ramdas Pophale) SiO2 
 PCOD9147835
Probable space group: P 2/M
;
_chemical_formula_sum "Si O2"
_cell_formula_units_Z 20
_cell_length_a 11.864457
_cell_length_b 11.122212
_cell_length_c 10.657162
_cell_angle_alpha 90.000000
_cell_angle_beta 36.963162
_cell_angle_gamma 90.000000
_cell_volume 845.615302
_symmetry_space_group_name_H-M "P 2/M"
_symmetry_group_IT_number 10
_symmetry_cell_setting 'monoclinic'
loop_
_space_group_symop_operation_xyz
x,y,z
-x,y,-z
-x,-y,-z
x,-y,z
loop_
_atom_site_type_symbol
_atom_site_label
_atom_site_fract_x
_atom_site_fract_y
_atom_site_fract_z
Si Si1 0.354647 0.000000 0.745777
Si Si2 0.279435 0.749745 0.424584
Si Si3 0.604900 0.000000 0.771819
Si Si4 0.292743 0.359902 0.166425
Si Si5 0.356422 0.732869 0.740463
Si Si6 0.964655 0.360411 0.832551
O O1 0.500000 0.000000 0.500000
O O2 0.454499 0.000000 0.792271
O O3 0.269309 0.132338 0.811035
O O4 0.214131 0.656890 0.375765
O O5 0.492283 0.727639 0.279898
O O6 0.144860 0.725332 0.662703
O O7 0.274241 0.880541 0.364840
O O8 0.500000 0.000000 0.000000
O O9 0.316851 0.500000 0.114125
O O10 0.161749 0.313727 0.173095
O O11 0.500000 0.304236 0.000000
O O12 0.500000 0.707693 0.500000
O O13 0.180957 0.648670 0.923268
O O14 0.019616 0.500000 0.769150
#
# Coordination Sequence:
#
# PCOD9147835 Si02
#       6
#     2   4   2   4   4   4
#     4   8  18  39  64  86 116 163 208 248 304 378
#     4  11  22  39  61  88 126 159 197 253 309 369
#     4  10  22  37  63  97 129 160 204 260 322 366
#     4  10  19  36  61  84 116 162 201 244 302 367
#     4  10  22  41  64  88 120 163 210 257 307 363
#     4  11  24  39  61  92 122 162 209 250 308 376
#
# _framework density 23.651416999999999
#
# number of rings (size 3 to 8) (size 9 to 14) (size 15 to 20)
#    0.000    1.800    2.000    1.800    2.800    4.400 
#    0.000    3.000    0.000    7.200    0.000    0.000 
#    0.000    0.000    0.000    0.000    0.000    0.000 
#
# Total GULP energy -111546.071388 kJ/mol
# GULP energy per Si atom -5577.303569 kJ/mol
# Density = 2.359759 g / cm^3
# Si number density = 23.651417 Si / 1000 Ang^3
#
#
#
# Elastic Constant Matrix: (Units=GPa)
#
#
# Indices 1 2 3 4 5 6 
#
# 1 68.2924 4.8362 18.7627 0.0000 3.4685 0.0000
# 2 4.8362 89.1206 44.1997 0.0000 -11.3138 0.0000
# 3 18.7627 44.1997 152.6787 0.0000 -3.4192 0.0000
# 4 0.0000 0.0000 0.0000 39.9588 0.0000 3.8730
# 5 3.4685 -11.3138 -3.4192 0.0000 44.3901 0.0000
# 6 0.0000 0.0000 0.0000 3.8730 0.0000 18.8366
#
#
#
# Elastic Compliance Matrix: (Units=1/GPa)
#
#
# Indices 1 2 3 4 5 6 
#
# 1 0.015234 -0.000064 -0.001884 0.000000 -0.001352 0.000000
# 2 -0.000064 0.013528 -0.003838 0.000000 0.003157 0.000000
# 3 -0.001884 -0.003838 0.007887 0.000000 -0.000223 0.000000
# 4 0.000000 0.000000 0.000000 0.025535 0.000000 -0.005250
# 5 -0.001352 0.003157 -0.000223 0.000000 0.023421 0.000000
# 6 0.000000 0.000000 0.000000 -0.005250 0.000000 0.054168
#
#
# Mechanical properties :
#
#
# Convention : Reuss Voigt Hill
#
# Bulk Modulus (GPa) = 39.87550 49.52100 44.69825
# Shear Modulus (GPa) = 31.30814 36.78998 34.04906
#
# Velocity S-wave (km/s) = 3.64226 3.94827 3.79835
# Velocity P-wave (km/s) = 5.88085 6.46285 6.17871
#
# Compressibility (1/GPa) = 0.02507806
#
# Stress axis : x y z
#
# Youngs Moduli (GPa) = 65.64407 73.91835 126.78708
#
# Poissons Ratio (x) = 0.00473 0.23884
# Poissons Ratio (y) = 0.00420 0.48659
# Poissons Ratio (z) = 0.12366 0.28369
#
# Static dielectric constant tensor:
#      x y z
#    x 1.947280 0.000000 0.067490 
#    y 0.000000 1.906760 0.000000 
#    z 0.067490 0.000000 1.999020 
# 
# From -- ./inp_files/50995.got.cif
#   From: 2010.05.17/outbox.cif.g08.bks.cpg/sg10_26_cif.got.tgz:50995.got - 2010.06.03 11:33:40.
