data_PCOD9147504
_publ_section_title
;
Structure prediction by ZEFSAII (Michael W. Deem and Ramdas Pophale) SiO2 
 PCOD9147504
Probable space group: P 2/M
;
_chemical_formula_sum "Si O2"
_cell_formula_units_Z 28
_cell_length_a 27.156023
_cell_length_b 7.734407
_cell_length_c 10.095829
_cell_angle_alpha 90.000000
_cell_angle_beta 136.997518
_cell_angle_gamma 90.000000
_cell_volume 1446.234375
_symmetry_space_group_name_H-M "P 2/M"
_symmetry_group_IT_number 10
_symmetry_cell_setting 'monoclinic'
loop_
_space_group_symop_operation_xyz
x,y,z
-x,y,-z
-x,-y,-z
x,-y,z
loop_
_atom_site_type_symbol
_atom_site_label
_atom_site_fract_x
_atom_site_fract_y
_atom_site_fract_z
Si Si1 0.162549 0.290551 0.367699
Si Si2 0.834420 0.799090 0.112298
Si Si3 0.429886 0.500000 0.270581
Si Si4 0.314942 0.796553 0.044498
Si Si5 0.429803 0.500000 0.953112
Si Si6 0.075694 0.290523 0.458290
Si Si7 0.681054 0.804835 0.261898
Si Si8 0.924611 0.698031 0.050900
O O1 0.165477 0.500000 0.365886
O O2 0.130014 0.245453 0.446415
O O3 0.243810 0.224091 0.514851
O O4 0.108581 0.225194 0.147763
O O5 0.893418 0.779761 0.344403
O O6 0.862820 0.700955 0.040187
O O7 0.828243 0.000000 0.064240
O O8 0.757412 0.743166 0.020060
O O9 0.500000 0.500000 0.500000
O O10 0.380810 0.668698 0.203115
O O11 0.446297 0.500000 0.144185
O O12 0.329648 0.000000 0.100391
O O13 0.301297 0.781158 0.859854
O O14 0.379777 0.665956 0.825245
O O15 0.500000 0.500000 0.000000
O O16 0.073407 0.500000 0.468166
O O17 0.996781 0.226690 0.258384
O O18 0.655326 0.000000 0.231104
O O19 0.944442 0.500000 0.056069
#
# Coordination Sequence:
#
# PCOD9147504 Si02
#       8
#     4   4   2   4   2   4   4   4
#     4  10  19  35  58  82 114 153 197 247 294 345
#     4  11  22  36  54  79 112 154 198 242 291 342
#     4  10  22  40  66  94 113 151 188 224 285 349
#     4   9  20  37  60  88 118 152 195 237 276 340
#     4  10  22  42  64  90 123 147 182 230 283 345
#     4  10  20  34  58  80 108 151 203 246 293 347
#     4  10  19  36  63  89 114 154 197 232 279 343
#     4  10  22  36  50  81 117 154 192 247 303 344
#
# _framework density 19.360624999999999
#
# number of rings (size 3 to 8) (size 9 to 14) (size 15 to 20)
#    0.000    2.000    2.143    1.286    2.000    5.143 
#    2.571    0.000    0.000    2.571    0.000    0.000 
#    0.000    0.000    0.000    0.000    0.000    0.000 
#
# Total GULP energy -156347.544327 kJ/mol
# GULP energy per Si atom -5583.840869 kJ/mol
# Density = 1.931656 g / cm^3
# Si number density = 19.360625 Si / 1000 Ang^3
#
#
#
# Elastic Constant Matrix: (Units=GPa)
#
#
# Indices 1 2 3 4 5 6 
#
# 1 57.6057 19.9847 -4.1997 0.0000 19.3188 0.0000
# 2 19.9847 55.3188 11.3119 0.0000 14.8254 0.0000
# 3 -4.1997 11.3119 75.7041 0.0000 16.6329 0.0000
# 4 0.0000 0.0000 0.0000 51.8854 0.0000 -10.8437
# 5 19.3188 14.8254 16.6329 0.0000 31.1921 0.0000
# 6 0.0000 0.0000 0.0000 -10.8437 0.0000 7.3649
#
#
#
# Elastic Compliance Matrix: (Units=1/GPa)
#
#
# Indices 1 2 3 4 5 6 
#
# 1 0.025173 -0.006041 0.005770 0.000000 -0.015797 0.000000
# 2 -0.006041 0.022240 -0.002444 0.000000 -0.005526 0.000000
# 3 0.005770 -0.002444 0.016339 0.000000 -0.011124 0.000000
# 4 0.000000 0.000000 0.000000 0.027840 0.000000 0.040990
# 5 -0.015797 -0.005526 -0.011124 0.000000 0.050401 0.000000
# 6 0.000000 0.000000 0.000000 0.040990 0.000000 0.196129
#
#
# Mechanical properties :
#
#
# Convention : Reuss Voigt Hill
#
# Bulk Modulus (GPa) = 17.14616 26.98027 22.06321
# Shear Modulus (GPa) = 13.77438 28.85727 21.31583
#
# Velocity S-wave (km/s) = 2.67022 3.86491 3.32171
# Velocity P-wave (km/s) = 4.28745 5.82087 5.11198
#
# Compressibility (1/GPa) = 0.05832210
#
# Stress axis : x y z
#
# Youngs Moduli (GPa) = 39.72475 44.96399 61.20434
#
# Poissons Ratio (x) = 0.27161 -0.35313
# Poissons Ratio (y) = 0.23996 0.14959
# Poissons Ratio (z) = -0.22920 0.10990
#
# Static dielectric constant tensor:
#      x y z
#    x 1.650280 0.000000 -0.003240 
#    y 0.000000 1.722250 0.000000 
#    z -0.003240 0.000000 1.661530 
# 
# From -- ./inp_files/37430.got.cif
#   From: 2010.05.17/outbox.cif.g08.bks.cpg/sg10_19_cif.got.tgz:37430.got - 2010.06.03 11:33:40.
