data_PCOD9147487
_publ_section_title
;
Structure prediction by ZEFSAII (Michael W. Deem and Ramdas Pophale) SiO2 
 PCOD9147487
Probable space group: P 2/M
;
_chemical_formula_sum "Si O2"
_cell_formula_units_Z 28
_cell_length_a 9.993872
_cell_length_b 11.778971
_cell_length_c 15.240272
_cell_angle_alpha 90.000000
_cell_angle_beta 52.026550
_cell_angle_gamma 90.000000
_cell_volume 1414.240118
_symmetry_space_group_name_H-M "P 2/M"
_symmetry_group_IT_number 10
_symmetry_cell_setting 'monoclinic'
loop_
_space_group_symop_operation_xyz
x,y,z
-x,y,-z
-x,-y,-z
x,-y,z
loop_
_atom_site_type_symbol
_atom_site_label
_atom_site_fract_x
_atom_site_fract_y
_atom_site_fract_z
Si Si1 0.811938 0.306597 0.063043
Si Si2 0.465705 0.878034 0.805151
Si Si3 0.473771 0.182498 0.417401
Si Si4 0.748037 0.375490 0.285288
Si Si5 0.894681 0.132269 0.456474
Si Si6 0.857634 0.627944 0.851209
Si Si7 0.790207 0.130437 0.795740
O O1 0.664334 0.216041 0.112121
O O2 0.770260 0.369987 0.170403
O O3 0.824043 0.376238 0.969000
O O4 0.000000 0.253756 0.000000
O O5 0.481522 0.874079 0.693571
O O6 0.648354 0.864338 0.776626
O O7 0.397906 0.000000 0.859747
O O8 0.500000 0.121388 0.500000
O O9 0.605995 0.285976 0.368623
O O10 0.273031 0.205446 0.490306
O O11 0.692348 0.500000 0.334608
O O12 0.939034 0.357202 0.243636
O O13 0.000000 0.166637 0.500000
O O14 0.024723 0.133092 0.323538
O O15 0.840050 0.000000 0.491807
O O16 0.810788 0.500000 0.834837
O O17 0.776104 0.748471 0.852441
O O18 0.771514 0.000000 0.842716
#
# Coordination Sequence:
#
# PCOD9147487 Si02
#       7
#     4   4   4   4   4   4   4
#     4   9  19  36  58  85 112 147 193 243 296 357
#     4  10  21  37  56  81 118 157 190 240 303 355
#     4  11  21  34  56  88 114 147 199 252 289 346
#     4   9  19  37  59  83 115 154 195 245 303 355
#     4  10  19  35  58  79 112 161 198 234 289 352
#     4  10  20  38  63  88 117 154 199 247 296 352
#     4  10  21  38  59  84 117 159 202 240 292 355
#
# _framework density 19.798618000000001
#
# number of rings (size 3 to 8) (size 9 to 14) (size 15 to 20)
#    0.000    2.143    1.429    1.714    0.000    4.571 
#    0.000   15.714    0.000    0.857    0.000    0.000 
#    0.000    0.000    0.000    0.000    0.000    0.000 
#
# Total GULP energy -155868.450551 kJ/mol
# GULP energy per Si atom -5566.730377 kJ/mol
# Density = 1.975356 g / cm^3
# Si number density = 19.798618 Si / 1000 Ang^3
#
#
#
# Elastic Constant Matrix: (Units=GPa)
#
#
# Indices 1 2 3 4 5 6 
#
# 1 72.2572 48.8729 23.7475 0.0000 -0.6349 0.0000
# 2 48.8729 136.4138 28.7753 0.0000 -0.4325 0.0000
# 3 23.7475 28.7753 67.0663 0.0000 -6.2989 0.0000
# 4 0.0000 0.0000 0.0000 -6.0413 0.0000 -0.4928
# 5 -0.6349 -0.4325 -6.2989 0.0000 32.8388 0.0000
# 6 0.0000 0.0000 0.0000 -0.4928 0.0000 17.3604
#
#
#
# Elastic Compliance Matrix: (Units=1/GPa)
#
#
# Indices 1 2 3 4 5 6 
#
# 1 0.019319 -0.006014 -0.004310 0.000000 -0.000533 0.000000
# 2 -0.006014 0.009943 -0.002174 0.000000 -0.000402 0.000000
# 3 -0.004310 -0.002174 0.017678 0.000000 0.003279 0.000000
# 4 0.000000 0.000000 0.000000 -0.165144 0.000000 -0.004688
# 5 -0.000533 -0.000402 0.003279 0.000000 0.031065 0.000000
# 6 0.000000 0.000000 0.000000 -0.004688 0.000000 0.057469
#
#
# Mechanical properties :
#
#
# Convention : Reuss Voigt Hill
#
# Bulk Modulus (GPa) = 45.57414 53.16984 49.37199
# Shear Modulus (GPa) = 1893.06866 20.45436 956.76151
#
# Velocity S-wave (km/s) = 30.95542 3.21771 22.00672
# Velocity P-wave (km/s) = 36.06548 6.38110 25.89824
#
# Compressibility (1/GPa) = 0.02194227
#
# Stress axis : x y z
#
# Youngs Moduli (GPa) = 51.76249 100.57739 56.56838
#
# Poissons Ratio (x) = 0.60486 0.24383
# Poissons Ratio (y) = 0.31129 0.12300
# Poissons Ratio (z) = 0.22312 0.21868
#
# Static dielectric constant tensor:
#      x y z
#    x 1.687620 0.000000 0.019700 
#    y 0.000000 1.723970 0.000000 
#    z 0.019700 0.000000 1.704510 
# 
# From -- ./inp_files/61119.got.cif
#   From: 2010.05.17/outbox.cif.g08.bks.cpg/sg10_31_cif.got.tgz:61119.got - 2010.06.03 11:33:40.
