data_PCOD9147975
_publ_section_title
;
Structure prediction by ZEFSAII (Michael W. Deem and Ramdas Pophale) SiO2 
 PCOD9147975
Probable space group: P 2/M
;
_chemical_formula_sum "Si O2"
_cell_formula_units_Z 24
_cell_length_a 14.430465
_cell_length_b 14.240282
_cell_length_c 11.326687
_cell_angle_alpha 90.000000
_cell_angle_beta 29.572924
_cell_angle_gamma 90.000000
_cell_volume 1148.725284
_symmetry_space_group_name_H-M "P 2/M"
_symmetry_group_IT_number 10
_symmetry_cell_setting 'monoclinic'
loop_
_space_group_symop_operation_xyz
x,y,z
-x,y,-z
-x,-y,-z
x,-y,z
loop_
_atom_site_type_symbol
_atom_site_label
_atom_site_fract_x
_atom_site_fract_y
_atom_site_fract_z
Si Si1 0.209407 0.611388 0.758485
Si Si2 0.577826 0.887189 0.540614
Si Si3 0.939493 0.108943 0.269189
Si Si4 0.261248 0.212669 0.033658
Si Si5 0.724675 0.894911 0.755935
Si Si6 0.574739 0.609469 0.231062
O O1 0.189626 0.500000 0.752963
O O2 0.362745 0.645371 0.493240
O O3 0.313072 0.616531 0.769422
O O4 0.000000 0.651244 0.000000
O O5 0.500000 0.855787 0.500000
O O6 0.796728 0.867677 0.321842
O O7 0.447650 0.841430 0.783842
O O8 0.558104 0.000000 0.570273
O O9 0.814045 0.111960 0.527848
O O10 0.006681 0.000000 0.180628
O O11 0.106421 0.180531 0.109815
O O12 0.314548 0.321373 0.976455
O O13 0.203476 0.176180 0.225483
O O14 0.765825 0.000000 0.755704
O O15 0.500000 0.884546 0.000000
O O16 0.570245 0.500000 0.202091
#
# Coordination Sequence:
#
# PCOD9147975 Si02
#       6
#     4   4   4   4   4   4
#     4   8  15  33  58  77 102 146 196 242 288 334
#     4  10  22  38  55  83 125 157 183 226 290 363
#     4  10  21  38  61  88 113 149 198 244 289 342
#     4  12  22  34  59  86 117 152 195 239 291 348
#     4  10  19  37  63  85 110 146 195 251 296 335
#     4   9  20  35  52  81 116 150 191 243 290 338
#
# _framework density 20.892724000000001
#
# number of rings (size 3 to 8) (size 9 to 14) (size 15 to 20)
#    0.000    2.167    1.667    3.000    2.333    3.333 
#    0.000    2.500    0.000    2.500    0.000    0.000 
#    0.000    0.000    0.000    0.000    0.000    0.000 
#
# Total GULP energy -134062.543851 kJ/mol
# GULP energy per Si atom -5585.939327 kJ/mol
# Density = 2.084517 g / cm^3
# Si number density = 20.892724 Si / 1000 Ang^3
#
#
#
# Elastic Constant Matrix: (Units=GPa)
#
#
# Indices 1 2 3 4 5 6 
#
# 1 75.5941 34.2772 19.2774 0.0000 -12.8169 0.0000
# 2 34.2772 84.5304 41.0101 0.0000 -4.4088 0.0000
# 3 19.2774 41.0101 77.6795 0.0000 -26.9497 0.0000
# 4 0.0000 0.0000 0.0000 15.1200 0.0000 -15.9404
# 5 -12.8169 -4.4088 -26.9497 0.0000 36.0758 0.0000
# 6 0.0000 0.0000 0.0000 -15.9404 0.0000 -7.1778
#
#
#
# Elastic Compliance Matrix: (Units=1/GPa)
#
#
# Indices 1 2 3 4 5 6 
#
# 1 0.017334 -0.007707 0.002128 0.000000 0.006807 0.000000
# 2 -0.007707 0.020298 -0.012004 0.000000 -0.009225 0.000000
# 3 0.002128 -0.012004 0.024885 0.000000 0.017879 0.000000
# 4 0.000000 0.000000 0.000000 0.019794 0.000000 -0.043958
# 5 0.006807 -0.009225 0.017879 0.000000 0.042367 0.000000
# 6 0.000000 0.000000 0.000000 -0.043958 0.000000 -0.041696
#
#
# Mechanical properties :
#
#
# Convention : Reuss Voigt Hill
#
# Bulk Modulus (GPa) = 36.55871 47.43703 41.99787
# Shear Modulus (GPa) = 39.28840 18.35289 28.82065
#
# Velocity S-wave (km/s) = 4.34116 2.96705 3.71814
# Velocity P-wave (km/s) = 6.53175 5.87301 6.21112
#
# Compressibility (1/GPa) = 0.02735326
#
# Stress axis : x y z
#
# Youngs Moduli (GPa) = 57.68899 49.26680 40.18407
#
# Poissons Ratio (x) = 0.37968 -0.08552
# Poissons Ratio (y) = 0.44459 0.48236
# Poissons Ratio (z) = -0.12278 0.59139
#
# Static dielectric constant tensor:
#      x y z
#    x 1.779990 0.000000 -0.031400 
#    y 0.000000 1.767550 0.000000 
#    z -0.031400 0.000000 1.782620 
# 
# From -- ./inp_files/51505.got.cif
#   From: 2010.05.17/outbox.cif.g08.bks.cpg/sg10_26_cif.got.tgz:51505.got - 2010.06.03 11:33:40.
