data_PCOD9147481
_publ_section_title
;
Structure prediction by ZEFSAII (Michael W. Deem and Ramdas Pophale) SiO2 
 PCOD9147481
Probable space group: P 2/M
;
_chemical_formula_sum "Si O2"
_cell_formula_units_Z 26
_cell_length_a 15.220969
_cell_length_b 16.911655
_cell_length_c 5.706705
_cell_angle_alpha 90.000000
_cell_angle_beta 65.405338
_cell_angle_gamma 90.000000
_cell_volume 1335.700326
_symmetry_space_group_name_H-M "P 2/M"
_symmetry_group_IT_number 10
_symmetry_cell_setting 'monoclinic'
loop_
_space_group_symop_operation_xyz
x,y,z
-x,y,-z
-x,-y,-z
x,-y,z
loop_
_atom_site_type_symbol
_atom_site_label
_atom_site_fract_x
_atom_site_fract_y
_atom_site_fract_z
Si Si1 0.246650 0.913061 0.641168
Si Si2 0.559524 0.500000 0.686108
Si Si3 0.392717 0.822967 0.191154
Si Si4 0.245804 0.239140 0.962055
Si Si5 0.954892 0.117695 0.303434
Si Si6 0.027223 0.703432 0.224805
Si Si7 0.604675 0.333001 0.503384
O O1 0.344649 0.890869 0.400430
O O2 0.226825 0.838425 0.827486
O O3 0.155354 0.909219 0.570710
O O4 0.250923 0.000000 0.746392
O O5 0.500000 0.500000 0.500000
O O6 0.618595 0.417963 0.609181
O O7 0.500000 0.500000 0.000000
O O8 0.404205 0.740997 0.316111
O O9 0.500000 0.847132 0.000000
O O10 0.314169 0.797425 0.085603
O O11 0.310144 0.306572 0.764800
O O12 0.140402 0.274873 0.124217
O O13 0.000000 0.091105 0.500000
O O14 0.967958 0.213091 0.288568
O O15 0.000000 0.091908 0.000000
O O16 0.000000 0.661406 0.500000
O O17 0.000000 0.667148 0.000000
O O18 0.500000 0.336948 0.500000
#
# Coordination Sequence:
#
# PCOD9147481 Si02
#       7
#     4   2   4   4   4   4   4
#     4  11  25  39  55  83 116 159 213 269 320 370
#     4  10  22  38  64 100 140 163 196 247 306 376
#     4  11  22  39  62  82 116 162 212 250 306 366
#     4  11  22  39  60  86 120 162 208 258 305 379
#     4  10  19  37  58  82 113 146 195 252 327 375
#     4  10  19  35  57  86 117 150 200 253 314 364
#     4  10  21  38  63  95 126 164 196 246 306 370
#
# _framework density 19.465444999999999
#
# number of rings (size 3 to 8) (size 9 to 14) (size 15 to 20)
#    0.000    1.538    4.615    2.308    4.308    1.538 
#    0.000    0.769    0.000    0.462    0.000    1.077 
#    0.000    0.000    0.000    0.000    0.000    0.000 
#
# Total GULP energy -144824.568616 kJ/mol
# GULP energy per Si atom -5570.175716 kJ/mol
# Density = 1.942114 g / cm^3
# Si number density = 19.465445 Si / 1000 Ang^3
#
#
#
# Elastic Constant Matrix: (Units=GPa)
#
#
# Indices 1 2 3 4 5 6 
#
# 1 99.8757 5.5852 36.7586 0.0000 -1.6344 0.0000
# 2 5.5852 77.1396 14.5901 0.0000 -8.3100 0.0000
# 3 36.7586 14.5901 104.1976 0.0000 -0.6798 0.0000
# 4 0.0000 0.0000 0.0000 -17.7287 0.0000 -39.6838
# 5 -1.6344 -8.3100 -0.6798 0.0000 42.8827 0.0000
# 6 0.0000 0.0000 0.0000 -39.6838 0.0000 -31.0639
#
#
#
# Elastic Compliance Matrix: (Units=1/GPa)
#
#
# Indices 1 2 3 4 5 6 
#
# 1 0.011512 -0.000027 -0.004055 0.000000 0.000369 0.000000
# 2 -0.000027 0.013601 -0.001878 0.000000 0.002605 0.000000
# 3 -0.004055 -0.001878 0.011288 0.000000 -0.000340 0.000000
# 4 0.000000 0.000000 0.000000 0.030333 0.000000 -0.038751
# 5 0.000369 0.002605 -0.000340 0.000000 0.023833 0.000000
# 6 0.000000 0.000000 0.000000 -0.038751 0.000000 0.017312
#
#
# Mechanical properties :
#
#
# Convention : Reuss Voigt Hill
#
# Bulk Modulus (GPa) = 40.84596 43.89783 42.37190
# Shear Modulus (GPa) = 39.07439 13.76994 26.42217
#
# Velocity S-wave (km/s) = 4.48523 2.66259 3.68827
# Velocity P-wave (km/s) = 6.91755 5.66155 6.32082
#
# Compressibility (1/GPa) = 0.02448222
#
# Stress axis : x y z
#
# Youngs Moduli (GPa) = 86.86227 73.52247 88.58578
#
# Poissons Ratio (x) = 0.00197 0.35923
# Poissons Ratio (y) = 0.00232 0.16637
# Poissons Ratio (z) = 0.35224 0.13808
#
# Static dielectric constant tensor:
#      x y z
#    x 2.647960 0.000000 -0.422550 
#    y 0.000000 1.681690 0.000000 
#    z -0.422550 0.000000 2.032440 
# 
# From -- ./inp_files/9592.got.cif
#   From: 2010.05.17/outbox.cif.g08.bks.cpg/sg10_5_cif.got.tgz:9592.got - 2010.06.03 11:33:40.
