data_PCOD9147905
_publ_section_title
;
Structure prediction by ZEFSAII (Michael W. Deem and Ramdas Pophale) SiO2 
 PCOD9147905
Probable space group: P 2/M
;
_chemical_formula_sum "Si O2"
_cell_formula_units_Z 20
_cell_length_a 14.640856
_cell_length_b 14.545714
_cell_length_c 9.666786
_cell_angle_alpha 90.000000
_cell_angle_beta 152.243747
_cell_angle_gamma 90.000000
_cell_volume 958.738589
_symmetry_space_group_name_H-M "P 2/M"
_symmetry_group_IT_number 10
_symmetry_cell_setting 'monoclinic'
loop_
_space_group_symop_operation_xyz
x,y,z
-x,y,-z
-x,-y,-z
x,-y,z
loop_
_atom_site_type_symbol
_atom_site_label
_atom_site_fract_x
_atom_site_fract_y
_atom_site_fract_z
Si Si1 0.115974 0.203376 0.297078
Si Si2 0.849250 0.784947 0.175691
Si Si3 0.165527 0.598517 0.345509
Si Si4 0.518912 0.890846 0.360952
Si Si5 0.409460 0.603167 0.226380
O O1 0.144775 0.306162 0.396526
O O2 0.307328 0.152558 0.498576
O O3 0.968012 0.164394 0.210842
O O4 0.000000 0.215243 0.000000
O O5 0.000000 0.770337 0.500000
O O6 0.675264 0.855344 0.974210
O O7 0.738028 0.688001 0.993078
O O8 0.141910 0.500000 0.386192
O O9 0.390031 0.604825 0.593798
O O10 0.000000 0.597188 0.000000
O O11 0.500000 0.860179 0.500000
O O12 0.540981 0.000000 0.393011
O O13 0.500000 0.611536 0.500000
O O14 0.321675 0.500000 0.094449
#
# Coordination Sequence:
#
# PCOD9147905 Si02
#       5
#     4   4   4   4   4
#     4  11  21  39  70  94 125 169 218 266 318 388
#     4  12  26  42  63  97 140 173 208 265 332 388
#     4   9  17  30  56  93 124 158 209 265 310 361
#     4  11  24  45  72  98 124 160 221 279 323 384
#     4  10  19  36  64  93 129 175 224 266 309 374
#
# _framework density 20.860744
#
# number of rings (size 3 to 8) (size 9 to 14) (size 15 to 20)
#    0.000    1.400    4.000    3.000    0.000    5.200 
#    0.000    1.000    0.000    2.400    0.000    0.000 
#    0.000    0.000    0.000    0.000    0.000    0.000 
#
# Total GULP energy -111368.056863 kJ/mol
# GULP energy per Si atom -5568.402843 kJ/mol
# Density = 2.081326 g / cm^3
# Si number density = 20.860744 Si / 1000 Ang^3
#
#
#
# Elastic Constant Matrix: (Units=GPa)
#
#
# Indices 1 2 3 4 5 6 
#
# 1 68.3238 25.6690 46.5585 0.0000 31.9006 0.0000
# 2 25.6690 90.4615 39.0220 0.0000 21.8478 0.0000
# 3 46.5585 39.0220 104.1265 0.0000 27.7872 0.0000
# 4 0.0000 0.0000 0.0000 -7.3387 0.0000 -7.7560
# 5 31.9006 21.8478 27.7872 0.0000 39.4657 0.0000
# 6 0.0000 0.0000 0.0000 -7.7560 0.0000 9.0805
#
#
#
# Elastic Compliance Matrix: (Units=1/GPa)
#
#
# Indices 1 2 3 4 5 6 
#
# 1 0.028052 -0.000497 -0.007855 0.000000 -0.016869 0.000000
# 2 -0.000497 0.013944 -0.003756 0.000000 -0.004673 0.000000
# 3 -0.007855 -0.003756 0.015114 0.000000 -0.002213 0.000000
# 4 0.000000 0.000000 0.000000 -0.071616 0.000000 -0.061170
# 5 -0.016869 -0.004673 -0.002213 0.000000 0.043118 0.000000
# 6 0.000000 0.000000 0.000000 -0.061170 0.000000 0.057879
#
#
# Mechanical properties :
#
#
# Convention : Reuss Voigt Hill
#
# Bulk Modulus (GPa) = 30.40173 53.93453 42.16813
# Shear Modulus (GPa) = 41.09357 18.35231 29.72294
#
# Velocity S-wave (km/s) = 4.44317 2.96928 3.77878
# Velocity P-wave (km/s) = 6.39747 6.13728 6.26873
#
# Compressibility (1/GPa) = 0.03289287
#
# Stress axis : x y z
#
# Youngs Moduli (GPa) = 35.64838 71.71299 66.16311
#
# Poissons Ratio (x) = 0.03568 0.51970
# Poissons Ratio (y) = 0.01773 0.24853
# Poissons Ratio (z) = 0.28001 0.26938
#
# Static dielectric constant tensor:
#      x y z
#    x 1.718820 0.000000 -0.030080 
#    y 0.000000 1.820460 0.000000 
#    z -0.030080 0.000000 1.693060 
# 
# From -- ./inp_files/53957.got.cif
#   From: 2010.05.17/outbox.cif.g08.bks.cpg/sg10_27_cif.got.tgz:53957.got - 2010.06.03 11:33:40.
