data_PCOD9147402
_publ_section_title
;
Structure prediction by ZEFSAII (Michael W. Deem and Ramdas Pophale) SiO2 
 PCOD9147402
Probable space group: P 2/M
;
_chemical_formula_sum "Si O2"
_cell_formula_units_Z 28
_cell_length_a 8.729320
_cell_length_b 7.922978
_cell_length_c 27.435234
_cell_angle_alpha 90.000000
_cell_angle_beta 39.865182
_cell_angle_gamma 90.000000
_cell_volume 1216.253934
_symmetry_space_group_name_H-M "P 2/M"
_symmetry_group_IT_number 10
_symmetry_cell_setting 'monoclinic'
loop_
_space_group_symop_operation_xyz
x,y,z
-x,y,-z
-x,-y,-z
x,-y,z
loop_
_atom_site_type_symbol
_atom_site_label
_atom_site_fract_x
_atom_site_fract_y
_atom_site_fract_z
Si Si1 0.517432 0.703835 0.348680
Si Si2 0.298729 0.295215 0.588983
Si Si3 0.201051 0.707193 0.339233
Si Si4 0.648615 0.311120 0.167229
Si Si5 0.830821 0.303979 0.952826
Si Si6 0.969719 0.308169 0.808676
Si Si7 0.484561 0.180218 0.115002
O O1 0.491303 0.500000 0.358955
O O2 0.600137 0.763495 0.382623
O O3 0.283952 0.759434 0.374226
O O4 0.754028 0.740533 0.258343
O O5 0.500000 0.256532 0.500000
O O6 0.278623 0.500000 0.598200
O O7 0.044490 0.237561 0.627526
O O8 0.191580 0.500000 0.341958
O O9 0.426326 0.760702 0.251081
O O10 0.692649 0.500000 0.177422
O O11 0.566049 0.320803 0.132125
O O12 0.907786 0.228850 0.100517
O O13 0.814615 0.500000 0.973125
O O14 0.840924 0.307398 0.892204
O O15 0.623626 0.205822 0.030576
O O16 0.961904 0.500000 0.791289
O O17 0.799594 0.192213 0.818961
O O18 0.554192 0.000000 0.118784
#
# Coordination Sequence:
#
# PCOD9147402 Si02
#       7
#     4   4   4   4   4   4   4
#     4   9  16  29  50  74 100 135 182 228 264 307
#     4   9  17  26  40  71 113 149 173 201 258 329
#     4   9  16  29  50  74 100 135 182 228 264 307
#     4  10  19  35  56  75  96 131 184 233 267 307
#     4  10  20  35  55  76  96 128 182 235 274 315
#     4  10  19  35  56  75  96 131 184 233 267 307
#     4  12  25  35  47  73 108 143 172 211 279 340
#
# _framework density 23.021508999999998
#
# number of rings (size 3 to 8) (size 9 to 14) (size 15 to 20)
#    0.000    2.143    1.429    3.000    0.000    7.429 
#    0.000    2.857    0.000    0.000    0.000    0.000 
#    0.000    9.143    0.000   10.286    0.000   11.429 
#
# Total GULP energy -155956.267349 kJ/mol
# GULP energy per Si atom -5569.866691 kJ/mol
# Density = 2.296911 g / cm^3
# Si number density = 23.021509 Si / 1000 Ang^3
#
#
#
# Elastic Constant Matrix: (Units=GPa)
#
#
# Indices 1 2 3 4 5 6 
#
# 1 131.6959 16.6985 50.7909 0.0000 1.5918 0.0000
# 2 16.6985 35.5646 4.8028 0.0000 -3.7881 0.0000
# 3 50.7909 4.8028 71.2507 0.0000 4.8810 0.0000
# 4 0.0000 0.0000 0.0000 -4.5394 0.0000 -12.0512
# 5 1.5918 -3.7881 4.8810 0.0000 30.5910 0.0000
# 6 0.0000 0.0000 0.0000 -12.0512 0.0000 -1.4054
#
#
#
# Elastic Compliance Matrix: (Units=1/GPa)
#
#
# Indices 1 2 3 4 5 6 
#
# 1 0.011052 -0.004148 -0.007607 0.000000 0.000125 0.000000
# 2 -0.004148 0.030392 0.000643 0.000000 0.003877 0.000000
# 3 -0.007607 0.000643 0.019596 0.000000 -0.002651 0.000000
# 4 0.000000 0.000000 0.000000 0.010122 0.000000 -0.086792
# 5 0.000125 0.003877 -0.002651 0.000000 0.033586 0.000000
# 6 0.000000 0.000000 0.000000 -0.086792 0.000000 0.032692
#
#
# Mechanical properties :
#
#
# Convention : Reuss Voigt Hill
#
# Bulk Modulus (GPa) = 25.76370 42.56617 34.16493
# Shear Modulus (GPa) = 28.96840 16.01050 22.48945
#
# Velocity S-wave (km/s) = 3.55113 2.64002 3.12891
# Velocity P-wave (km/s) = 5.29428 5.27473 5.28452
#
# Compressibility (1/GPa) = 0.03881430
#
# Stress axis : x y z
#
# Youngs Moduli (GPa) = 90.48541 32.90371 51.03123
#
# Poissons Ratio (x) = 0.13650 0.38819
# Poissons Ratio (y) = 0.37537 -0.03281
# Poissons Ratio (z) = 0.68832 -0.02116
#
# Static dielectric constant tensor:
#      x y z
#    x 1.931000 0.000000 0.007530 
#    y 0.000000 1.847350 0.000000 
#    z 0.007530 0.000000 1.839170 
# 
# From -- ./inp_files/94506.got.cif
#   From: 2010.05.17/outbox.cif.g08.bks.cpg/sg10_48_cif.got.tgz:94506.got - 2010.06.03 11:33:40.
