data_PCOD9147049
_publ_section_title
;
Structure prediction by ZEFSAII (Michael W. Deem and Ramdas Pophale) SiO2 
 PCOD9147049
Probable space group: P 2/M
;
_chemical_formula_sum "Si O2"
_cell_formula_units_Z 28
_cell_length_a 24.469758
_cell_length_b 10.470388
_cell_length_c 30.460784
_cell_angle_alpha 90.000000
_cell_angle_beta 169.317471
_cell_angle_gamma 90.000000
_cell_volume 1446.658111
_symmetry_space_group_name_H-M "P 2/M"
_symmetry_group_IT_number 10
_symmetry_cell_setting 'monoclinic'
loop_
_space_group_symop_operation_xyz
x,y,z
-x,y,-z
-x,-y,-z
x,-y,z
loop_
_atom_site_type_symbol
_atom_site_label
_atom_site_fract_x
_atom_site_fract_y
_atom_site_fract_z
Si Si1 0.731129 0.784079 0.913403
Si Si2 0.585623 0.350401 0.263600
Si Si3 0.247382 0.851815 0.385998
Si Si4 0.235342 0.347255 0.761383
Si Si5 0.668959 0.348484 0.028552
Si Si6 0.856109 0.854026 0.595874
Si Si7 0.867852 0.848951 0.846615
O O1 0.577248 0.671130 0.819185
O O2 0.444776 0.857763 0.669400
O O3 0.952626 0.841921 0.124658
O O4 0.936438 0.769178 0.032890
O O5 0.616965 0.500000 0.280678
O O6 0.913890 0.293404 0.518240
O O7 0.390936 0.307276 0.068669
O O8 0.220765 0.807383 0.415166
O O9 0.532282 0.799843 0.585160
O O10 0.324561 0.000000 0.452106
O O11 0.220859 0.500000 0.759142
O O12 0.500000 0.294633 0.000000
O O13 0.360856 0.334846 0.811385
O O14 0.752940 0.500000 0.098134
O O15 0.915279 0.251981 0.241151
O O16 0.974977 0.000000 0.691858
O O17 0.878731 0.000000 0.840680
O O18 0.000000 0.844766 0.000000
#
# Coordination Sequence:
#
# PCOD9147049 Si02
#       7
#     4   4   4   4   4   4   4
#     4  12  21  34  58  83 116 153 190 240 299 352
#     4  10  21  36  57  88 117 152 199 245 290 349
#     4  10  20  35  54  80 113 148 190 240 289 346
#     4   9  17  32  57  86 113 146 196 248 289 335
#     4  10  20  38  62  87 118 157 200 246 292 345
#     4  11  22  36  57  88 122 153 192 243 298 353
#     4  10  19  34  56  82 111 146 196 248 290 343
#
# _framework density 19.354953999999999
#
# number of rings (size 3 to 8) (size 9 to 14) (size 15 to 20)
#    0.000    1.714    2.857    3.000    0.000    4.571 
#    0.000    0.000    0.000   10.286    0.000    0.000 
#    0.000    0.000    0.000    0.000    0.000    0.000 
#
# Total GULP energy -155885.077375 kJ/mol
# GULP energy per Si atom -5567.324192 kJ/mol
# Density = 1.931090 g / cm^3
# Si number density = 19.354954 Si / 1000 Ang^3
#
#
#
# Elastic Constant Matrix: (Units=GPa)
#
#
# Indices 1 2 3 4 5 6 
#
# 1 69.9511 5.5180 27.9905 0.0000 -6.1279 0.0000
# 2 5.5180 21.7625 34.6700 0.0000 2.3571 0.0000
# 3 27.9905 34.6700 126.8495 0.0000 7.0907 0.0000
# 4 0.0000 0.0000 0.0000 18.5375 0.0000 5.0328
# 5 -6.1279 2.3571 7.0907 0.0000 30.5638 0.0000
# 6 0.0000 0.0000 0.0000 5.0328 0.0000 0.6569
#
#
#
# Elastic Compliance Matrix: (Units=1/GPa)
#
#
# Indices 1 2 3 4 5 6 
#
# 1 0.016266 0.002683 -0.004552 0.000000 0.004110 0.000000
# 2 0.002683 0.081870 -0.022943 0.000000 -0.000453 0.000000
# 3 -0.004552 -0.022943 0.015309 0.000000 -0.002695 0.000000
# 4 0.000000 0.000000 0.000000 -0.049945 0.000000 0.382659
# 5 0.004110 -0.000453 -0.002695 0.000000 0.034203 0.000000
# 6 0.000000 0.000000 0.000000 0.382659 0.000000 -1.409446
#
#
# Mechanical properties :
#
#
# Convention : Reuss Voigt Hill
#
# Bulk Modulus (GPa) = 15.66907 39.43556 27.55232
# Shear Modulus (GPa) = -4.02951 19.97728 7.97388
#
# Velocity S-wave (km/s) = -1.44445 3.21620 2.03193
# Velocity P-wave (km/s) = 2.30896 5.84902 4.44648
#
# Compressibility (1/GPa) = 0.06382000
#
# Stress axis : x y z
#
# Youngs Moduli (GPa) = 61.47916 12.21443 65.32025
#
# Poissons Ratio (x) = -0.03277 0.29735
# Poissons Ratio (y) = -0.16492 1.49865
# Poissons Ratio (z) = 0.27986 0.28024
#
# Static dielectric constant tensor:
#      x y z
#    x 1.732420 0.000000 -0.001450 
#    y 0.000000 1.650110 0.000000 
#    z -0.001450 0.000000 1.746490 
# 
# From -- ./inp_files/79587.got.cif
#   From: 2010.05.17/outbox.cif.g08.bks.cpg/sg10_40_cif.got.tgz:79587.got - 2010.06.03 11:33:40.
