data_PCOD9147477
_publ_section_title
;
Structure prediction by ZEFSAII (Michael W. Deem and Ramdas Pophale) SiO2 
 PCOD9147477
Probable space group: P 2/M
;
_chemical_formula_sum "Si O2"
_cell_formula_units_Z 28
_cell_length_a 31.622454
_cell_length_b 11.830092
_cell_length_c 25.326776
_cell_angle_alpha 90.000000
_cell_angle_beta 9.464470
_cell_angle_gamma 90.000000
_cell_volume 1557.974724
_symmetry_space_group_name_H-M "P 2/M"
_symmetry_group_IT_number 10
_symmetry_cell_setting 'monoclinic'
loop_
_space_group_symop_operation_xyz
x,y,z
-x,y,-z
-x,-y,-z
x,-y,z
loop_
_atom_site_type_symbol
_atom_site_label
_atom_site_fract_x
_atom_site_fract_y
_atom_site_fract_z
Si Si1 0.823178 0.130394 0.939694
Si Si2 0.122749 0.368789 0.264056
Si Si3 0.675609 0.500000 0.232265
Si Si4 0.256528 0.203532 0.325650
Si Si5 0.473620 0.372089 0.144675
Si Si6 0.952467 0.295384 0.249566
Si Si7 0.562643 0.294945 0.641515
Si Si8 0.729226 0.500000 0.363584
O O1 0.918228 0.198679 0.874191
O O2 0.049639 0.138129 0.616356
O O3 0.768845 0.000000 0.017667
O O4 0.580063 0.197993 0.215622
O O5 0.037346 0.500000 0.369567
O O6 0.906154 0.278461 0.515754
O O7 0.270835 0.344626 0.136500
O O8 0.338500 0.354630 0.952429
O O9 0.500000 0.500000 0.500000
O O10 0.497596 0.500000 0.399892
O O11 0.849156 0.387648 0.016437
O O12 0.394195 0.290720 0.195848
O O13 0.500000 0.140212 0.000000
O O14 0.493317 0.500000 0.101482
O O15 0.241000 0.361736 0.473055
O O16 0.775193 0.249928 0.420601
O O17 0.691699 0.389422 0.445874
O O18 0.000000 0.500000 0.000000
#
# Coordination Sequence:
#
# PCOD9147477 Si02
#       8
#     4   4   2   4   4   4   4   2
#     4  10  22  39  60  80 104 154 208 242 284 336
#     4   9  17  29  49  73 105 146 183 219 279 349
#     4  12  22  34  58  97 129 153 175 220 285 346
#     4  10  21  33  48  74 106 140 187 247 294 330
#     4   9  17  29  49  73 105 146 183 219 279 349
#     4  10  19  35  57  84 117 147 187 237 281 337
#     4  10  19  35  57  84 117 147 187 237 281 337
#     4  12  22  34  58  97 129 153 175 220 285 346
#
# _framework density 17.972048999999998
#
# number of rings (size 3 to 8) (size 9 to 14) (size 15 to 20)
#    0.000    2.000    2.857    1.714    0.000    2.571 
#    0.000    1.429    0.000    0.857    0.000    8.000 
#    0.000    0.000    0.000    0.000    0.000    0.000 
#
# Total GULP energy -156275.783315 kJ/mol
# GULP energy per Si atom -5581.277976 kJ/mol
# Density = 1.793114 g / cm^3
# Si number density = 17.972049 Si / 1000 Ang^3
#
#
#
# Elastic Constant Matrix: (Units=GPa)
#
#
# Indices 1 2 3 4 5 6 
#
# 1 79.7468 43.6417 31.8897 0.0000 -29.4594 0.0000
# 2 43.6417 111.8842 39.0905 0.0000 -18.5589 0.0000
# 3 31.8897 39.0905 103.6702 0.0000 -2.4257 0.0000
# 4 0.0000 0.0000 0.0000 27.7674 0.0000 12.8567
# 5 -29.4594 -18.5589 -2.4257 0.0000 29.6713 0.0000
# 6 0.0000 0.0000 0.0000 12.8567 0.0000 15.5360
#
#
#
# Elastic Compliance Matrix: (Units=1/GPa)
#
#
# Indices 1 2 3 4 5 6 
#
# 1 0.025209 -0.004222 -0.005649 0.000000 0.021927 0.000000
# 2 -0.004222 0.012250 -0.003245 0.000000 0.003205 0.000000
# 3 -0.005649 -0.003245 0.012453 0.000000 -0.006621 0.000000
# 4 0.000000 0.000000 0.000000 0.058384 0.000000 -0.048315
# 5 0.021927 0.003205 -0.006621 0.000000 0.056936 0.000000
# 6 0.000000 0.000000 0.000000 -0.048315 0.000000 0.104349
#
#
# Mechanical properties :
#
#
# Convention : Reuss Voigt Hill
#
# Bulk Modulus (GPa) = 42.23326 58.28276 50.25801
# Shear Modulus (GPa) = 16.46315 26.64022 21.55169
#
# Velocity S-wave (km/s) = 3.02990 3.85426 3.46667
# Velocity P-wave (km/s) = 5.98254 7.23237 6.63694
#
# Compressibility (1/GPa) = 0.02367802
#
# Stress axis : x y z
#
# Youngs Moduli (GPa) = 39.66759 81.63094 80.30456
#
# Poissons Ratio (x) = 0.34467 0.45368
# Poissons Ratio (y) = 0.16749 0.26062
# Poissons Ratio (z) = 0.22410 0.26492
#
# Static dielectric constant tensor:
#      x y z
#    x 1.625750 0.000000 0.007580 
#    y 0.000000 1.561580 0.000000 
#    z 0.007580 0.000000 1.638340 
# 
# From -- ./inp_files/79608.got.cif
#   From: 2010.05.17/outbox.cif.g08.bks.cpg/sg10_40_cif.got.tgz:79608.got - 2010.06.03 11:33:40.
