data_PCOD9147600
_publ_section_title
;
Structure prediction by ZEFSAII (Michael W. Deem and Ramdas Pophale) SiO2 
 PCOD9147600
Probable space group: P 2/M
;
_chemical_formula_sum "Si O2"
_cell_formula_units_Z 28
_cell_length_a 14.910943
_cell_length_b 18.583857
_cell_length_c 5.522177
_cell_angle_alpha 90.000000
_cell_angle_beta 59.410475
_cell_angle_gamma 90.000000
_cell_volume 1317.259208
_symmetry_space_group_name_H-M "P 2/M"
_symmetry_group_IT_number 10
_symmetry_cell_setting 'monoclinic'
loop_
_space_group_symop_operation_xyz
x,y,z
-x,y,-z
-x,-y,-z
x,-y,z
loop_
_atom_site_type_symbol
_atom_site_label
_atom_site_fract_x
_atom_site_fract_y
_atom_site_fract_z
Si Si1 0.374659 0.728814 0.873120
Si Si2 0.623648 0.576468 0.870772
Si Si3 0.759393 0.799543 0.572882
Si Si4 0.748969 0.343912 0.328907
Si Si5 0.461468 0.853487 0.300663
Si Si6 0.062310 0.414257 0.168916
Si Si7 0.064888 0.081607 0.660691
O O1 0.350939 0.696187 0.645795
O O2 0.473992 0.778056 0.779531
O O3 0.371686 0.655109 0.022932
O O4 0.282856 0.779242 0.101995
O O5 0.653450 0.500000 0.952258
O O6 0.703352 0.588524 0.538547
O O7 0.500000 0.570048 0.000000
O O8 0.796679 0.722628 0.414058
O O9 0.660010 0.834255 0.565323
O O10 0.848156 0.857841 0.456243
O O11 0.830130 0.371559 0.017699
O O12 0.500000 0.888578 0.500000
O O13 0.500000 0.890568 0.000000
O O14 0.081606 0.500000 0.162386
O O15 0.000000 0.393236 0.500000
O O16 0.000000 0.403120 0.000000
O O17 0.000000 0.089295 0.500000
O O18 0.108209 0.000000 0.599453
O O19 0.000000 0.088470 0.000000
#
# Coordination Sequence:
#
# PCOD9147600 Si02
#       7
#     4   4   4   4   4   4   4
#     4  10  21  36  58  87 124 165 213 270 329 389
#     4  10  22  36  53  83 122 167 222 275 332 400
#     4  10  22  38  63  96 126 170 212 265 323 389
#     4  11  22  38  60  91 119 166 218 280 336 400
#     4  10  19  35  59  88 127 165 206 255 316 384
#     4  10  24  44  62  81 116 167 222 281 345 400
#     4  10  24  46  71 100 137 176 213 261 323 389
#
# _framework density 21.256256
#
# number of rings (size 3 to 8) (size 9 to 14) (size 15 to 20)
#    0.000    1.857    1.429    2.571    6.000    1.714 
#    0.000    1.429    0.000    4.286    0.000    0.000 
#    0.000    0.000    0.000    0.000    0.000    0.000 
#
# Total GULP energy -155920.124281 kJ/mol
# GULP energy per Si atom -5568.575867 kJ/mol
# Density = 2.120788 g / cm^3
# Si number density = 21.256256 Si / 1000 Ang^3
#
#
#
# Elastic Constant Matrix: (Units=GPa)
#
#
# Indices 1 2 3 4 5 6 
#
# 1 51.3523 36.6332 22.0167 0.0000 -1.6756 0.0000
# 2 36.6332 96.3323 37.5892 0.0000 -20.1127 0.0000
# 3 22.0167 37.5892 115.3705 0.0000 -3.5927 0.0000
# 4 0.0000 0.0000 0.0000 10.5745 0.0000 -15.4083
# 5 -1.6756 -20.1127 -3.5927 0.0000 36.6265 0.0000
# 6 0.0000 0.0000 0.0000 -15.4083 0.0000 34.0501
#
#
#
# Elastic Compliance Matrix: (Units=1/GPa)
#
#
# Indices 1 2 3 4 5 6 
#
# 1 0.027901 -0.010876 -0.001933 0.000000 -0.004886 0.000000
# 2 -0.010876 0.017706 -0.003416 0.000000 0.008890 0.000000
# 3 -0.001933 -0.003416 0.010119 0.000000 -0.000972 0.000000
# 4 0.000000 0.000000 0.000000 0.277626 0.000000 0.125631
# 5 -0.004886 0.008890 -0.000972 0.000000 0.031866 0.000000
# 6 0.000000 0.000000 0.000000 0.125631 0.000000 0.086219
#
#
# Mechanical properties :
#
#
# Convention : Reuss Voigt Hill
#
# Bulk Modulus (GPa) = 42.96355 50.61482 46.78918
# Shear Modulus (GPa) = 10.16990 27.37129 18.77060
#
# Velocity S-wave (km/s) = 2.18971 3.59232 2.97486
# Velocity P-wave (km/s) = 5.16228 6.40857 5.81889
#
# Compressibility (1/GPa) = 0.02327554
#
# Stress axis : x y z
#
# Youngs Moduli (GPa) = 35.84052 56.47828 98.81918
#
# Poissons Ratio (x) = 0.61426 0.19103
# Poissons Ratio (y) = 0.38980 0.33761
# Poissons Ratio (z) = 0.06928 0.19296
#
# Static dielectric constant tensor:
#      x y z
#    x 1.884490 0.000000 0.198760 
#    y 0.000000 1.739800 0.000000 
#    z 0.198760 0.000000 2.264860 
# 
# From -- ./inp_files/9759.got.cif
#   From: 2010.05.17/outbox.cif.g08.bks.cpg/sg10_5_cif.got.tgz:9759.got - 2010.06.03 11:33:40.
