data_PCOD9147567
_publ_section_title
;
Structure prediction by ZEFSAII (Michael W. Deem and Ramdas Pophale) SiO2 
 PCOD9147567
Probable space group: P 2/M
;
_chemical_formula_sum "Si O2"
_cell_formula_units_Z 32
_cell_length_a 29.377135
_cell_length_b 8.263050
_cell_length_c 12.842976
_cell_angle_alpha 90.000000
_cell_angle_beta 30.362599
_cell_angle_gamma 90.000000
_cell_volume 1575.837457
_symmetry_space_group_name_H-M "P 2/M"
_symmetry_group_IT_number 10
_symmetry_cell_setting 'monoclinic'
loop_
_space_group_symop_operation_xyz
x,y,z
-x,y,-z
-x,-y,-z
x,-y,z
loop_
_atom_site_type_symbol
_atom_site_label
_atom_site_fract_x
_atom_site_fract_y
_atom_site_fract_z
Si Si1 0.269174 0.683491 0.914150
Si Si2 0.449533 0.184972 0.490561
Si Si3 0.676996 0.805060 0.757369
Si Si4 0.508519 0.308025 0.803966
Si Si5 0.767961 0.804195 0.792130
Si Si6 0.709533 0.196069 0.465520
Si Si7 0.146739 0.811460 0.985503
Si Si8 0.026990 0.802092 0.563912
O O1 0.236842 0.500000 0.973984
O O2 0.363051 0.701816 0.668973
O O3 0.198978 0.795679 0.992167
O O4 0.282031 0.738527 0.007130
O O5 0.500000 0.193750 0.500000
O O6 0.509699 0.235397 0.274743
O O7 0.418312 0.000000 0.536714
O O8 0.726093 0.747343 0.765649
O O9 0.723326 0.753628 0.558148
O O10 0.678101 0.000000 0.757477
O O11 0.572988 0.750901 0.963313
O O12 0.507874 0.500000 0.802469
O O13 0.608569 0.249245 0.635066
O O14 0.872217 0.755654 0.603009
O O15 0.763125 0.000000 0.803794
O O16 0.786304 0.258061 0.234578
O O17 0.710239 0.000000 0.458597
O O18 0.134946 0.000000 0.982643
O O19 0.048029 0.743628 0.205498
O O20 0.000000 0.749864 0.500000
O O21 0.024301 0.000000 0.568487
#
# Coordination Sequence:
#
# PCOD9147567 Si02
#       8
#     4   4   4   4   4   4   4   4
#     4  12  23  34  53  83 117 147 184 232 283 338
#     4  11  23  38  56  79 111 152 190 227 281 345
#     4  10  22  39  58  82 112 152 198 240 283 336
#     4  12  24  37  57  85 114 148 192 240 286 335
#     4  10  20  37  59  82 114 153 192 235 287 344
#     4  10  21  38  60  83 112 152 198 240 280 335
#     4  10  19  35  59  83 111 148 189 232 285 339
#     4   9  16  30  57  88 112 144 191 236 282 339
#
# _framework density 20.306663
#
# number of rings (size 3 to 8) (size 9 to 14) (size 15 to 20)
#    0.000    1.500    2.500    3.750    0.000    6.500 
#    0.000    1.875    0.000    3.750    0.000    0.000 
#    0.000    4.000    0.000    0.000    0.000    0.000 
#
# Total GULP energy -178730.218331 kJ/mol
# GULP energy per Si atom -5585.319323 kJ/mol
# Density = 2.026044 g / cm^3
# Si number density = 20.306663 Si / 1000 Ang^3
#
#
#
# Elastic Constant Matrix: (Units=GPa)
#
#
# Indices 1 2 3 4 5 6 
#
# 1 70.7046 2.9959 41.4767 0.0000 17.2392 0.0000
# 2 2.9959 18.1823 9.5753 0.0000 3.9117 0.0000
# 3 41.4767 9.5753 126.4265 0.0000 14.4180 0.0000
# 4 0.0000 0.0000 0.0000 -11.2446 0.0000 0.4342
# 5 17.2392 3.9117 14.4180 0.0000 34.4792 0.0000
# 6 0.0000 0.0000 0.0000 0.4342 0.0000 -5.1197
#
#
#
# Elastic Compliance Matrix: (Units=1/GPa)
#
#
# Indices 1 2 3 4 5 6 
#
# 1 0.019140 0.001356 -0.005537 0.000000 -0.007408 0.000000
# 2 0.001356 0.058185 -0.004223 0.000000 -0.005513 0.000000
# 3 -0.005537 -0.004223 0.010160 0.000000 -0.001001 0.000000
# 4 0.000000 0.000000 0.000000 -0.089223 0.000000 -0.007566
# 5 -0.007408 -0.005513 -0.001001 0.000000 0.033751 0.000000
# 6 0.000000 0.000000 0.000000 -0.007566 0.000000 -0.195965
#
#
# Mechanical properties :
#
#
# Convention : Reuss Voigt Hill
#
# Bulk Modulus (GPa) = 14.14871 35.93437 25.04154
# Shear Modulus (GPa) = -40.45831 14.37399 -13.04216
#
# Velocity S-wave (km/s) = -4.46844 2.66342 -2.53703
# Velocity P-wave (km/s) = 4.43169 5.21466 1.94330
#
# Compressibility (1/GPa) = 0.07067783
#
# Stress axis : x y z
#
# Youngs Moduli (GPa) = 52.24533 17.18650 98.42188
#
# Poissons Ratio (x) = -0.02331 0.54499
# Poissons Ratio (y) = -0.07085 0.41564
# Poissons Ratio (z) = 0.28930 0.07258
#
# Static dielectric constant tensor:
#      x y z
#    x 1.725660 0.000000 0.009400 
#    y 0.000000 1.696560 0.000000 
#    z 0.009400 0.000000 1.734780 
# 
# From -- ./inp_files/49788.got.cif
#   From: 2010.05.17/outbox.cif.g08.bks.cpg/sg10_25_cif.got.tgz:49788.got - 2010.06.03 11:33:40.
