data_PCOD9147731
_publ_section_title
;
Structure prediction by ZEFSAII (Michael W. Deem and Ramdas Pophale) SiO2 
 PCOD9147731
Probable space group: P 2/M
;
_chemical_formula_sum "Si O2"
_cell_formula_units_Z 28
_cell_length_a 9.654794
_cell_length_b 8.793702
_cell_length_c 27.950914
_cell_angle_alpha 90.000000
_cell_angle_beta 40.710643
_cell_angle_gamma 90.000000
_cell_volume 1547.810114
_symmetry_space_group_name_H-M "P 2/M"
_symmetry_group_IT_number 10
_symmetry_cell_setting 'monoclinic'
loop_
_space_group_symop_operation_xyz
x,y,z
-x,y,-z
-x,-y,-z
x,-y,z
loop_
_atom_site_type_symbol
_atom_site_label
_atom_site_fract_x
_atom_site_fract_y
_atom_site_fract_z
Si Si1 0.542582 0.683674 0.433277
Si Si2 0.966989 0.315817 0.263054
Si Si3 0.845619 0.315256 0.084012
Si Si4 0.623996 0.330651 0.697669
Si Si5 0.884809 0.673016 0.177474
Si Si6 0.251620 0.828757 0.430300
Si Si7 0.624643 0.178628 0.794286
O O1 0.500000 0.723286 0.500000
O O2 0.526836 0.500000 0.433515
O O3 0.770803 0.727585 0.349730
O O4 0.364257 0.761446 0.447368
O O5 0.966410 0.500000 0.262316
O O6 0.934739 0.260007 0.216567
O O7 0.191050 0.255850 0.223153
O O8 0.829128 0.500000 0.091256
O O9 0.938614 0.259571 0.111118
O O10 0.609371 0.250745 0.137655
O O11 0.000000 0.276524 0.000000
O O12 0.698616 0.500000 0.691461
O O13 0.369990 0.334692 0.759279
O O14 0.703357 0.279832 0.625832
O O15 0.682258 0.214619 0.724018
O O16 0.970794 0.500000 0.155586
O O17 0.000000 0.836274 0.500000
O O18 0.333829 0.000000 0.399667
O O19 0.616445 0.000000 0.805270
#
# Coordination Sequence:
#
# PCOD9147731 Si02
#       7
#     4   4   4   4   4   4   4
#     4  10  22  39  58  82 108 147 200 245 287 333
#     4  10  19  36  57  80 111 148 192 239 280 333
#     4   9  18  36  62  89 114 145 188 235 280 332
#     4  10  19  37  60  80 103 142 193 239 278 327
#     4   8  15  31  57  83 105 134 180 231 277 323
#     4  11  24  38  53  80 115 147 184 233 294 351
#     4  11  23  36  54  85 119 150 185 226 285 345
#
# _framework density 18.090073
#
# number of rings (size 3 to 8) (size 9 to 14) (size 15 to 20)
#    0.000    2.143    1.429    3.000    2.000    2.286 
#    0.000    1.429    0.000    4.286    0.000    0.000 
#    0.000    0.000    0.000    0.000    0.000    0.000 
#
# Total GULP energy -156037.998153 kJ/mol
# GULP energy per Si atom -5572.785648 kJ/mol
# Density = 1.804890 g / cm^3
# Si number density = 18.090073 Si / 1000 Ang^3
#
#
#
# Elastic Constant Matrix: (Units=GPa)
#
#
# Indices 1 2 3 4 5 6 
#
# 1 134.4752 18.2103 66.0554 0.0000 10.8799 0.0000
# 2 18.2103 25.9324 25.1266 0.0000 -0.5564 0.0000
# 3 66.0554 25.1266 106.4023 0.0000 22.1667 0.0000
# 4 0.0000 0.0000 0.0000 15.6137 0.0000 -0.3787
# 5 10.8799 -0.5564 22.1667 0.0000 24.4002 0.0000
# 6 0.0000 0.0000 0.0000 -0.3787 0.0000 -28.2318
#
#
#
# Elastic Compliance Matrix: (Units=1/GPa)
#
#
# Indices 1 2 3 4 5 6 
#
# 1 0.010767 -0.001040 -0.006702 0.000000 0.001264 0.000000
# 2 -0.001040 0.054735 -0.015586 0.000000 0.015871 0.000000
# 3 -0.006702 -0.015586 0.020587 0.000000 -0.016070 0.000000
# 4 0.000000 0.000000 0.000000 0.064025 0.000000 -0.000859
# 5 0.001264 0.015871 -0.016070 0.000000 0.055380 0.000000
# 6 0.000000 0.000000 0.000000 -0.000859 0.000000 -0.035410
#
#
# Mechanical properties :
#
#
# Convention : Reuss Voigt Hill
#
# Bulk Modulus (GPa) = 25.35971 53.95494 39.65733
# Shear Modulus (GPa) = 21.74995 12.85093 17.30044
#
# Velocity S-wave (km/s) = 3.47120 2.66820 3.09585
# Velocity P-wave (km/s) = 5.48768 6.27558 5.89481
#
# Compressibility (1/GPa) = 0.03943263
#
# Stress axis : x y z
#
# Youngs Moduli (GPa) = 92.87710 18.26998 48.57366
#
# Poissons Ratio (x) = 0.01900 0.32553
# Poissons Ratio (y) = 0.09660 0.75708
# Poissons Ratio (z) = 0.62245 0.28476
#
# Static dielectric constant tensor:
#      x y z
#    x 1.615990 0.000000 0.032270 
#    y 0.000000 1.618390 0.000000 
#    z 0.032270 0.000000 1.654910 
# 
# From -- ./inp_files/37943.got.cif
#   From: 2010.05.17/outbox.cif.g08.bks.cpg/sg10_19_cif.got.tgz:37943.got - 2010.06.03 11:33:40.
