data_PCOD9147276
_publ_section_title
;
Structure prediction by ZEFSAII (Michael W. Deem and Ramdas Pophale) SiO2 
 PCOD9147276
Probable space group: P 2/M
;
_chemical_formula_sum "Si O2"
_cell_formula_units_Z 20
_cell_length_a 17.871649
_cell_length_b 13.766865
_cell_length_c 9.190762
_cell_angle_alpha 90.000000
_cell_angle_beta 154.933824
_cell_angle_gamma 90.000000
_cell_volume 958.017707
_symmetry_space_group_name_H-M "P 2/M"
_symmetry_group_IT_number 10
_symmetry_cell_setting 'monoclinic'
loop_
_space_group_symop_operation_xyz
x,y,z
-x,y,-z
-x,-y,-z
x,-y,z
loop_
_atom_site_type_symbol
_atom_site_label
_atom_site_fract_x
_atom_site_fract_y
_atom_site_fract_z
Si Si1 0.928239 0.301552 0.582110
Si Si2 0.662617 0.680777 0.685389
Si Si3 0.247323 0.500000 0.681263
Si Si4 0.255161 0.105807 0.215094
Si Si5 0.000000 0.191988 0.000000
Si Si6 0.000000 0.151200 0.500000
Si Si7 0.659313 0.500000 0.467736
O O1 0.830369 0.401931 0.391325
O O2 0.870415 0.215825 0.373522
O O3 0.134196 0.317504 0.903177
O O4 0.919218 0.261105 0.731317
O O5 0.500000 0.649809 0.500000
O O6 0.631785 0.794707 0.592546
O O7 0.680608 0.600040 0.592265
O O8 0.216123 0.500000 0.453108
O O9 0.454708 0.500000 0.066310
O O10 0.135503 0.125996 0.147479
O O11 0.343346 0.000000 0.379301
O O12 0.125271 0.103773 0.843943
#
# Coordination Sequence:
#
# PCOD9147276 Si02
#       7
#     4   4   2   4   2   2   2
#     4  10  20  36  59  82 112 156 187 233 281 337
#     4  10  22  38  56  80 118 151 186 232 281 340
#     4  11  23  35  59  85 110 147 197 229 281 345
#     4  10  19  34  59  85 112 149 189 236 283 334
#     4   8  17  33  56  84 112 139 186 240 279 328
#     4   8  19  33  52  86 114 143 180 240 283 328
#     4  11  24  38  55  87 116 152 178 238 288 328
#
# _framework density 20.876439000000001
#
# number of rings (size 3 to 8) (size 9 to 14) (size 15 to 20)
#    0.000    2.600    0.000    3.900    5.600    2.000 
#    0.000    0.000    0.000    0.000    0.000    4.200 
#    0.000    0.000    0.000    0.000    0.000    0.000 
#
# Total GULP energy -111343.360350 kJ/mol
# GULP energy per Si atom -5567.168018 kJ/mol
# Density = 2.082892 g / cm^3
# Si number density = 20.876439 Si / 1000 Ang^3
#
#
#
# Elastic Constant Matrix: (Units=GPa)
#
#
# Indices 1 2 3 4 5 6 
#
# 1 85.7309 -1.3507 9.1484 0.0000 -14.7304 0.0000
# 2 -1.3507 130.3337 -0.3032 0.0000 -12.4827 0.0000
# 3 9.1484 -0.3032 32.7432 0.0000 -4.5434 0.0000
# 4 0.0000 0.0000 0.0000 -94.7594 0.0000 61.0578
# 5 -14.7304 -12.4827 -4.5434 0.0000 32.6901 0.0000
# 6 0.0000 0.0000 0.0000 61.0578 0.0000 -55.1046
#
#
#
# Elastic Compliance Matrix: (Units=1/GPa)
#
#
# Indices 1 2 3 4 5 6 
#
# 1 0.012956 0.000674 -0.002822 0.000000 0.005703 0.000000
# 2 0.000674 0.008007 0.000359 0.000000 0.003411 0.000000
# 3 -0.002822 0.000359 0.031788 0.000000 0.003283 0.000000
# 4 0.000000 0.000000 0.000000 -0.036893 0.000000 -0.040879
# 5 0.005703 0.003411 0.003283 0.000000 0.034919 0.000000
# 6 0.000000 0.000000 0.000000 -0.040879 0.000000 -0.063443
#
#
# Mechanical properties :
#
#
# Convention : Reuss Voigt Hill
#
# Bulk Modulus (GPa) = 20.33635 29.31077 24.82356
# Shear Modulus (GPa) = 684.56555 -7.34722 338.60917
#
# Velocity S-wave (km/s) = 18.12801 -1.87804 12.74947
# Velocity P-wave (km/s) = 21.16433 3.06070 15.12112
#
# Compressibility (1/GPa) = 0.04917303
#
# Stress axis : x y z
#
# Youngs Moduli (GPa) = 77.18354 124.88874 31.45820
#
# Poissons Ratio (x) = -0.08417 0.08878
# Poissons Ratio (y) = -0.05202 -0.01130
# Poissons Ratio (z) = 0.21784 -0.04486
#
# Static dielectric constant tensor:
#      x y z
#    x 1.779330 0.000000 -0.061520 
#    y 0.000000 1.845820 0.000000 
#    z -0.061520 0.000000 1.789510 
# 
# From -- ./inp_files/32715.got.cif
#   From: 2010.05.17/outbox.cif.g08.bks.cpg/sg10_17_cif.got.tgz:32715.got - 2010.06.03 11:33:40.
