data_PCOD9147059
_publ_section_title
;
Structure prediction by ZEFSAII (Michael W. Deem and Ramdas Pophale) SiO2 
 PCOD9147059
Probable space group: P 2/M
;
_chemical_formula_sum "Si O2"
_cell_formula_units_Z 28
_cell_length_a 14.993479
_cell_length_b 22.535744
_cell_length_c 8.501494
_cell_angle_alpha 90.000000
_cell_angle_beta 30.070867
_cell_angle_gamma 90.000000
_cell_volume 1439.357381
_symmetry_space_group_name_H-M "P 2/M"
_symmetry_group_IT_number 10
_symmetry_cell_setting 'monoclinic'
loop_
_space_group_symop_operation_xyz
x,y,z
-x,y,-z
-x,-y,-z
x,-y,z
loop_
_atom_site_type_symbol
_atom_site_label
_atom_site_fract_x
_atom_site_fract_y
_atom_site_fract_z
Si Si1 0.667755 0.000000 0.118252
Si Si2 0.494031 0.211587 0.817906
Si Si3 0.797587 0.883953 0.745177
Si Si4 0.807319 0.000000 0.217676
Si Si5 0.200415 0.567294 0.136922
Si Si6 0.198534 0.566843 0.762796
Si Si7 0.202034 0.121766 0.633808
Si Si8 0.499152 0.653071 0.813091
O O1 0.500000 0.000000 0.500000
O O2 0.828197 0.000000 0.999863
O O3 0.697593 0.941492 0.968972
O O4 0.670942 0.174881 0.505880
O O5 0.493933 0.279182 0.761802
O O6 0.500000 0.212841 0.000000
O O7 0.321425 0.173749 0.031025
O O8 0.799133 0.885876 0.552757
O O9 0.000000 0.881164 0.500000
O O10 0.723008 0.060847 0.406042
O O11 0.000000 0.000000 0.000000
O O12 0.252978 0.500000 0.104742
O O13 0.000000 0.577254 0.500000
O O14 0.201094 0.569319 0.947376
O O15 0.332777 0.615425 0.004848
O O16 0.258447 0.500000 0.624578
O O17 0.326940 0.617454 0.504814
O O18 0.000000 0.574351 0.000000
O O19 0.000000 0.130569 0.000000
O O20 0.500000 0.654565 0.000000
#
# Coordination Sequence:
#
# PCOD9147059 Si02
#       8
#     2   4   4   2   4   4   4   4
#     4  12  24  38  59  89 119 145 186 241 291 338
#     4   9  22  40  57  81 115 155 196 234 279 341
#     4  11  22  39  61  86 115 149 191 239 288 337
#     4  10  19  34  56  83 110 139 177 223 280 336
#     4  10  21  38  60  87 117 150 192 241 291 343
#     4  10  21  38  60  88 119 152 193 240 291 347
#     4  10  20  39  62  84 113 151 191 234 288 346
#     4  11  22  38  59  85 119 156 195 238 288 345
#
# _framework density 19.453125
#
# number of rings (size 3 to 8) (size 9 to 14) (size 15 to 20)
#    0.000    1.714    0.000    4.929    0.000    4.571 
#    0.000   12.857    0.000    0.000    0.000    0.000 
#    0.000    0.000    0.000    0.000    0.000    0.000 
#
# Total GULP energy -156380.529070 kJ/mol
# GULP energy per Si atom -5585.018895 kJ/mol
# Density = 1.940885 g / cm^3
# Si number density = 19.453125 Si / 1000 Ang^3
#
#
#
# Elastic Constant Matrix: (Units=GPa)
#
#
# Indices 1 2 3 4 5 6 
#
# 1 77.5604 57.7754 31.8364 0.0000 -8.6883 0.0000
# 2 57.7754 217.1751 96.6486 0.0000 -19.8760 0.0000
# 3 31.8364 96.6486 127.3981 0.0000 -12.0228 0.0000
# 4 0.0000 0.0000 0.0000 60.8004 0.0000 -19.0033
# 5 -8.6883 -19.8760 -12.0228 0.0000 32.4731 0.0000
# 6 0.0000 0.0000 0.0000 -19.0033 0.0000 35.0878
#
#
#
# Elastic Compliance Matrix: (Units=1/GPa)
#
#
# Indices 1 2 3 4 5 6 
#
# 1 0.016282 -0.003679 -0.001118 0.000000 0.001690 0.000000
# 2 -0.003679 0.007966 -0.004929 0.000000 0.002067 0.000000
# 3 -0.001118 -0.004929 0.011973 0.000000 0.001117 0.000000
# 4 0.000000 0.000000 0.000000 0.019799 0.000000 0.010723
# 5 0.001690 0.002067 0.001117 0.000000 0.032925 0.000000
# 6 0.000000 0.000000 0.000000 0.010723 0.000000 0.034307
#
#
# Mechanical properties :
#
#
# Convention : Reuss Voigt Hill
#
# Bulk Modulus (GPa) = 59.63312 88.29491 73.96401
# Shear Modulus (GPa) = 33.71654 41.39713 37.55683
#
# Velocity S-wave (km/s) = 4.16771 4.61808 4.39866
# Velocity P-wave (km/s) = 7.34037 8.59783 7.99386
#
# Compressibility (1/GPa) = 0.01676921
#
# Stress axis : x y z
#
# Youngs Moduli (GPa) = 61.41663 125.53426 83.51851
#
# Poissons Ratio (x) = 0.46188 0.09338
# Poissons Ratio (y) = 0.22597 0.41164
# Poissons Ratio (z) = 0.06867 0.61873
#
# Static dielectric constant tensor:
#      x y z
#    x 1.688720 0.000000 -0.014630 
#    y 0.000000 1.684330 0.000000 
#    z -0.014630 0.000000 1.689870 
# 
# From -- ./inp_files/30461.got.cif
#   From: 2010.05.17/outbox.cif.g08.bks.cpg/sg10_16_cif.got.tgz:30461.got - 2010.06.03 11:33:40.
