data_PCOD9147895
_publ_section_title
;
Structure prediction by ZEFSAII (Michael W. Deem and Ramdas Pophale) SiO2 
 PCOD9147895
Probable space group: P 2/M
;
_chemical_formula_sum "Si O2"
_cell_formula_units_Z 32
_cell_length_a 13.584443
_cell_length_b 14.717102
_cell_length_c 8.709887
_cell_angle_alpha 90.000000
_cell_angle_beta 109.766039
_cell_angle_gamma 90.000000
_cell_volume 1638.716547
_symmetry_space_group_name_H-M "P 2/M"
_symmetry_group_IT_number 10
_symmetry_cell_setting 'monoclinic'
loop_
_space_group_symop_operation_xyz
x,y,z
-x,y,-z
-x,-y,-z
x,-y,z
loop_
_atom_site_type_symbol
_atom_site_label
_atom_site_fract_x
_atom_site_fract_y
_atom_site_fract_z
Si Si1 0.899745 0.100909 0.839797
Si Si2 0.911083 0.759720 0.580848
Si Si3 0.296402 0.109646 0.051172
Si Si4 0.242381 0.397028 0.853751
Si Si5 0.289571 0.786843 0.725480
Si Si6 0.444462 0.602238 0.138733
Si Si7 0.997821 0.392175 0.177667
Si Si8 0.507824 0.791327 0.686249
O O1 0.930188 0.167458 0.721677
O O2 0.800531 0.131494 0.887626
O O3 0.875171 0.000000 0.766843
O O4 0.000000 0.095391 0.000000
O O5 0.804417 0.790195 0.444173
O O6 0.921738 0.663260 0.674070
O O7 0.000000 0.759902 0.500000
O O8 0.400095 0.151779 0.183286
O O9 0.303485 0.000000 0.039631
O O10 0.276464 0.156471 0.875654
O O11 0.248906 0.500000 0.795500
O O12 0.287797 0.319609 0.769484
O O13 0.121386 0.376943 0.826901
O O14 0.319579 0.394476 0.040726
O O15 0.397802 0.815482 0.706321
O O16 0.471680 0.500000 0.205652
O O17 0.473223 0.685087 0.263118
O O18 0.500000 0.614064 0.000000
O O19 0.018507 0.500000 0.195729
O O20 0.000000 0.363858 0.000000
O O21 0.500000 0.805683 0.500000
#
# Coordination Sequence:
#
# PCOD9147895 Si02
#       8
#     4   4   4   4   4   4   4   4
#     4  10  23  43  67  94 126 166 210 262 321 383
#     4  12  24  37  63  97 133 172 207 263 324 381
#     4  11  25  47  71  92 123 168 216 267 327 387
#     4  10  20  37  64  91 124 168 215 257 305 369
#     4  12  24  40  63  97 122 166 217 262 324 378
#     4  10  19  36  63  90 123 167 211 257 311 372
#     4  10  23  41  63  95 134 179 223 261 307 374
#     4  12  25  41  63  95 133 163 208 272 321 392
#
# _framework density 19.527477000000001
#
# number of rings (size 3 to 8) (size 9 to 14) (size 15 to 20)
#    0.000    1.125    3.750    2.250    1.750    4.000 
#    0.000    0.000    0.000    0.000    0.000    0.000 
#    0.000    0.000    0.000    0.000    0.000    0.000 
#
# Total GULP energy -178698.783793 kJ/mol
# GULP energy per Si atom -5584.336994 kJ/mol
# Density = 1.948303 g / cm^3
# Si number density = 19.527477 Si / 1000 Ang^3
#
#
#
# Elastic Constant Matrix: (Units=GPa)
#
#
# Indices 1 2 3 4 5 6 
#
# 1 49.8716 16.7065 17.5662 0.0000 -0.8854 0.0000
# 2 16.7065 67.9132 45.8403 0.0000 -12.0174 0.0000
# 3 17.5662 45.8403 101.8682 0.0000 1.2079 0.0000
# 4 0.0000 0.0000 0.0000 -13.7015 0.0000 17.0603
# 5 -0.8854 -12.0174 1.2079 0.0000 36.9046 0.0000
# 6 0.0000 0.0000 0.0000 17.0603 0.0000 22.5863
#
#
#
# Elastic Compliance Matrix: (Units=1/GPa)
#
#
# Indices 1 2 3 4 5 6 
#
# 1 0.022145 -0.004340 -0.001856 0.000000 -0.000821 0.000000
# 2 -0.004340 0.024102 -0.010193 0.000000 0.008078 0.000000
# 3 -0.001856 -0.010193 0.014769 0.000000 -0.003847 0.000000
# 4 0.000000 0.000000 0.000000 -0.037611 0.000000 0.028409
# 5 -0.000821 0.008078 -0.003847 0.000000 0.029834 0.000000
# 6 0.000000 0.000000 0.000000 0.028409 0.000000 0.022816
#
#
# Mechanical properties :
#
#
# Convention : Reuss Voigt Hill
#
# Bulk Modulus (GPa) = 35.41416 42.20877 38.81147
# Shear Modulus (GPa) = 42.28517 18.46054 30.37286
#
# Velocity S-wave (km/s) = 4.65845 3.07801 3.94812
# Velocity P-wave (km/s) = 6.86366 5.85612 6.37981
#
# Compressibility (1/GPa) = 0.02823729
#
# Stress axis : x y z
#
# Youngs Moduli (GPa) = 45.15792 41.49038 67.70887
#
# Poissons Ratio (x) = 0.18008 0.12565
# Poissons Ratio (y) = 0.19599 0.69017
# Poissons Ratio (z) = 0.08380 0.42292
#
# Static dielectric constant tensor:
#      x y z
#    x 1.690750 0.000000 0.027830 
#    y 0.000000 1.695860 0.000000 
#    z 0.027830 0.000000 1.679670 
# 
# From -- ./inp_files/29567.got.cif
#   From: 2010.05.17/outbox.cif.g08.bks.cpg/sg10_15_cif.got.tgz:29567.got - 2010.06.03 11:33:40.
