data_PCOD9147301
_publ_section_title
;
Structure prediction by ZEFSAII (Michael W. Deem and Ramdas Pophale) SiO2 
 PCOD9147301
Probable space group: P 2/M
;
_chemical_formula_sum "Si O2"
_cell_formula_units_Z 24
_cell_length_a 11.497555
_cell_length_b 7.737164
_cell_length_c 22.737388
_cell_angle_alpha 90.000000
_cell_angle_beta 35.779699
_cell_angle_gamma 90.000000
_cell_volume 1182.602728
_symmetry_space_group_name_H-M "P 2/M"
_symmetry_group_IT_number 10
_symmetry_cell_setting 'monoclinic'
loop_
_space_group_symop_operation_xyz
x,y,z
-x,y,-z
-x,-y,-z
x,-y,z
loop_
_atom_site_type_symbol
_atom_site_label
_atom_site_fract_x
_atom_site_fract_y
_atom_site_fract_z
Si Si1 0.890507 0.809654 0.219952
Si Si2 0.460603 0.299414 0.185793
Si Si3 0.798452 0.000000 0.657444
Si Si4 0.835865 0.299153 0.113912
Si Si5 0.725532 0.000000 0.547797
Si Si6 0.341366 0.292016 0.018023
Si Si7 0.496565 0.696059 0.432610
O O1 0.839250 0.804568 0.172053
O O2 0.726617 0.693855 0.318118
O O3 0.863270 0.000000 0.256206
O O4 0.121329 0.762130 0.126488
O O5 0.396162 0.500000 0.203807
O O6 0.287963 0.168543 0.274141
O O7 0.622684 0.296773 0.171171
O O8 0.582016 0.240893 0.077960
O O9 0.718064 0.000000 0.622499
O O10 0.037279 0.000000 0.561273
O O11 0.888783 0.500000 0.106531
O O12 0.000000 0.238051 0.000000
O O13 0.620298 0.166816 0.560545
O O14 0.341533 0.500000 0.017739
O O15 0.500000 0.228112 0.000000
O O16 0.500000 0.746236 0.500000
O O17 0.415477 0.500000 0.460466
#
# Coordination Sequence:
#
# PCOD9147301 Si02
#       7
#     4   4   2   4   2   4   4
#     4  12  24  37  62  97 130 164 210 266 323 383
#     4  10  22  40  62  94 132 175 220 263 317 387
#     4  11  26  42  67  95 136 175 213 272 337 401
#     4  10  19  34  59  88 127 170 210 259 310 369
#     4  11  25  48  67 100 131 165 220 281 338 392
#     4  10  22  41  61  87 132 178 219 260 309 387
#     4  11  25  47  74  97 126 170 222 280 337 387
#
# _framework density 20.294219999999999
#
# number of rings (size 3 to 8) (size 9 to 14) (size 15 to 20)
#    0.000    1.333    2.500    2.750    2.333    4.667 
#    0.000    5.000    0.000    0.000    0.000    0.000 
#    0.000    0.000    0.000    0.000    0.000    0.000 
#
# Total GULP energy -134071.367901 kJ/mol
# GULP energy per Si atom -5586.306996 kJ/mol
# Density = 2.024803 g / cm^3
# Si number density = 20.294220 Si / 1000 Ang^3
#
#
#
# Elastic Constant Matrix: (Units=GPa)
#
#
# Indices 1 2 3 4 5 6 
#
# 1 98.9862 29.7305 38.5126 0.0000 -9.9100 0.0000
# 2 29.7305 93.5491 39.1056 0.0000 -7.5150 0.0000
# 3 38.5126 39.1056 128.0200 0.0000 -4.9675 0.0000
# 4 0.0000 0.0000 0.0000 29.3477 0.0000 9.1941
# 5 -9.9100 -7.5150 -4.9675 0.0000 22.9367 0.0000
# 6 0.0000 0.0000 0.0000 9.1941 0.0000 -11.8720
#
#
#
# Elastic Compliance Matrix: (Units=1/GPa)
#
#
# Indices 1 2 3 4 5 6 
#
# 1 0.012317 -0.002424 -0.002813 0.000000 0.003918 0.000000
# 2 -0.002424 0.012973 -0.003136 0.000000 0.002524 0.000000
# 3 -0.002813 -0.003136 0.009609 0.000000 -0.000162 0.000000
# 4 0.000000 0.000000 0.000000 0.027421 0.000000 0.021236
# 5 0.003918 0.002524 -0.000162 0.000000 0.046083 0.000000
# 6 0.000000 0.000000 0.000000 0.021236 0.000000 -0.067786
#
#
# Mechanical properties :
#
#
# Convention : Reuss Voigt Hill
#
# Bulk Modulus (GPa) = 55.08263 59.47251 57.27757
# Shear Modulus (GPa) = 78.84572 22.29627 50.57100
#
# Velocity S-wave (km/s) = 6.23984 3.31819 4.99730
# Velocity P-wave (km/s) = 8.89467 6.63696 7.84743
#
# Compressibility (1/GPa) = 0.01815454
#
# Stress axis : x y z
#
# Youngs Moduli (GPa) = 81.18771 77.08021 104.06771
#
# Poissons Ratio (x) = 0.18683 0.29274
# Poissons Ratio (y) = 0.19678 0.32634
# Poissons Ratio (z) = 0.22838 0.24171
#
# Static dielectric constant tensor:
#      x y z
#    x 1.702040 0.000000 0.010510 
#    y 0.000000 1.758160 0.000000 
#    z 0.010510 0.000000 1.779140 
# 
# From -- ./inp_files/88635.got.cif
#   From: 2010.05.17/outbox.cif.g08.bks.cpg/sg10_45_cif.got.tgz:88635.got - 2010.06.03 11:33:40.
