data_PCOD9147380
_publ_section_title
;
Structure prediction by ZEFSAII (Michael W. Deem and Ramdas Pophale) SiO2 
 PCOD9147380
Probable space group: P 2/M
;
_chemical_formula_sum "Si O2"
_cell_formula_units_Z 28
_cell_length_a 20.091377
_cell_length_b 9.643582
_cell_length_c 23.752994
_cell_angle_alpha 90.000000
_cell_angle_beta 160.924737
_cell_angle_gamma 90.000000
_cell_volume 1504.047791
_symmetry_space_group_name_H-M "P 2/M"
_symmetry_group_IT_number 10
_symmetry_cell_setting 'monoclinic'
loop_
_space_group_symop_operation_xyz
x,y,z
-x,y,-z
-x,-y,-z
x,-y,z
loop_
_atom_site_type_symbol
_atom_site_label
_atom_site_fract_x
_atom_site_fract_y
_atom_site_fract_z
Si Si1 0.021538 0.347635 0.583442
Si Si2 0.618898 0.333523 0.445068
Si Si3 0.855805 0.331881 0.935058
Si Si4 0.990168 0.666194 0.167763
Si Si5 0.380304 0.849563 0.847531
Si Si6 0.239457 0.160696 0.923482
Si Si7 0.158687 0.837890 0.472731
O O1 0.020034 0.500000 0.609422
O O2 0.232204 0.268292 0.750345
O O3 0.000000 0.363275 0.500000
O O4 0.861002 0.247250 0.485332
O O5 0.631468 0.500000 0.443652
O O6 0.381950 0.298295 0.265563
O O7 0.780836 0.305187 0.625198
O O8 0.694677 0.243347 0.452746
O O9 0.866098 0.500000 0.943169
O O10 0.000000 0.280835 0.000000
O O11 0.940134 0.288883 0.063929
O O12 0.963031 0.500000 0.149103
O O13 0.834371 0.740794 0.085656
O O14 0.282859 0.000000 0.753769
O O15 0.500000 0.874115 0.000000
O O16 0.541527 0.808140 0.928447
O O17 0.064855 0.169529 0.735641
O O18 0.242570 0.000000 0.944687
O O19 0.210112 0.000000 0.521107
#
# Coordination Sequence:
#
# PCOD9147380 Si02
#       7
#     4   4   4   4   4   4   4
#     4  11  24  37  49  73 108 142 179 225 275 323
#     4   9  18  33  54  80 108 137 174 221 267 318
#     4   9  18  33  54  81 112 142 173 216 267 318
#     4   9  18  32  52  79 107 139 180 220 264 318
#     4  10  19  35  55  76 102 135 180 226 270 321
#     4   9  18  33  54  77 103 136 174 221 268 317
#     4  10  19  35  56  75 101 139 179 219 267 323
#
# _framework density 18.616430999999999
#
# number of rings (size 3 to 8) (size 9 to 14) (size 15 to 20)
#    0.000    2.429    1.429    0.857    0.000    4.286 
#    0.000    7.857    0.000    1.714    0.000    4.000 
#    0.000    0.000    0.000    0.000    0.000    0.000 
#
# Total GULP energy -155893.600333 kJ/mol
# GULP energy per Si atom -5567.628583 kJ/mol
# Density = 1.857406 g / cm^3
# Si number density = 18.616431 Si / 1000 Ang^3
#
#
#
# Elastic Constant Matrix: (Units=GPa)
#
#
# Indices 1 2 3 4 5 6 
#
# 1 136.8606 47.7690 56.9131 0.0000 6.4866 0.0000
# 2 47.7690 70.9876 34.9817 0.0000 7.2267 0.0000
# 3 56.9131 34.9817 73.2119 0.0000 10.2564 0.0000
# 4 0.0000 0.0000 0.0000 8.1218 0.0000 4.7149
# 5 6.4866 7.2267 10.2564 0.0000 26.2972 0.0000
# 6 0.0000 0.0000 0.0000 4.7149 0.0000 12.6253
#
#
#
# Elastic Compliance Matrix: (Units=1/GPa)
#
#
# Indices 1 2 3 4 5 6 
#
# 1 0.011822 -0.004530 -0.007184 0.000000 0.001131 0.000000
# 2 -0.004530 0.020236 -0.005844 0.000000 -0.002164 0.000000
# 3 -0.007184 -0.005844 0.022809 0.000000 -0.005518 0.000000
# 4 0.000000 0.000000 0.000000 0.157207 0.000000 -0.058709
# 5 0.001131 -0.002164 -0.005518 0.000000 0.040495 0.000000
# 6 0.000000 0.000000 0.000000 -0.058709 0.000000 0.101131
#
#
# Mechanical properties :
#
#
# Convention : Reuss Voigt Hill
#
# Bulk Modulus (GPa) = 50.63227 62.26531 56.44879
# Shear Modulus (GPa) = 12.64552 18.83529 15.74041
#
# Velocity S-wave (km/s) = 2.60910 3.18426 2.91092
# Velocity P-wave (km/s) = 6.02770 6.85846 6.45646
#
# Compressibility (1/GPa) = 0.01975025
#
# Stress axis : x y z
#
# Youngs Moduli (GPa) = 84.59114 49.41794 43.84272
#
# Poissons Ratio (x) = 0.22387 0.31495
# Poissons Ratio (y) = 0.38320 0.25622
# Poissons Ratio (z) = 0.60767 0.28880
#
# Static dielectric constant tensor:
#      x y z
#    x 1.632670 0.000000 -0.018700 
#    y 0.000000 2.073890 0.000000 
#    z -0.018700 0.000000 1.671150 
# 
# From -- ./inp_files/90404.got.cif
#   From: 2010.05.17/outbox.cif.g08.bks.cpg/sg10_46_cif.got.tgz:90404.got - 2010.06.03 11:33:40.
