data_PCOD9147322
_publ_section_title
;
Structure prediction by ZEFSAII (Michael W. Deem and Ramdas Pophale) SiO2 
 PCOD9147322
Probable space group: P 2/M
;
_chemical_formula_sum "Si O2"
_cell_formula_units_Z 20
_cell_length_a 5.139982
_cell_length_b 22.088040
_cell_length_c 7.485958
_cell_angle_alpha 90.000000
_cell_angle_beta 98.733811
_cell_angle_gamma 90.000000
_cell_volume 840.041725
_symmetry_space_group_name_H-M "P 2/M"
_symmetry_group_IT_number 10
_symmetry_cell_setting 'monoclinic'
loop_
_space_group_symop_operation_xyz
x,y,z
-x,y,-z
-x,-y,-z
x,-y,z
loop_
_atom_site_type_symbol
_atom_site_label
_atom_site_fract_x
_atom_site_fract_y
_atom_site_fract_z
Si Si1 0.543171 0.314004 0.218140
Si Si2 0.721784 0.566862 0.872388
Si Si3 0.227794 0.116696 0.192685
Si Si4 0.737954 0.931148 0.214423
Si Si5 0.070944 0.240825 0.313073
O O1 0.418851 0.379954 0.254295
O O2 0.353374 0.270512 0.309031
O O3 0.845697 0.292719 0.266427
O O4 0.500000 0.307719 0.000000
O O5 0.764453 0.500000 0.792843
O O6 0.500000 0.559474 0.000000
O O7 0.000000 0.583938 0.000000
O O8 0.531153 0.114080 0.282269
O O9 0.094237 0.182304 0.190139
O O10 0.042288 0.075380 0.294709
O O11 0.246857 0.088802 0.994625
O O12 0.648117 0.000000 0.222553
O O13 0.000000 0.216690 0.500000
#
# Coordination Sequence:
#
# PCOD9147322 Si02
#       5
#     4   4   4   4   4
#     4  11  23  39  65  92 120 160 217 262 297 364
#     4   9  17  33  59  94 126 153 196 264 324 356
#     4  10  20  33  55  82 115 154 195 240 300 376
#     4  10  19  34  60  89 115 144 194 266 313 349
#     4  12  26  41  58  86 133 173 201 250 319 371
#
# _framework density 23.808342
#
# number of rings (size 3 to 8) (size 9 to 14) (size 15 to 20)
#    0.000    1.600    0.000    7.800    8.400    0.000 
#    0.000    0.000    0.000   10.200    0.000    0.000 
#    0.000    0.000    0.000    0.000    0.000    0.000 
#
# Total GULP energy -111335.099619 kJ/mol
# GULP energy per Si atom -5566.754981 kJ/mol
# Density = 2.375415 g / cm^3
# Si number density = 23.808342 Si / 1000 Ang^3
#
#
#
# Elastic Constant Matrix: (Units=GPa)
#
#
# Indices 1 2 3 4 5 6 
#
# 1 198.6542 30.8601 18.4168 0.0000 -4.1309 0.0000
# 2 30.8601 140.6484 14.6567 0.0000 0.0675 0.0000
# 3 18.4168 14.6567 50.3017 0.0000 -16.8328 0.0000
# 4 0.0000 0.0000 0.0000 -243.0445 0.0000 -37.8399
# 5 -4.1309 0.0675 -16.8328 0.0000 24.7369 0.0000
# 6 0.0000 0.0000 0.0000 -37.8399 0.0000 34.6464
#
#
#
# Elastic Compliance Matrix: (Units=1/GPa)
#
#
# Indices 1 2 3 4 5 6 
#
# 1 0.005345 -0.000988 -0.001773 0.000000 -0.000311 0.000000
# 2 -0.000988 0.007585 -0.002474 0.000000 -0.001869 0.000000
# 3 -0.001773 -0.002474 0.027391 0.000000 0.018349 0.000000
# 4 0.000000 0.000000 0.000000 -0.003517 0.000000 -0.003841
# 5 -0.000311 -0.001869 0.018349 0.000000 0.052865 0.000000
# 6 0.000000 0.000000 0.000000 -0.003841 0.000000 0.024668
#
#
# Mechanical properties :
#
#
# Convention : Reuss Voigt Hill
#
# Bulk Modulus (GPa) = 33.50019 57.49683 45.49851
# Shear Modulus (GPa) = 37.10347 -15.02085 11.04131
#
# Velocity S-wave (km/s) = 3.95197 -2.51451 2.15584
# Velocity P-wave (km/s) = 5.90977 3.97139 5.03475
#
# Compressibility (1/GPa) = 0.02985058
#
# Stress axis : x y z
#
# Youngs Moduli (GPa) = 187.08142 131.83245 36.50900
#
# Poissons Ratio (x) = 0.13023 0.06475
# Poissons Ratio (y) = 0.18481 0.09032
# Poissons Ratio (z) = 0.33177 0.32615
#
# Static dielectric constant tensor:
#      x y z
#    x 2.070480 0.000000 0.210260 
#    y 0.000000 2.040270 0.000000 
#    z 0.210260 0.000000 2.074180 
# 
# From -- ./inp_files/15266.got.cif
#   From: 2010.05.17/outbox.cif.g08.bks.cpg/sg10_8_cif.got.tgz:15266.got - 2010.06.03 11:33:40.
