data_PCOD9147644
_publ_section_title
;
Structure prediction by ZEFSAII (Michael W. Deem and Ramdas Pophale) SiO2 
 PCOD9147644
Probable space group: P 2/M
;
_chemical_formula_sum "Si O2"
_cell_formula_units_Z 32
_cell_length_a 24.649290
_cell_length_b 7.595759
_cell_length_c 20.271243
_cell_angle_alpha 90.000000
_cell_angle_beta 22.830174
_cell_angle_gamma 90.000000
_cell_volume 1472.613701
_symmetry_space_group_name_H-M "P 2/M"
_symmetry_group_IT_number 10
_symmetry_cell_setting 'monoclinic'
loop_
_space_group_symop_operation_xyz
x,y,z
-x,y,-z
-x,-y,-z
x,-y,z
loop_
_atom_site_type_symbol
_atom_site_label
_atom_site_fract_x
_atom_site_fract_y
_atom_site_fract_z
Si Si1 0.348088 0.288065 0.857603
Si Si2 0.057575 0.202307 0.237754
Si Si3 0.131848 0.202869 0.662941
Si Si4 0.568068 0.712168 0.721449
Si Si5 0.555622 0.715298 0.509525
Si Si6 0.878894 0.787820 0.685980
Si Si7 0.439377 0.711291 0.999087
Si Si8 0.869229 0.704797 0.186825
O O1 0.331317 0.500000 0.871314
O O2 0.434621 0.248053 0.826403
O O3 0.443381 0.227825 0.690061
O O4 0.196996 0.207793 0.037451
O O5 0.091506 0.278228 0.272301
O O6 0.941590 0.283670 0.319540
O O7 0.014281 0.000000 0.298517
O O8 0.295824 0.210841 0.464722
O O9 0.103206 0.287193 0.765861
O O10 0.086352 0.000000 0.719641
O O11 0.585320 0.500000 0.702014
O O12 0.534459 0.776328 0.832170
O O13 0.500000 0.764633 0.500000
O O14 0.558405 0.500000 0.510133
O O15 0.713738 0.778253 0.346721
O O16 0.723554 0.744970 0.834001
O O17 0.000000 0.726575 0.500000
O O18 0.884886 0.000000 0.681452
O O19 0.453963 0.500000 0.983418
O O20 0.500000 0.779713 0.000000
O O21 0.860289 0.500000 0.176614
O O22 0.000000 0.782816 0.000000
#
# Coordination Sequence:
#
# PCOD9147644 Si02
#       8
#     4   4   4   4   4   4   4   4
#     4  10  19  35  61  85 109 143 187 238 286 336
#     4  10  23  40  56  82 117 151 192 238 283 339
#     4  11  24  39  58  84 118 156 192 236 289 342
#     4  10  20  38  60  84 114 146 190 241 284 340
#     4   9  18  33  54  83 112 138 178 231 278 326
#     4  10  22  40  60  82 114 155 197 239 282 340
#     4  10  22  39  59  87 119 149 186 239 297 345
#     4  10  21  38  60  85 115 151 192 237 285 340
#
# _framework density 21.730070999999999
#
# number of rings (size 3 to 8) (size 9 to 14) (size 15 to 20)
#    0.000    2.000    2.500    0.375    3.500    2.750 
#    0.000    0.000    0.000    0.750    0.000    0.000 
#    0.000    0.000    0.000    0.000    0.000    0.000 
#
# Total GULP energy -178681.729155 kJ/mol
# GULP energy per Si atom -5583.804036 kJ/mol
# Density = 2.168061 g / cm^3
# Si number density = 21.730071 Si / 1000 Ang^3
#
#
#
# Elastic Constant Matrix: (Units=GPa)
#
#
# Indices 1 2 3 4 5 6 
#
# 1 89.5779 -1.8146 2.0626 0.0000 10.9816 0.0000
# 2 -1.8146 39.1513 -8.6298 0.0000 0.0446 0.0000
# 3 2.0626 -8.6298 77.6461 0.0000 16.4938 0.0000
# 4 0.0000 0.0000 0.0000 19.2250 0.0000 -1.3151
# 5 10.9816 0.0446 16.4938 0.0000 40.8864 0.0000
# 6 0.0000 0.0000 0.0000 -1.3151 0.0000 13.9425
#
#
#
# Elastic Compliance Matrix: (Units=1/GPa)
#
#
# Indices 1 2 3 4 5 6 
#
# 1 0.011570 0.000642 0.000464 0.000000 -0.003295 0.000000
# 2 0.000642 0.026284 0.003223 0.000000 -0.001501 0.000000
# 3 0.000464 0.003223 0.014494 0.000000 -0.005975 0.000000
# 4 0.000000 0.000000 0.000000 0.052353 0.000000 0.004938
# 5 -0.003295 -0.001501 -0.005975 0.000000 0.027755 0.000000
# 6 0.000000 0.000000 0.000000 0.004938 0.000000 0.072189
#
#
# Mechanical properties :
#
#
# Convention : Reuss Voigt Hill
#
# Bulk Modulus (GPa) = 16.39159 21.06794 18.72976
# Shear Modulus (GPa) = 23.11367 29.12790 26.12078
#
# Velocity S-wave (km/s) = 3.26494 3.66518 3.47083
# Velocity P-wave (km/s) = 4.66613 5.25621 4.96993
#
# Compressibility (1/GPa) = 0.06100689
#
# Stress axis : x y z
#
# Youngs Moduli (GPa) = 86.43198 38.04609 68.99345
#
# Poissons Ratio (x) = -0.02444 -0.03202
# Poissons Ratio (y) = -0.05552 -0.22238
# Poissons Ratio (z) = -0.04011 -0.12263
#
# Static dielectric constant tensor:
#      x y z
#    x 1.789680 0.000000 0.008360 
#    y 0.000000 1.892330 0.000000 
#    z 0.008360 0.000000 1.754970 
# 
# From -- ./inp_files/86812.got.cif
#   From: 2010.05.17/outbox.cif.g08.bks.cpg/sg10_44_cif.got.tgz:86812.got - 2010.06.03 11:33:40.
