data_PCOD9147715
_publ_section_title
;
Structure prediction by ZEFSAII (Michael W. Deem and Ramdas Pophale) SiO2 
 PCOD9147715
Probable space group: P 2/M
;
_chemical_formula_sum "Si O2"
_cell_formula_units_Z 30
_cell_length_a 5.489266
_cell_length_b 23.347361
_cell_length_c 12.352645
_cell_angle_alpha 90.000000
_cell_angle_beta 111.464553
_cell_angle_gamma 90.000000
_cell_volume 1473.315232
_symmetry_space_group_name_H-M "P 2/M"
_symmetry_group_IT_number 10
_symmetry_cell_setting 'monoclinic'
loop_
_space_group_symop_operation_xyz
x,y,z
-x,y,-z
-x,-y,-z
x,-y,z
loop_
_atom_site_type_symbol
_atom_site_label
_atom_site_fract_x
_atom_site_fract_y
_atom_site_fract_z
Si Si1 0.376835 0.563884 0.243739
Si Si2 0.949913 0.714968 0.281997
Si Si3 0.574311 0.340313 0.901010
Si Si4 0.006078 0.405743 0.626834
Si Si5 0.988741 0.935885 0.629759
Si Si6 0.500000 0.872203 0.500000
Si Si7 0.313206 0.173976 0.688927
Si Si8 0.797263 0.227426 0.888229
O O1 0.338830 0.500000 0.193724
O O2 0.275801 0.615881 0.152193
O O3 0.691900 0.576195 0.296742
O O4 0.213694 0.567130 0.329700
O O5 0.683195 0.685118 0.197618
O O6 0.061211 0.662343 0.369426
O O7 0.620662 0.833574 0.426305
O O8 0.105516 0.739871 0.204506
O O9 0.719760 0.281312 0.950970
O O10 0.500000 0.370815 0.000000
O O11 0.000000 0.421203 0.500000
O O12 0.178538 0.885778 0.700457
O O13 0.000000 0.937268 0.500000
O O14 0.120806 0.772193 0.665686
O O15 0.036294 0.000000 0.677512
O O16 0.303985 0.913100 0.401677
O O17 0.557928 0.189285 0.805915
O O18 0.000000 0.194952 0.000000
#
# Coordination Sequence:
#
# PCOD9147715 Si02
#       8
#     4   4   4   4   4   2   4   4
#     4  11  24  42  62  90 121 156 209 260 311 387
#     4  10  21  37  55  83 116 151 195 250 307 369
#     4  10  20  37  60  85 115 152 197 257 317 369
#     4  11  24  41  62  86 118 164 205 253 318 384
#     4   9  18  34  55  82 119 162 207 251 302 362
#     4  10  19  36  56  86 122 164 203 250 304 370
#     4  10  22  34  55  90 123 157 200 256 307 362
#     4  11  20  36  62  85 116 159 202 250 313 381
#
# _framework density 20.362241999999998
#
# number of rings (size 3 to 8) (size 9 to 14) (size 15 to 20)
#    0.000    1.733    2.667    1.800    0.000    5.067 
#    0.000    0.000    0.000    3.200    0.000    3.733 
#    0.000    0.000    0.000    0.000    0.000    0.000 
#
# Total GULP energy -167078.611846 kJ/mol
# GULP energy per Si atom -5569.287062 kJ/mol
# Density = 2.031590 g / cm^3
# Si number density = 20.362242 Si / 1000 Ang^3
#
#
#
# Elastic Constant Matrix: (Units=GPa)
#
#
# Indices 1 2 3 4 5 6 
#
# 1 74.2561 42.3222 14.5551 0.0000 -6.8706 0.0000
# 2 42.3222 155.7239 37.7296 0.0000 -0.2307 0.0000
# 3 14.5551 37.7296 47.4798 0.0000 -9.2650 0.0000
# 4 0.0000 0.0000 0.0000 6.6490 0.0000 -4.4057
# 5 -6.8706 -0.2307 -9.2650 0.0000 39.1206 0.0000
# 6 0.0000 0.0000 0.0000 -4.4057 0.0000 10.8014
#
#
#
# Elastic Compliance Matrix: (Units=1/GPa)
#
#
# Indices 1 2 3 4 5 6 
#
# 1 0.016295 -0.004130 -0.001216 0.000000 0.002550 0.000000
# 2 -0.004130 0.009087 -0.006381 0.000000 -0.002183 0.000000
# 3 -0.001216 -0.006381 0.027737 0.000000 0.006318 0.000000
# 4 0.000000 0.000000 0.000000 0.206100 0.000000 0.084064
# 5 0.002550 -0.002183 0.006318 0.000000 0.027493 0.000000
# 6 0.000000 0.000000 0.000000 0.084064 0.000000 0.126869
#
#
# Mechanical properties :
#
#
# Convention : Reuss Voigt Hill
#
# Bulk Modulus (GPa) = 33.70839 51.85261 42.78050
# Shear Modulus (GPa) = 11.18761 23.50439 17.34600
#
# Velocity S-wave (km/s) = 2.34653 3.40120 2.92185
# Velocity P-wave (km/s) = 4.89203 6.39880 5.69546
#
# Compressibility (1/GPa) = 0.02966620
#
# Stress axis : x y z
#
# Youngs Moduli (GPa) = 61.36789 110.04922 36.05231
#
# Poissons Ratio (x) = 0.45454 0.04383
# Poissons Ratio (y) = 0.25347 0.23004
# Poissons Ratio (z) = 0.07460 0.70218
#
# Static dielectric constant tensor:
#      x y z
#    x 1.933940 0.000000 0.006790 
#    y 0.000000 1.732010 0.000000 
#    z 0.006790 0.000000 1.760230 
# 
# From -- ./inp_files/39748.got.cif
#   From: 2010.05.17/outbox.cif.g08.bks.cpg/sg10_20_cif.got.tgz:39748.got - 2010.06.03 11:33:40.
