data_PCOD9147723
_publ_section_title
;
Structure prediction by ZEFSAII (Michael W. Deem and Ramdas Pophale) SiO2 
 PCOD9147723
Probable space group: P 2/M
;
_chemical_formula_sum "Si O2"
_cell_formula_units_Z 32
_cell_length_a 16.591069
_cell_length_b 14.285185
_cell_length_c 13.512587
_cell_angle_alpha 90.000000
_cell_angle_beta 36.934894
_cell_angle_gamma 90.000000
_cell_volume 1924.447651
_symmetry_space_group_name_H-M "P 2/M"
_symmetry_group_IT_number 10
_symmetry_cell_setting 'monoclinic'
loop_
_space_group_symop_operation_xyz
x,y,z
-x,y,-z
-x,-y,-z
x,-y,z
loop_
_atom_site_type_symbol
_atom_site_label
_atom_site_fract_x
_atom_site_fract_y
_atom_site_fract_z
Si Si1 0.107918 0.608025 0.481076
Si Si2 0.981050 0.710593 0.794871
Si Si3 0.382125 0.710258 0.191630
Si Si4 0.815528 0.391136 0.271174
Si Si5 0.963243 0.891635 0.698133
Si Si6 0.224237 0.891156 0.300916
Si Si7 0.737371 0.609633 0.120912
Si Si8 0.441503 0.608941 0.333923
O O1 0.127900 0.500000 0.490138
O O2 0.052151 0.663766 0.629856
O O3 0.246369 0.651501 0.307609
O O4 0.000000 0.613589 0.500000
O O5 0.071143 0.677604 0.798707
O O6 0.971573 0.819767 0.779619
O O7 0.833746 0.669448 0.956807
O O8 0.337238 0.817857 0.221170
O O9 0.426096 0.679724 0.258143
O O10 0.500000 0.687394 0.000000
O O11 0.862399 0.500000 0.231999
O O12 0.774155 0.372660 0.199076
O O13 0.684570 0.382200 0.468977
O O14 0.100000 0.883515 0.499697
O O15 0.842213 0.868066 0.740691
O O16 0.948776 0.000000 0.741120
O O17 0.266766 0.000000 0.257778
O O18 0.764391 0.500000 0.074948
O O19 0.581031 0.625786 0.253211
O O20 0.443062 0.500000 0.297009
#
# Coordination Sequence:
#
# PCOD9147723 Si02
#       8
#     4   4   4   4   4   4   4   4
#     4  11  23  36  51  75 111 153 183 210 257 322
#     4  12  20  33  57  81 109 133 177 227 272 317
#     4  12  24  35  53  80 113 147 182 220 265 324
#     4  10  19  36  57  78 106 141 184 228 267 310
#     4   9  18  33  58  81 103 138 179 221 271 326
#     4   9  18  36  56  77 104 138 183 229 268 310
#     4  10  22  35  54  81 106 141 184 227 269 311
#     4  10  21  37  53  74 110 151 184 215 259 320
#
# _framework density 16.628147999999999
#
# number of rings (size 3 to 8) (size 9 to 14) (size 15 to 20)
#    0.000    1.625    2.500    3.750    3.500    3.750 
#    0.000    0.000    0.000    1.500    0.000    0.000 
#    0.000    5.000    0.000    0.000    0.000    0.000 
#
# Total GULP energy -178679.652369 kJ/mol
# GULP energy per Si atom -5583.739137 kJ/mol
# Density = 1.659030 g / cm^3
# Si number density = 16.628148 Si / 1000 Ang^3
#
#
#
# Elastic Constant Matrix: (Units=GPa)
#
#
# Indices 1 2 3 4 5 6 
#
# 1 82.6445 52.3665 14.4250 0.0000 -3.3026 0.0000
# 2 52.3665 87.3693 24.6775 0.0000 6.5810 0.0000
# 3 14.4250 24.6775 61.3298 0.0000 3.9028 0.0000
# 4 0.0000 0.0000 0.0000 -42.5959 0.0000 -96.5414
# 5 -3.3026 6.5810 3.9028 0.0000 13.6470 0.0000
# 6 0.0000 0.0000 0.0000 -96.5414 0.0000 -113.8664
#
#
#
# Elastic Compliance Matrix: (Units=1/GPa)
#
#
# Indices 1 2 3 4 5 6 
#
# 1 0.021162 -0.013482 -0.000298 0.000000 0.011708 0.000000
# 2 -0.013482 0.021822 -0.004820 0.000000 -0.012407 0.000000
# 3 -0.000298 -0.004820 0.018508 0.000000 -0.003041 0.000000
# 4 0.000000 0.000000 0.000000 0.025473 0.000000 -0.021598
# 5 0.011708 -0.012407 -0.003041 0.000000 0.082962 0.000000
# 6 0.000000 0.000000 0.000000 -0.021598 0.000000 0.009529
#
#
# Mechanical properties :
#
#
# Convention : Reuss Voigt Hill
#
# Bulk Modulus (GPa) = 41.16338 46.03129 43.59733
# Shear Modulus (GPa) = 22.24641 -19.23808 1.50417
#
# Velocity S-wave (km/s) = 3.66167 -3.40510 0.95213
# Velocity P-wave (km/s) = 6.53346 3.50475 5.24258
#
# Compressibility (1/GPa) = 0.02429344
#
# Stress axis : x y z
#
# Youngs Moduli (GPa) = 47.25354 45.82462 54.02972
#
# Poissons Ratio (x) = 0.61780 0.01609
# Poissons Ratio (y) = 0.63707 0.26043
# Poissons Ratio (z) = 0.01407 0.22088
#
# Static dielectric constant tensor:
#      x y z
#    x 1.565250 0.000000 -0.009610 
#    y 0.000000 1.561760 0.000000 
#    z -0.009610 0.000000 1.544180 
# 
# From -- ./inp_files/35126.got.cif
#   From: 2010.05.17/outbox.cif.g08.bks.cpg/sg10_18_cif.got.tgz:35126.got - 2010.06.03 11:33:40.
