data_PCOD9147524
_publ_section_title
;
Structure prediction by ZEFSAII (Michael W. Deem and Ramdas Pophale) SiO2 
 PCOD9147524
Probable space group: P 2/M
;
_chemical_formula_sum "Si O2"
_cell_formula_units_Z 32
_cell_length_a 9.137321
_cell_length_b 20.591722
_cell_length_c 15.930488
_cell_angle_alpha 90.000000
_cell_angle_beta 37.707835
_cell_angle_gamma 90.000000
_cell_volume 1833.298243
_symmetry_space_group_name_H-M "P 2/M"
_symmetry_group_IT_number 10
_symmetry_cell_setting 'monoclinic'
loop_
_space_group_symop_operation_xyz
x,y,z
-x,y,-z
-x,-y,-z
x,-y,z
loop_
_atom_site_type_symbol
_atom_site_label
_atom_site_fract_x
_atom_site_fract_y
_atom_site_fract_z
Si Si1 0.739815 0.923678 0.338105
Si Si2 0.281089 0.310460 0.849080
Si Si3 0.102600 0.424056 0.198646
Si Si4 0.544049 0.809427 0.120679
Si Si5 0.255850 0.308451 0.661625
Si Si6 0.720097 0.075463 0.149731
Si Si7 0.102780 0.189580 0.199253
Si Si8 0.458694 0.424253 0.879216
O O1 0.500000 0.911713 0.500000
O O2 0.691675 0.911008 0.261425
O O3 0.951769 0.876666 0.270503
O O4 0.803322 0.000000 0.317317
O O5 0.401486 0.250242 0.842478
O O6 0.304412 0.305577 0.738985
O O7 0.398321 0.375908 0.832101
O O8 0.000000 0.310453 0.000000
O O9 0.034275 0.500000 0.233482
O O10 0.287572 0.410904 0.190806
O O11 0.884275 0.374894 0.295704
O O12 0.259045 0.414789 0.042713
O O13 0.571505 0.875449 0.160548
O O14 0.290339 0.804525 0.189774
O O15 0.743341 0.808856 0.956533
O O16 0.500000 0.303615 0.500000
O O17 0.079934 0.249263 0.719099
O O18 0.660621 0.000000 0.160976
O O19 0.000000 0.084710 0.000000
O O20 0.452993 0.500000 0.857426
#
# Coordination Sequence:
#
# PCOD9147524 Si02
#       8
#     4   4   4   4   4   4   4   4
#     4  10  21  38  59  83 115 152 185 221 274 336
#     4  12  21  36  59  84 111 146 188 236 271 322
#     4   9  18  36  59  84 116 148 180 226 282 330
#     4  11  22  36  60  86 112 140 189 237 281 324
#     4  12  25  39  56  82 116 150 186 228 279 334
#     4  10  19  35  58  85 115 145 183 230 275 324
#     4  11  22  38  58  84 113 148 183 233 281 330
#     4   9  18  34  60  89 112 141 186 233 275 325
#
# _framework density 17.454879999999999
#
# number of rings (size 3 to 8) (size 9 to 14) (size 15 to 20)
#    0.000    1.500    3.750    3.000    0.000    3.500 
#    0.000    5.625    0.000    3.750    0.000    0.000 
#    0.000    0.000    0.000    0.000    0.000    0.000 
#
# Total GULP energy -178775.753755 kJ/mol
# GULP energy per Si atom -5586.742305 kJ/mol
# Density = 1.741515 g / cm^3
# Si number density = 17.454880 Si / 1000 Ang^3
#
#
#
# Elastic Constant Matrix: (Units=GPa)
#
#
# Indices 1 2 3 4 5 6 
#
# 1 151.0681 104.8586 82.0140 0.0000 -2.1508 0.0000
# 2 104.8586 108.7353 62.3038 0.0000 -8.3159 0.0000
# 3 82.0140 62.3038 120.1819 0.0000 3.5835 0.0000
# 4 0.0000 0.0000 0.0000 2.0645 0.0000 -14.4351
# 5 -2.1508 -8.3159 3.5835 0.0000 21.5014 0.0000
# 6 0.0000 0.0000 0.0000 -14.4351 0.0000 105.2787
#
#
#
# Elastic Compliance Matrix: (Units=1/GPa)
#
#
# Indices 1 2 3 4 5 6 
#
# 1 0.022951 -0.019283 -0.005539 0.000000 -0.004239 0.000000
# 2 -0.019283 0.030168 -0.002785 0.000000 0.010203 0.000000
# 3 -0.005539 -0.002785 0.013661 0.000000 -0.003908 0.000000
# 4 0.000000 0.000000 0.000000 11.721484 0.000000 1.607165
# 5 -0.004239 0.010203 -0.003908 0.000000 0.050682 0.000000
# 6 0.000000 0.000000 0.000000 1.607165 0.000000 0.229862
#
#
# Mechanical properties :
#
#
# Convention : Reuss Voigt Hill
#
# Bulk Modulus (GPa) = 86.45903 97.59311 92.02607
# Shear Modulus (GPa) = 0.41227 34.48953 17.45090
#
# Velocity S-wave (km/s) = 0.48652 4.44996 3.16535
# Velocity P-wave (km/s) = 7.06796 9.07942 8.13609
#
# Compressibility (1/GPa) = 0.01156617
#
# Stress axis : x y z
#
# Youngs Moduli (GPa) = 43.57103 33.14750 73.20182
#
# Poissons Ratio (x) = 0.63919 0.40547
# Poissons Ratio (y) = 0.84019 0.20385
# Poissons Ratio (z) = 0.24135 0.09231
#
# Static dielectric constant tensor:
#      x y z
#    x 1.570830 0.000000 0.004530 
#    y 0.000000 1.595230 0.000000 
#    z 0.004530 0.000000 1.565030 
# 
# From -- ./inp_files/62489.got.cif
#   From: 2010.05.17/outbox.cif.g08.bks.cpg/sg10_32_cif.got.tgz:62489.got - 2010.06.03 11:33:40.
