data_PCOD9147284
_publ_section_title
;
Structure prediction by ZEFSAII (Michael W. Deem and Ramdas Pophale) SiO2 
 PCOD9147284
Probable space group: P 2/M
;
_chemical_formula_sum "Si O2"
_cell_formula_units_Z 24
_cell_length_a 15.220456
_cell_length_b 8.804542
_cell_length_c 14.373787
_cell_angle_alpha 90.000000
_cell_angle_beta 140.746518
_cell_angle_gamma 90.000000
_cell_volume 1218.819607
_symmetry_space_group_name_H-M "P 2/M"
_symmetry_group_IT_number 10
_symmetry_cell_setting 'monoclinic'
loop_
_space_group_symop_operation_xyz
x,y,z
-x,y,-z
-x,-y,-z
x,-y,z
loop_
_atom_site_type_symbol
_atom_site_label
_atom_site_fract_x
_atom_site_fract_y
_atom_site_fract_z
Si Si1 0.309154 0.818833 0.208539
Si Si2 0.209938 0.319353 0.636816
Si Si3 0.031130 0.820113 0.872236
Si Si4 0.062748 0.819970 0.682244
Si Si5 0.585804 0.819849 0.334421
Si Si6 0.268154 0.678402 0.366723
O O1 0.426205 0.785523 0.227826
O O2 0.336235 0.730133 0.325729
O O3 0.315433 0.000000 0.232804
O O4 0.157061 0.783520 0.044118
O O5 0.202545 0.500000 0.634213
O O6 0.182439 0.249948 0.715963
O O7 0.348656 0.264418 0.699752
O O8 0.080926 0.256617 0.469261
O O9 0.079907 0.797238 0.805930
O O10 0.893458 0.723545 0.774492
O O11 0.997087 0.000000 0.855643
O O12 0.053093 0.000000 0.656918
O O13 0.670085 0.768791 0.495281
O O14 0.602139 0.000000 0.334837
O O15 0.285060 0.500000 0.396299
#
# Coordination Sequence:
#
# PCOD9147284 Si02
#       6
#     4   4   4   4   4   4
#     4  10  23  41  60  83 114 153 195 238 284 337
#     4  11  21  34  56  86 118 147 185 237 289 338
#     4  10  21  39  62  86 114 150 193 238 283 335
#     4  10  19  34  59  86 113 148 190 233 283 338
#     4  11  22  39  61  84 113 152 196 239 283 337
#     4  12  24  37  58  87 117 151 192 237 287 342
#
# _framework density 19.691182999999999
#
# number of rings (size 3 to 8) (size 9 to 14) (size 15 to 20)
#    0.000    1.333    1.667    6.000    0.000    6.667 
#    0.000    0.833    0.000    5.000    0.000    0.000 
#    0.000    0.000    0.000    0.000    0.000    0.000 
#
# Total GULP energy -134217.061298 kJ/mol
# GULP energy per Si atom -5592.377554 kJ/mol
# Density = 1.964636 g / cm^3
# Si number density = 19.691183 Si / 1000 Ang^3
#
#
#
# Elastic Constant Matrix: (Units=GPa)
#
#
# Indices 1 2 3 4 5 6 
#
# 1 77.0545 26.5928 -12.6241 0.0000 -2.7825 0.0000
# 2 26.5928 73.9415 1.6621 0.0000 0.7852 0.0000
# 3 -12.6241 1.6621 24.6718 0.0000 4.9529 0.0000
# 4 0.0000 0.0000 0.0000-1162.2931 0.0000-2567.4212
# 5 -2.7825 0.7852 4.9529 0.0000 29.3415 0.0000
# 6 0.0000 0.0000 0.0000-2567.4212 0.0000-5785.7903
#
#
#
# Elastic Compliance Matrix: (Units=1/GPa)
#
#
# Indices 1 2 3 4 5 6 
#
# 1 0.016560 -0.006157 0.008839 0.000000 0.000243 0.000000
# 2 -0.006157 0.015835 -0.004156 0.000000 -0.000306 0.000000
# 3 0.008839 -0.004156 0.046728 0.000000 -0.006938 0.000000
# 4 0.000000 0.000000 0.000000 -0.043459 0.000000 0.019285
# 5 0.000243 -0.000306 -0.006938 0.000000 0.035284 0.000000
# 6 0.000000 0.000000 0.000000 0.019285 0.000000 -0.008730
#
#
# Mechanical properties :
#
#
# Convention : Reuss Voigt Hill
#
# Bulk Modulus (GPa) = 13.12753 22.99216 18.05985
# Shear Modulus (GPa) = 55.21451 -1373.07926 -658.93237
#
# Velocity S-wave (km/s) = 5.30105 -26.43521 -18.31283
# Velocity P-wave (km/s) = 6.64449 30.33247 20.92737
#
# Compressibility (1/GPa) = 0.07617577
#
# Stress axis : x y z
#
# Youngs Moduli (GPa) = 60.38794 63.15054 21.40058
#
# Poissons Ratio (x) = 0.38881 -0.18916
# Poissons Ratio (y) = 0.37180 0.08893
# Poissons Ratio (z) = -0.53378 0.26243
#
# Static dielectric constant tensor:
#      x y z
#    x 1.717530 0.000000 0.013280 
#    y 0.000000 1.660420 0.000000 
#    z 0.013280 0.000000 1.668430 
# 
# From -- ./inp_files/33783.got.cif
#   From: 2010.05.17/outbox.cif.g08.bks.cpg/sg10_17_cif.got.tgz:33783.got - 2010.06.03 11:33:40.
