data_PCOD9147425
_publ_section_title
;
Structure prediction by ZEFSAII (Michael W. Deem and Ramdas Pophale) SiO2 
 PCOD9147425
Probable space group: P 2/M
;
_chemical_formula_sum "Si O2"
_cell_formula_units_Z 28
_cell_length_a 22.709970
_cell_length_b 14.079823
_cell_length_c 22.709871
_cell_angle_alpha 90.000000
_cell_angle_beta 13.237536
_cell_angle_gamma 90.000000
_cell_volume 1662.808969
_symmetry_space_group_name_H-M "P 2/M"
_symmetry_group_IT_number 10
_symmetry_cell_setting 'monoclinic'
loop_
_space_group_symop_operation_xyz
x,y,z
-x,y,-z
-x,-y,-z
x,-y,z
loop_
_atom_site_type_symbol
_atom_site_label
_atom_site_fract_x
_atom_site_fract_y
_atom_site_fract_z
Si Si1 0.035368 0.887227 0.035346
Si Si2 0.366831 0.113944 0.366679
Si Si3 0.594011 0.607824 0.593984
Si Si4 0.864856 0.392059 0.864869
Si Si5 0.230406 0.112653 0.230388
Si Si6 0.566476 0.804433 0.566465
Si Si7 0.834486 0.803534 0.834318
O O1 0.799732 0.841251 0.299805
O O2 0.041568 0.000000 0.041562
O O3 0.299841 0.841260 0.799691
O O4 0.000000 0.874219 0.000000
O O5 0.400167 0.153716 0.400155
O O6 0.099510 0.151653 0.600335
O O7 0.367266 0.000000 0.367188
O O8 0.600607 0.151632 0.099269
O O9 0.582158 0.500000 0.582176
O O10 0.569967 0.690830 0.569997
O O11 0.864742 0.619185 0.364315
O O12 0.364405 0.619187 0.864672
O O13 0.853031 0.500000 0.853002
O O14 0.840967 0.308748 0.840868
O O15 0.200024 0.170487 0.200044
O O16 0.000000 0.131844 0.500000
O O17 0.222876 0.000000 0.222801
O O18 0.500000 0.131861 0.000000
#
# Coordination Sequence:
#
# PCOD9147425 Si02
#       7
#     4   4   4   4   4   4   4
#     4  11  24  40  58  80 111 155 196 224 260 322
#     4  12  23  33  53  86 117 145 170 223 292 336
#     4  10  20  36  57  83 112 142 179 222 276 339
#     4  10  19  35  56  81 111 143 180 221 275 339
#     4  10  21  36  53  73 103 150 195 223 258 318
#     4  12  21  38  59  83 114 145 184 231 277 331
#     4  12  21  37  55  81 115 144 182 231 275 331
#
# _framework density 16.838975000000001
#
# number of rings (size 3 to 8) (size 9 to 14) (size 15 to 20)
#    0.000    1.000    2.857    5.571    0.000    2.286 
#    0.000    0.000    0.000    3.429    0.000    0.000 
#    0.000    0.000    0.000    0.000    0.000    0.000 
#
# Total GULP energy -156526.615625 kJ/mol
# GULP energy per Si atom -5590.236272 kJ/mol
# Density = 1.680065 g / cm^3
# Si number density = 16.838975 Si / 1000 Ang^3
#
#
#
# Elastic Constant Matrix: (Units=GPa)
#
#
# Indices 1 2 3 4 5 6 
#
# 1 112.3295 84.2334 69.2471 0.0000 1.4676 0.0000
# 2 84.2334 170.5977 66.8009 0.0000 1.4367 0.0000
# 3 69.2471 66.8009 173.3975 0.0000 -7.1783 0.0000
# 4 0.0000 0.0000 0.0000 10.7179 0.0000 0.8771
# 5 1.4676 1.4367 -7.1783 0.0000 13.2533 0.0000
# 6 0.0000 0.0000 0.0000 0.8771 0.0000 20.7766
#
#
#
# Elastic Compliance Matrix: (Units=1/GPa)
#
#
# Indices 1 2 3 4 5 6 
#
# 1 0.016325 -0.006388 -0.004199 0.000000 -0.003390 0.000000
# 2 -0.006388 0.009468 -0.001135 0.000000 -0.000934 0.000000
# 3 -0.004199 -0.001135 0.008087 0.000000 0.004968 0.000000
# 4 0.000000 0.000000 0.000000 0.093626 0.000000 -0.003953
# 5 -0.003390 -0.000934 0.004968 0.000000 0.078620 0.000000
# 6 0.000000 0.000000 0.000000 -0.003953 0.000000 0.048298
#
#
# Mechanical properties :
#
#
# Convention : Reuss Voigt Hill
#
# Bulk Modulus (GPa) = 95.81984 99.65417 97.73700
# Shear Modulus (GPa) = 17.77160 24.68577 21.22869
#
# Velocity S-wave (km/s) = 3.25219 3.83298 3.55447
# Velocity P-wave (km/s) = 8.43383 8.88246 8.66105
#
# Compressibility (1/GPa) = 0.01043625
#
# Stress axis : x y z
#
# Youngs Moduli (GPa) = 61.25420 105.61654 123.65559
#
# Poissons Ratio (x) = 0.67468 0.51923
# Poissons Ratio (y) = 0.39129 0.14037
# Poissons Ratio (z) = 0.25721 0.11989
#
# Static dielectric constant tensor:
#      x y z
#    x 1.526380 0.000000 -0.002880 
#    y 0.000000 1.577410 0.000000 
#    z -0.002880 0.000000 1.558990 
# 
# From -- ./inp_files/90968.got.cif
#   From: 2010.05.17/outbox.cif.g08.bks.cpg/sg10_46_cif.got.tgz:90968.got - 2010.06.03 11:33:40.
