data_PCOD9147122
_publ_section_title
;
Structure prediction by ZEFSAII (Michael W. Deem and Ramdas Pophale) SiO2 
 PCOD9147122
Probable space group: P 2/M
;
_chemical_formula_sum "Si O2"
_cell_formula_units_Z 32
_cell_length_a 20.084702
_cell_length_b 7.391416
_cell_length_c 12.150407
_cell_angle_alpha 90.000000
_cell_angle_beta 52.774084
_cell_angle_gamma 90.000000
_cell_volume 1436.272286
_symmetry_space_group_name_H-M "P 2/M"
_symmetry_group_IT_number 10
_symmetry_cell_setting 'monoclinic'
loop_
_space_group_symop_operation_xyz
x,y,z
-x,y,-z
-x,-y,-z
x,-y,z
loop_
_atom_site_type_symbol
_atom_site_label
_atom_site_fract_x
_atom_site_fract_y
_atom_site_fract_z
Si Si1 0.911468 0.221071 0.135410
Si Si2 0.653909 0.782420 0.623452
Si Si3 0.092023 0.294518 0.392011
Si Si4 0.411469 0.221071 0.541652
Si Si5 0.592023 0.294518 0.923944
Si Si6 0.846091 0.217580 0.431270
Si Si7 0.750000 0.286475 0.898946
Si Si8 0.750000 0.781704 0.158302
O O1 0.899836 0.277109 0.273363
O O2 0.833189 0.279825 0.139137
O O3 0.910077 0.000000 0.136479
O O4 0.000000 0.279767 0.000000
O O5 0.600164 0.722891 0.573036
O O6 0.630140 0.702353 0.763956
O O7 0.750000 0.742082 0.500906
O O8 0.646240 0.000000 0.642024
O O9 0.077069 0.500000 0.365723
O O10 0.130140 0.297646 0.475764
O O11 0.164104 0.212993 0.241458
O O12 0.000000 0.209689 0.500000
O O13 0.500000 0.279767 0.500000
O O14 0.333190 0.279825 0.694483
O O15 0.410077 0.000000 0.543366
O O16 0.577068 0.500000 0.980140
O O17 0.664103 0.212993 0.930336
O O18 0.500000 0.209689 0.000000
O O19 0.853759 0.000000 0.434504
O O20 0.750000 0.500000 0.870135
O O21 0.750000 0.267514 0.029964
O O22 0.750000 0.000000 0.163409
#
# Coordination Sequence:
#
# PCOD9147122 Si02
#       8
#     4   4   4   4   4   4   4   4
#     4   9  18  33  53  79 110 140 169 213 270 313
#     4  10  19  34  57  82 108 138 179 226 264 310
#     4  10  22  39  57  77 106 145 182 219 269 321
#     4   9  18  33  53  79 110 140 169 213 270 313
#     4  10  22  39  57  77 106 145 182 219 269 321
#     4  10  19  34  57  82 108 138 179 226 264 310
#     4  10  22  39  54  74 110 145 173 218 273 316
#     4  10  20  35  56  80 106 139 179 214 255 320
#
# _framework density 22.279896999999998
#
# number of rings (size 3 to 8) (size 9 to 14) (size 15 to 20)
#    0.000    2.250    2.500    0.000    3.500    1.500 
#    0.000    1.250    0.000    1.500    0.000    0.000 
#    0.000    0.000    0.000    0.000    0.000    0.000 
#
# Total GULP energy -178742.801854 kJ/mol
# GULP energy per Si atom -5585.712558 kJ/mol
# Density = 2.222919 g / cm^3
# Si number density = 22.279897 Si / 1000 Ang^3
#
#
#
# Elastic Constant Matrix: (Units=GPa)
#
#
# Indices 1 2 3 4 5 6 
#
# 1 99.9863 1.1162 19.9569 0.0000 1.9575 0.0000
# 2 1.1162 71.3155 -3.6572 0.0000 -8.6751 0.0000
# 3 19.9569 -3.6572 103.9818 0.0000 5.3136 0.0000
# 4 0.0000 0.0000 0.0000 44.2260 0.0000 52.8272
# 5 1.9575 -8.6751 5.3136 0.0000 46.6508 0.0000
# 6 0.0000 0.0000 0.0000 52.8272 0.0000 15.1817
#
#
#
# Elastic Compliance Matrix: (Units=1/GPa)
#
#
# Indices 1 2 3 4 5 6 
#
# 1 0.010408 -0.000297 -0.001994 0.000000 -0.000265 0.000000
# 2 -0.000297 0.014369 0.000428 0.000000 0.002636 0.000000
# 3 -0.001994 0.000428 0.010065 0.000000 -0.000983 0.000000
# 4 0.000000 0.000000 0.000000 -0.007164 0.000000 0.024927
# 5 -0.000265 0.002636 -0.000983 0.000000 0.022049 0.000000
# 6 0.000000 0.000000 0.000000 0.024927 0.000000 -0.020868
#
#
# Mechanical properties :
#
#
# Convention : Reuss Voigt Hill
#
# Bulk Modulus (GPa) = 32.13956 34.45728 33.29842
# Shear Modulus (GPa) = 116.38913 38.40290 77.39602
#
# Velocity S-wave (km/s) = 7.23553 4.15620 5.90029
# Velocity P-wave (km/s) = 9.17936 6.20735 7.83555
#
# Compressibility (1/GPa) = 0.03111430
#
# Stress axis : x y z
#
# Youngs Moduli (GPa) = 96.08021 69.59222 99.35268
#
# Poissons Ratio (x) = 0.02070 0.19816
# Poissons Ratio (y) = 0.02857 -0.04250
# Poissons Ratio (z) = 0.19163 -0.02977
#
# Static dielectric constant tensor:
#      x y z
#    x 1.794420 0.000000 -0.035480 
#    y 0.000000 1.837340 0.000000 
#    z -0.035480 0.000000 1.774910 
# 
# From -- ./inp_files/55239.got.cif
#   From: 2010.05.17/outbox.cif.g08.bks.cpg/sg10_28_cif.got.tgz:55239.got - 2010.06.03 11:33:40.
