data_PCOD9147379
_publ_section_title
;
Structure prediction by ZEFSAII (Michael W. Deem and Ramdas Pophale) SiO2 
 PCOD9147379
Probable space group: P 2/M
;
_chemical_formula_sum "Si O2"
_cell_formula_units_Z 28
_cell_length_a 28.725475
_cell_length_b 7.863084
_cell_length_c 9.980385
_cell_angle_alpha 90.000000
_cell_angle_beta 40.763662
_cell_angle_gamma 90.000000
_cell_volume 1471.908969
_symmetry_space_group_name_H-M "P 2/M"
_symmetry_group_IT_number 10
_symmetry_cell_setting 'monoclinic'
loop_
_space_group_symop_operation_xyz
x,y,z
-x,y,-z
-x,-y,-z
x,-y,z
loop_
_atom_site_type_symbol
_atom_site_label
_atom_site_fract_x
_atom_site_fract_y
_atom_site_fract_z
Si Si1 0.065576 0.205643 0.760614
Si Si2 0.821207 0.795921 0.092626
Si Si3 0.404962 0.500000 0.577492
Si Si4 0.699879 0.200378 0.153546
Si Si5 0.336532 0.189824 0.074631
Si Si6 0.436449 0.500000 0.828150
Si Si7 0.018603 0.208115 0.310633
Si Si8 0.220202 0.693418 0.525771
O O1 0.140439 0.276745 0.645229
O O2 0.040986 0.258435 0.666478
O O3 0.071432 0.000000 0.752976
O O4 0.000000 0.253608 0.000000
O O5 0.774840 0.759718 0.061650
O O6 0.783335 0.728848 0.308425
O O7 0.824860 0.000000 0.098984
O O8 0.902506 0.733897 0.904063
O O9 0.357972 0.330501 0.660420
O O10 0.424290 0.500000 0.693660
O O11 0.478825 0.500000 0.336118
O O12 0.684141 0.000000 0.213431
O O13 0.699053 0.223325 0.994336
O O14 0.276294 0.198082 0.319306
O O15 0.367492 0.000000 0.001133
O O16 0.396215 0.332314 0.967326
O O17 0.000000 0.264081 0.500000
O O18 0.020103 0.000000 0.306781
O O19 0.241106 0.500000 0.456017
#
# Coordination Sequence:
#
# PCOD9147379 Si02
#       8
#     4   4   2   4   4   2   4   4
#     4  10  19  35  55  75 103 143 192 239 287 336
#     4  10  20  37  56  80 111 147 194 238 284 345
#     4   9  18  34  61  85 127 151 181 230 278 336
#     4   9  20  35  58  88 116 152 192 231 284 342
#     4  10  20  37  59  87 119 150 189 236 284 336
#     4   9  18  36  57  93 119 153 185 225 280 339
#     4   9  18  32  53  79 105 139 187 242 292 339
#     4  12  24  36  54  80 112 153 197 238 290 342
#
# _framework density 19.022915999999999
#
# number of rings (size 3 to 8) (size 9 to 14) (size 15 to 20)
#    0.000    2.143    2.143    1.286    3.000    0.857 
#    0.000    2.857    0.000    2.571    0.000    3.000 
#    0.000    0.000    0.000    0.000    0.000    0.000 
#
# Total GULP energy -156255.358060 kJ/mol
# GULP energy per Si atom -5580.548502 kJ/mol
# Density = 1.897962 g / cm^3
# Si number density = 19.022916 Si / 1000 Ang^3
#
#
#
# Elastic Constant Matrix: (Units=GPa)
#
#
# Indices 1 2 3 4 5 6 
#
# 1 24.0503 9.2798 4.2645 0.0000 9.5940 0.0000
# 2 9.2798 55.5234 18.1267 0.0000 -2.6314 0.0000
# 3 4.2645 18.1267 80.4786 0.0000 4.1776 0.0000
# 4 0.0000 0.0000 0.0000 30.0842 0.0000 1.6940
# 5 9.5940 -2.6314 4.1776 0.0000 27.7390 0.0000
# 6 0.0000 0.0000 0.0000 1.6940 0.0000 18.1103
#
#
#
# Elastic Compliance Matrix: (Units=1/GPa)
#
#
# Indices 1 2 3 4 5 6 
#
# 1 0.053054 -0.009924 0.000429 0.000000 -0.019356 0.000000
# 2 -0.009924 0.021473 -0.004631 0.000000 0.006167 0.000000
# 3 0.000429 -0.004631 0.013583 0.000000 -0.002633 0.000000
# 4 0.000000 0.000000 0.000000 0.033416 0.000000 -0.003126
# 5 -0.019356 0.006167 -0.002633 0.000000 0.043726 0.000000
# 6 0.000000 0.000000 0.000000 -0.003126 0.000000 0.055510
#
#
# Mechanical properties :
#
#
# Convention : Reuss Voigt Hill
#
# Bulk Modulus (GPa) = 16.70646 24.82159 20.76402
# Shear Modulus (GPa) = 18.58963 23.74545 21.16754
#
# Velocity S-wave (km/s) = 3.12945 3.53690 3.33939
# Velocity P-wave (km/s) = 4.67539 5.45492 5.08013
#
# Compressibility (1/GPa) = 0.05985709
#
# Stress axis : x y z
#
# Youngs Moduli (GPa) = 18.84871 46.56965 73.62332
#
# Poissons Ratio (x) = 0.46218 -0.03157
# Poissons Ratio (y) = 0.18706 0.34093
# Poissons Ratio (z) = -0.00808 0.21565
#
# Static dielectric constant tensor:
#      x y z
#    x 1.642650 0.000000 0.013320 
#    y 0.000000 1.693490 0.000000 
#    z 0.013320 0.000000 1.638360 
# 
# From -- ./inp_files/37160.got.cif
#   From: 2010.05.17/outbox.cif.g08.bks.cpg/sg10_19_cif.got.tgz:37160.got - 2010.06.03 11:33:40.
