data_PCOD9147606
_publ_section_title
;
Structure prediction by ZEFSAII (Michael W. Deem and Ramdas Pophale) SiO2 
 PCOD9147606
Probable space group: P 2/M
;
_chemical_formula_sum "Si O2"
_cell_formula_units_Z 28
_cell_length_a 22.429979
_cell_length_b 7.597879
_cell_length_c 24.512601
_cell_angle_alpha 90.000000
_cell_angle_beta 161.930665
_cell_angle_gamma 90.000000
_cell_volume 1295.708046
_symmetry_space_group_name_H-M "P 2/M"
_symmetry_group_IT_number 10
_symmetry_cell_setting 'monoclinic'
loop_
_space_group_symop_operation_xyz
x,y,z
-x,y,-z
-x,-y,-z
x,-y,z
loop_
_atom_site_type_symbol
_atom_site_label
_atom_site_fract_x
_atom_site_fract_y
_atom_site_fract_z
Si Si1 0.455156 0.796289 0.520764
Si Si2 0.821841 0.701194 0.625396
Si Si3 0.202836 0.207157 0.009748
Si Si4 0.128109 0.204629 0.063113
Si Si5 0.388001 0.798061 0.664124
Si Si6 0.125631 0.785110 0.533103
Si Si7 0.292910 0.214452 0.796215
O O1 0.500000 0.721038 0.500000
O O2 0.295625 0.712469 0.420220
O O3 0.653832 0.794236 0.726495
O O4 0.394330 0.000000 0.459590
O O5 0.836669 0.500000 0.621474
O O6 0.707998 0.797787 0.478797
O O7 0.031809 0.776327 0.818561
O O8 0.240195 0.000000 0.053489
O O9 0.131657 0.283551 0.005793
O O10 0.401877 0.284461 0.161070
O O11 0.061055 0.000000 0.999420
O O12 0.000000 0.284376 0.000000
O O13 0.242750 0.721971 0.582354
O O14 0.419749 0.000000 0.709755
O O15 0.242001 0.736002 0.689346
O O16 0.901810 0.729147 0.341303
O O17 0.117690 0.000000 0.525725
O O18 0.298519 0.000000 0.802570
O O19 0.500000 0.274354 0.000000
#
# Coordination Sequence:
#
# PCOD9147606 Si02
#       7
#     4   4   4   4   4   4   4
#     4  10  19  35  60  84 107 137 180 231 279 334
#     4  12  25  38  54  78 114 150 182 226 284 343
#     4  10  20  36  57  78 104 138 185 236 276 325
#     4   9  16  29  52  81 104 127 167 221 274 319
#     4  10  20  37  59  81 108 145 193 238 274 320
#     4   8  15  26  44  74 108 142 178 218 265 322
#     4   8  13  23  41  71 113 147 169 205 268 332
#
# _framework density 21.609807
#
# number of rings (size 3 to 8) (size 9 to 14) (size 15 to 20)
#    0.000    2.429    1.429    3.000    0.000    4.286 
#    0.000    4.286    0.000    1.714    0.000    2.000 
#    0.000    5.714    0.000    0.000    0.000    0.000 
#
# Total GULP energy -156235.713256 kJ/mol
# GULP energy per Si atom -5579.846902 kJ/mol
# Density = 2.156062 g / cm^3
# Si number density = 21.609807 Si / 1000 Ang^3
#
#
#
# Elastic Constant Matrix: (Units=GPa)
#
#
# Indices 1 2 3 4 5 6 
#
# 1 115.2608 5.5850 71.9560 0.0000 35.2679 0.0000
# 2 5.5850 46.8064 -3.9875 0.0000 6.1718 0.0000
# 3 71.9560 -3.9875 178.0128 0.0000 17.9606 0.0000
# 4 0.0000 0.0000 0.0000 -0.2280 0.0000 13.5906
# 5 35.2679 6.1718 17.9606 0.0000 29.6668 0.0000
# 6 0.0000 0.0000 0.0000 13.5906 0.0000 -12.1130
#
#
#
# Elastic Compliance Matrix: (Units=1/GPa)
#
#
# Indices 1 2 3 4 5 6 
#
# 1 0.017240 -0.000224 -0.005230 0.000000 -0.017282 0.000000
# 2 -0.000224 0.022144 0.001091 0.000000 -0.005001 0.000000
# 3 -0.005230 0.001091 0.007617 0.000000 0.001379 0.000000
# 4 0.000000 0.000000 0.000000 0.066576 0.000000 0.074698
# 5 -0.017282 -0.005001 0.001379 0.000000 0.054458 0.000000
# 6 0.000000 0.000000 0.000000 0.074698 0.000000 0.001253
#
#
# Mechanical properties :
#
#
# Convention : Reuss Voigt Hill
#
# Bulk Modulus (GPa) = 26.12681 54.13186 40.12934
# Shear Modulus (GPa) = 26.20931 21.23359 23.72145
#
# Velocity S-wave (km/s) = 3.48637 3.13803 3.31678
# Velocity P-wave (km/s) = 5.32192 6.18334 5.76873
#
# Compressibility (1/GPa) = 0.03827486
#
# Stress axis : x y z
#
# Youngs Moduli (GPa) = 58.00533 45.15961 131.28634
#
# Poissons Ratio (x) = 0.01011 0.68663
# Poissons Ratio (y) = 0.01299 -0.14325
# Poissons Ratio (z) = 0.30337 -0.04927
#
# Static dielectric constant tensor:
#      x y z
#    x 1.792920 0.000000 0.024840 
#    y 0.000000 1.802330 0.000000 
#    z 0.024840 0.000000 1.756480 
# 
# From -- ./inp_files/90401.got.cif
#   From: 2010.05.17/outbox.cif.g08.bks.cpg/sg10_46_cif.got.tgz:90401.got - 2010.06.03 11:33:40.
