data_PCOD9147712
_publ_section_title
;
Structure prediction by ZEFSAII (Michael W. Deem and Ramdas Pophale) SiO2 
 PCOD9147712
Probable space group: P 2/M
;
_chemical_formula_sum "Si O2"
_cell_formula_units_Z 28
_cell_length_a 14.563037
_cell_length_b 17.194679
_cell_length_c 9.934170
_cell_angle_alpha 90.000000
_cell_angle_beta 149.008166
_cell_angle_gamma 90.000000
_cell_volume 1280.896144
_symmetry_space_group_name_H-M "P 2/M"
_symmetry_group_IT_number 10
_symmetry_cell_setting 'monoclinic'
loop_
_space_group_symop_operation_xyz
x,y,z
-x,y,-z
-x,-y,-z
x,-y,z
loop_
_atom_site_type_symbol
_atom_site_label
_atom_site_fract_x
_atom_site_fract_y
_atom_site_fract_z
Si Si1 0.743492 0.584911 0.451281
Si Si2 0.861878 0.838661 0.451098
Si Si3 0.301347 0.175258 0.234777
Si Si4 0.689707 0.413856 0.072966
Si Si5 0.788073 0.746803 0.613377
Si Si6 0.236730 0.000000 0.225010
Si Si7 0.359366 0.756734 0.037176
Si Si8 0.148109 0.000000 0.411187
O O1 0.809159 0.500000 0.575261
O O2 0.771268 0.594100 0.325560
O O3 0.819826 0.655498 0.632805
O O4 0.526863 0.584168 0.190056
O O5 0.893571 0.791962 0.629731
O O6 0.828828 0.925027 0.466198
O O7 0.000000 0.840918 0.500000
O O8 0.698642 0.792419 0.177341
O O9 0.500000 0.209276 0.500000
O O10 0.188922 0.217237 0.209636
O O11 0.306366 0.083612 0.267448
O O12 0.270467 0.190846 0.040432
O O13 0.744090 0.500000 0.088509
O O14 0.718888 0.330638 0.040741
O O15 0.574019 0.757095 0.315798
O O16 0.266380 0.000000 0.424450
O O17 0.042290 0.000000 0.906939
#
# Coordination Sequence:
#
# PCOD9147712 Si02
#       8
#     4   4   4   4   4   2   4   2
#     4   8  13  24  48  78 108 144 180 217 261 315
#     4  12  23  38  56  82 108 137 184 232 273 318
#     4  10  21  36  59  82 110 145 181 222 276 331
#     4   8  13  24  47  78 109 143 180 216 264 317
#     4  10  19  36  56  82 113 146 182 223 270 327
#     4  11  21  42  59  77 107 146 182 214 279 336
#     4  10  20  35  57  83 114 145 180 227 273 316
#     4  11  25  40  60  76 106 144 180 228 272 328
#
# _framework density 21.859696
#
# number of rings (size 3 to 8) (size 9 to 14) (size 15 to 20)
#    0.000    2.143    2.857    2.571    0.000    0.571 
#    0.000    2.857    0.000    6.000    0.000    0.000 
#    0.000    3.429    0.000    0.000    0.000    0.000 
#
# Total GULP energy -156036.780582 kJ/mol
# GULP energy per Si atom -5572.742164 kJ/mol
# Density = 2.180994 g / cm^3
# Si number density = 21.859696 Si / 1000 Ang^3
#
#
#
# Elastic Constant Matrix: (Units=GPa)
#
#
# Indices 1 2 3 4 5 6 
#
# 1 104.2673 63.4756 12.1597 0.0000 -29.2522 0.0000
# 2 63.4756 150.4597 9.9432 0.0000 -20.0500 0.0000
# 3 12.1597 9.9432 48.1123 0.0000 -18.7894 0.0000
# 4 0.0000 0.0000 0.0000 -19.6534 0.0000 21.0821
# 5 -29.2522 -20.0500 -18.7894 0.0000 32.5246 0.0000
# 6 0.0000 0.0000 0.0000 21.0821 0.0000 -25.7068
#
#
#
# Elastic Compliance Matrix: (Units=1/GPa)
#
#
# Indices 1 2 3 4 5 6 
#
# 1 0.015992 -0.005241 0.001804 0.000000 0.012194 0.000000
# 2 -0.005241 0.008962 -0.000272 0.000000 0.000654 0.000000
# 3 0.001804 -0.000272 0.027058 0.000000 0.017085 0.000000
# 4 0.000000 0.000000 0.000000 -0.423015 0.000000 -0.346914
# 5 0.012194 0.000654 0.017085 0.000000 0.051987 0.000000
# 6 0.000000 0.000000 0.000000 -0.346914 0.000000 -0.323404
#
#
# Mechanical properties :
#
#
# Convention : Reuss Voigt Hill
#
# Bulk Modulus (GPa) = 22.42502 52.66625 37.54563
# Shear Modulus (GPa) = -8.06274 11.91692 1.92709
#
# Velocity S-wave (km/s) = -1.92261 2.33739 0.93994
# Velocity P-wave (km/s) = 2.31351 5.60622 4.28847
#
# Compressibility (1/GPa) = 0.04459304
#
# Stress axis : x y z
#
# Youngs Moduli (GPa) = 62.53124 111.57645 36.95821
#
# Poissons Ratio (x) = 0.58476 -0.06666
# Poissons Ratio (y) = 0.32772 0.01006
# Poissons Ratio (z) = -0.11278 0.03037
#
# Static dielectric constant tensor:
#      x y z
#    x 1.852470 0.000000 0.063140 
#    y 0.000000 1.796100 0.000000 
#    z 0.063140 0.000000 1.824580 
# 
# From -- ./inp_files/30222.got.cif
#   From: 2010.05.17/outbox.cif.g08.bks.cpg/sg10_16_cif.got.tgz:30222.got - 2010.06.03 11:33:40.
