data_PCOD9147378
_publ_section_title
;
Structure prediction by ZEFSAII (Michael W. Deem and Ramdas Pophale) SiO2 
 PCOD9147378
Probable space group: P 2/M
;
_chemical_formula_sum "Si O2"
_cell_formula_units_Z 32
_cell_length_a 21.380664
_cell_length_b 13.784655
_cell_length_c 14.611177
_cell_angle_alpha 90.000000
_cell_angle_beta 158.027731
_cell_angle_gamma 90.000000
_cell_volume 1611.228329
_symmetry_space_group_name_H-M "P 2/M"
_symmetry_group_IT_number 10
_symmetry_cell_setting 'monoclinic'
loop_
_space_group_symop_operation_xyz
x,y,z
-x,y,-z
-x,-y,-z
x,-y,z
loop_
_atom_site_type_symbol
_atom_site_label
_atom_site_fract_x
_atom_site_fract_y
_atom_site_fract_z
Si Si1 0.085178 0.112210 0.403146
Si Si2 0.791642 0.607288 0.143581
Si Si3 0.852747 0.822187 0.237816
Si Si4 0.929965 0.610029 0.634776
Si Si5 0.593850 0.613269 0.415945
Si Si6 0.886569 0.383128 0.931972
Si Si7 0.693369 0.750425 0.382179
Si Si8 0.608372 0.107349 0.035303
O O1 0.161568 0.167431 0.419392
O O2 0.240760 0.114900 0.686897
O O3 0.928211 0.166066 0.238929
O O4 0.043880 0.000000 0.331435
O O5 0.795421 0.500000 0.196032
O O6 0.606652 0.616131 0.848942
O O7 0.819448 0.711799 0.227197
O O8 0.941230 0.606780 0.273575
O O9 0.688808 0.879953 0.043681
O O10 0.000000 0.864623 0.500000
O O11 0.873372 0.500000 0.574672
O O12 0.769002 0.678135 0.407942
O O13 0.034303 0.646846 0.864744
O O14 0.636402 0.500000 0.452331
O O15 0.696502 0.640811 0.646434
O O16 0.657185 0.682866 0.420723
O O17 0.893856 0.500000 0.945886
O O18 0.000000 0.351755 0.000000
O O19 0.525082 0.808410 0.134292
O O20 0.532808 0.000000 0.941385
#
# Coordination Sequence:
#
# PCOD9147378 Si02
#       8
#     4   4   4   4   4   4   4   4
#     4  10  21  36  54  76 101 130 169 220 265 297
#     4  10  20  35  51  74 108 137 172 210 244 297
#     4  10  19  35  55  74 102 137 173 207 252 306
#     4  10  20  33  52  76 105 139 170 207 251 301
#     4  10  20  33  52  76 105 139 170 207 251 301
#     4   9  16  29  49  75 105 134 166 205 252 299
#     4  12  19  30  53  75 107 132 164 205 259 314
#     4  10  21  36  54  76 101 130 169 220 265 297
#
# _framework density 19.860624000000001
#
# number of rings (size 3 to 8) (size 9 to 14) (size 15 to 20)
#    0.000    1.875    3.750    1.500    0.000    3.250 
#    0.000    2.500    0.000    6.000    0.000    7.000 
#    0.000    2.000    0.000    0.000    0.000    0.000 
#
# Total GULP energy -178226.721992 kJ/mol
# GULP energy per Si atom -5569.585062 kJ/mol
# Density = 1.981542 g / cm^3
# Si number density = 19.860624 Si / 1000 Ang^3
#
#
#
# Elastic Constant Matrix: (Units=GPa)
#
#
# Indices 1 2 3 4 5 6 
#
# 1 39.0923 23.3373 14.6682 0.0000 17.3672 0.0000
# 2 23.3373 121.3533 34.4774 0.0000 10.1411 0.0000
# 3 14.6682 34.4774 83.4327 0.0000 19.7326 0.0000
# 4 0.0000 0.0000 0.0000 14.1290 0.0000 6.2692
# 5 17.3672 10.1411 19.7326 0.0000 27.8041 0.0000
# 6 0.0000 0.0000 0.0000 6.2692 0.0000 19.4162
#
#
#
# Elastic Compliance Matrix: (Units=1/GPa)
#
#
# Indices 1 2 3 4 5 6 
#
# 1 0.038840 -0.005841 0.000985 0.000000 -0.022829 0.000000
# 2 -0.005841 0.010230 -0.003823 0.000000 0.002630 0.000000
# 3 0.000985 -0.003823 0.015872 0.000000 -0.010485 0.000000
# 4 0.000000 0.000000 0.000000 0.082612 0.000000 -0.026674
# 5 -0.022829 0.002630 -0.010485 0.000000 0.056708 0.000000
# 6 0.000000 0.000000 0.000000 -0.026674 0.000000 0.060116
#
#
# Mechanical properties :
#
#
# Convention : Reuss Voigt Hill
#
# Bulk Modulus (GPa) = 21.01554 43.20492 32.11023
# Shear Modulus (GPa) = 16.80121 23.69621 20.24871
#
# Velocity S-wave (km/s) = 2.91169 3.45791 3.19649
# Velocity P-wave (km/s) = 4.68064 6.14363 5.46134
#
# Compressibility (1/GPa) = 0.04758384
#
# Stress axis : x y z
#
# Youngs Moduli (GPa) = 25.74655 97.75232 63.00378
#
# Poissons Ratio (x) = 0.57100 -0.06204
# Poissons Ratio (y) = 0.15039 0.24083
# Poissons Ratio (z) = -0.02535 0.37366
#
# Static dielectric constant tensor:
#      x y z
#    x 1.754670 0.000000 0.018910 
#    y 0.000000 1.759430 0.000000 
#    z 0.018910 0.000000 1.731420 
# 
# From -- ./inp_files/80309.got.cif
#   From: 2010.05.17/outbox.cif.g08.bks.cpg/sg10_41_cif.got.tgz:80309.got - 2010.06.03 11:33:40.
