data_PCOD9147594
_publ_section_title
;
Structure prediction by ZEFSAII (Michael W. Deem and Ramdas Pophale) SiO2 
 PCOD9147594
Probable space group: P 2/M
;
_chemical_formula_sum "Si O2"
_cell_formula_units_Z 32
_cell_length_a 14.961573
_cell_length_b 13.208909
_cell_length_c 14.685834
_cell_angle_alpha 90.000000
_cell_angle_beta 141.911790
_cell_angle_gamma 90.000000
_cell_volume 1790.355342
_symmetry_space_group_name_H-M "P 2/M"
_symmetry_group_IT_number 10
_symmetry_cell_setting 'monoclinic'
loop_
_space_group_symop_operation_xyz
x,y,z
-x,y,-z
-x,-y,-z
x,-y,z
loop_
_atom_site_type_symbol
_atom_site_label
_atom_site_fract_x
_atom_site_fract_y
_atom_site_fract_z
Si Si1 0.536763 0.882019 0.312744
Si Si2 0.659043 0.386025 0.712985
Si Si3 0.796838 0.882388 0.384861
Si Si4 0.203177 0.118382 0.985807
Si Si5 0.086225 0.686524 0.976002
Si Si6 0.942180 0.617056 0.676590
Si Si7 0.914855 0.196778 0.298583
Si Si8 0.647015 0.698455 0.512980
O O1 0.648429 0.863736 0.319268
O O2 0.587778 0.806603 0.432962
O O3 0.551030 0.000000 0.350562
O O4 0.371327 0.865260 0.148412
O O5 0.692043 0.500000 0.708388
O O6 0.491106 0.375327 0.603120
O O7 0.689768 0.309646 0.653757
O O8 0.756179 0.358264 0.876441
O O9 0.822811 0.814729 0.316689
O O10 0.934490 0.862514 0.560864
O O11 0.799998 0.000000 0.358768
O O12 0.105703 0.195796 0.965798
O O13 0.169586 0.149200 0.854572
O O14 0.170024 0.000000 0.972771
O O15 0.012565 0.630117 0.833065
O O16 0.000000 0.672248 0.000000
O O17 0.939050 0.500000 0.647589
O O18 0.780678 0.662142 0.559292
O O19 0.035565 0.689737 0.686318
#
# Coordination Sequence:
#
# PCOD9147594 Si02
#       8
#     4   4   4   4   4   4   4   4
#     4  10  21  37  58  82 112 145 181 227 276 328
#     4  11  22  36  58  79 107 147 191 236 271 314
#     4  10  19  35  59  87 112 139 179 226 276 327
#     4  10  21  38  56  80 112 149 184 222 273 328
#     4  11  22  36  55  82 113 145 183 230 274 324
#     4  11  22  36  57  81 112 146 184 230 274 322
#     4  10  20  35  57  83 111 143 176 225 273 330
#     4  11  20  37  54  81 111 141 188 229 272 316
#
# _framework density 17.873548
#
# number of rings (size 3 to 8) (size 9 to 14) (size 15 to 20)
#    0.000    1.500    3.750    3.375    0.000    1.250 
#    0.000    5.000    0.000    0.000    0.000    1.750 
#    0.000    0.000    0.000    0.000    0.000    0.000 
#
# Total GULP energy -178554.688820 kJ/mol
# GULP energy per Si atom -5579.834026 kJ/mol
# Density = 1.783287 g / cm^3
# Si number density = 17.873548 Si / 1000 Ang^3
#
#
#
# Elastic Constant Matrix: (Units=GPa)
#
#
# Indices 1 2 3 4 5 6 
#
# 1 40.4269 28.1825 -1.9390 0.0000 -9.0027 0.0000
# 2 28.1825 101.5673 17.8016 0.0000 -9.8305 0.0000
# 3 -1.9390 17.8016 60.0367 0.0000 -8.1712 0.0000
# 4 0.0000 0.0000 0.0000 19.9011 0.0000 2.9245
# 5 -9.0027 -9.8305 -8.1712 0.0000 19.3615 0.0000
# 6 0.0000 0.0000 0.0000 2.9245 0.0000 19.7627
#
#
#
# Elastic Compliance Matrix: (Units=1/GPa)
#
#
# Indices 1 2 3 4 5 6 
#
# 1 0.034529 -0.009253 0.005734 0.000000 0.013777 0.000000
# 2 -0.009253 0.013200 -0.004123 0.000000 0.000660 0.000000
# 3 0.005734 -0.004123 0.019248 0.000000 0.008696 0.000000
# 4 0.000000 0.000000 0.000000 0.051365 0.000000 -0.007601
# 5 0.013777 0.000660 0.008696 0.000000 0.062060 0.000000
# 6 0.000000 0.000000 0.000000 -0.007601 0.000000 0.051725
#
#
# Mechanical properties :
#
#
# Convention : Reuss Voigt Hill
#
# Bulk Modulus (GPa) = 19.34485 32.23568 25.79027
# Shear Modulus (GPa) = 18.89351 22.33745 20.61548
#
# Velocity S-wave (km/s) = 3.25478 3.53901 3.39987
# Velocity P-wave (km/s) = 4.99715 5.89695 5.46560
#
# Compressibility (1/GPa) = 0.05169334
#
# Stress axis : x y z
#
# Youngs Moduli (GPa) = 28.96092 75.76042 51.95426
#
# Poissons Ratio (x) = 0.70098 -0.29790
# Poissons Ratio (y) = 0.26796 0.21420
# Poissons Ratio (z) = -0.16606 0.31235
#
# Static dielectric constant tensor:
#      x y z
#    x 1.606330 0.000000 0.009780 
#    y 0.000000 1.608640 0.000000 
#    z 0.009780 0.000000 1.623010 
# 
# From -- ./inp_files/67352.got.cif
#   From: 2010.05.17/outbox.cif.g08.bks.cpg/sg10_34_cif.got.tgz:67352.got - 2010.06.03 11:33:40.
