data_PCOD9147766
_publ_section_title
;
Structure prediction by ZEFSAII (Michael W. Deem and Ramdas Pophale) SiO2 
 PCOD9147766
Probable space group: P 2/M
;
_chemical_formula_sum "Si O2"
_cell_formula_units_Z 28
_cell_length_a 11.289199
_cell_length_b 8.988887
_cell_length_c 28.196455
_cell_angle_alpha 90.000000
_cell_angle_beta 148.818020
_cell_angle_gamma 90.000000
_cell_volume 1481.461426
_symmetry_space_group_name_H-M "P 2/M"
_symmetry_group_IT_number 10
_symmetry_cell_setting 'monoclinic'
loop_
_space_group_symop_operation_xyz
x,y,z
-x,y,-z
-x,-y,-z
x,-y,z
loop_
_atom_site_type_symbol
_atom_site_label
_atom_site_fract_x
_atom_site_fract_y
_atom_site_fract_z
Si Si1 0.125225 0.320526 0.994075
Si Si2 0.637603 0.672889 0.190607
Si Si3 0.803106 0.176013 0.807202
Si Si4 0.107603 0.177438 0.352353
Si Si5 0.355320 0.327576 0.692277
Si Si6 0.383487 0.821808 0.353995
Si Si7 0.153180 0.678138 0.471036
O O1 0.115921 0.500000 0.990162
O O2 0.989598 0.258044 0.902896
O O3 0.391677 0.277694 0.087022
O O4 0.000000 0.272155 0.000000
O O5 0.678257 0.500000 0.191208
O O6 0.623719 0.675358 0.243245
O O7 0.852586 0.772757 0.250279
O O8 0.553212 0.225252 0.739936
O O9 0.796048 0.213835 0.749048
O O10 0.832190 0.000000 0.822500
O O11 0.282646 0.219207 0.370683
O O12 0.158644 0.257858 0.419403
O O13 0.118957 0.000000 0.363158
O O14 0.388852 0.500000 0.688702
O O15 0.094492 0.281096 0.592232
O O16 0.624047 0.741933 0.427414
O O17 0.419810 0.000000 0.365917
O O18 0.159742 0.500000 0.471710
#
# Coordination Sequence:
#
# PCOD9147766 Si02
#       7
#     4   4   4   4   4   4   4
#     4  10  19  36  59  81 109 143 175 217 274 324
#     4   9  18  34  57  83 109 137 176 225 269 315
#     4  11  23  36  53  80 112 144 183 223 262 319
#     4  10  20  36  58  80 108 145 181 220 270 319
#     4   9  18  35  54  78 111 142 173 218 277 324
#     4  10  23  40  53  74 112 151 181 219 270 318
#     4  10  21  36  58  84 107 137 182 230 269 315
#
# _framework density 18.900254
#
# number of rings (size 3 to 8) (size 9 to 14) (size 15 to 20)
#    0.000    2.143    1.429    2.571    0.000    8.286 
#    0.000    3.571    0.000    4.286    0.000    0.000 
#    0.000    0.000    0.000    0.000    0.000    0.000 
#
# Total GULP energy -156334.866543 kJ/mol
# GULP energy per Si atom -5583.388091 kJ/mol
# Density = 1.885724 g / cm^3
# Si number density = 18.900254 Si / 1000 Ang^3
#
#
#
# Elastic Constant Matrix: (Units=GPa)
#
#
# Indices 1 2 3 4 5 6 
#
# 1 13.4495 0.0830 6.7503 0.0000 6.1021 0.0000
# 2 0.0830 9.6582 17.4078 0.0000 2.5537 0.0000
# 3 6.7503 17.4078 120.3861 0.0000 8.9780 0.0000
# 4 0.0000 0.0000 0.0000 33.3224 0.0000 -6.0447
# 5 6.1021 2.5537 8.9780 0.0000 21.3799 0.0000
# 6 0.0000 0.0000 0.0000 -6.0447 0.0000 30.6462
#
#
#
# Elastic Compliance Matrix: (Units=1/GPa)
#
#
# Indices 1 2 3 4 5 6 
#
# 1 0.088164 0.015380 -0.005320 0.000000 -0.024766 0.000000
# 2 0.015380 0.144227 -0.020755 0.000000 -0.012901 0.000000
# 3 -0.005320 -0.020755 0.011674 0.000000 -0.000904 0.000000
# 4 0.000000 0.000000 0.000000 0.031123 0.000000 0.006139
# 5 -0.024766 -0.012901 -0.000904 0.000000 0.055762 0.000000
# 6 0.000000 0.000000 0.000000 0.006139 0.000000 0.033841
#
#
# Mechanical properties :
#
#
# Convention : Reuss Voigt Hill
#
# Bulk Modulus (GPa) = 4.49091 21.33067 12.91079
# Shear Modulus (GPa) = 10.85994 25.01990 17.93992
#
# Velocity S-wave (km/s) = 2.39967 3.64233 3.08423
# Velocity P-wave (km/s) = 3.17161 5.38509 4.41918
#
# Compressibility (1/GPa) = 0.22267192
#
# Stress axis : x y z
#
# Youngs Moduli (GPa) = 11.34254 6.93351 85.66323
#
# Poissons Ratio (x) = -0.10663 0.45577
# Poissons Ratio (y) = -0.17444 1.77798
# Poissons Ratio (z) = 0.06035 0.14391
#
# Static dielectric constant tensor:
#      x y z
#    x 1.649090 0.000000 -0.008940 
#    y 0.000000 1.626770 0.000000 
#    z -0.008940 0.000000 1.671340 
# 
# From -- ./inp_files/68680.got.cif
#   From: 2010.05.17/outbox.cif.g08.bks.cpg/sg10_35_cif.got.tgz:68680.got - 2010.06.03 11:33:40.
