data_PCOD9147131
_publ_section_title
;
Structure prediction by ZEFSAII (Michael W. Deem and Ramdas Pophale) SiO2 
 PCOD9147131
Probable space group: P 2/M
;
_chemical_formula_sum "Si O2"
_cell_formula_units_Z 30
_cell_length_a 30.393930
_cell_length_b 8.619316
_cell_length_c 12.656858
_cell_angle_alpha 90.000000
_cell_angle_beta 152.253596
_cell_angle_gamma 90.000000
_cell_volume 1543.690650
_symmetry_space_group_name_H-M "P 2/M"
_symmetry_group_IT_number 10
_symmetry_cell_setting 'monoclinic'
loop_
_space_group_symop_operation_xyz
x,y,z
-x,y,-z
-x,-y,-z
x,-y,z
loop_
_atom_site_type_symbol
_atom_site_label
_atom_site_fract_x
_atom_site_fract_y
_atom_site_fract_z
Si Si1 0.776230 0.818549 0.330533
Si Si2 0.706003 0.821163 0.763495
Si Si3 0.880421 0.669518 0.040274
Si Si4 0.992172 0.818154 0.860971
Si Si5 0.805849 0.683286 0.169861
Si Si6 0.581300 0.313590 0.319288
Si Si7 0.634363 0.686612 0.201435
Si Si8 0.000000 0.268432 0.500000
O O1 0.884709 0.799593 0.596052
O O2 0.766780 0.724431 0.201631
O O3 0.709780 0.761734 0.283980
O O4 0.758497 0.000000 0.272230
O O5 0.621802 0.762794 0.510505
O O6 0.694458 0.000000 0.767463
O O7 0.800524 0.794484 0.894819
O O8 0.729169 0.721477 0.917038
O O9 0.835163 0.500000 0.932742
O O10 0.940444 0.714699 0.066998
O O11 0.950315 0.663701 0.289733
O O12 0.017874 0.000000 0.902142
O O13 0.000000 0.778489 0.000000
O O14 0.832621 0.500000 0.221378
O O15 0.900399 0.786600 0.343716
O O16 0.588888 0.500000 0.343765
O O17 0.637251 0.265617 0.331119
O O18 0.471438 0.277181 0.064447
O O19 0.645102 0.500000 0.221582
#
# Coordination Sequence:
#
# PCOD9147131 Si02
#       8
#     4   4   4   4   4   4   4   2
#     4  11  23  38  58  87 122 157 196 240 292 351
#     4  11  23  37  57  87 121 152 188 239 298 352
#     4  11  21  36  57  84 113 151 200 244 283 338
#     4  10  23  40  54  78 120 160 194 236 288 343
#     4  11  21  38  60  84 114 153 201 246 290 343
#     4   9  19  40  65  91 117 149 194 242 291 346
#     4   9  20  39  65  90 117 152 194 242 290 344
#     4  10  19  34  57  82 109 144 193 246 285 326
#
# _framework density 19.433945000000001
#
# number of rings (size 3 to 8) (size 9 to 14) (size 15 to 20)
#    0.000    1.733    1.333    5.200    1.867    1.867 
#    0.000    4.000    0.000    4.000    0.000    0.000 
#    0.000    0.000    0.000    0.000    0.000    0.000 
#
# Total GULP energy -167280.988455 kJ/mol
# GULP energy per Si atom -5576.032948 kJ/mol
# Density = 1.938971 g / cm^3
# Si number density = 19.433945 Si / 1000 Ang^3
#
#
#
# Elastic Constant Matrix: (Units=GPa)
#
#
# Indices 1 2 3 4 5 6 
#
# 1 62.4070 13.6434 -16.9477 0.0000 -17.2594 0.0000
# 2 13.6434 38.5433 8.8703 0.0000 -9.6909 0.0000
# 3 -16.9477 8.8703 34.3594 0.0000 -27.0024 0.0000
# 4 0.0000 0.0000 0.0000 20.5195 0.0000 -1.4950
# 5 -17.2594 -9.6909 -27.0024 0.0000 20.8731 0.0000
# 6 0.0000 0.0000 0.0000 -1.4950 0.0000 33.5926
#
#
#
# Elastic Compliance Matrix: (Units=1/GPa)
#
#
# Indices 1 2 3 4 5 6 
#
# 1 0.000628 -0.002806 -0.025094 0.000000 -0.033247 0.000000
# 2 -0.002806 0.029929 0.000851 0.000000 0.012676 0.000000
# 3 -0.025094 0.000851 -0.030633 0.000000 -0.059984 0.000000
# 4 0.000000 0.000000 0.000000 0.048893 0.000000 0.002176
# 5 -0.033247 0.012676 -0.059984 0.000000 -0.051295 0.000000
# 6 0.000000 0.000000 0.000000 0.002176 0.000000 0.029865
#
#
# Mechanical properties :
#
#
# Convention : Reuss Voigt Hill
#
# Bulk Modulus (GPa) = -18.45862 16.27130 -1.09366
# Shear Modulus (GPa) = 78.83101 23.64660 51.23880
#
# Velocity S-wave (km/s) = 6.37586 3.49200 5.14032
# Velocity P-wave (km/s) = 6.68456 4.96484 5.88783
#
# Compressibility (1/GPa) = -0.05417522
#
# Stress axis : x y z
#
# Youngs Moduli (GPa) = 1593.33444 33.41188 -32.64403
#
# Poissons Ratio (x) = 0.09376 -0.81918
# Poissons Ratio (y) = 4.47128 0.02779
# Poissons Ratio (z) = 39.98368 -0.02844
#
# Static dielectric constant tensor:
#      x y z
#    x 1.665020 0.000000 -0.000700 
#    y 0.000000 1.681640 0.000000 
#    z -0.000700 0.000000 1.674210 
# 
# From -- ./inp_files/58033.got.cif
#   From: 2010.05.17/outbox.cif.g08.bks.cpg/sg10_30_cif.got.tgz:58033.got - 2010.06.03 11:33:40.
