data_PCOD9147258
_publ_section_title
;
Structure prediction by ZEFSAII (Michael W. Deem and Ramdas Pophale) SiO2 
 PCOD9147258
Probable space group: P 2/M
;
_chemical_formula_sum "Si O2"
_cell_formula_units_Z 26
_cell_length_a 12.487224
_cell_length_b 21.089848
_cell_length_c 5.672963
_cell_angle_alpha 90.000000
_cell_angle_beta 126.488007
_cell_angle_gamma 90.000000
_cell_volume 1201.144556
_symmetry_space_group_name_H-M "P 2/M"
_symmetry_group_IT_number 10
_symmetry_cell_setting 'monoclinic'
loop_
_space_group_symop_operation_xyz
x,y,z
-x,y,-z
-x,-y,-z
x,-y,z
loop_
_atom_site_type_symbol
_atom_site_label
_atom_site_fract_x
_atom_site_fract_y
_atom_site_fract_z
Si Si1 0.650738 0.933004 0.098829
Si Si2 0.646054 0.428973 0.816788
Si Si3 0.866306 0.884732 0.699655
Si Si4 0.068956 0.746436 0.347265
Si Si5 0.500000 0.641841 0.000000
Si Si6 0.654666 0.180298 0.771663
Si Si7 0.696720 0.690473 0.607453
O O1 0.776695 0.932938 0.437255
O O2 0.660357 0.000000 0.967667
O O3 0.500000 0.934256 0.000000
O O4 0.663279 0.862446 0.012074
O O5 0.500000 0.432263 0.500000
O O6 0.701480 0.500000 0.891009
O O7 0.613566 0.402750 0.035227
O O8 0.724973 0.375921 0.772752
O O9 0.913990 0.822484 0.617850
O O10 0.758924 0.855320 0.739673
O O11 0.000000 0.909837 0.000000
O O12 0.206956 0.711300 0.477817
O O13 0.000000 0.725489 0.500000
O O14 0.000000 0.735471 0.000000
O O15 0.556191 0.682966 0.288411
O O16 0.500000 0.175566 0.500000
O O17 0.694857 0.253463 0.797653
#
# Coordination Sequence:
#
# PCOD9147258 Si02
#       7
#     4   4   4   4   2   4   4
#     4  11  25  44  68  96 131 177 223 276 349 425
#     4   9  18  34  56  90 135 175 214 268 341 407
#     4  10  24  42  65  95 130 170 222 285 348 412
#     4  10  24  42  66  94 133 178 221 282 350 410
#     4  10  19  34  58  94 131 168 220 276 343 414
#     4  11  22  40  63  95 128 170 217 281 339 408
#     4  10  23  37  62  96 131 165 223 282 337 407
#
# _framework density 21.646021000000001
#
# number of rings (size 3 to 8) (size 9 to 14) (size 15 to 20)
#    0.000    1.846    1.538    1.615    8.615    5.538 
#    1.385    0.769    0.000    0.923    0.000    0.000 
#    0.000    0.000    0.000    0.000    0.000    0.000 
#
# Total GULP energy -144850.575646 kJ/mol
# GULP energy per Si atom -5571.175986 kJ/mol
# Density = 2.159675 g / cm^3
# Si number density = 21.646021 Si / 1000 Ang^3
#
#
#
# Elastic Constant Matrix: (Units=GPa)
#
#
# Indices 1 2 3 4 5 6 
#
# 1 106.6377 29.6958 36.1076 0.0000 -4.9991 0.0000
# 2 29.6958 138.4855 56.1061 0.0000 -10.1806 0.0000
# 3 36.1076 56.1061 64.4166 0.0000 5.8486 0.0000
# 4 0.0000 0.0000 0.0000 16.5535 0.0000 9.9312
# 5 -4.9991 -10.1806 5.8486 0.0000 31.2737 0.0000
# 6 0.0000 0.0000 0.0000 9.9312 0.0000 -29.0810
#
#
#
# Elastic Compliance Matrix: (Units=1/GPa)
#
#
# Indices 1 2 3 4 5 6 
#
# 1 0.011940 0.000854 -0.007767 0.000000 0.003639 0.000000
# 2 0.000854 0.012252 -0.011724 0.000000 0.006317 0.000000
# 3 -0.007767 -0.011724 0.031076 0.000000 -0.010870 0.000000
# 4 0.000000 0.000000 0.000000 0.050138 0.000000 0.017122
# 5 0.003639 0.006317 -0.010870 0.000000 0.036647 0.000000
# 6 0.000000 0.000000 0.000000 0.017122 0.000000 -0.028539
#
#
# Mechanical properties :
#
#
# Convention : Reuss Voigt Hill
#
# Bulk Modulus (GPa) = 55.57273 61.48430 58.52851
# Shear Modulus (GPa) = 31.89086 16.25791 24.07438
#
# Velocity S-wave (km/s) = 3.84251 2.74356 3.33856
# Velocity P-wave (km/s) = 6.73911 6.20502 6.47757
#
# Compressibility (1/GPa) = 0.01799444
#
# Stress axis : x y z
#
# Youngs Moduli (GPa) = 83.74996 81.61956 32.17956
#
# Poissons Ratio (x) = -0.06970 0.24994
# Poissons Ratio (y) = -0.07151 0.37726
# Poissons Ratio (z) = 0.65049 0.95687
#
# Static dielectric constant tensor:
#      x y z
#    x 1.704410 0.000000 -0.126520 
#    y 0.000000 1.809300 0.000000 
#    z -0.126520 0.000000 1.783400 
# 
# From -- ./inp_files/7794.got.cif
#   From: 2010.05.17/outbox.cif.g08.bks.cpg/sg10_4_cif.got.tgz:7794.got - 2010.06.03 11:33:40.
