data_PCOD9147307
_publ_section_title
;
Structure prediction by ZEFSAII (Michael W. Deem and Ramdas Pophale) SiO2 
 PCOD9147307
Probable space group: P 2/M
;
_chemical_formula_sum "Si O2"
_cell_formula_units_Z 30
_cell_length_a 15.116686
_cell_length_b 18.358981
_cell_length_c 12.391892
_cell_angle_alpha 90.000000
_cell_angle_beta 29.243719
_cell_angle_gamma 90.000000
_cell_volume 1680.080549
_symmetry_space_group_name_H-M "P 2/M"
_symmetry_group_IT_number 10
_symmetry_cell_setting 'monoclinic'
loop_
_space_group_symop_operation_xyz
x,y,z
-x,y,-z
-x,-y,-z
x,-y,z
loop_
_atom_site_type_symbol
_atom_site_label
_atom_site_fract_x
_atom_site_fract_y
_atom_site_fract_z
Si Si1 0.733971 0.308245 0.475804
Si Si2 0.000000 0.864554 0.500000
Si Si3 0.550253 0.914282 0.684997
Si Si4 0.971646 0.585191 0.903043
Si Si5 0.870539 0.159783 0.240366
Si Si6 0.550468 0.417375 0.320143
Si Si7 0.125736 0.916358 0.137702
Si Si8 0.660074 0.797385 0.747005
O O1 0.898232 0.364546 0.304313
O O2 0.797979 0.242171 0.329635
O O3 0.564253 0.354563 0.614057
O O4 0.690665 0.269167 0.633667
O O5 0.082241 0.908825 0.311246
O O6 0.160464 0.816818 0.378691
O O7 0.689896 0.889764 0.442686
O O8 0.606648 0.866429 0.728566
O O9 0.570915 0.000000 0.684081
O O10 0.337527 0.900154 0.890303
O O11 0.018478 0.500000 0.842638
O O12 0.000000 0.603193 0.000000
O O13 0.764732 0.595090 0.088999
O O14 0.995424 0.136974 0.209598
O O15 0.000000 0.149972 0.000000
O O16 0.500000 0.416943 0.500000
O O17 0.510331 0.500000 0.322758
O O18 0.089531 0.000000 0.143013
O O19 0.500000 0.783048 0.000000
#
# Coordination Sequence:
#
# PCOD9147307 Si02
#       8
#     4   2   4   4   4   4   4   4
#     4  11  22  38  58  88 124 163 196 238 307 361
#     4  12  21  40  64  88 115 148 206 266 309 358
#     4  10  22  40  61  87 116 154 205 259 312 361
#     4  10  19  34  59  91 125 158 198 243 289 346
#     4  11  25  41  56  88 129 166 200 241 303 382
#     4  10  20  35  61  95 125 157 198 242 284 343
#     4  11  23  39  64  90 114 155 207 262 314 358
#     4  11  24  40  60  87 120 156 199 259 312 366
#
# _framework density 17.856286999999998
#
# number of rings (size 3 to 8) (size 9 to 14) (size 15 to 20)
#    0.000    1.333    5.333    1.400    0.000    5.600 
#    0.000    1.333    0.000    1.600    0.000    3.733 
#    0.000    0.000    0.000    0.000    0.000    0.000 
#
# Total GULP energy -167478.165174 kJ/mol
# GULP energy per Si atom -5582.605506 kJ/mol
# Density = 1.781565 g / cm^3
# Si number density = 17.856287 Si / 1000 Ang^3
#
#
#
# Elastic Constant Matrix: (Units=GPa)
#
#
# Indices 1 2 3 4 5 6 
#
# 1 56.1307 51.2910 30.8485 0.0000 -14.9291 0.0000
# 2 51.2910 118.8075 60.3274 0.0000 -16.7640 0.0000
# 3 30.8485 60.3274 148.2416 0.0000 -2.9625 0.0000
# 4 0.0000 0.0000 0.0000 26.4587 0.0000 -10.4069
# 5 -14.9291 -16.7640 -2.9625 0.0000 36.5200 0.0000
# 6 0.0000 0.0000 0.0000 -10.4069 0.0000 11.0736
#
#
#
# Elastic Compliance Matrix: (Units=1/GPa)
#
#
# Indices 1 2 3 4 5 6 
#
# 1 0.031307 -0.011659 -0.001624 0.000000 0.007315 0.000000
# 2 -0.011659 0.015755 -0.003942 0.000000 0.002146 0.000000
# 3 -0.001624 -0.003942 0.008653 0.000000 -0.001772 0.000000
# 4 0.000000 0.000000 0.000000 0.059958 0.000000 0.056349
# 5 0.007315 0.002146 -0.001772 0.000000 0.031214 0.000000
# 6 0.000000 0.000000 0.000000 0.056349 0.000000 0.143262
#
#
# Mechanical properties :
#
#
# Convention : Reuss Voigt Hill
#
# Bulk Modulus (GPa) = 47.02804 67.56817 57.29810
# Shear Modulus (GPa) = 15.07440 26.85800 20.96620
#
# Velocity S-wave (km/s) = 2.90868 3.88251 3.43032
# Velocity P-wave (km/s) = 6.13797 7.61713 6.91720
#
# Compressibility (1/GPa) = 0.02126391
#
# Stress axis : x y z
#
# Youngs Moduli (GPa) = 31.94125 63.47135 115.57088
#
# Poissons Ratio (x) = 0.74002 0.18769
# Poissons Ratio (y) = 0.37241 0.45564
# Poissons Ratio (z) = 0.05187 0.25023
#
# Static dielectric constant tensor:
#      x y z
#    x 1.444990 0.000000 -0.305690 
#    y 0.000000 1.601250 0.000000 
#    z -0.305690 0.000000 1.050170 
# 
# From -- ./inp_files/51879.got.cif
#   From: 2010.05.17/outbox.cif.g08.bks.cpg/sg10_26_cif.got.tgz:51879.got - 2010.06.03 11:33:40.
