data_PCOD9147990
_publ_section_title
;
Structure prediction by ZEFSAII (Michael W. Deem and Ramdas Pophale) SiO2 
 PCOD9147990
Probable space group: P 2/M
;
_chemical_formula_sum "Si O2"
_cell_formula_units_Z 28
_cell_length_a 18.851690
_cell_length_b 9.585155
_cell_length_c 23.110867
_cell_angle_alpha 90.000000
_cell_angle_beta 17.771772
_cell_angle_gamma 90.000000
_cell_volume 1274.639728
_symmetry_space_group_name_H-M "P 2/M"
_symmetry_group_IT_number 10
_symmetry_cell_setting 'monoclinic'
loop_
_space_group_symop_operation_xyz
x,y,z
-x,y,-z
-x,-y,-z
x,-y,z
loop_
_atom_site_type_symbol
_atom_site_label
_atom_site_fract_x
_atom_site_fract_y
_atom_site_fract_z
Si Si1 0.241386 0.154092 0.850439
Si Si2 0.203586 0.336791 0.470558
Si Si3 0.513444 0.167901 0.841167
Si Si4 0.060169 0.650958 0.077679
Si Si5 0.292313 0.341096 0.208168
Si Si6 0.036470 0.335878 0.225920
Si Si7 0.599382 0.655693 0.366016
O O1 0.403437 0.257909 0.689232
O O2 0.337098 0.000000 0.779241
O O3 0.200272 0.218519 0.945315
O O4 0.000000 0.145739 0.000000
O O5 0.274869 0.500000 0.412219
O O6 0.953537 0.326525 0.632679
O O7 0.144161 0.300250 0.583315
O O8 0.381220 0.238506 0.298462
O O9 0.673282 0.226613 0.769196
O O10 0.505121 0.000000 0.845110
O O11 0.262768 0.237547 0.049947
O O12 0.184005 0.500000 0.982943
O O13 0.952643 0.672573 0.224461
O O14 0.864914 0.638144 0.180196
O O15 0.304423 0.500000 0.223261
O O16 0.500000 0.328798 0.000000
O O17 0.101456 0.500000 0.185804
O O18 0.500000 0.729812 0.500000
O O19 0.499361 0.500000 0.437519
#
# Coordination Sequence:
#
# PCOD9147990 Si02
#       7
#     4   4   4   4   4   4   4
#     4   9  17  30  50  74 103 139 175 211 261 326
#     4  10  21  39  63  86 113 151 198 246 285 338
#     4  12  25  38  57  87 123 154 187 237 299 354
#     4   9  18  34  57  80 104 140 184 231 277 324
#     4  10  19  37  64  88 111 148 198 244 289 337
#     4  10  21  41  63  82 110 154 204 243 282 340
#     4   9  17  31  52  81 113 138 175 230 280 323
#
# _framework density 21.966992999999999
#
# number of rings (size 3 to 8) (size 9 to 14) (size 15 to 20)
#    0.000    2.143    1.429    2.143    0.000    5.714 
#    2.571    0.000    0.000    0.000    0.000    0.000 
#    0.000    0.000    0.000    0.000    0.000    0.000 
#
# Total GULP energy -156311.889692 kJ/mol
# GULP energy per Si atom -5582.567489 kJ/mol
# Density = 2.191699 g / cm^3
# Si number density = 21.966993 Si / 1000 Ang^3
#
#
#
# Elastic Constant Matrix: (Units=GPa)
#
#
# Indices 1 2 3 4 5 6 
#
# 1 98.0708 58.7550 41.6911 0.0000 18.4430 0.0000
# 2 58.7550 128.9692 57.4334 0.0000 34.4682 0.0000
# 3 41.6911 57.4334 84.1060 0.0000 24.1091 0.0000
# 4 0.0000 0.0000 0.0000 26.5417 0.0000 7.9193
# 5 18.4430 34.4682 24.1091 0.0000 48.5022 0.0000
# 6 0.0000 0.0000 0.0000 7.9193 0.0000 13.0397
#
#
#
# Elastic Compliance Matrix: (Units=1/GPa)
#
#
# Indices 1 2 3 4 5 6 
#
# 1 0.014885 -0.004990 -0.003924 0.000000 -0.000163 0.000000
# 2 -0.004990 0.013875 -0.005503 0.000000 -0.005227 0.000000
# 3 -0.003924 -0.005503 0.018710 0.000000 -0.003898 0.000000
# 4 0.000000 0.000000 0.000000 0.046015 0.000000 -0.027946
# 5 -0.000163 -0.005227 -0.003898 0.000000 0.026332 0.000000
# 6 0.000000 0.000000 0.000000 -0.027946 0.000000 0.093661
#
#
# Mechanical properties :
#
#
# Convention : Reuss Voigt Hill
#
# Bulk Modulus (GPa) = 53.65983 69.65610 61.65797
# Shear Modulus (GPa) = 20.11884 27.83448 23.97666
#
# Velocity S-wave (km/s) = 3.02961 3.56350 3.30735
# Velocity P-wave (km/s) = 6.05959 6.97923 6.53560
#
# Compressibility (1/GPa) = 0.01863591
#
# Stress axis : x y z
#
# Youngs Moduli (GPa) = 67.18049 72.07380 53.44825
#
# Poissons Ratio (x) = 0.35966 0.20974
# Poissons Ratio (y) = 0.33524 0.29410
# Poissons Ratio (z) = 0.26363 0.39659
#
# Static dielectric constant tensor:
#      x y z
#    x 1.849050 0.000000 -0.047440 
#    y 0.000000 1.767370 0.000000 
#    z -0.047440 0.000000 1.837790 
# 
# From -- ./inp_files/90369.got.cif
#   From: 2010.05.17/outbox.cif.g08.bks.cpg/sg10_46_cif.got.tgz:90369.got - 2010.06.03 11:33:40.
