data_PCOD9147700
_publ_section_title
;
Structure prediction by ZEFSAII (Michael W. Deem and Ramdas Pophale) SiO2 
 PCOD9147700
Probable space group: P 2/M
;
_chemical_formula_sum "Si O2"
_cell_formula_units_Z 24
_cell_length_a 11.030241
_cell_length_b 12.050844
_cell_length_c 16.893899
_cell_angle_alpha 90.000000
_cell_angle_beta 147.366691
_cell_angle_gamma 90.000000
_cell_volume 1210.963166
_symmetry_space_group_name_H-M "P 2/M"
_symmetry_group_IT_number 10
_symmetry_cell_setting 'monoclinic'
loop_
_space_group_symop_operation_xyz
x,y,z
-x,y,-z
-x,-y,-z
x,-y,z
loop_
_atom_site_type_symbol
_atom_site_label
_atom_site_fract_x
_atom_site_fract_y
_atom_site_fract_z
Si Si1 0.371238 0.877349 0.013044
Si Si2 0.528486 0.123423 0.383003
Si Si3 0.994222 0.622196 0.296842
Si Si4 0.462684 0.372279 0.864000
Si Si5 0.221713 0.297145 0.580426
Si Si6 0.858864 0.831197 0.709645
O O1 0.103349 0.882333 0.854234
O O2 0.435569 0.000000 0.085910
O O3 0.500000 0.877339 0.000000
O O4 0.417998 0.750647 0.071457
O O5 0.607904 0.206623 0.359482
O O6 0.299393 0.155902 0.301668
O O7 0.718513 0.124606 0.556866
O O8 0.506487 0.000000 0.339503
O O9 0.025449 0.500000 0.284424
O O10 0.129262 0.639219 0.452875
O O11 0.088266 0.705625 0.284687
O O12 0.733035 0.638913 0.176794
O O13 0.559618 0.500000 0.926344
O O14 0.336925 0.371712 0.710015
O O15 0.000000 0.244909 0.500000
#
# Coordination Sequence:
#
# PCOD9147700 Si02
#       6
#     4   4   4   4   4   4
#     4  11  22  35  54  83 117 149 183 227 275 328
#     4  10  20  35  58  80 108 146 184 229 282 333
#     4   9  17  32  56  82 110 143 182 231 280 328
#     4  10  20  36  57  82 112 149 189 228 274 329
#     4   9  19  35  54  82 109 139 184 235 277 322
#     4  10  19  36  54  82 112 145 183 227 278 333
#
# _framework density 19.818935
#
# number of rings (size 3 to 8) (size 9 to 14) (size 15 to 20)
#    0.000    2.167    1.667    2.500    0.000    4.000 
#    0.000    8.333    0.000    3.000    0.000    0.000 
#    0.000    0.000    0.000    0.000    0.000    0.000 
#
# Total GULP energy -133624.917107 kJ/mol
# GULP energy per Si atom -5567.704879 kJ/mol
# Density = 1.977383 g / cm^3
# Si number density = 19.818935 Si / 1000 Ang^3
#
#
#
# Elastic Constant Matrix: (Units=GPa)
#
#
# Indices 1 2 3 4 5 6 
#
# 1 72.4604 42.1788 22.6965 0.0000 16.2672 0.0000
# 2 42.1788 187.4193 41.0091 0.0000 12.1017 0.0000
# 3 22.6965 41.0091 59.1160 0.0000 15.3701 0.0000
# 4 0.0000 0.0000 0.0000 13.4839 0.0000 10.4629
# 5 16.2672 12.1017 15.3701 0.0000 24.6245 0.0000
# 6 0.0000 0.0000 0.0000 10.4629 0.0000 15.7523
#
#
#
# Elastic Compliance Matrix: (Units=1/GPa)
#
#
# Indices 1 2 3 4 5 6 
#
# 1 0.018390 -0.002976 -0.002647 0.000000 -0.009034 0.000000
# 2 -0.002976 0.006776 -0.003824 0.000000 0.001023 0.000000
# 3 -0.002647 -0.003824 0.023447 0.000000 -0.011007 0.000000
# 4 0.000000 0.000000 0.000000 0.153040 0.000000 -0.101652
# 5 -0.009034 0.001023 -0.011007 0.000000 0.052946 0.000000
# 6 0.000000 0.000000 0.000000 -0.101652 0.000000 0.131002
#
#
# Mechanical properties :
#
#
# Convention : Reuss Voigt Hill
#
# Bulk Modulus (GPa) = 33.64907 58.97382 46.31144
# Shear Modulus (GPa) = 12.06557 24.97954 18.52256
#
# Velocity S-wave (km/s) = 2.47004 3.55405 3.06042
# Velocity P-wave (km/s) = 5.01497 6.83100 5.99218
#
# Compressibility (1/GPa) = 0.02971850
#
# Stress axis : x y z
#
# Youngs Moduli (GPa) = 54.37635 147.57794 42.64992
#
# Poissons Ratio (x) = 0.43922 0.11291
# Poissons Ratio (y) = 0.16183 0.16309
# Poissons Ratio (z) = 0.14395 0.56432
#
# Static dielectric constant tensor:
#      x y z
#    x 1.637140 0.000000 -0.021490 
#    y 0.000000 1.743330 0.000000 
#    z -0.021490 0.000000 1.776910 
# 
# From -- ./inp_files/45903.got.cif
#   From: 2010.05.17/outbox.cif.g08.bks.cpg/sg10_23_cif.got.tgz:45903.got - 2010.06.03 11:33:40.
