data_PCOD9147998
_publ_section_title
;
Structure prediction by ZEFSAII (Michael W. Deem and Ramdas Pophale) SiO2 
 PCOD9147998
Probable space group: P 2/M
;
_chemical_formula_sum "Si O2"
_cell_formula_units_Z 32
_cell_length_a 12.177791
_cell_length_b 9.206600
_cell_length_c 22.390911
_cell_angle_alpha 90.000000
_cell_angle_beta 143.825595
_cell_angle_gamma 90.000000
_cell_volume 1481.739861
_symmetry_space_group_name_H-M "P 2/M"
_symmetry_group_IT_number 10
_symmetry_cell_setting 'monoclinic'
loop_
_space_group_symop_operation_xyz
x,y,z
-x,y,-z
-x,-y,-z
x,-y,z
loop_
_atom_site_type_symbol
_atom_site_label
_atom_site_fract_x
_atom_site_fract_y
_atom_site_fract_z
Si Si1 0.722070 0.671993 0.092095
Si Si2 0.086001 0.172838 0.934919
Si Si3 0.242082 0.669105 0.264117
Si Si4 0.918549 0.170988 0.559309
Si Si5 0.723651 0.167624 0.601515
Si Si6 0.620931 0.329237 0.861445
Si Si7 0.241386 0.669702 0.758017
Si Si8 0.609076 0.670330 0.355925
O O1 0.759871 0.500000 0.097343
O O2 0.806869 0.768629 0.077182
O O3 0.797576 0.712503 0.190850
O O4 0.500000 0.687173 0.000000
O O5 0.882307 0.241060 0.836949
O O6 0.080448 0.000000 0.934611
O O7 0.201886 0.237830 0.041038
O O8 0.193480 0.500000 0.237892
O O9 0.209850 0.728428 0.316340
O O10 0.459133 0.684142 0.343432
O O11 0.812425 0.197397 0.576051
O O12 0.792983 0.243338 0.453392
O O13 0.119479 0.240679 0.658086
O O14 0.931793 0.000000 0.555328
O O15 0.500000 0.179264 0.500000
O O16 0.768714 0.000000 0.637327
O O17 0.670708 0.500000 0.876771
O O18 0.460884 0.317590 0.841746
O O19 0.509420 0.282257 0.753583
O O20 0.194072 0.500000 0.730328
O O21 0.654086 0.500000 0.367234
#
# Coordination Sequence:
#
# PCOD9147998 Si02
#       8
#     4   4   4   4   4   4   4   4
#     4  10  19  37  64  92 120 156 198 243 295 350
#     4  12  25  39  60  91 125 160 194 240 300 363
#     4  11  23  39  62  91 120 155 199 250 297 351
#     4  11  23  38  60  88 124 159 192 240 297 358
#     4  10  20  37  60  88 122 160 193 234 298 362
#     4  10  22  44  66  85 114 156 204 253 296 346
#     4  10  21  38  63  89 118 155 197 243 292 349
#     4  10  23  42  65  88 113 152 206 255 297 345
#
# _framework density 21.596233000000002
#
# number of rings (size 3 to 8) (size 9 to 14) (size 15 to 20)
#    0.000    1.500    2.500    2.625    0.000    6.500 
#    0.000    5.000    0.000    0.000    0.000    0.000 
#    0.000    0.000    0.000    0.000    0.000    0.000 
#
# Total GULP energy -179006.922491 kJ/mol
# GULP energy per Si atom -5593.966328 kJ/mol
# Density = 2.154708 g / cm^3
# Si number density = 21.596233 Si / 1000 Ang^3
#
#
#
# Elastic Constant Matrix: (Units=GPa)
#
#
# Indices 1 2 3 4 5 6 
#
# 1 27.2337 4.1409 -3.1393 0.0000 -5.6017 0.0000
# 2 4.1409 95.0389 84.1395 0.0000 -7.1947 0.0000
# 3 -3.1393 84.1395 148.0649 0.0000 -6.8436 0.0000
# 4 0.0000 0.0000 0.0000 8.0067 0.0000 12.7386
# 5 -5.6017 -7.1947 -6.8436 0.0000 35.0786 0.0000
# 6 0.0000 0.0000 0.0000 12.7386 0.0000 3.4271
#
#
#
# Elastic Compliance Matrix: (Units=1/GPa)
#
#
# Indices 1 2 3 4 5 6 
#
# 1 0.039062 -0.004478 0.003652 0.000000 0.006032 0.000000
# 2 -0.004478 0.021830 -0.012439 0.000000 0.001336 0.000000
# 3 0.003652 -0.012439 0.013934 0.000000 0.000750 0.000000
# 4 0.000000 0.000000 0.000000 -0.025417 0.000000 0.094477
# 5 0.006032 0.001336 0.000750 0.000000 0.029891 0.000000
# 6 0.000000 0.000000 0.000000 0.094477 0.000000 -0.059383
#
#
# Mechanical properties :
#
#
# Convention : Reuss Voigt Hill
#
# Bulk Modulus (GPa) = 20.70556 48.95775 34.83166
# Shear Modulus (GPa) = 79.94054 21.64891 50.79472
#
# Velocity S-wave (km/s) = 6.09068 3.16957 4.85502
# Velocity P-wave (km/s) = 7.68571 6.00946 6.89869
#
# Compressibility (1/GPa) = 0.04829620
#
# Stress axis : x y z
#
# Youngs Moduli (GPa) = 25.60047 45.80797 71.76572
#
# Poissons Ratio (x) = 0.20515 -0.26208
# Poissons Ratio (y) = 0.11465 0.89266
# Poissons Ratio (z) = -0.09349 0.56978
#
# Static dielectric constant tensor:
#      x y z
#    x 1.827090 0.000000 -0.015390 
#    y 0.000000 1.716700 0.000000 
#    z -0.015390 0.000000 1.778270 
# 
# From -- ./inp_files/71405.got.cif
#   From: 2010.05.17/outbox.cif.g08.bks.cpg/sg10_36_cif.got.tgz:71405.got - 2010.06.03 11:33:40.
