data_PCOD9147949
_publ_section_title
;
Structure prediction by ZEFSAII (Michael W. Deem and Ramdas Pophale) SiO2 
 PCOD9147949
Probable space group: P 2/M
;
_chemical_formula_sum "Si O2"
_cell_formula_units_Z 30
_cell_length_a 27.662639
_cell_length_b 9.438146
_cell_length_c 11.681236
_cell_angle_alpha 90.000000
_cell_angle_beta 147.433755
_cell_angle_gamma 90.000000
_cell_volume 1641.620633
_symmetry_space_group_name_H-M "P 2/M"
_symmetry_group_IT_number 10
_symmetry_cell_setting 'monoclinic'
loop_
_space_group_symop_operation_xyz
x,y,z
-x,y,-z
-x,-y,-z
x,-y,z
loop_
_atom_site_type_symbol
_atom_site_label
_atom_site_fract_x
_atom_site_fract_y
_atom_site_fract_z
Si Si1 0.174143 0.670823 0.108937
Si Si2 0.836626 0.828291 0.430539
Si Si3 0.359084 0.168279 0.030072
Si Si4 0.005658 0.665069 0.375237
Si Si5 0.500000 0.728581 0.500000
Si Si6 0.499845 0.829151 0.130125
Si Si7 0.108122 0.670449 0.228300
Si Si8 0.627586 0.661017 0.545713
O O1 0.171632 0.500000 0.102832
O O2 0.157694 0.711668 0.208461
O O3 0.268892 0.709528 0.240267
O O4 0.088202 0.716394 0.865051
O O5 0.743097 0.781049 0.183367
O O6 0.916694 0.765500 0.515037
O O7 0.851127 0.757509 0.584358
O O8 0.839316 0.000000 0.444177
O O9 0.352952 0.000000 0.011825
O O10 0.425459 0.198361 0.268925
O O11 0.411219 0.218842 0.020860
O O12 0.021354 0.500000 0.369574
O O13 0.000000 0.665795 0.500000
O O14 0.567172 0.659672 0.540241
O O15 0.580866 0.764110 0.362795
O O16 0.504235 0.000000 0.142440
O O17 0.500000 0.783078 0.000000
O O18 0.118453 0.500000 0.266325
O O19 0.000000 0.695978 0.000000
O O20 0.627812 0.500000 0.501814
#
# Coordination Sequence:
#
# PCOD9147949 Si02
#       8
#     4   4   4   4   2   4   4   4
#     4   9  19  36  57  83 114 148 188 235 281 335
#     4  11  23  37  57  88 122 148 184 242 295 334
#     4   9  20  37  57  82 112 149 188 231 283 342
#     4  10  21  39  62  84 112 155 198 229 271 339
#     4  10  20  38  62  80 109 150 193 236 283 354
#     4   9  19  37  58  78 107 148 190 227 271 336
#     4  10  19  37  61  81 112 155 200 235 274 343
#     4  10  21  36  56  85 115 142 181 238 295 330
#
# _framework density 18.274625
#
# number of rings (size 3 to 8) (size 9 to 14) (size 15 to 20)
#    0.000    2.267    1.333    0.800    3.733    1.333 
#    0.000    6.667    0.000    0.000    0.000    0.000 
#    0.000    0.000    0.000    0.000    0.000    0.000 
#
# Total GULP energy -167025.062777 kJ/mol
# GULP energy per Si atom -5567.502093 kJ/mol
# Density = 1.823303 g / cm^3
# Si number density = 18.274625 Si / 1000 Ang^3
#
#
#
# Elastic Constant Matrix: (Units=GPa)
#
#
# Indices 1 2 3 4 5 6 
#
# 1 110.2572 27.0297 76.7470 0.0000 8.4182 0.0000
# 2 27.0297 32.5167 35.3587 0.0000 4.1189 0.0000
# 3 76.7470 35.3587 145.8439 0.0000 21.0403 0.0000
# 4 0.0000 0.0000 0.0000 51.5429 0.0000 -11.2317
# 5 8.4182 4.1189 21.0403 0.0000 37.4758 0.0000
# 6 0.0000 0.0000 0.0000 -11.2317 0.0000 28.8929
#
#
#
# Elastic Compliance Matrix: (Units=1/GPa)
#
#
# Indices 1 2 3 4 5 6 
#
# 1 0.014981 -0.005229 -0.006761 0.000000 0.001005 0.000000
# 2 -0.005229 0.043637 -0.007950 0.000000 0.000841 0.000000
# 3 -0.006761 -0.007950 0.013054 0.000000 -0.004936 0.000000
# 4 0.000000 0.000000 0.000000 0.021197 0.000000 0.008240
# 5 0.001005 0.000841 -0.004936 0.000000 0.029137 0.000000
# 6 0.000000 0.000000 0.000000 0.008240 0.000000 0.037814
#
#
# Mechanical properties :
#
#
# Convention : Reuss Voigt Hill
#
# Bulk Modulus (GPa) = 31.45209 62.98763 47.21986
# Shear Modulus (GPa) = 23.77612 33.54783 28.66197
#
# Velocity S-wave (km/s) = 3.61091 4.28923 3.96460
# Velocity P-wave (km/s) = 5.88499 7.68583 6.84489
#
# Compressibility (1/GPa) = 0.03179439
#
# Stress axis : x y z
#
# Youngs Moduli (GPa) = 66.75295 22.91609 76.60653
#
# Poissons Ratio (x) = 0.11982 0.51791
# Poissons Ratio (y) = 0.34902 0.60899
# Poissons Ratio (z) = 0.45129 0.18217
#
# Static dielectric constant tensor:
#      x y z
#    x 1.652970 0.000000 0.022830 
#    y 0.000000 1.616300 0.000000 
#    z 0.022830 0.000000 1.664030 
# 
# From -- ./inp_files/58029.got.cif
#   From: 2010.05.17/outbox.cif.g08.bks.cpg/sg10_30_cif.got.tgz:58029.got - 2010.06.03 11:33:40.
