data_PCOD9147613
_publ_section_title
;
Structure prediction by ZEFSAII (Michael W. Deem and Ramdas Pophale) SiO2 
 PCOD9147613
Probable space group: P 2/M
;
_chemical_formula_sum "Si O2"
_cell_formula_units_Z 28
_cell_length_a 17.298026
_cell_length_b 8.026747
_cell_length_c 12.155435
_cell_angle_alpha 90.000000
_cell_angle_beta 134.544927
_cell_angle_gamma 90.000000
_cell_volume 1202.856358
_symmetry_space_group_name_H-M "P 2/M"
_symmetry_group_IT_number 10
_symmetry_cell_setting 'monoclinic'
loop_
_space_group_symop_operation_xyz
x,y,z
-x,y,-z
-x,-y,-z
x,-y,z
loop_
_atom_site_type_symbol
_atom_site_label
_atom_site_fract_x
_atom_site_fract_y
_atom_site_fract_z
Si Si1 0.401603 0.310755 0.585494
Si Si2 0.838348 0.700888 0.667740
Si Si3 0.142676 0.700227 0.070639
Si Si4 0.035140 0.810414 0.739115
Si Si5 0.600419 0.190523 0.181391
Si Si6 0.753465 0.304953 0.155625
Si Si7 0.364040 0.298588 0.186703
O O1 0.396850 0.500000 0.535334
O O2 0.283872 0.231348 0.451652
O O3 0.409161 0.311457 0.725478
O O4 0.516618 0.233616 0.665539
O O5 0.832972 0.500000 0.659348
O O6 0.888317 0.745606 0.836590
O O7 0.912637 0.752998 0.639851
O O8 0.124377 0.500000 0.037462
O O9 0.271217 0.731976 0.183217
O O10 0.087515 0.789279 0.913097
O O11 0.119381 0.715754 0.744655
O O12 0.035593 0.000000 0.704252
O O13 0.708634 0.215372 0.218223
O O14 0.593628 0.000000 0.214485
O O15 0.500000 0.220670 0.000000
O O16 0.730047 0.500000 0.144553
O O17 0.685516 0.241900 0.980413
O O18 0.374086 0.500000 0.187742
#
# Coordination Sequence:
#
# PCOD9147613 Si02
#       7
#     4   4   4   4   4   4   4
#     4  10  20  35  55  81 112 148 188 227 272 327
#     4  10  21  36  55  79 111 149 190 233 273 319
#     4   9  18  34  56  82 110 144 187 233 275 319
#     4  11  22  36  56  81 111 145 186 230 277 331
#     4  11  22  35  55  85 117 147 179 218 270 330
#     4  10  19  35  60  85 109 139 182 232 276 319
#     4   8  15  29  52  82 109 137 175 223 274 318
#
# _framework density 23.277925
#
# number of rings (size 3 to 8) (size 9 to 14) (size 15 to 20)
#    0.000    2.143    1.429    3.429    0.000    4.000 
#    0.000    3.571    0.000    4.286    0.000    4.000 
#    0.000    0.000    0.000    0.000    0.000    0.000 
#
# Total GULP energy -156350.113913 kJ/mol
# GULP energy per Si atom -5583.932640 kJ/mol
# Density = 2.322494 g / cm^3
# Si number density = 23.277925 Si / 1000 Ang^3
#
#
#
# Elastic Constant Matrix: (Units=GPa)
#
#
# Indices 1 2 3 4 5 6 
#
# 1 85.0233 -9.8254 -4.6767 0.0000 24.3632 0.0000
# 2 -9.8254 28.7906 0.9639 0.0000 -5.8385 0.0000
# 3 -4.6767 0.9639 36.3276 0.0000 20.9523 0.0000
# 4 0.0000 0.0000 0.0000 34.1617 0.0000 -11.5859
# 5 24.3632 -5.8385 20.9523 0.0000 33.6420 0.0000
# 6 0.0000 0.0000 0.0000 -11.5859 0.0000 14.3504
#
#
#
# Elastic Compliance Matrix: (Units=1/GPa)
#
#
# Indices 1 2 3 4 5 6 
#
# 1 0.019861 0.001238 0.016692 0.000000 -0.024564 0.000000
# 2 0.001238 0.037296 -0.006315 0.000000 0.009509 0.000000
# 3 0.016692 -0.006315 0.058439 0.000000 -0.049580 0.000000
# 4 0.000000 0.000000 0.000000 0.040310 0.000000 0.032545
# 5 -0.024564 0.009509 -0.049580 0.000000 0.080042 0.000000
# 6 0.000000 0.000000 0.000000 0.032545 0.000000 0.095960
#
#
# Mechanical properties :
#
#
# Convention : Reuss Voigt Hill
#
# Bulk Modulus (GPa) = 7.20325 13.67390 10.43857
# Shear Modulus (GPa) = 14.08633 27.34281 20.71457
#
# Velocity S-wave (km/s) = 2.46262 3.43100 2.98632
# Velocity P-wave (km/s) = 3.34472 4.64571 4.04783
#
# Compressibility (1/GPa) = 0.13882631
#
# Stress axis : x y z
#
# Youngs Moduli (GPa) = 50.34877 26.81275 17.11182
#
# Poissons Ratio (x) = -0.03319 -0.28562
# Poissons Ratio (y) = -0.06233 0.10805
# Poissons Ratio (z) = -0.84040 0.16931
#
# Static dielectric constant tensor:
#      x y z
#    x 1.868890 0.000000 0.062800 
#    y 0.000000 1.848760 0.000000 
#    z 0.062800 0.000000 1.945750 
# 
# From -- ./inp_files/68578.got.cif
#   From: 2010.05.17/outbox.cif.g08.bks.cpg/sg10_35_cif.got.tgz:68578.got - 2010.06.03 11:33:40.
