data_PCOD9147261
_publ_section_title
;
Structure prediction by ZEFSAII (Michael W. Deem and Ramdas Pophale) SiO2 
 PCOD9147261
Probable space group: P 2/M
;
_chemical_formula_sum "Si O2"
_cell_formula_units_Z 32
_cell_length_a 10.750695
_cell_length_b 16.064573
_cell_length_c 8.641736
_cell_angle_alpha 90.000000
_cell_angle_beta 87.092528
_cell_angle_gamma 90.000000
_cell_volume 1490.552636
_symmetry_space_group_name_H-M "P 2/M"
_symmetry_group_IT_number 10
_symmetry_cell_setting 'monoclinic'
loop_
_space_group_symop_operation_xyz
x,y,z
-x,y,-z
-x,-y,-z
x,-y,z
loop_
_atom_site_type_symbol
_atom_site_label
_atom_site_fract_x
_atom_site_fract_y
_atom_site_fract_z
Si Si1 0.262270 0.088288 0.187527
Si Si2 0.251672 0.731835 0.196798
Si Si3 0.871800 0.406821 0.599252
Si Si4 0.526829 0.725493 0.314705
Si Si5 0.738766 0.595386 0.293012
Si Si6 0.875542 0.089631 0.114877
Si Si7 0.534350 0.090507 0.314620
Si Si8 0.874627 0.270580 0.108346
O O1 0.210461 0.175329 0.252884
O O2 0.234840 0.088900 0.006134
O O3 0.407067 0.089069 0.223321
O O4 0.209996 0.000000 0.250281
O O5 0.165127 0.662722 0.277612
O O6 0.394636 0.720568 0.236793
O O7 0.233387 0.729497 0.014690
O O8 0.879410 0.500000 0.666590
O O9 0.764905 0.406261 0.474635
O O10 0.000000 0.391849 0.500000
O O11 0.500000 0.722091 0.500000
O O12 0.616055 0.649250 0.268947
O O13 0.587710 0.817243 0.280691
O O14 0.734564 0.500000 0.238573
O O15 0.850352 0.649601 0.213616
O O16 0.876159 0.000000 0.198555
O O17 0.875203 0.180373 0.192920
O O18 0.000000 0.090132 0.000000
O O19 0.500000 0.090754 0.500000
O O20 0.597270 0.000000 0.282774
O O21 0.000000 0.276274 0.000000
#
# Coordination Sequence:
#
# PCOD9147261 Si02
#       8
#     4   4   4   4   4   4   4   4
#     4   8  14  25  45  75 104 134 174 212 255 312
#     4  10  19  34  59  82 105 145 183 218 268 324
#     4  10  21  37  57  80 104 137 184 229 269 319
#     4  10  19  35  56  80 111 144 181 220 267 329
#     4  11  24  39  56  80 112 144 178 229 280 322
#     4   8  14  27  49  75 103 138 177 214 258 315
#     4   8  14  25  45  73 104 137 172 212 260 313
#     4  10  21  37  57  82 112 145 182 225 273 321
#
# _framework density 21.468547000000001
#
# number of rings (size 3 to 8) (size 9 to 14) (size 15 to 20)
#    0.000    2.625    1.250    0.750    0.000    2.000 
#    0.000    1.250    0.000    1.125    0.000    8.750 
#    0.000    0.000    0.000    0.000    0.000    0.000 
#
# Total GULP energy -178308.204945 kJ/mol
# GULP energy per Si atom -5572.131405 kJ/mol
# Density = 2.141968 g / cm^3
# Si number density = 21.468547 Si / 1000 Ang^3
#
#
#
# Elastic Constant Matrix: (Units=GPa)
#
#
# Indices 1 2 3 4 5 6 
#
# 1 59.8701 31.8323 10.3332 0.0000 2.7445 0.0000
# 2 31.8323 253.0934 28.9285 0.0000 -29.0886 0.0000
# 3 10.3332 28.9285 25.6773 0.0000 5.2293 0.0000
# 4 0.0000 0.0000 0.0000 -32.0109 0.0000 46.3206
# 5 2.7445 -29.0886 5.2293 0.0000 28.4556 0.0000
# 6 0.0000 0.0000 0.0000 46.3206 0.0000 -23.6524
#
#
#
# Elastic Compliance Matrix: (Units=1/GPa)
#
#
# Indices 1 2 3 4 5 6 
#
# 1 0.018802 -0.002246 -0.004362 0.000000 -0.003308 0.000000
# 2 -0.002246 0.005956 -0.007365 0.000000 0.007658 0.000000
# 3 -0.004362 -0.007365 0.052407 0.000000 -0.016740 0.000000
# 4 0.000000 0.000000 0.000000 0.017035 0.000000 0.033361
# 5 -0.003308 0.007658 -0.016740 0.000000 0.046367 0.000000
# 6 0.000000 0.000000 0.000000 0.033361 0.000000 0.023055
#
#
# Mechanical properties :
#
#
# Convention : Reuss Voigt Hill
#
# Bulk Modulus (GPa) = 20.31792 53.42541 36.87166
# Shear Modulus (GPa) = 24.04144 12.39490 18.21817
#
# Velocity S-wave (km/s) = 3.35004 2.40542 2.91623
# Velocity P-wave (km/s) = 4.94452 5.71439 5.34334
#
# Compressibility (1/GPa) = 0.04921765
#
# Stress axis : x y z
#
# Youngs Moduli (GPa) = 53.18668 167.90575 19.08128
#
# Poissons Ratio (x) = 0.37719 0.08323
# Poissons Ratio (y) = 0.11948 0.14054
# Poissons Ratio (z) = 0.23198 1.23671
#
# Static dielectric constant tensor:
#      x y z
#    x 1.823540 0.000000 0.016810 
#    y 0.000000 1.840730 0.000000 
#    z 0.016810 0.000000 1.827250 
# 
# From -- ./inp_files/25349.got.cif
#   From: 2010.05.17/outbox.cif.g08.bks.cpg/sg10_13_cif.got.tgz:25349.got - 2010.06.03 11:33:40.
