data_PCOD9147570
_publ_section_title
;
Structure prediction by ZEFSAII (Michael W. Deem and Ramdas Pophale) SiO2 
 PCOD9147570
Probable space group: P 2/M
;
_chemical_formula_sum "Si O2"
_cell_formula_units_Z 28
_cell_length_a 20.566063
_cell_length_b 15.705299
_cell_length_c 9.312990
_cell_angle_alpha 90.000000
_cell_angle_beta 28.388374
_cell_angle_gamma 90.000000
_cell_volume 1430.169259
_symmetry_space_group_name_H-M "P 2/M"
_symmetry_group_IT_number 10
_symmetry_cell_setting 'monoclinic'
loop_
_space_group_symop_operation_xyz
x,y,z
-x,y,-z
-x,-y,-z
x,-y,z
loop_
_atom_site_type_symbol
_atom_site_label
_atom_site_fract_x
_atom_site_fract_y
_atom_site_fract_z
Si Si1 0.192291 0.905652 0.289972
Si Si2 0.774241 0.595616 0.796189
Si Si3 0.493243 0.347709 0.847451
Si Si4 0.357494 0.138302 0.703917
Si Si5 0.520030 0.858453 0.124002
Si Si6 0.732442 0.676612 0.180741
Si Si7 0.019142 0.742110 0.635524
O O1 0.087713 0.831961 0.538566
O O2 0.139604 0.000000 0.418770
O O3 0.233758 0.896633 0.039889
O O4 0.337513 0.892060 0.088115
O O5 0.823982 0.500000 0.677284
O O6 0.875493 0.666693 0.537198
O O7 0.628652 0.609276 0.003618
O O8 0.762847 0.614817 0.988806
O O9 0.471258 0.244864 0.887682
O O10 0.634193 0.363060 0.489604
O O11 0.500000 0.374481 0.000000
O O12 0.500000 0.112268 0.500000
O O13 0.389405 0.116890 0.476759
O O14 0.341942 0.240523 0.743106
O O15 0.500000 0.885525 0.000000
O O16 0.870247 0.716302 0.980879
O O17 0.000000 0.743683 0.500000
#
# Coordination Sequence:
#
# PCOD9147570 Si02
#       7
#     4   4   4   4   4   4   4
#     4  11  20  33  56  83 114 152 189 236 292 341
#     4  11  21  36  61  89 118 150 187 237 290 339
#     4  10  20  37  61  85 112 149 196 238 286 339
#     4   9  16  31  53  79 111 141 186 240 286 332
#     4   9  18  33  56  80 110 148 192 239 285 337
#     4  10  19  35  59  83 114 151 190 237 279 338
#     4  10  20  37  56  83 120 150 191 233 281 342
#
# _framework density 19.578101
#
# number of rings (size 3 to 8) (size 9 to 14) (size 15 to 20)
#    0.000    2.000    4.286    2.143    0.000    7.143 
#    0.000    0.714    0.000    0.857    0.000    9.000 
#    0.000    0.000    0.000    0.000    0.000    0.000 
#
# Total GULP energy -156184.189065 kJ/mol
# GULP energy per Si atom -5578.006752 kJ/mol
# Density = 1.953354 g / cm^3
# Si number density = 19.578101 Si / 1000 Ang^3
#
#
#
# Elastic Constant Matrix: (Units=GPa)
#
#
# Indices 1 2 3 4 5 6 
#
# 1 60.9102 25.2168 37.6460 0.0000 1.4778 0.0000
# 2 25.2168 102.3431 23.4863 0.0000 -7.8399 0.0000
# 3 37.6460 23.4863 55.3524 0.0000 -15.4001 0.0000
# 4 0.0000 0.0000 0.0000 -1.9085 0.0000 3.5151
# 5 1.4778 -7.8399 -15.4001 0.0000 29.5900 0.0000
# 6 0.0000 0.0000 0.0000 3.5151 0.0000 1.2409
#
#
#
# Elastic Compliance Matrix: (Units=1/GPa)
#
#
# Indices 1 2 3 4 5 6 
#
# 1 0.034955 -0.003734 -0.026836 0.000000 -0.016702 0.000000
# 2 -0.003734 0.011232 -0.001575 0.000000 0.002343 0.000000
# 3 -0.026836 -0.001575 0.043548 0.000000 0.023588 0.000000
# 4 0.000000 0.000000 0.000000 -0.084273 0.000000 0.238729
# 5 -0.016702 0.002343 0.023588 0.000000 0.047526 0.000000
# 6 0.000000 0.000000 0.000000 0.238729 0.000000 0.129617
#
#
# Mechanical properties :
#
#
# Convention : Reuss Voigt Hill
#
# Bulk Modulus (GPa) = 39.29781 43.47822 41.38801
# Shear Modulus (GPa) = 19.57903 14.60158 17.09031
#
# Velocity S-wave (km/s) = 3.16578 2.73392 2.95774
# Velocity P-wave (km/s) = 5.78609 5.67640 5.73151
#
# Compressibility (1/GPa) = 0.02544671
#
# Stress axis : x y z
#
# Youngs Moduli (GPa) = 28.60854 89.03283 22.96308
#
# Poissons Ratio (x) = 0.33242 0.61623
# Poissons Ratio (y) = 0.10681 0.03616
# Poissons Ratio (z) = 0.76773 0.14019
#
# Static dielectric constant tensor:
#      x y z
#    x 1.690170 0.000000 -0.003520 
#    y 0.000000 1.712670 0.000000 
#    z -0.003520 0.000000 1.710690 
# 
# From -- ./inp_files/35222.got.cif
#   From: 2010.05.17/outbox.cif.g08.bks.cpg/sg10_18_cif.got.tgz:35222.got - 2010.06.03 11:33:40.
