data_PCOD9147288
_publ_section_title
;
Structure prediction by ZEFSAII (Michael W. Deem and Ramdas Pophale) SiO2 
 PCOD9147288
Probable space group: P 2/M
;
_chemical_formula_sum "Si O2"
_cell_formula_units_Z 32
_cell_length_a 14.302394
_cell_length_b 12.407044
_cell_length_c 14.907120
_cell_angle_alpha 90.000000
_cell_angle_beta 138.617924
_cell_angle_gamma 90.000000
_cell_volume 1748.730840
_symmetry_space_group_name_H-M "P 2/M"
_symmetry_group_IT_number 10
_symmetry_cell_setting 'monoclinic'
loop_
_space_group_symop_operation_xyz
x,y,z
-x,y,-z
-x,-y,-z
x,-y,z
loop_
_atom_site_type_symbol
_atom_site_label
_atom_site_fract_x
_atom_site_fract_y
_atom_site_fract_z
Si Si1 0.171379 0.129166 0.391389
Si Si2 0.355647 0.241238 0.679970
Si Si3 0.130104 0.245140 0.832537
Si Si4 0.482318 0.375314 0.346815
Si Si5 0.279726 0.693904 0.343620
Si Si6 0.022178 0.377094 0.915894
Si Si7 0.851631 0.373362 0.339812
Si Si8 0.428041 0.127451 0.040440
O O1 0.252884 0.180021 0.535779
O O2 0.243773 0.188443 0.357689
O O3 0.008374 0.168854 0.275476
O O4 0.181498 0.000000 0.396733
O O5 0.454808 0.324541 0.697389
O O6 0.262256 0.305115 0.685546
O O7 0.461852 0.158839 0.803395
O O8 0.116654 0.310507 0.915667
O O9 0.130805 0.324019 0.746825
O O10 0.275675 0.180892 0.939473
O O11 0.442987 0.500000 0.309194
O O12 0.610552 0.362452 0.510166
O O13 0.352804 0.310883 0.299000
O O14 0.134564 0.628588 0.238743
O O15 0.071975 0.500000 0.959904
O O16 0.000000 0.331639 0.000000
O O17 0.813574 0.500000 0.307923
O O18 0.000000 0.364977 0.500000
O O19 0.409790 0.000000 0.023443
O O20 0.500000 0.165330 0.000000
#
# Coordination Sequence:
#
# PCOD9147288 Si02
#       8
#     4   4   4   4   4   4   4   4
#     4  10  21  39  63  87 114 150 205 256 296 341
#     4  11  22  39  59  92 120 153 197 247 295 360
#     4  11  22  41  62  89 118 158 202 247 296 357
#     4  10  19  34  59  86 116 154 188 235 294 360
#     4   9  19  35  56  83 117 147 196 239 289 349
#     4  10  21  36  58  85 117 155 193 238 291 352
#     4  11  22  39  62  93 126 158 195 245 306 358
#     4  11  24  42  62  82 119 162 198 245 299 348
#
# _framework density 18.298985999999999
#
# number of rings (size 3 to 8) (size 9 to 14) (size 15 to 20)
#    0.000    1.625    2.500    3.000    1.750    0.000 
#    0.000    8.750    0.000    1.875    0.000    0.000 
#    0.000    0.000    0.000    0.000    0.000    0.000 
#
# Total GULP energy -178620.036080 kJ/mol
# GULP energy per Si atom -5581.876127 kJ/mol
# Density = 1.825734 g / cm^3
# Si number density = 18.298986 Si / 1000 Ang^3
#
#
#
# Elastic Constant Matrix: (Units=GPa)
#
#
# Indices 1 2 3 4 5 6 
#
# 1 154.0235 72.3728 40.5580 0.0000 -3.4295 0.0000
# 2 72.3728 117.7044 28.2973 0.0000 -2.2472 0.0000
# 3 40.5580 28.2973 58.6649 0.0000 7.6656 0.0000
# 4 0.0000 0.0000 0.0000 14.5888 0.0000 -1.7404
# 5 -3.4295 -2.2472 7.6656 0.0000 35.1485 0.0000
# 6 0.0000 0.0000 0.0000 -1.7404 0.0000 16.4483
#
#
#
# Elastic Compliance Matrix: (Units=1/GPa)
#
#
# Indices 1 2 3 4 5 6 
#
# 1 0.010182 -0.005069 -0.004819 0.000000 0.001720 0.000000
# 2 -0.005069 0.012230 -0.002504 0.000000 0.000833 0.000000
# 3 -0.004819 -0.002504 0.022303 0.000000 -0.005494 0.000000
# 4 0.000000 0.000000 0.000000 0.069422 0.000000 0.007346
# 5 0.001720 0.000833 -0.005494 0.000000 0.029870 0.000000
# 6 0.000000 0.000000 0.000000 0.007346 0.000000 0.061574
#
#
# Mechanical properties :
#
#
# Convention : Reuss Voigt Hill
#
# Bulk Modulus (GPa) = 50.17084 68.09432 59.13258
# Shear Modulus (GPa) = 21.09629 25.84809 23.47219
#
# Velocity S-wave (km/s) = 3.39907 3.76246 3.58537
# Velocity P-wave (km/s) = 6.54841 7.49451 7.03738
#
# Compressibility (1/GPa) = 0.01993190
#
# Stress axis : x y z
#
# Youngs Moduli (GPa) = 98.21700 81.76284 44.83678
#
# Poissons Ratio (x) = 0.41446 0.21606
# Poissons Ratio (y) = 0.49786 0.11227
# Poissons Ratio (z) = 0.47328 0.20472
#
# Static dielectric constant tensor:
#      x y z
#    x 1.633060 0.000000 -0.010600 
#    y 0.000000 1.597630 0.000000 
#    z -0.010600 0.000000 1.637120 
# 
# From -- ./inp_files/67362.got.cif
#   From: 2010.05.17/outbox.cif.g08.bks.cpg/sg10_34_cif.got.tgz:67362.got - 2010.06.03 11:33:40.
