data_PCOD9147152
_publ_section_title
;
Structure prediction by ZEFSAII (Michael W. Deem and Ramdas Pophale) SiO2 
 PCOD9147152
Probable space group: P 2/M
;
_chemical_formula_sum "Si O2"
_cell_formula_units_Z 24
_cell_length_a 17.736676
_cell_length_b 7.689837
_cell_length_c 25.093123
_cell_angle_alpha 90.000000
_cell_angle_beta 160.052021
_cell_angle_gamma 90.000000
_cell_volume 1167.645124
_symmetry_space_group_name_H-M "P 2/M"
_symmetry_group_IT_number 10
_symmetry_cell_setting 'monoclinic'
loop_
_space_group_symop_operation_xyz
x,y,z
-x,y,-z
-x,-y,-z
x,-y,z
loop_
_atom_site_type_symbol
_atom_site_label
_atom_site_fract_x
_atom_site_fract_y
_atom_site_fract_z
Si Si1 0.501063 0.287415 0.939143
Si Si2 0.235484 0.202578 0.175104
Si Si3 0.265789 0.289512 0.317760
Si Si4 0.278436 0.793535 0.526210
Si Si5 0.021727 0.291933 0.776114
Si Si6 0.964152 0.290074 0.416025
O O1 0.501300 0.500000 0.937079
O O2 0.275089 0.227170 0.762536
O O3 0.500000 0.238226 0.000000
O O4 0.731014 0.224726 0.067632
O O5 0.244600 0.213930 0.245044
O O6 0.470021 0.278069 0.310054
O O7 0.232641 0.000000 0.156291
O O8 0.000000 0.279967 0.000000
O O9 0.500000 0.247622 0.500000
O O10 0.253568 0.500000 0.304593
O O11 0.087328 0.226579 0.242075
O O12 0.131272 0.736816 0.377542
O O13 0.149660 0.753306 0.495339
O O14 0.295507 0.000000 0.532846
O O15 0.035973 0.500000 0.790953
O O16 0.956746 0.500000 0.412743
O O17 0.000000 0.227128 0.500000
#
# Coordination Sequence:
#
# PCOD9147152 Si02
#       6
#     4   4   4   4   4   4
#     4   9  16  30  55  81 106 141 179 218 266 319
#     4  10  23  41  58  79 113 155 193 229 277 342
#     4  10  20  34  57  89 116 141 182 238 287 325
#     4  11  22  36  57  82 109 145 186 228 281 330
#     4  10  19  34  57  83 114 146 183 228 275 330
#     4  10  21  37  58  83 110 144 185 225 271 332
#
# _framework density 20.554190999999999
#
# number of rings (size 3 to 8) (size 9 to 14) (size 15 to 20)
#    0.000    2.000    3.333    0.500    0.000    3.667 
#    0.000    3.333    0.000    0.000    0.000    0.000 
#    0.000    0.000    0.000    0.000    0.000    0.000 
#
# Total GULP energy -133975.329111 kJ/mol
# GULP energy per Si atom -5582.305380 kJ/mol
# Density = 2.050741 g / cm^3
# Si number density = 20.554191 Si / 1000 Ang^3
#
#
#
# Elastic Constant Matrix: (Units=GPa)
#
#
# Indices 1 2 3 4 5 6 
#
# 1 150.0806 -4.6354 93.0657 0.0000 33.4775 0.0000
# 2 -4.6354 31.2213 1.3449 0.0000 6.1075 0.0000
# 3 93.0657 1.3449 184.6885 0.0000 23.7788 0.0000
# 4 0.0000 0.0000 0.0000 -48.4520 0.0000 1.2982
# 5 33.4775 6.1075 23.7788 0.0000 44.6709 0.0000
# 6 0.0000 0.0000 0.0000 1.2982 0.0000 4.3263
#
#
#
# Elastic Compliance Matrix: (Units=1/GPa)
#
#
# Indices 1 2 3 4 5 6 
#
# 1 0.011140 0.003074 -0.004838 0.000000 -0.006193 0.000000
# 2 0.003074 0.033781 -0.000970 0.000000 -0.006406 0.000000
# 3 -0.004838 -0.000970 0.007918 0.000000 -0.000456 0.000000
# 4 0.000000 0.000000 0.000000 -0.020474 0.000000 0.006144
# 5 -0.006193 -0.006406 -0.000456 0.000000 0.028146 0.000000
# 6 0.000000 0.000000 0.000000 0.006144 0.000000 0.229302
#
#
# Mechanical properties :
#
#
# Convention : Reuss Voigt Hill
#
# Bulk Modulus (GPa) = 21.11065 60.61566 40.86315
# Shear Modulus (GPa) = 16.07344 18.52337 17.29840
#
# Velocity S-wave (km/s) = 2.79947 3.00525 2.90418
# Velocity P-wave (km/s) = 4.55438 6.44955 5.58297
#
# Compressibility (1/GPa) = 0.04736946
#
# Stress axis : x y z
#
# Youngs Moduli (GPa) = 89.76785 29.60271 126.28695
#
# Poissons Ratio (x) = -0.09099 0.61103
# Poissons Ratio (y) = -0.27593 0.12252
# Poissons Ratio (z) = 0.43434 0.02872
#
# Static dielectric constant tensor:
#      x y z
#    x 1.838960 0.000000 0.272490 
#    y 0.000000 1.756230 0.000000 
#    z 0.272490 0.000000 2.160340 
# 
# From -- ./inp_files/48879.got.cif
#   From: 2010.05.17/outbox.cif.g08.bks.cpg/sg10_25_cif.got.tgz:48879.got - 2010.06.03 11:33:40.
