data_PCOD9147240
_publ_section_title
;
Structure prediction by ZEFSAII (Michael W. Deem and Ramdas Pophale) SiO2 
 PCOD9147240
Probable space group: P 2/M
;
_chemical_formula_sum "Si O2"
_cell_formula_units_Z 32
_cell_length_a 13.747854
_cell_length_b 14.671114
_cell_length_c 11.537726
_cell_angle_alpha 90.000000
_cell_angle_beta 136.493936
_cell_angle_gamma 90.000000
_cell_volume 1602.060302
_symmetry_space_group_name_H-M "P 2/M"
_symmetry_group_IT_number 10
_symmetry_cell_setting 'monoclinic'
loop_
_space_group_symop_operation_xyz
x,y,z
-x,y,-z
-x,-y,-z
x,-y,z
loop_
_atom_site_type_symbol
_atom_site_label
_atom_site_fract_x
_atom_site_fract_y
_atom_site_fract_z
Si Si1 0.848028 0.759057 0.316810
Si Si2 0.368219 0.898160 0.972646
Si Si3 0.715485 0.217084 0.625813
Si Si4 0.894014 0.603519 0.763328
Si Si5 0.854613 0.596702 0.451699
Si Si6 0.843018 0.711460 0.056075
Si Si7 0.009823 0.895469 0.147607
Si Si8 0.577347 0.211544 0.748327
O O1 0.779780 0.689622 0.349508
O O2 0.859705 0.701679 0.207823
O O3 0.000000 0.787272 0.500000
O O4 0.751944 0.841948 0.196793
O O5 0.412555 0.855540 0.134001
O O6 0.318841 0.000000 0.951165
O O7 0.500000 0.898132 0.000000
O O8 0.789032 0.315347 0.710293
O O9 0.837491 0.148089 0.688735
O O10 0.652461 0.180557 0.693159
O O11 0.583793 0.229245 0.425947
O O12 0.872647 0.500000 0.787660
O O13 0.878380 0.599279 0.609399
O O14 0.052398 0.642598 0.918019
O O15 0.783522 0.500000 0.362586
O O16 0.000000 0.597416 0.500000
O O17 0.898940 0.815976 0.085378
O O18 0.680553 0.706339 0.878078
O O19 0.991710 0.000000 0.174547
O O20 0.000000 0.899214 0.000000
#
# Coordination Sequence:
#
# PCOD9147240 Si02
#       8
#     4   4   4   4   4   4   4   4
#     4  10  19  34  58  86 113 156 191 241 295 344
#     4  10  24  41  59  85 121 158 196 242 294 358
#     4  10  22  40  61  86 118 156 207 243 294 362
#     4  10  20  35  61  91 120 153 194 247 300 352
#     4   9  16  30  56  89 118 147 192 241 292 351
#     4  10  19  35  56  85 120 149 198 240 295 354
#     4  10  20  35  57  83 112 144 188 247 298 343
#     4  10  22  40  60  81 117 162 196 246 292 349
#
# _framework density 19.97428
#
# number of rings (size 3 to 8) (size 9 to 14) (size 15 to 20)
#    0.000    2.125    3.750    0.000    1.750    3.250 
#    0.000    5.625    0.000    1.875    0.000    0.000 
#    0.000    0.000    0.000    0.000    0.000    0.000 
#
# Total GULP energy -178273.980009 kJ/mol
# GULP energy per Si atom -5571.061875 kJ/mol
# Density = 1.992882 g / cm^3
# Si number density = 19.974280 Si / 1000 Ang^3
#
#
#
# Elastic Constant Matrix: (Units=GPa)
#
#
# Indices 1 2 3 4 5 6 
#
# 1 54.5936 19.0376 21.8773 0.0000 -2.0670 0.0000
# 2 19.0376 134.7983 44.3596 0.0000 6.5686 0.0000
# 3 21.8773 44.3596 149.8194 0.0000 14.1997 0.0000
# 4 0.0000 0.0000 0.0000 19.9801 0.0000 -4.2067
# 5 -2.0670 6.5686 14.1997 0.0000 32.8160 0.0000
# 6 0.0000 0.0000 0.0000 -4.2067 0.0000 17.9704
#
#
#
# Elastic Compliance Matrix: (Units=1/GPa)
#
#
# Indices 1 2 3 4 5 6 
#
# 1 0.020206 -0.002141 -0.002584 0.000000 0.002819 0.000000
# 2 -0.002141 0.008458 -0.002105 0.000000 -0.000917 0.000000
# 3 -0.002584 -0.002105 0.007978 0.000000 -0.003194 0.000000
# 4 0.000000 0.000000 0.000000 0.052644 0.000000 0.012324
# 5 0.002819 -0.000917 -0.003194 0.000000 0.032216 0.000000
# 6 0.000000 0.000000 0.000000 0.012324 0.000000 0.058532
#
#
# Mechanical properties :
#
#
# Convention : Reuss Voigt Hill
#
# Bulk Modulus (GPa) = 43.51045 56.64003 50.07524
# Shear Modulus (GPa) = 24.83186 31.08241 27.95714
#
# Velocity S-wave (km/s) = 3.52972 3.94905 3.74526
# Velocity P-wave (km/s) = 6.20019 7.01508 6.62019
#
# Compressibility (1/GPa) = 0.02298298
#
# Stress axis : x y z
#
# Youngs Moduli (GPa) = 49.49052 118.22868 125.34600
#
# Poissons Ratio (x) = 0.25310 0.32388
# Poissons Ratio (y) = 0.10595 0.26383
# Poissons Ratio (z) = 0.12788 0.24885
#
# Static dielectric constant tensor:
#      x y z
#    x 1.758250 0.000000 -0.018300 
#    y 0.000000 1.733910 0.000000 
#    z -0.018300 0.000000 1.727310 
# 
# From -- ./inp_files/51628.got.cif
#   From: 2010.05.17/outbox.cif.g08.bks.cpg/sg10_26_cif.got.tgz:51628.got - 2010.06.03 11:33:40.
