data_PCOD9147136
_publ_section_title
;
Structure prediction by ZEFSAII (Michael W. Deem and Ramdas Pophale) SiO2 
 PCOD9147136
Probable space group: P 2/M
;
_chemical_formula_sum "Si O2"
_cell_formula_units_Z 24
_cell_length_a 13.620723
_cell_length_b 9.065554
_cell_length_c 14.188798
_cell_angle_alpha 90.000000
_cell_angle_beta 138.111996
_cell_angle_gamma 90.000000
_cell_volume 1169.785786
_symmetry_space_group_name_H-M "P 2/M"
_symmetry_group_IT_number 10
_symmetry_cell_setting 'monoclinic'
loop_
_space_group_symop_operation_xyz
x,y,z
-x,y,-z
-x,-y,-z
x,-y,z
loop_
_atom_site_type_symbol
_atom_site_label
_atom_site_fract_x
_atom_site_fract_y
_atom_site_fract_z
Si Si1 0.162435 0.823847 0.083764
Si Si2 0.063218 0.176753 0.810840
Si Si3 0.544344 0.674349 0.677313
Si Si4 0.734519 0.167136 0.574163
Si Si5 0.367276 0.831865 0.702721
Si Si6 0.139441 0.324034 0.668268
O O1 0.299049 0.747167 0.231739
O O2 0.173464 0.000000 0.105993
O O3 0.164708 0.794016 0.973409
O O4 0.000000 0.777800 0.000000
O O5 0.107501 0.262320 0.749082
O O6 0.895163 0.215020 0.720253
O O7 0.063050 0.000000 0.793327
O O8 0.552971 0.500000 0.682360
O O9 0.406749 0.729685 0.515975
O O10 0.496265 0.736802 0.746636
O O11 0.744885 0.160222 0.466722
O O12 0.703038 0.000000 0.584488
O O13 0.282078 0.754815 0.726048
O O14 0.413574 0.000000 0.756645
O O15 0.159927 0.500000 0.684732
O O16 0.000000 0.293509 0.500000
#
# Coordination Sequence:
#
# PCOD9147136 Si02
#       6
#     4   4   4   4   4   4
#     4  10  22  41  62  82 107 143 188 235 281 329
#     4  10  20  35  57  84 112 146 189 233 274 322
#     4  10  19  34  57  82 111 147 182 224 280 334
#     4   8  16  31  54  80 108 143 183 224 268 318
#     4   9  17  30  52  77 108 146 182 218 262 317
#     4  11  20  29  48  82 120 152 180 219 273 329
#
# _framework density 20.516575
#
# number of rings (size 3 to 8) (size 9 to 14) (size 15 to 20)
#    1.000    1.333    1.667    2.000    0.000    2.333 
#    0.000    1.667    0.000   10.000    0.000    0.000 
#    0.000    0.000    0.000    0.000    0.000    0.000 
#
# Total GULP energy -133843.122905 kJ/mol
# GULP energy per Si atom -5576.796788 kJ/mol
# Density = 2.046988 g / cm^3
# Si number density = 20.516575 Si / 1000 Ang^3
#
#
#
# Elastic Constant Matrix: (Units=GPa)
#
#
# Indices 1 2 3 4 5 6 
#
# 1 93.1330 37.3849 27.0729 0.0000 3.1033 0.0000
# 2 37.3849 72.5835 35.7517 0.0000 5.7834 0.0000
# 3 27.0729 35.7517 95.2952 0.0000 9.4028 0.0000
# 4 0.0000 0.0000 0.0000 8.2465 0.0000 9.9660
# 5 3.1033 5.7834 9.4028 0.0000 34.2023 0.0000
# 6 0.0000 0.0000 0.0000 9.9660 0.0000 -7.5924
#
#
#
# Elastic Compliance Matrix: (Units=1/GPa)
#
#
# Indices 1 2 3 4 5 6 
#
# 1 0.013717 -0.006322 -0.001550 0.000000 0.000250 0.000000
# 2 -0.006322 0.019857 -0.005529 0.000000 -0.001264 0.000000
# 3 -0.001550 -0.005529 0.013262 0.000000 -0.002570 0.000000
# 4 0.000000 0.000000 0.000000 0.046886 0.000000 0.061545
# 5 0.000250 -0.001264 -0.002570 0.000000 0.030135 0.000000
# 6 0.000000 0.000000 0.000000 0.061545 0.000000 -0.050926
#
#
# Mechanical properties :
#
#
# Convention : Reuss Voigt Hill
#
# Bulk Modulus (GPa) = 49.91278 51.27006 50.59142
# Shear Modulus (GPa) = 46.98687 17.69143 32.33915
#
# Velocity S-wave (km/s) = 4.79079 2.93968 3.97450
# Velocity P-wave (km/s) = 7.41505 6.04699 6.76569
#
# Compressibility (1/GPa) = 0.02003495
#
# Stress axis : x y z
#
# Youngs Moduli (GPa) = 72.90133 50.35891 75.40307
#
# Poissons Ratio (x) = 0.31835 0.11688
# Poissons Ratio (y) = 0.46086 0.41692
# Poissons Ratio (z) = 0.11300 0.27844
#
# Static dielectric constant tensor:
#      x y z
#    x 1.750770 0.000000 -0.011960 
#    y 0.000000 1.684970 0.000000 
#    z -0.011960 0.000000 1.726190 
# 
# From -- ./inp_files/66700.got.cif
#   From: 2010.05.17/outbox.cif.g08.bks.cpg/sg10_34_cif.got.tgz:66700.got - 2010.06.03 11:33:40.
