data_PCOD9147965
_publ_section_title
;
Structure prediction by ZEFSAII (Michael W. Deem and Ramdas Pophale) SiO2 
 PCOD9147965
Probable space group: P 2/M
;
_chemical_formula_sum "Si O2"
_cell_formula_units_Z 32
_cell_length_a 15.355259
_cell_length_b 8.293486
_cell_length_c 13.849488
_cell_angle_alpha 90.000000
_cell_angle_beta 59.091015
_cell_angle_gamma 90.000000
_cell_volume 1513.238399
_symmetry_space_group_name_H-M "P 2/M"
_symmetry_group_IT_number 10
_symmetry_cell_setting 'monoclinic'
loop_
_space_group_symop_operation_xyz
x,y,z
-x,y,-z
-x,-y,-z
x,-y,z
loop_
_atom_site_type_symbol
_atom_site_label
_atom_site_fract_x
_atom_site_fract_y
_atom_site_fract_z
Si Si1 0.909548 0.694597 0.624658
Si Si2 0.438575 0.304842 0.943688
Si Si3 0.039769 0.697232 0.185787
Si Si4 0.763036 0.695636 0.035933
Si Si5 0.233155 0.814994 0.445892
Si Si6 0.817181 0.313064 0.329279
Si Si7 0.454693 0.311164 0.320497
Si Si8 0.651814 0.186918 0.290876
O O1 0.904641 0.500000 0.627656
O O2 0.930235 0.747254 0.722471
O O3 0.806961 0.761946 0.635807
O O4 0.000000 0.743735 0.500000
O O5 0.436087 0.500000 0.953458
O O6 0.496496 0.269274 0.811202
O O7 0.500000 0.240216 0.000000
O O8 0.322130 0.254489 0.994401
O O9 0.037736 0.500000 0.187326
O O10 0.126206 0.747970 0.061650
O O11 0.924981 0.748913 0.228618
O O12 0.762375 0.500000 0.042054
O O13 0.722854 0.759637 0.160636
O O14 0.179455 0.705346 0.557336
O O15 0.352710 0.788339 0.390014
O O16 0.206225 0.000000 0.478864
O O17 0.805433 0.500000 0.309204
O O18 0.719570 0.221399 0.345436
O O19 0.427701 0.500000 0.336809
O O20 0.545458 0.280064 0.343959
O O21 0.627805 0.000000 0.295958
#
# Coordination Sequence:
#
# PCOD9147965 Si02
#       8
#     4   4   4   4   4   4   4   4
#     4  10  19  37  62  87 118 159 205 249 290 339
#     4   8  15  28  52  85 113 141 186 241 288 332
#     4   9  19  35  61  91 116 151 204 256 289 332
#     4   9  18  35  58  85 117 154 198 242 290 345
#     4  12  25  39  57  89 127 160 193 239 302 362
#     4  11  22  41  64  87 113 152 207 254 292 345
#     4  10  21  39  63  87 114 154 201 245 290 347
#     4  11  23  41  61  86 121 155 189 243 307 359
#
# _framework density 21.146699999999999
#
# number of rings (size 3 to 8) (size 9 to 14) (size 15 to 20)
#    0.000    2.000    1.250    3.750    1.750    1.250 
#    0.000    6.875    0.000    1.875    0.000    0.000 
#    0.000    0.000    0.000    0.000    0.000    0.000 
#
# Total GULP energy -178742.331687 kJ/mol
# GULP energy per Si atom -5585.697865 kJ/mol
# Density = 2.109857 g / cm^3
# Si number density = 21.146700 Si / 1000 Ang^3
#
#
#
# Elastic Constant Matrix: (Units=GPa)
#
#
# Indices 1 2 3 4 5 6 
#
# 1 87.2228 -1.6195 2.6687 0.0000 -2.9205 0.0000
# 2 -1.6195 25.7101 6.8884 0.0000 -3.1553 0.0000
# 3 2.6687 6.8884 1.3552 0.0000 -5.7344 0.0000
# 4 0.0000 0.0000 0.0000 -8.9866 0.0000 -2.2487
# 5 -2.9205 -3.1553 -5.7344 0.0000 31.6391 0.0000
# 6 0.0000 0.0000 0.0000 -2.2487 0.0000 -8.2559
#
#
#
# Elastic Compliance Matrix: (Units=1/GPa)
#
#
# Indices 1 2 3 4 5 6 
#
# 1 0.010839 -0.004801 0.022579 0.000000 0.004614 0.000000
# 2 -0.004801 -0.007784 0.188157 0.000000 0.032883 0.000000
# 3 0.022579 0.188157 -0.749651 0.000000 -0.115020 0.000000
# 4 0.000000 0.000000 0.000000 -0.119415 0.000000 0.032525
# 5 0.004614 0.032883 -0.115020 0.000000 0.014465 0.000000
# 6 0.000000 0.000000 0.000000 0.032525 0.000000 -0.129984
#
#
# Mechanical properties :
#
#
# Convention : Reuss Voigt Hill
#
# Bulk Modulus (GPa) = -2.98754 14.46260 5.73753
# Shear Modulus (GPa) = -3.32231 9.96932 3.32350
#
# Velocity S-wave (km/s) = -1.25479 2.17361 1.25501
# Velocity P-wave (km/s) = 1.87488 3.62677 2.19526
#
# Compressibility (1/GPa) = -0.33472336
#
# Stress axis : x y z
#
# Youngs Moduli (GPa) = 92.25600 -128.47235 -1.33395
#
# Poissons Ratio (x) = -0.61674 0.03012
# Poissons Ratio (y) = 0.44288 0.25099
# Poissons Ratio (z) = -2.08308 24.17299
#
# Static dielectric constant tensor:
#      x y z
#    x 1.776400 0.000000 -0.001750 
#    y 0.000000 1.722790 0.000000 
#    z -0.001750 0.000000 1.748550 
# 
# From -- ./inp_files/66496.got.cif
#   From: 2010.05.17/outbox.cif.g08.bks.cpg/sg10_34_cif.got.tgz:66496.got - 2010.06.03 11:33:40.
