data_PCOD9147914
_publ_section_title
;
Structure prediction by ZEFSAII (Michael W. Deem and Ramdas Pophale) SiO2 
 PCOD9147914
Probable space group: P 2/M
;
_chemical_formula_sum "Si O2"
_cell_formula_units_Z 32
_cell_length_a 10.670037
_cell_length_b 17.713534
_cell_length_c 14.335670
_cell_angle_alpha 90.000000
_cell_angle_beta 31.273191
_cell_angle_gamma 90.000000
_cell_volume 1406.553543
_symmetry_space_group_name_H-M "P 2/M"
_symmetry_group_IT_number 10
_symmetry_cell_setting 'monoclinic'
loop_
_space_group_symop_operation_xyz
x,y,z
-x,y,-z
-x,-y,-z
x,-y,z
loop_
_atom_site_type_symbol
_atom_site_label
_atom_site_fract_x
_atom_site_fract_y
_atom_site_fract_z
Si Si1 0.676155 0.207637 0.302772
Si Si2 0.865891 0.411494 0.484896
Si Si3 0.752334 0.204873 0.662142
Si Si4 0.293189 0.086881 0.471881
Si Si5 0.411791 0.920823 0.158108
Si Si6 0.956832 0.914126 0.864648
Si Si7 0.385850 0.680400 0.822823
Si Si8 0.734623 0.591637 0.916898
O O1 0.500000 0.236301 0.500000
O O2 0.509629 0.138522 0.372283
O O3 0.921790 0.161529 0.169504
O O4 0.717847 0.275315 0.201846
O O5 0.824091 0.500000 0.496477
O O6 0.610431 0.370571 0.646151
O O7 0.000000 0.406543 0.500000
O O8 0.040930 0.384868 0.290677
O O9 0.768421 0.132316 0.582888
O O10 0.726275 0.157721 0.770303
O O11 0.522801 0.253372 0.790306
O O12 0.000000 0.248913 0.500000
O O13 0.078477 0.086516 0.684238
O O14 0.364776 0.000000 0.414505
O O15 0.285793 0.000000 0.265730
O O16 0.500000 0.933693 0.000000
O O17 0.666299 0.910165 0.051709
O O18 0.018778 0.000000 0.862124
O O19 0.257349 0.632398 0.986997
O O20 0.732952 0.500000 0.931248
O O21 0.500000 0.608522 0.000000
#
# Coordination Sequence:
#
# PCOD9147914 Si02
#       8
#     4   4   4   4   4   4   4   4
#     4   9  19  36  58  84 121 168 221 266 320 375
#     4  10  19  36  65  97 131 167 207 257 314 383
#     4  11  23  35  49  80 121 162 197 244 318 395
#     4   9  17  32  55  78 104 149 212 269 310 363
#     4  10  21  37  56  82 115 155 205 261 324 384
#     4   9  17  34  61  85 111 154 211 277 329 372
#     4  11  22  38  58  91 134 172 212 259 318 383
#     4  10  20  36  64 100 131 166 210 258 317 385
#
# _framework density 22.750646
#
# number of rings (size 3 to 8) (size 9 to 14) (size 15 to 20)
#    0.000    2.125    1.250    2.250    0.000    4.000 
#    6.750    2.500    2.750    8.250    0.000    1.750 
#    0.000    0.000    0.000    0.000    0.000    0.500 
#
# Total GULP energy -178193.252467 kJ/mol
# GULP energy per Si atom -5568.539140 kJ/mol
# Density = 2.269886 g / cm^3
# Si number density = 22.750646 Si / 1000 Ang^3
#
#
#
# Elastic Constant Matrix: (Units=GPa)
#
#
# Indices 1 2 3 4 5 6 
#
# 1 52.7586 23.4139 17.6253 0.0000 10.6704 0.0000
# 2 23.4139 95.9576 45.5087 0.0000 15.5491 0.0000
# 3 17.6253 45.5087 106.6228 0.0000 14.4303 0.0000
# 4 0.0000 0.0000 0.0000-1048.4397 0.0000 285.1810
# 5 10.6704 15.5491 14.4303 0.0000 34.3868 0.0000
# 6 0.0000 0.0000 0.0000 285.1810 0.0000 -41.0537
#
#
#
# Elastic Compliance Matrix: (Units=1/GPa)
#
#
# Indices 1 2 3 4 5 6 
#
# 1 0.022093 -0.004038 -0.001323 0.000000 -0.004474 0.000000
# 2 -0.004038 0.014286 -0.005010 0.000000 -0.003104 0.000000
# 3 -0.001323 -0.005010 0.012058 0.000000 -0.002385 0.000000
# 4 0.000000 0.000000 0.000000 0.001072 0.000000 0.007449
# 5 -0.004474 -0.003104 -0.002385 0.000000 0.032874 0.000000
# 6 0.000000 0.000000 0.000000 0.007449 0.000000 0.027384
#
#
# Mechanical properties :
#
#
# Convention : Reuss Voigt Hill
#
# Bulk Modulus (GPa) = 36.10699 47.60385 41.85542
# Shear Modulus (GPa) = 35.78035 -199.76856 -81.99411
#
# Velocity S-wave (km/s) = 3.97005 -9.38075 -6.00987
# Velocity P-wave (km/s) = 6.07621 9.81640 5.45167
#
# Compressibility (1/GPa) = 0.02769547
#
# Stress axis : x y z
#
# Youngs Moduli (GPa) = 45.26247 70.00093 82.92923
#
# Poissons Ratio (x) = 0.28269 0.10971
# Poissons Ratio (y) = 0.18279 0.41545
# Poissons Ratio (z) = 0.05988 0.35068
#
# Static dielectric constant tensor:
#      x y z
#    x 1.442030 0.000000 -0.698600 
#    y 0.000000 1.880360 0.000000 
#    z -0.698600 0.000000 1.122900 
# 
# From -- ./inp_files/65402.got.cif
#   From: 2010.05.17/outbox.cif.g08.bks.cpg/sg10_33_cif.got.tgz:65402.got - 2010.06.03 11:33:40.
