data_PCOD9147686
_publ_section_title
;
Structure prediction by ZEFSAII (Michael W. Deem and Ramdas Pophale) SiO2 
 PCOD9147686
Probable space group: P 2/M
;
_chemical_formula_sum "Si O2"
_cell_formula_units_Z 20
_cell_length_a 5.600206
_cell_length_b 21.295566
_cell_length_c 7.361767
_cell_angle_alpha 90.000000
_cell_angle_beta 75.230592
_cell_angle_gamma 90.000000
_cell_volume 848.952919
_symmetry_space_group_name_H-M "P 2/M"
_symmetry_group_IT_number 10
_symmetry_cell_setting 'monoclinic'
loop_
_space_group_symop_operation_xyz
x,y,z
-x,y,-z
-x,-y,-z
x,-y,z
loop_
_atom_site_type_symbol
_atom_site_label
_atom_site_fract_x
_atom_site_fract_y
_atom_site_fract_z
Si Si1 0.795319 0.236355 0.695748
Si Si2 0.214932 0.619989 0.221632
Si Si3 0.477528 0.124656 0.791890
Si Si4 0.285832 0.000000 0.390915
Si Si5 0.000000 0.162234 0.000000
Si Si6 0.715894 0.573702 0.209648
O O1 0.725043 0.307790 0.747733
O O2 0.577150 0.188241 0.684101
O O3 0.894481 0.208716 0.866925
O O4 0.000000 0.234193 0.500000
O O5 0.421713 0.582151 0.295152
O O6 0.921000 0.606545 0.298317
O O7 0.251163 0.601822 0.001318
O O8 0.645016 0.065134 0.718853
O O9 0.182469 0.119016 0.840981
O O10 0.500000 0.134641 0.000000
O O11 0.500000 0.000000 0.500000
O O12 0.000000 0.000000 0.500000
O O13 0.773841 0.500000 0.196387
#
# Coordination Sequence:
#
# PCOD9147686 Si02
#       6
#     4   4   4   2   2   4
#     4  11  25  42  67 101 145 185 237 298 363 430
#     4  10  20  33  59  93 128 173 231 278 351 413
#     4  10  25  45  72 100 144 185 245 296 357 422
#     4  12  29  47  76 108 146 193 244 290 358 435
#     4  10  24  43  72 102 137 190 234 298 360 424
#     4  10  19  35  63  93 132 178 234 288 348 421
#
# _framework density 23.558432
#
# number of rings (size 3 to 8) (size 9 to 14) (size 15 to 20)
#    0.000    1.600    0.000    5.100   19.600    0.400 
#    0.000    0.000    0.000    6.600    0.000    0.000 
#    0.000    0.000    0.000    0.000    0.000    0.000 
#
# Total GULP energy -111530.756462 kJ/mol
# GULP energy per Si atom -5576.537823 kJ/mol
# Density = 2.350481 g / cm^3
# Si number density = 23.558432 Si / 1000 Ang^3
#
#
#
# Elastic Constant Matrix: (Units=GPa)
#
#
# Indices 1 2 3 4 5 6 
#
# 1 129.8626 39.8278 16.2658 0.0000 -9.5543 0.0000
# 2 39.8278 179.4448 35.0850 0.0000 -31.1905 0.0000
# 3 16.2658 35.0850 69.4504 0.0000 -4.3961 0.0000
# 4 0.0000 0.0000 0.0000 37.4705 0.0000 -3.5203
# 5 -9.5543 -31.1905 -4.3961 0.0000 38.5327 0.0000
# 6 0.0000 0.0000 0.0000 -3.5203 0.0000 42.6802
#
#
#
# Elastic Compliance Matrix: (Units=1/GPa)
#
#
# Indices 1 2 3 4 5 6 
#
# 1 0.008359 -0.001504 -0.001152 0.000000 0.000724 0.000000
# 2 -0.001504 0.007425 -0.003064 0.000000 0.005287 0.000000
# 3 -0.001152 -0.003064 0.016158 0.000000 -0.000922 0.000000
# 4 0.000000 0.000000 0.000000 0.026896 0.000000 0.002218
# 5 0.000724 0.005287 -0.000922 0.000000 0.030306 0.000000
# 6 0.000000 0.000000 0.000000 0.002218 0.000000 0.023613
#
#
# Mechanical properties :
#
#
# Convention : Reuss Voigt Hill
#
# Bulk Modulus (GPa) = 48.77655 62.34609 55.56132
# Shear Modulus (GPa) = 38.15875 42.90863 40.53369
#
# Velocity S-wave (km/s) = 4.02898 4.27238 4.15246
# Velocity P-wave (km/s) = 6.51099 7.13159 6.82834
#
# Compressibility (1/GPa) = 0.02050165
#
# Stress axis : x y z
#
# Youngs Moduli (GPa) = 119.62656 134.68537 61.88887
#
# Poissons Ratio (x) = 0.20261 0.07130
# Poissons Ratio (y) = 0.17996 0.18962
# Poissons Ratio (z) = 0.13782 0.41265
#
# Static dielectric constant tensor:
#      x y z
#    x 2.620630 0.000000 -0.370500 
#    y 0.000000 1.736460 0.000000 
#    z -0.370500 0.000000 2.171800 
# 
# From -- ./inp_files/15169.got.cif
#   From: 2010.05.17/outbox.cif.g08.bks.cpg/sg10_8_cif.got.tgz:15169.got - 2010.06.03 11:33:40.
