data_PCOD9147455
_publ_section_title
;
Structure prediction by ZEFSAII (Michael W. Deem and Ramdas Pophale) SiO2 
 PCOD9147455
Probable space group: P 2/M
;
_chemical_formula_sum "Si O2"
_cell_formula_units_Z 24
_cell_length_a 7.304923
_cell_length_b 21.131467
_cell_length_c 8.875547
_cell_angle_alpha 90.000000
_cell_angle_beta 127.275831
_cell_angle_gamma 90.000000
_cell_volume 1090.198607
_symmetry_space_group_name_H-M "P 2/M"
_symmetry_group_IT_number 10
_symmetry_cell_setting 'monoclinic'
loop_
_space_group_symop_operation_xyz
x,y,z
-x,y,-z
-x,-y,-z
x,-y,z
loop_
_atom_site_type_symbol
_atom_site_label
_atom_site_fract_x
_atom_site_fract_y
_atom_site_fract_z
Si Si1 0.321692 0.102854 0.053686
Si Si2 0.994512 0.355297 0.154551
Si Si3 0.370530 0.244026 0.095347
Si Si4 0.613375 0.000000 0.348098
Si Si5 0.249909 0.311588 0.543126
Si Si6 0.032296 0.000000 0.760423
Si Si7 0.306066 0.571620 0.774319
O O1 0.269755 0.174598 0.071575
O O2 0.456152 0.061606 0.244779
O O3 0.500000 0.105149 0.000000
O O4 0.105262 0.061932 0.890047
O O5 0.913462 0.403216 0.243574
O O6 0.204504 0.320799 0.343491
O O7 0.814227 0.299832 0.020619
O O8 0.000000 0.392004 0.000000
O O9 0.566771 0.259931 0.314705
O O10 0.500000 0.243470 0.000000
O O11 0.794790 0.000000 0.297745
O O12 0.773451 0.000000 0.573330
O O13 0.342869 0.376947 0.663332
O O14 0.000000 0.298025 0.500000
O O15 0.285563 0.500000 0.710094
O O16 0.500000 0.574910 0.000000
#
# Coordination Sequence:
#
# PCOD9147455 Si02
#       7
#     4   4   4   2   4   2   4
#     4   8  16  24  42  65  99 137 171 217 268 307
#     4  11  23  36  54  81 113 145 178 223 276 320
#     4  11  18  35  52  78 109 140 187 230 260 324
#     4   8  13  25  36  63  97 135 172 210 266 320
#     4  10  19  35  57  80 102 142 184 219 269 319
#     4   8  13  25  38  63 101 134 165 217 269 314
#     4  10  19  38  63  82 107 143 181 222 266 319
#
# _framework density 22.014337000000001
#
# number of rings (size 3 to 8) (size 9 to 14) (size 15 to 20)
#    0.000    2.333    5.000    1.000    0.000    5.333 
#    3.000    0.000    0.000    2.000    0.000    2.333 
#    0.000    6.667    0.000    0.000    0.000    0.000 
#
# Total GULP energy -133973.776285 kJ/mol
# GULP energy per Si atom -5582.240679 kJ/mol
# Density = 2.196423 g / cm^3
# Si number density = 22.014337 Si / 1000 Ang^3
#
#
#
# Elastic Constant Matrix: (Units=GPa)
#
#
# Indices 1 2 3 4 5 6 
#
# 1 37.2770 4.4682 14.1190 0.0000 -4.5685 0.0000
# 2 4.4682 115.0212 26.8805 0.0000 18.8334 0.0000
# 3 14.1190 26.8805 154.5387 0.0000 18.4129 0.0000
# 4 0.0000 0.0000 0.0000 -2.1177 0.0000 -1.0470
# 5 -4.5685 18.8334 18.4129 0.0000 36.3831 0.0000
# 6 0.0000 0.0000 0.0000 -1.0470 0.0000 2.4258
#
#
#
# Elastic Compliance Matrix: (Units=1/GPa)
#
#
# Indices 1 2 3 4 5 6 
#
# 1 0.028890 -0.001363 -0.003106 0.000000 0.005905 0.000000
# 2 -0.001363 0.009754 -0.001011 0.000000 -0.004709 0.000000
# 3 -0.003106 -0.001011 0.007358 0.000000 -0.003591 0.000000
# 4 0.000000 0.000000 0.000000 -0.389168 0.000000 -0.167962
# 5 0.005905 -0.004709 -0.003591 0.000000 0.032481 0.000000
# 6 0.000000 0.000000 0.000000 -0.167962 0.000000 0.339738
#
#
# Mechanical properties :
#
#
# Convention : Reuss Voigt Hill
#
# Bulk Modulus (GPa) = 28.53739 44.19691 36.36715
# Shear Modulus (GPa) = 96.72301 24.76286 60.74293
#
# Velocity S-wave (km/s) = 6.63564 3.35752 5.25855
# Velocity P-wave (km/s) = 8.46760 5.92879 7.30927
#
# Compressibility (1/GPa) = 0.03504174
#
# Stress axis : x y z
#
# Youngs Moduli (GPa) = 34.61449 102.51894 135.90100
#
# Poissons Ratio (x) = 0.13977 0.42209
# Poissons Ratio (y) = 0.04719 0.13741
# Poissons Ratio (z) = 0.10751 0.10365
#
# Static dielectric constant tensor:
#      x y z
#    x 2.116260 0.000000 -0.103220 
#    y 0.000000 1.775080 0.000000 
#    z -0.103220 0.000000 1.873910 
# 
# From -- ./inp_files/20285.got.cif
#   From: 2010.05.17/outbox.cif.g08.bks.cpg/sg10_11_cif.got.tgz:20285.got - 2010.06.03 11:33:40.
