data_PCOD9147549
_publ_section_title
;
Structure prediction by ZEFSAII (Michael W. Deem and Ramdas Pophale) SiO2 
 PCOD9147549
Probable space group: P 2/M
;
_chemical_formula_sum "Si O2"
_cell_formula_units_Z 25
_cell_length_a 12.447730
_cell_length_b 18.351812
_cell_length_c 12.265557
_cell_angle_alpha 90.000000
_cell_angle_beta 154.782434
_cell_angle_gamma 90.000000
_cell_volume 1193.778526
_symmetry_space_group_name_H-M "P 2/M"
_symmetry_group_IT_number 10
_symmetry_cell_setting 'monoclinic'
loop_
_space_group_symop_operation_xyz
x,y,z
-x,y,-z
-x,-y,-z
x,-y,z
loop_
_atom_site_type_symbol
_atom_site_label
_atom_site_fract_x
_atom_site_fract_y
_atom_site_fract_z
Si Si1 0.374308 0.663756 0.079938
Si Si2 0.086912 0.412793 0.455633
Si Si3 0.469452 0.187613 0.091153
Si Si4 0.000000 0.000000 0.500000
Si Si5 0.938480 0.876538 0.631955
Si Si6 0.230132 0.885006 0.278794
Si Si7 0.730092 0.716662 0.775170
O O1 0.639915 0.621428 0.321002
O O2 0.393082 0.728897 0.010906
O O3 0.330660 0.706902 0.153697
O O4 0.133449 0.615597 0.826802
O O5 0.105897 0.500000 0.466665
O O6 0.000000 0.394318 0.500000
O O7 0.734196 0.181127 0.396877
O O8 0.500000 0.153168 0.000000
O O9 0.224404 0.149294 0.917139
O O10 0.046507 0.937268 0.447564
O O11 0.825537 0.894894 0.645559
O O12 0.500000 0.916593 0.500000
O O13 0.247778 0.799177 0.254620
O O14 0.000000 0.916205 0.000000
O O15 0.500000 0.681032 0.500000
O O16 0.000000 0.681939 0.000000
#
# Coordination Sequence:
#
# PCOD9147549 Si02
#       7
#     4   4   4   1   4   4   4
#     4  12  23  38  67  98 131 173 229 289 342 395
#     4  11  24  43  64  95 140 189 228 267 333 420
#     4  12  22  39  62 101 133 169 222 290 343 394
#     4  12  28  50  68 102 140 202 214 268 352 418
#     4  12  25  44  67  96 140 178 231 272 341 428
#     4  10  20  39  63  93 126 167 220 279 336 387
#     4  10  19  35  58  91 122 162 212 271 353 387
#
# _framework density 20.941907
#
# number of rings (size 3 to 8) (size 9 to 14) (size 15 to 20)
#    0.000    0.800    1.600    8.640    0.000    2.560 
#    0.000    0.800    0.000    9.600    0.000    0.000 
#    0.000    0.000    0.000    0.000    0.000    0.000 
#
# Total GULP energy -139246.337758 kJ/mol
# GULP energy per Si atom -5569.853510 kJ/mol
# Density = 2.089424 g / cm^3
# Si number density = 20.941907 Si / 1000 Ang^3
#
#
#
# Elastic Constant Matrix: (Units=GPa)
#
#
# Indices 1 2 3 4 5 6 
#
# 1 180.7512 32.4536 41.7320 0.0000 -1.9384 0.0000
# 2 32.4536 64.1610 5.0524 0.0000 6.9819 0.0000
# 3 41.7320 5.0524 125.6876 0.0000 22.7264 0.0000
# 4 0.0000 0.0000 0.0000 7.1981 0.0000 17.1681
# 5 -1.9384 6.9819 22.7264 0.0000 44.6231 0.0000
# 6 0.0000 0.0000 0.0000 17.1681 0.0000 -14.5501
#
#
#
# Elastic Compliance Matrix: (Units=1/GPa)
#
#
# Indices 1 2 3 4 5 6 
#
# 1 0.006746 -0.003445 -0.002480 0.000000 0.002095 0.000000
# 2 -0.003445 0.017620 0.001059 0.000000 -0.003446 0.000000
# 3 -0.002480 0.001059 0.009678 0.000000 -0.005202 0.000000
# 4 0.000000 0.000000 0.000000 0.036423 0.000000 0.042977
# 5 0.002095 -0.003446 -0.005202 0.000000 0.025690 0.000000
# 6 0.000000 0.000000 0.000000 0.042977 0.000000 -0.018019
#
#
# Mechanical properties :
#
#
# Convention : Reuss Voigt Hill
#
# Bulk Modulus (GPa) = 41.13445 58.78619 49.96032
# Shear Modulus (GPa) = 52.09722 26.87836 39.48779
#
# Velocity S-wave (km/s) = 4.99310 3.58645 4.34705
# Velocity P-wave (km/s) = 7.27504 6.72920 7.00744
#
# Compressibility (1/GPa) = 0.02431052
#
# Stress axis : x y z
#
# Youngs Moduli (GPa) = 148.23319 56.75401 103.32853
#
# Poissons Ratio (x) = 0.19552 0.25628
# Poissons Ratio (y) = 0.51066 -0.10938
# Poissons Ratio (z) = 0.36766 -0.06008
#
# Static dielectric constant tensor:
#      x y z
#    x 1.796820 0.000000 0.020970 
#    y 0.000000 1.698540 0.000000 
#    z 0.020970 0.000000 1.801250 
# 
# From -- ./inp_files/47942.got.cif
#   From: 2010.05.17/outbox.cif.g08.bks.cpg/sg10_24_cif.got.tgz:47942.got - 2010.06.03 11:33:40.
