data_PCOD9147861
_publ_section_title
;
Structure prediction by ZEFSAII (Michael W. Deem and Ramdas Pophale) SiO2 
 PCOD9147861
Probable space group: P 2/M
;
_chemical_formula_sum "Si O2"
_cell_formula_units_Z 32
_cell_length_a 10.020910
_cell_length_b 19.397700
_cell_length_c 13.738064
_cell_angle_alpha 90.000000
_cell_angle_beta 138.745980
_cell_angle_gamma 90.000000
_cell_volume 1760.884751
_symmetry_space_group_name_H-M "P 2/M"
_symmetry_group_IT_number 10
_symmetry_cell_setting 'monoclinic'
loop_
_space_group_symop_operation_xyz
x,y,z
-x,y,-z
-x,-y,-z
x,-y,z
loop_
_atom_site_type_symbol
_atom_site_label
_atom_site_fract_x
_atom_site_fract_y
_atom_site_fract_z
Si Si1 0.760662 0.702852 0.855660
Si Si2 0.692559 0.851850 0.178124
Si Si3 0.558860 0.920873 0.805380
Si Si4 0.760589 0.422344 0.360284
Si Si5 0.558917 0.294253 0.145480
Si Si6 0.050042 0.916840 0.844357
Si Si7 0.357761 0.835275 0.328929
Si Si8 0.456505 0.580005 0.365169
O O1 0.633380 0.714811 0.886402
O O2 0.699084 0.761023 0.744460
O O3 0.698044 0.629771 0.774900
O O4 0.000000 0.706872 0.000000
O O5 0.623055 0.906003 0.220669
O O6 0.697552 0.774889 0.225028
O O7 0.874742 0.880303 0.213568
O O8 0.500000 0.848500 0.000000
O O9 0.530235 0.873820 0.697043
O O10 0.568524 0.000000 0.782142
O O11 0.770956 0.904609 0.977722
O O12 0.710451 0.500000 0.297064
O O13 0.672367 0.361976 0.245539
O O14 0.658691 0.415737 0.410652
O O15 0.000000 0.416448 0.500000
O O16 0.500000 0.303166 0.000000
O O17 0.843263 0.880559 0.762010
O O18 0.031155 0.000000 0.823739
O O19 0.500000 0.830836 0.500000
O O20 0.500000 0.600994 0.500000
O O21 0.389764 0.500000 0.329633
#
# Coordination Sequence:
#
# PCOD9147861 Si02
#       8
#     4   4   4   4   4   4   4   4
#     4  11  23  39  61  86 116 152 196 242 287 339
#     4   9  18  35  58  86 114 143 184 238 285 338
#     4  10  19  36  62  85 111 146 186 233 288 341
#     4   9  19  37  59  85 120 158 193 230 276 336
#     4  10  21  37  58  88 115 148 188 241 289 333
#     4  10  21  38  62  88 111 145 192 236 287 346
#     4  12  25  39  55  81 116 154 190 237 287 344
#     4   9  19  38  61  88 124 159 194 234 280 337
#
# _framework density 18.172681999999998
#
# number of rings (size 3 to 8) (size 9 to 14) (size 15 to 20)
#    0.000    2.000    1.250    2.250    3.500    5.000 
#    4.500    0.625    0.000    1.500    0.000    0.000 
#    0.000    0.000    0.000    0.000    0.000    0.000 
#
# Total GULP energy -178514.696636 kJ/mol
# GULP energy per Si atom -5578.584270 kJ/mol
# Density = 1.813132 g / cm^3
# Si number density = 18.172682 Si / 1000 Ang^3
#
#
#
# Elastic Constant Matrix: (Units=GPa)
#
#
# Indices 1 2 3 4 5 6 
#
# 1 64.9066 31.0716 31.4039 0.0000 -16.4556 0.0000
# 2 31.0716 90.3883 43.8118 0.0000 -7.3945 0.0000
# 3 31.4039 43.8118 70.1730 0.0000 -18.1716 0.0000
# 4 0.0000 0.0000 0.0000 -4.4616 0.0000 -3.0139
# 5 -16.4556 -7.3945 -18.1716 0.0000 16.6156 0.0000
# 6 0.0000 0.0000 0.0000 -3.0139 0.0000 29.6184
#
#
#
# Elastic Compliance Matrix: (Units=1/GPa)
#
#
# Indices 1 2 3 4 5 6 
#
# 1 0.023948 -0.005519 -0.002463 0.000000 0.018567 0.000000
# 2 -0.005519 0.017473 -0.010939 0.000000 -0.009653 0.000000
# 3 -0.002463 -0.010939 0.028307 0.000000 0.023650 0.000000
# 4 0.000000 0.000000 0.000000 -0.209718 0.000000 -0.021340
# 5 0.018567 -0.009653 0.023650 0.000000 0.100142 0.000000
# 6 0.000000 0.000000 0.000000 -0.021340 0.000000 0.031591
#
#
# Mechanical properties :
#
#
# Convention : Reuss Voigt Hill
#
# Bulk Modulus (GPa) = 31.36291 48.67138 40.01714
# Shear Modulus (GPa) = 124.33642 16.29985 70.31814
#
# Velocity S-wave (km/s) = 8.28058 2.99815 6.22723
# Velocity P-wave (km/s) = 10.42687 6.23106 8.58911
#
# Compressibility (1/GPa) = 0.03188479
#
# Stress axis : x y z
#
# Youngs Moduli (GPa) = 41.75707 57.23071 35.32737
#
# Poissons Ratio (x) = 0.31588 0.08702
# Poissons Ratio (y) = 0.23047 0.38644
# Poissons Ratio (z) = 0.10286 0.62604
#
# Static dielectric constant tensor:
#      x y z
#    x 1.625690 0.000000 -0.012300 
#    y 0.000000 1.639080 0.000000 
#    z -0.012300 0.000000 1.594020 
# 
# From -- ./inp_files/43625.got.cif
#   From: 2010.05.17/outbox.cif.g08.bks.cpg/sg10_22_cif.got.tgz:43625.got - 2010.06.03 11:33:40.
