data_PCOD9147619
_publ_section_title
;
Structure prediction by ZEFSAII (Michael W. Deem and Ramdas Pophale) SiO2 
 PCOD9147619
Probable space group: P 2/M
;
_chemical_formula_sum "Si O2"
_cell_formula_units_Z 32
_cell_length_a 16.617204
_cell_length_b 7.544323
_cell_length_c 25.600088
_cell_angle_alpha 90.000000
_cell_angle_beta 26.393528
_cell_angle_gamma 90.000000
_cell_volume 1426.673734
_symmetry_space_group_name_H-M "P 2/M"
_symmetry_group_IT_number 10
_symmetry_cell_setting 'monoclinic'
loop_
_space_group_symop_operation_xyz
x,y,z
-x,y,-z
-x,-y,-z
x,-y,z
loop_
_atom_site_type_symbol
_atom_site_label
_atom_site_fract_x
_atom_site_fract_y
_atom_site_fract_z
Si Si1 0.346764 0.799712 0.744217
Si Si2 0.531200 0.715852 0.834326
Si Si3 0.943496 0.283294 0.591211
Si Si4 0.246772 0.714759 0.917053
Si Si5 0.071884 0.299195 0.823454
Si Si6 0.062287 0.283546 0.712185
Si Si7 0.238153 0.286341 0.504425
Si Si8 0.349287 0.715830 0.046830
O O1 0.247071 0.774281 0.857341
O O2 0.251938 0.692851 0.753202
O O3 0.557513 0.759197 0.629179
O O4 0.326562 0.000000 0.738786
O O5 0.534247 0.500000 0.832720
O O6 0.737461 0.774841 0.720817
O O7 0.432164 0.768032 0.838495
O O8 0.408493 0.771290 0.954540
O O9 0.943078 0.500000 0.592908
O O10 0.000000 0.231232 0.500000
O O11 0.088804 0.223248 0.549573
O O12 0.239054 0.500000 0.919511
O O13 0.082169 0.780020 0.049158
O O14 0.004896 0.500000 0.852222
O O15 0.101503 0.222612 0.748570
O O16 0.073607 0.500000 0.704962
O O17 0.188540 0.222277 0.591512
O O18 0.854538 0.232337 0.821407
O O19 0.226711 0.500000 0.511018
O O20 0.351127 0.500000 0.046514
O O21 0.500000 0.776467 0.000000
#
# Coordination Sequence:
#
# PCOD9147619 Si02
#       8
#     4   4   4   4   4   4   4   4
#     4  12  26  40  55  77 107 144 190 240 286 328
#     4   9  15  25  46  80 116 145 172 212 267 325
#     4   9  16  26  45  77 114 149 184 219 259 313
#     4  10  19  35  60  86 113 144 180 223 276 337
#     4  10  20  37  60  85 112 142 180 226 279 336
#     4   9  17  31  52  81 114 145 179 222 271 327
#     4  10  20  36  57  81 112 150 189 226 269 324
#     4   9  14  22  41  76 118 147 168 206 266 323
#
# _framework density 22.429793
#
# number of rings (size 3 to 8) (size 9 to 14) (size 15 to 20)
#    0.000    2.250    1.250    3.000    0.000    7.500 
#    0.000    3.125    0.000    3.375    0.000    0.000 
#    0.000    2.500    0.000    0.000    0.000    0.000 
#
# Total GULP energy -178781.722701 kJ/mol
# GULP energy per Si atom -5586.928834 kJ/mol
# Density = 2.237874 g / cm^3
# Si number density = 22.429793 Si / 1000 Ang^3
#
#
#
# Elastic Constant Matrix: (Units=GPa)
#
#
# Indices 1 2 3 4 5 6 
#
# 1 127.1653 4.2963 24.9475 0.0000 9.5978 0.0000
# 2 4.2963 56.4787 4.1995 0.0000 2.7862 0.0000
# 3 24.9475 4.1995 88.8621 0.0000 11.2585 0.0000
# 4 0.0000 0.0000 0.0000 -60.1016 0.0000 -16.9363
# 5 9.5978 2.7862 11.2585 0.0000 41.2141 0.0000
# 6 0.0000 0.0000 0.0000 -16.9363 0.0000 -57.1914
#
#
#
# Elastic Compliance Matrix: (Units=1/GPa)
#
#
# Indices 1 2 3 4 5 6 
#
# 1 0.008404 -0.000412 -0.002171 0.000000 -0.001336 0.000000
# 2 -0.000412 0.017829 -0.000607 0.000000 -0.000943 0.000000
# 3 -0.002171 -0.000607 0.012246 0.000000 -0.002799 0.000000
# 4 0.000000 0.000000 0.000000 -0.018153 0.000000 0.005376
# 5 -0.001336 -0.000943 -0.002799 0.000000 0.025403 0.000000
# 6 0.000000 0.000000 0.000000 0.005376 0.000000 -0.019077
#
#
# Mechanical properties :
#
#
# Convention : Reuss Voigt Hill
#
# Bulk Modulus (GPa) = 31.15343 37.71031 34.43187
# Shear Modulus (GPa) = 114.33316 0.72174 57.52745
#
# Velocity S-wave (km/s) = 7.14734 0.56787 5.06986
# Velocity P-wave (km/s) = 9.05716 4.15681 7.04667
#
# Compressibility (1/GPa) = 0.03209920
#
# Stress axis : x y z
#
# Youngs Moduli (GPa) = 118.98505 56.08890 81.65866
#
# Poissons Ratio (x) = 0.02311 0.17726
# Poissons Ratio (y) = 0.04902 0.04960
# Poissons Ratio (z) = 0.25828 0.03407
#
# Static dielectric constant tensor:
#      x y z
#    x 1.808980 0.000000 -0.003220 
#    y 0.000000 1.869870 0.000000 
#    z -0.003220 0.000000 1.799020 
# 
# From -- ./inp_files/89472.got.cif
#   From: 2010.05.17/outbox.cif.g08.bks.cpg/sg10_45_cif.got.tgz:89472.got - 2010.06.03 11:33:40.
