data_PCOD9147618
_publ_section_title
;
Structure prediction by ZEFSAII (Michael W. Deem and Ramdas Pophale) SiO2 
 PCOD9147618
Probable space group: P 2/M
;
_chemical_formula_sum "Si O2"
_cell_formula_units_Z 28
_cell_length_a 19.518382
_cell_length_b 7.863713
_cell_length_c 14.474121
_cell_angle_alpha 90.000000
_cell_angle_beta 144.747802
_cell_angle_gamma 90.000000
_cell_volume 1282.248858
_symmetry_space_group_name_H-M "P 2/M"
_symmetry_group_IT_number 10
_symmetry_cell_setting 'monoclinic'
loop_
_space_group_symop_operation_xyz
x,y,z
-x,y,-z
-x,-y,-z
x,-y,z
loop_
_atom_site_type_symbol
_atom_site_label
_atom_site_fract_x
_atom_site_fract_y
_atom_site_fract_z
Si Si1 0.114345 0.208750 0.067434
Si Si2 0.182833 0.803073 0.947447
Si Si3 0.986759 0.299917 0.382260
Si Si4 0.311906 0.199130 0.422147
Si Si5 0.198512 0.705737 0.489322
Si Si6 0.556578 0.300672 0.774135
Si Si7 0.552524 0.706825 0.153791
O O1 0.233700 0.265409 0.251249
O O2 0.115254 0.000000 0.067437
O O3 0.115228 0.268296 0.962859
O O4 0.000000 0.261919 0.000000
O O5 0.141062 0.718241 0.806368
O O6 0.152687 0.000000 0.904492
O O7 0.322241 0.787181 0.121283
O O8 0.015012 0.500000 0.420901
O O9 0.081114 0.231137 0.411446
O O10 0.000000 0.227680 0.500000
O O11 0.230748 0.222029 0.424470
O O12 0.440032 0.279411 0.582730
O O13 0.332926 0.000000 0.431097
O O14 0.194822 0.500000 0.474390
O O15 0.310332 0.748495 0.677961
O O16 0.583060 0.500000 0.810133
O O17 0.518040 0.235118 0.833130
O O18 0.545384 0.500000 0.145672
O O19 0.500000 0.769848 0.000000
#
# Coordination Sequence:
#
# PCOD9147618 Si02
#       7
#     4   4   4   4   4   4   4
#     4   9  19  36  59  85 112 151 195 233 281 343
#     4  11  23  39  59  84 116 148 191 244 289 337
#     4  10  22  38  58  82 113 154 195 231 280 347
#     4  10  19  35  60  85 113 149 192 237 285 338
#     4   9  18  33  53  81 112 143 185 233 280 333
#     4  10  21  37  57  82 117 152 189 234 287 347
#     4   8  15  28  52  78 100 137 185 227 266 320
#
# _framework density 21.836635000000001
#
# number of rings (size 3 to 8) (size 9 to 14) (size 15 to 20)
#    0.000    2.429    0.000    3.000    2.000    2.571 
#    0.000    5.714    0.000    7.286    0.000    0.000 
#    0.000    0.000    0.000    0.000    0.000    0.000 
#
# Total GULP energy -156340.775866 kJ/mol
# GULP energy per Si atom -5583.599138 kJ/mol
# Density = 2.178693 g / cm^3
# Si number density = 21.836635 Si / 1000 Ang^3
#
#
#
# Elastic Constant Matrix: (Units=GPa)
#
#
# Indices 1 2 3 4 5 6 
#
# 1 65.8559 0.1920 47.0098 0.0000 2.2990 0.0000
# 2 0.1920 27.0706 -5.9046 0.0000 -0.8198 0.0000
# 3 47.0098 -5.9046 100.8771 0.0000 -21.6943 0.0000
# 4 0.0000 0.0000 0.0000 21.8069 0.0000 3.6069
# 5 2.2990 -0.8198 -21.6943 0.0000 36.8344 0.0000
# 6 0.0000 0.0000 0.0000 3.6069 0.0000 16.5430
#
#
#
# Elastic Compliance Matrix: (Units=1/GPa)
#
#
# Indices 1 2 3 4 5 6 
#
# 1 0.025884 -0.003650 -0.014474 0.000000 -0.010222 0.000000
# 2 -0.003650 0.038124 0.004768 0.000000 0.003884 0.000000
# 3 -0.014474 0.004768 0.019642 0.000000 0.012578 0.000000
# 4 0.000000 0.000000 0.000000 0.047573 0.000000 -0.010372
# 5 -0.010222 0.003884 0.012578 0.000000 0.035281 0.000000
# 6 0.000000 0.000000 0.000000 -0.010372 0.000000 0.062710
#
#
# Mechanical properties :
#
#
# Convention : Reuss Voigt Hill
#
# Bulk Modulus (GPa) = 17.56316 30.71090 24.13703
# Shear Modulus (GPa) = 18.18802 25.20396 21.69599
#
# Velocity S-wave (km/s) = 2.88915 3.40105 3.15550
# Velocity P-wave (km/s) = 4.38065 5.43298 4.93494
#
# Compressibility (1/GPa) = 0.05693735
#
# Stress axis : x y z
#
# Youngs Moduli (GPa) = 38.63353 26.23026 50.91057
#
# Poissons Ratio (x) = 0.09575 0.73689
# Poissons Ratio (y) = 0.14102 -0.24274
# Poissons Ratio (z) = 0.55919 -0.12506
#
# Static dielectric constant tensor:
#      x y z
#    x 1.796760 0.000000 0.003910 
#    y 0.000000 1.785950 0.000000 
#    z 0.003910 0.000000 1.803290 
# 
# From -- ./inp_files/70305.got.cif
#   From: 2010.05.17/outbox.cif.g08.bks.cpg/sg10_36_cif.got.tgz:70305.got - 2010.06.03 11:33:40.
