data_PCOD9147997
_publ_section_title
;
Structure prediction by ZEFSAII (Michael W. Deem and Ramdas Pophale) SiO2 
 PCOD9147997
Probable space group: P 2/M
;
_chemical_formula_sum "Si O2"
_cell_formula_units_Z 32
_cell_length_a 14.741133
_cell_length_b 8.890088
_cell_length_c 12.712679
_cell_angle_alpha 90.000000
_cell_angle_beta 89.588353
_cell_angle_gamma 90.000000
_cell_volume 1665.953198
_symmetry_space_group_name_H-M "P 2/M"
_symmetry_group_IT_number 10
_symmetry_cell_setting 'monoclinic'
loop_
_space_group_symop_operation_xyz
x,y,z
-x,y,-z
-x,-y,-z
x,-y,z
loop_
_atom_site_type_symbol
_atom_site_label
_atom_site_fract_x
_atom_site_fract_y
_atom_site_fract_z
Si Si1 0.678544 0.821468 0.882782
Si Si2 0.150027 0.817681 0.710571
Si Si3 0.282082 0.175271 0.526892
Si Si4 0.492027 0.324054 0.836764
Si Si5 0.554636 0.668212 0.391882
Si Si6 0.771793 0.321555 0.678771
Si Si7 0.704397 0.180830 0.118203
Si Si8 0.034099 0.818135 0.381035
O O1 0.575154 0.761439 0.889395
O O2 0.730534 0.744883 0.785982
O O3 0.676437 0.000000 0.865777
O O4 0.724344 0.791054 0.995285
O O5 0.197784 0.777994 0.599806
O O6 0.214881 0.766477 0.805058
O O7 0.045675 0.772006 0.699557
O O8 0.150167 0.000000 0.715434
O O9 0.368669 0.206776 0.598730
O O10 0.287574 0.269995 0.421025
O O11 0.273870 0.000000 0.500597
O O12 0.494384 0.500000 0.865028
O O13 0.505535 0.310472 0.710571
O O14 0.392099 0.257948 0.857099
O O15 0.500000 0.672429 0.500000
O O16 0.596231 0.500000 0.381301
O O17 0.773928 0.500000 0.685336
O O18 0.871316 0.256080 0.651444
O O19 0.693677 0.000000 0.131967
O O20 0.000000 0.781514 0.500000
O O21 0.044761 0.000000 0.378144
#
# Coordination Sequence:
#
# PCOD9147997 Si02
#       8
#     4   4   4   4   4   4   4   4
#     4  11  24  41  62  85 114 158 211 255 294 346
#     4   9  18  35  61  90 118 147 188 244 294 341
#     4  11  20  35  60  86 115 153 195 238 289 351
#     4  11  22  36  58  88 123 161 200 245 299 355
#     4  10  21  35  50  77 119 161 196 237 290 349
#     4  12  25  40  59  87 125 158 193 245 304 362
#     4  10  21  40  63  88 118 157 206 254 294 344
#     4  10  19  37  64  92 120 153 195 239 290 357
#
# _framework density 19.208221999999999
#
# number of rings (size 3 to 8) (size 9 to 14) (size 15 to 20)
#    0.000    1.500    2.500    3.375    0.000    4.500 
#    0.000    1.250    0.000    3.750    0.000    0.000 
#    0.000    0.000    0.000    0.000    0.000    0.000 
#
# Total GULP energy -178702.325085 kJ/mol
# GULP energy per Si atom -5584.447659 kJ/mol
# Density = 1.916450 g / cm^3
# Si number density = 19.208222 Si / 1000 Ang^3
#
#
#
# Elastic Constant Matrix: (Units=GPa)
#
#
# Indices 1 2 3 4 5 6 
#
# 1 83.6774 29.3827 37.7854 0.0000 14.4789 0.0000
# 2 29.3827 62.5539 42.9815 0.0000 2.9453 0.0000
# 3 37.7854 42.9815 110.2944 0.0000 16.4979 0.0000
# 4 0.0000 0.0000 0.0000 14.1141 0.0000 -1.1175
# 5 14.4789 2.9453 16.4979 0.0000 23.9552 0.0000
# 6 0.0000 0.0000 0.0000 -1.1175 0.0000 7.6361
#
#
#
# Elastic Compliance Matrix: (Units=1/GPa)
#
#
# Indices 1 2 3 4 5 6 
#
# 1 0.016291 -0.005794 -0.002182 0.000000 -0.007632 0.000000
# 2 -0.005794 0.024165 -0.008374 0.000000 0.006298 0.000000
# 3 -0.002182 -0.008374 0.014188 0.000000 -0.007423 0.000000
# 4 0.000000 0.000000 0.000000 0.071682 0.000000 0.010490
# 5 -0.007632 0.006298 -0.007423 0.000000 0.050695 0.000000
# 6 0.000000 0.000000 0.000000 0.010490 0.000000 0.132493
#
#
# Mechanical properties :
#
#
# Convention : Reuss Voigt Hill
#
# Bulk Modulus (GPa) = 45.56981 52.98056 49.27519
# Shear Modulus (GPa) = 14.30504 18.89948 16.60226
#
# Velocity S-wave (km/s) = 2.73194 3.14016 2.94314
# Velocity P-wave (km/s) = 5.80749 6.38667 6.10396
#
# Compressibility (1/GPa) = 0.02194435
#
# Stress axis : x y z
#
# Youngs Moduli (GPa) = 61.38458 41.38192 70.48296
#
# Poissons Ratio (x) = 0.23975 0.15377
# Poissons Ratio (y) = 0.35564 0.59025
# Poissons Ratio (z) = 0.13392 0.34655
#
# Static dielectric constant tensor:
#      x y z
#    x 1.673730 0.000000 0.015560 
#    y 0.000000 1.655780 0.000000 
#    z 0.015560 0.000000 1.687480 
# 
# From -- ./inp_files/49901.got.cif
#   From: 2010.05.17/outbox.cif.g08.bks.cpg/sg10_25_cif.got.tgz:49901.got - 2010.06.03 11:33:40.
