data_PCOD9147657
_publ_section_title
;
Structure prediction by ZEFSAII (Michael W. Deem and Ramdas Pophale) SiO2 
 PCOD9147657
Probable space group: P 2/M
;
_chemical_formula_sum "Si O2"
_cell_formula_units_Z 28
_cell_length_a 13.385391
_cell_length_b 8.903496
_cell_length_c 18.818289
_cell_angle_alpha 90.000000
_cell_angle_beta 142.150927
_cell_angle_gamma 90.000000
_cell_volume 1376.085746
_symmetry_space_group_name_H-M "P 2/M"
_symmetry_group_IT_number 10
_symmetry_cell_setting 'monoclinic'
loop_
_space_group_symop_operation_xyz
x,y,z
-x,y,-z
-x,-y,-z
x,-y,z
loop_
_atom_site_type_symbol
_atom_site_label
_atom_site_fract_x
_atom_site_fract_y
_atom_site_fract_z
Si Si1 0.178063 0.824395 0.068328
Si Si2 0.880808 0.328567 0.106850
Si Si3 0.931093 0.680673 0.384462
Si Si4 0.261733 0.329435 0.350195
Si Si5 0.772598 0.826113 0.525071
Si Si6 0.328017 0.680066 0.870873
Si Si7 0.455023 0.674806 0.313869
O O1 0.313214 0.725506 0.182121
O O2 0.207819 0.000000 0.098559
O O3 0.177838 0.786171 0.985281
O O4 0.000000 0.787128 0.000000
O O5 0.833830 0.500000 0.060587
O O6 0.802685 0.298152 0.139441
O O7 0.075897 0.323232 0.219223
O O8 0.919432 0.500000 0.382292
O O9 0.760363 0.734336 0.251952
O O10 0.000000 0.734892 0.500000
O O11 0.073395 0.727042 0.410265
O O12 0.289811 0.500000 0.393646
O O13 0.272704 0.211192 0.419199
O O14 0.381601 0.304466 0.351893
O O15 0.615377 0.772892 0.393201
O O16 0.808776 0.000000 0.535228
O O17 0.350720 0.500000 0.873799
O O18 0.500000 0.738273 0.000000
O O19 0.494655 0.500000 0.326901
#
# Coordination Sequence:
#
# PCOD9147657 Si02
#       7
#     4   4   4   4   4   4   4
#     4  11  23  37  55  84 124 160 197 246 304 367
#     4  10  19  35  61  87 116 155 202 247 293 356
#     4  10  21  40  66  92 120 159 210 261 311 369
#     4  10  20  37  61  88 116 155 207 254 294 353
#     4  12  25  39  59  88 125 161 200 250 314 375
#     4   9  18  35  61  92 120 148 195 257 310 361
#     4  11  23  39  61  86 119 161 210 256 300 359
#
# _framework density 20.347569
#
# number of rings (size 3 to 8) (size 9 to 14) (size 15 to 20)
#    0.000    1.571    2.857    2.571    0.000    5.429 
#    0.000    2.857    0.000    1.714    0.000    0.000 
#    0.000    0.000    0.000    0.000    0.000    0.000 
#
# Total GULP energy -156302.526216 kJ/mol
# GULP energy per Si atom -5582.233079 kJ/mol
# Density = 2.030126 g / cm^3
# Si number density = 20.347569 Si / 1000 Ang^3
#
#
#
# Elastic Constant Matrix: (Units=GPa)
#
#
# Indices 1 2 3 4 5 6 
#
# 1 20.4670 9.3732 29.9961 0.0000 1.7785 0.0000
# 2 9.3732 -13.0728 5.8952 0.0000 -16.0923 0.0000
# 3 29.9961 5.8952 122.1462 0.0000 -9.3140 0.0000
# 4 0.0000 0.0000 0.0000 12.6585 0.0000 17.7065
# 5 1.7785 -16.0923 -9.3140 0.0000 25.5444 0.0000
# 6 0.0000 0.0000 0.0000 17.7065 0.0000 -62.7554
#
#
#
# Elastic Compliance Matrix: (Units=1/GPa)
#
#
# Indices 1 2 3 4 5 6 
#
# 1 0.058232 0.026309 -0.015033 0.000000 0.007038 0.000000
# 2 0.026309 -0.031197 -0.006782 0.000000 -0.023958 0.000000
# 3 -0.015033 -0.006782 0.012302 0.000000 0.001260 0.000000
# 4 0.000000 0.000000 0.000000 0.056643 0.000000 0.015982
# 5 0.007038 -0.023958 0.001260 0.000000 0.024024 0.000000
# 6 0.000000 0.000000 0.000000 0.015982 0.000000 -0.011426
#
#
# Mechanical properties :
#
#
# Convention : Reuss Voigt Hill
#
# Bulk Modulus (GPa) = 20.69381 24.45216 22.57298
# Shear Modulus (GPa) = 43.21578 0.70788 21.96183
#
# Velocity S-wave (km/s) = 4.61356 0.59047 3.28889
# Velocity P-wave (km/s) = 6.21064 3.53669 5.05373
#
# Compressibility (1/GPa) = 0.04832363
#
# Stress axis : x y z
#
# Youngs Moduli (GPa) = 17.17278 -32.05399 81.28667
#
# Poissons Ratio (x) = 0.84331 1.22201
# Poissons Ratio (y) = -0.45180 0.55129
# Poissons Ratio (z) = 0.25816 -0.21739
#
# Static dielectric constant tensor:
#      x y z
#    x 1.707130 0.000000 -0.019670 
#    y 0.000000 1.677960 0.000000 
#    z -0.019670 0.000000 1.781810 
# 
# From -- ./inp_files/84956.got.cif
#   From: 2010.05.17/outbox.cif.g08.bks.cpg/sg10_43_cif.got.tgz:84956.got - 2010.06.03 11:33:40.
