data_PCOD9147090
_publ_section_title
;
Structure prediction by ZEFSAII (Michael W. Deem and Ramdas Pophale) SiO2 
 PCOD9147090
Probable space group: P 2/M
;
_chemical_formula_sum "Si O2"
_cell_formula_units_Z 28
_cell_length_a 18.411843
_cell_length_b 19.173537
_cell_length_c 12.432127
_cell_angle_alpha 90.000000
_cell_angle_beta 19.474119
_cell_angle_gamma 90.000000
_cell_volume 1463.139771
_symmetry_space_group_name_H-M "P 2/M"
_symmetry_group_IT_number 10
_symmetry_cell_setting 'monoclinic'
loop_
_space_group_symop_operation_xyz
x,y,z
-x,y,-z
-x,-y,-z
x,-y,z
loop_
_atom_site_type_symbol
_atom_site_label
_atom_site_fract_x
_atom_site_fract_y
_atom_site_fract_z
Si Si1 0.974572 0.839157 0.152303
Si Si2 0.502817 0.788319 0.116243
Si Si3 0.763587 0.281031 0.132138
Si Si4 0.292648 0.916957 0.854975
Si Si5 0.731642 0.577656 0.117346
Si Si6 0.260192 0.079291 0.146622
Si Si7 0.785629 0.691976 0.871344
O O1 0.732943 0.814117 0.515995
O O2 0.000000 0.874127 0.000000
O O3 0.130414 0.771175 0.933774
O O4 0.075713 0.885670 0.106063
O O5 0.500000 0.758417 0.000000
O O6 0.652230 0.857971 0.904518
O O7 0.605380 0.731954 0.054093
O O8 0.500000 0.280070 0.500000
O O9 0.845055 0.361071 0.028976
O O10 0.832433 0.262047 0.913417
O O11 0.500000 0.889279 0.500000
O O12 0.279950 0.000000 0.859840
O O13 0.335878 0.904382 0.919574
O O14 0.500000 0.570870 0.500000
O O15 0.825941 0.500000 0.977089
O O16 0.715403 0.618384 0.025184
O O17 0.000000 0.079853 0.500000
O O18 0.326591 0.000000 0.084473
O O19 0.000000 0.684005 0.500000
#
# Coordination Sequence:
#
# PCOD9147090 Si02
#       7
#     4   4   4   4   4   4   4
#     4  12  23  33  54  82 111 144 180 225 276 333
#     4  12  24  35  52  82 118 145 178 233 283 325
#     4   9  18  35  56  77 105 142 184 226 256 326
#     4  10  21  38  57  77 106 142 185 232 278 328
#     4   8  17  34  62  88 105 136 188 234 256 305
#     4  10  21  39  60  76 101 147 196 234 272 325
#     4  10  19  34  57  79 109 148 183 224 264 330
#
# _framework density 19.136928000000001
#
# number of rings (size 3 to 8) (size 9 to 14) (size 15 to 20)
#    0.857    1.000    0.000    5.143    0.000    1.429 
#    0.000    0.000    0.000    1.714    0.000    0.000 
#    0.000    0.000    0.000    0.000    0.000    0.000 
#
# Total GULP energy -155960.772526 kJ/mol
# GULP energy per Si atom -5570.027590 kJ/mol
# Density = 1.909337 g / cm^3
# Si number density = 19.136928 Si / 1000 Ang^3
#
#
#
# Elastic Constant Matrix: (Units=GPa)
#
#
# Indices 1 2 3 4 5 6 
#
# 1 44.6681 7.6048 7.8310 0.0000 4.6704 0.0000
# 2 7.6048 82.5590 -10.6993 0.0000 -12.6987 0.0000
# 3 7.8310 -10.6993 86.2376 0.0000 10.4566 0.0000
# 4 0.0000 0.0000 0.0000 4.7478 0.0000 -4.4988
# 5 4.6704 -12.6987 10.4566 0.0000 30.7562 0.0000
# 6 0.0000 0.0000 0.0000 -4.4988 0.0000 3.4186
#
#
#
# Elastic Compliance Matrix: (Units=1/GPa)
#
#
# Indices 1 2 3 4 5 6 
#
# 1 0.023707 -0.003091 -0.002029 0.000000 -0.004186 0.000000
# 2 -0.003091 0.013420 0.001269 0.000000 0.005579 0.000000
# 3 -0.002029 0.001269 0.012346 0.000000 -0.003365 0.000000
# 4 0.000000 0.000000 0.000000 -0.852837 0.000000 -1.122317
# 5 -0.004186 0.005579 -0.003365 0.000000 0.036597 0.000000
# 6 0.000000 0.000000 0.000000 -1.122317 0.000000 -1.184429
#
#
# Mechanical properties :
#
#
# Convention : Reuss Voigt Hill
#
# Bulk Modulus (GPa) = 23.93929 24.77086 24.35508
# Shear Modulus (GPa) = -2.59125 21.69973 9.55424
#
# Velocity S-wave (km/s) = -1.16490 3.37102 2.23683
# Velocity P-wave (km/s) = 3.27526 5.30319 4.40745
#
# Compressibility (1/GPa) = 0.04177233
#
# Stress axis : x y z
#
# Youngs Moduli (GPa) = 42.18193 74.51691 81.00059
#
# Poissons Ratio (x) = 0.23030 0.16432
# Poissons Ratio (y) = 0.13036 -0.10281
# Poissons Ratio (z) = 0.08557 -0.09458
#
# Static dielectric constant tensor:
#      x y z
#    x 1.607730 0.000000 0.016360 
#    y 0.000000 1.708500 0.000000 
#    z 0.016360 0.000000 1.689680 
# 
# From -- ./inp_files/54233.got.cif
#   From: 2010.05.17/outbox.cif.g08.bks.cpg/sg10_28_cif.got.tgz:54233.got - 2010.06.03 11:33:40.
