data_PCOD9147331
_publ_section_title
;
Structure prediction by ZEFSAII (Michael W. Deem and Ramdas Pophale) SiO2 
 PCOD9147331
Probable space group: P 2/M
;
_chemical_formula_sum "Si O2"
_cell_formula_units_Z 25
_cell_length_a 9.752050
_cell_length_b 9.309959
_cell_length_c 18.834539
_cell_angle_alpha 90.000000
_cell_angle_beta 46.169797
_cell_angle_gamma 90.000000
_cell_volume 1233.593218
_symmetry_space_group_name_H-M "P 2/M"
_symmetry_group_IT_number 10
_symmetry_cell_setting 'monoclinic'
loop_
_space_group_symop_operation_xyz
x,y,z
-x,y,-z
-x,-y,-z
x,-y,z
loop_
_atom_site_type_symbol
_atom_site_label
_atom_site_fract_x
_atom_site_fract_y
_atom_site_fract_z
Si Si1 0.697702 0.335880 0.755673
Si Si2 0.947211 0.828438 0.117803
Si Si3 0.716403 0.266976 0.586694
Si Si4 0.113686 0.337804 0.618469
Si Si5 0.723623 0.324213 0.069147
Si Si6 0.330509 0.168026 0.652987
Si Si7 0.000000 0.000000 0.500000
O O1 0.707527 0.500000 0.776910
O O2 0.688775 0.336641 0.673296
O O3 0.497096 0.278925 0.855635
O O4 0.902351 0.271042 0.702322
O O5 0.812998 0.748635 0.107889
O O6 0.846201 0.815500 0.229584
O O7 0.965099 0.000000 0.095916
O O8 0.146586 0.744842 0.038918
O O9 0.837265 0.344665 0.482307
O O10 0.511602 0.237391 0.625729
O O11 0.833910 0.123236 0.558111
O O12 0.120034 0.500000 0.644871
O O13 0.267861 0.242450 0.602958
O O14 0.737592 0.500000 0.066854
O O15 0.367603 0.000000 0.628657
#
# Coordination Sequence:
#
# PCOD9147331 Si02
#       7
#     4   4   4   4   4   4   1
#     4  10  21  39  62  88 118 154 199 251 298 349
#     4  10  20  37  56  87 120 153 189 244 299 355
#     4  12  22  40  62  88 121 154 204 242 298 349
#     4  11  25  41  59  86 121 162 202 244 295 350
#     4  10  19  34  61  90 115 149 195 245 298 349
#     4  11  25  40  60  85 122 160 196 241 295 358
#     4  12  24  36  64  96 114 162 202 254 292 350
#
# _framework density 20.266000999999999
#
# number of rings (size 3 to 8) (size 9 to 14) (size 15 to 20)
#    0.000    1.280    4.000    2.880    1.120    5.120 
#    1.440    0.800    0.000    4.800    0.000    0.000 
#    0.000    0.000    0.000    0.000    0.000    0.000 
#
# Total GULP energy -139225.917019 kJ/mol
# GULP energy per Si atom -5569.036681 kJ/mol
# Density = 2.021987 g / cm^3
# Si number density = 20.266001 Si / 1000 Ang^3
#
#
#
# Elastic Constant Matrix: (Units=GPa)
#
#
# Indices 1 2 3 4 5 6 
#
# 1 61.7085 3.9263 11.8063 0.0000 -31.0650 0.0000
# 2 3.9263 76.5515 8.6004 0.0000 -7.6737 0.0000
# 3 11.8063 8.6004 90.4007 0.0000 -28.7242 0.0000
# 4 0.0000 0.0000 0.0000 39.2638 0.0000 -5.6721
# 5 -31.0650 -7.6737 -28.7242 0.0000 39.1550 0.0000
# 6 0.0000 0.0000 0.0000 -5.6721 0.0000 -9.1958
#
#
#
# Elastic Compliance Matrix: (Units=1/GPa)
#
#
# Indices 1 2 3 4 5 6 
#
# 1 0.028342 0.000640 0.004462 0.000000 0.025885 0.000000
# 2 0.000640 0.013362 -0.000471 0.000000 0.002781 0.000000
# 3 0.004462 -0.000471 0.015151 0.000000 0.014563 0.000000
# 4 0.000000 0.000000 0.000000 0.023385 0.000000 -0.014424
# 5 0.025885 0.002781 0.014563 0.000000 0.057305 0.000000
# 6 0.000000 0.000000 0.000000 -0.014424 0.000000 -0.099848
#
#
# Mechanical properties :
#
#
# Convention : Reuss Voigt Hill
#
# Bulk Modulus (GPa) = 15.12478 30.81409 22.96944
# Shear Modulus (GPa) = 99.06172 27.46642 63.26407
#
# Velocity S-wave (km/s) = 6.99906 3.68543 5.59327
# Velocity P-wave (km/s) = 8.53201 5.77474 7.28501
#
# Compressibility (1/GPa) = 0.06611665
#
# Stress axis : x y z
#
# Youngs Moduli (GPa) = 35.28388 74.83934 66.00123
#
# Poissons Ratio (x) = -0.04788 -0.29453
# Poissons Ratio (y) = -0.02257 0.03110
# Poissons Ratio (z) = -0.15745 0.03527
#
# Static dielectric constant tensor:
#      x y z
#    x 1.715610 0.000000 -0.019090 
#    y 0.000000 1.719770 0.000000 
#    z -0.019090 0.000000 1.764160 
# 
# From -- ./inp_files/81951.got.cif
#   From: 2010.05.17/outbox.cif.g08.bks.cpg/sg10_41_cif.got.tgz:81951.got - 2010.06.03 11:33:40.
