data_PCOD9147857
_publ_section_title
;
Structure prediction by ZEFSAII (Michael W. Deem and Ramdas Pophale) SiO2 
 PCOD9147857
Probable space group: P 2/M
;
_chemical_formula_sum "Si O2"
_cell_formula_units_Z 14
_cell_length_a 5.090427
_cell_length_b 13.791259
_cell_length_c 10.073915
_cell_angle_alpha 90.000000
_cell_angle_beta 103.376737
_cell_angle_gamma 90.000000
_cell_volume 688.036018
_symmetry_space_group_name_H-M "P 2/M"
_symmetry_group_IT_number 10
_symmetry_cell_setting 'monoclinic'
loop_
_space_group_symop_operation_xyz
x,y,z
-x,y,-z
-x,-y,-z
x,-y,z
loop_
_atom_site_type_symbol
_atom_site_label
_atom_site_fract_x
_atom_site_fract_y
_atom_site_fract_z
Si Si1 0.000000 0.736966 0.500000
Si Si2 0.750026 0.205926 0.724747
Si Si3 0.686798 0.114608 0.148143
Si Si4 0.446742 0.609158 0.652671
O O1 0.191691 0.798184 0.426589
O O2 0.165171 0.666928 0.618516
O O3 0.498365 0.143777 0.748045
O O4 0.662208 0.317553 0.740711
O O5 0.028797 0.170013 0.821382
O O6 0.742387 0.000000 0.154511
O O7 0.500000 0.138150 0.000000
O O8 0.500000 0.602820 0.500000
O O9 0.438024 0.500000 0.704035
#
# Coordination Sequence:
#
# PCOD9147857 Si02
#       4
#     2   4   4   4
#     4  10  19  36  61  92 132 154 189 236 301 360
#     4  11  21  39  62  93 123 150 196 250 298 349
#     4  11  24  43  65  85 110 157 213 253 290 345
#     4   9  18  33  60  91 124 160 195 231 286 358
#
# _framework density 20.347771999999999
#
# number of rings (size 3 to 8) (size 9 to 14) (size 15 to 20)
#    0.000    1.714    2.857    2.143    0.000    3.429 
#    0.000    4.286    0.000    5.143    0.000    0.000 
#    0.000    0.000    0.000    0.000    0.000    0.000 
#
# Total GULP energy -78065.175397 kJ/mol
# GULP energy per Si atom -5576.083957 kJ/mol
# Density = 2.030146 g / cm^3
# Si number density = 20.347772 Si / 1000 Ang^3
#
#
#
# Elastic Constant Matrix: (Units=GPa)
#
#
# Indices 1 2 3 4 5 6 
#
# 1 132.1626 47.7966 31.9894 0.0000 33.0963 0.0000
# 2 47.7966 99.6799 52.9268 0.0000 40.8669 0.0000
# 3 31.9894 52.9268 47.2141 0.0000 18.7549 0.0000
# 4 0.0000 0.0000 0.0000 83.1215 0.0000 -18.1712
# 5 33.0963 40.8669 18.7549 0.0000 39.8546 0.0000
# 6 0.0000 0.0000 0.0000 -18.1712 0.0000 32.5859
#
#
#
# Elastic Compliance Matrix: (Units=1/GPa)
#
#
# Indices 1 2 3 4 5 6 
#
# 1 0.010241 0.000199 -0.004554 0.000000 -0.006566 0.000000
# 2 0.000199 0.035467 -0.031216 0.000000 -0.021843 0.000000
# 3 -0.004554 -0.031216 0.055397 0.000000 0.009722 0.000000
# 4 0.000000 0.000000 0.000000 0.013701 0.000000 0.007640
# 5 -0.006566 -0.021843 0.009722 0.000000 0.048366 0.000000
# 6 0.000000 0.000000 0.000000 0.007640 0.000000 0.034949
#
#
# Mechanical properties :
#
#
# Convention : Reuss Voigt Hill
#
# Bulk Modulus (GPa) = 33.37478 60.49801 46.93639
# Shear Modulus (GPa) = 17.90514 40.86864 29.38689
#
# Velocity S-wave (km/s) = 2.96962 4.48650 3.80443
# Velocity P-wave (km/s) = 5.30999 7.52561 6.51271
#
# Compressibility (1/GPa) = 0.02996275
#
# Stress axis : x y z
#
# Youngs Moduli (GPa) = 97.64888 28.19548 18.05155
#
# Poissons Ratio (x) = -0.00562 0.08220
# Poissons Ratio (y) = -0.01945 0.56350
# Poissons Ratio (z) = 0.44467 0.88016
#
# Static dielectric constant tensor:
#      x y z
#    x 1.789230 0.000000 0.008890 
#    y 0.000000 1.731320 0.000000 
#    z 0.008890 0.000000 1.749430 
# 
# From -- ./inp_files/38523.got.cif
#   From: 2010.05.17/outbox.cif.g08.bks.cpg/sg10_20_cif.got.tgz:38523.got - 2010.06.03 11:33:40.
