data_PCOD9147983
_publ_section_title
;
Structure prediction by ZEFSAII (Michael W. Deem and Ramdas Pophale) SiO2 
 PCOD9147983
Probable space group: P 2/M
;
_chemical_formula_sum "Si O2"
_cell_formula_units_Z 25
_cell_length_a 8.781457
_cell_length_b 15.847953
_cell_length_c 13.361783
_cell_angle_alpha 90.000000
_cell_angle_beta 134.198960
_cell_angle_gamma 90.000000
_cell_volume 1333.143318
_symmetry_space_group_name_H-M "P 2/M"
_symmetry_group_IT_number 10
_symmetry_cell_setting 'monoclinic'
loop_
_space_group_symop_operation_xyz
x,y,z
-x,y,-z
-x,-y,-z
x,-y,z
loop_
_atom_site_type_symbol
_atom_site_label
_atom_site_fract_x
_atom_site_fract_y
_atom_site_fract_z
Si Si1 0.714616 0.594462 0.660729
Si Si2 0.750202 0.403540 0.905070
Si Si3 0.837356 0.905421 0.517923
Si Si4 0.344600 0.240871 0.021089
Si Si5 0.629482 0.134963 0.769967
Si Si6 0.886253 0.773869 0.720275
Si Si7 0.000000 0.000000 0.000000
O O1 0.500000 0.595357 0.500000
O O2 0.813282 0.500000 0.697645
O O3 0.656300 0.605596 0.750916
O O4 0.854117 0.673710 0.689458
O O5 0.726833 0.500000 0.927511
O O6 0.664791 0.336604 0.943815
O O7 0.000000 0.386235 0.000000
O O8 0.595008 0.903087 0.367663
O O9 0.869889 0.832591 0.615147
O O10 0.000000 0.893927 0.500000
O O11 0.876736 0.000000 0.578937
O O12 0.409789 0.185760 0.146042
O O13 0.500000 0.230487 0.000000
O O14 0.111699 0.214505 0.877168
O O15 0.707990 0.195686 0.716785
O O16 0.824441 0.072355 0.883328
#
# Coordination Sequence:
#
# PCOD9147983 Si02
#       7
#     4   4   4   4   4   4   1
#     4  10  20  36  62  94 121 154 206 263 311 360
#     4  10  19  37  63  88 121 163 212 260 304 368
#     4  11  26  44  64  94 131 167 205 259 327 383
#     4  12  24  39  60  91 132 166 203 260 325 380
#     4  12  23  44  65  93 122 163 218 261 309 372
#     4  12  23  40  65  93 121 165 215 261 307 373
#     4  12  24  40  70  92 120 160 216 276 298 368
#
# _framework density 18.752673999999999
#
# number of rings (size 3 to 8) (size 9 to 14) (size 15 to 20)
#    0.000    0.800    5.600    2.400    1.120    0.960 
#    0.000    0.400    0.000    0.480    0.000    0.000 
#    0.000    0.000    0.000    0.000    0.000    0.000 
#
# Total GULP energy -139329.360811 kJ/mol
# GULP energy per Si atom -5573.174432 kJ/mol
# Density = 1.870999 g / cm^3
# Si number density = 18.752674 Si / 1000 Ang^3
#
#
#
# Elastic Constant Matrix: (Units=GPa)
#
#
# Indices 1 2 3 4 5 6 
#
# 1 88.6820 48.9802 20.5104 0.0000 -14.5305 0.0000
# 2 48.9802 132.3279 16.4378 0.0000 -17.6258 0.0000
# 3 20.5104 16.4378 88.2342 0.0000 -9.7848 0.0000
# 4 0.0000 0.0000 0.0000 51.2473 0.0000 -18.5013
# 5 -14.5305 -17.6258 -9.7848 0.0000 25.4175 0.0000
# 6 0.0000 0.0000 0.0000 -18.5013 0.0000 28.0000
#
#
#
# Elastic Compliance Matrix: (Units=1/GPa)
#
#
# Indices 1 2 3 4 5 6 
#
# 1 0.015126 -0.004728 -0.002131 0.000000 0.004548 0.000000
# 2 -0.004728 0.009881 -0.000294 0.000000 0.004036 0.000000
# 3 -0.002131 -0.000294 0.012249 0.000000 0.003293 0.000000
# 4 0.000000 0.000000 0.000000 0.025626 0.000000 0.016933
# 5 0.004548 0.004036 0.003293 0.000000 0.046009 0.000000
# 6 0.000000 0.000000 0.000000 0.016933 0.000000 0.046903
#
#
# Mechanical properties :
#
#
# Convention : Reuss Voigt Hill
#
# Bulk Modulus (GPa) = 43.57444 53.45565 48.51504
# Shear Modulus (GPa) = 28.12932 35.82067 31.97499
#
# Velocity S-wave (km/s) = 3.87721 4.37528 4.13375
# Velocity P-wave (km/s) = 6.58259 7.35470 6.97933
#
# Compressibility (1/GPa) = 0.02294923
#
# Stress axis : x y z
#
# Youngs Moduli (GPa) = 66.11276 101.20213 81.64066
#
# Poissons Ratio (x) = 0.47850 0.17396
# Poissons Ratio (y) = 0.31259 0.02402
# Poissons Ratio (z) = 0.14088 0.02977
#
# Static dielectric constant tensor:
#      x y z
#    x 1.616470 0.000000 -0.012230 
#    y 0.000000 1.685670 0.000000 
#    z -0.012230 0.000000 1.675010 
# 
# From -- ./inp_files/62088.got.cif
#   From: 2010.05.17/outbox.cif.g08.bks.cpg/sg10_32_cif.got.tgz:62088.got - 2010.06.03 11:33:40.
