data_PCOD9147438
_publ_section_title
;
Structure prediction by ZEFSAII (Michael W. Deem and Ramdas Pophale) SiO2 
 PCOD9147438
Probable space group: P 2/M
;
_chemical_formula_sum "Si O2"
_cell_formula_units_Z 25
_cell_length_a 7.633403
_cell_length_b 20.238837
_cell_length_c 15.257165
_cell_angle_alpha 90.000000
_cell_angle_beta 152.614038
_cell_angle_gamma 90.000000
_cell_volume 1084.223106
_symmetry_space_group_name_H-M "P 2/M"
_symmetry_group_IT_number 10
_symmetry_cell_setting 'monoclinic'
loop_
_space_group_symop_operation_xyz
x,y,z
-x,y,-z
-x,-y,-z
x,-y,z
loop_
_atom_site_type_symbol
_atom_site_label
_atom_site_fract_x
_atom_site_fract_y
_atom_site_fract_z
Si Si1 0.462743 0.135283 0.202431
Si Si2 0.693515 0.281617 0.680421
Si Si3 0.171766 0.000000 0.672655
Si Si4 0.313102 0.135155 0.322264
Si Si5 0.953211 0.000000 0.198587
Si Si6 0.000000 0.500000 0.000000
Si Si7 0.529932 0.719555 0.797326
Si Si8 0.314898 0.388192 0.005969
O O1 0.588225 0.133223 0.360498
O O2 0.582247 0.207160 0.220283
O O3 0.600590 0.068706 0.219007
O O4 0.000000 0.134752 0.000000
O O5 0.500000 0.286213 0.500000
O O6 0.874980 0.207764 0.767607
O O7 0.423647 0.287622 0.647162
O O8 0.996481 0.338959 0.826188
O O9 0.897018 0.000000 0.634028
O O10 0.000000 0.000000 0.500000
O O11 0.500000 0.134793 0.500000
O O12 0.079243 0.068019 0.211365
O O13 0.500000 0.000000 0.000000
O O14 0.140647 0.442376 0.992622
O O15 0.429315 0.660523 0.818470
O O16 0.000000 0.718164 0.000000
O O17 0.500000 0.416519 0.000000
#
# Coordination Sequence:
#
# PCOD9147438 Si02
#       8
#     4   4   2   4   2   1   4   4
#     4  10  19  35  57  73 100 153 201 237 292 355
#     4   9  18  36  62  89 121 159 199 257 312 355
#     4  12  24  34  46  74 116 148 188 252 310 336
#     4  10  20  36  57  77 108 158 204 241 304 373
#     4  12  24  34  48  78 116 148 202 272 302 333
#     4  12  22  44  70  92 136 158 204 236 300 372
#     4   8  16  35  58  83 115 152 198 253 293 350
#     4  11  22  39  68  96 123 164 201 243 296 367
#
# _framework density 23.057983
#
# number of rings (size 3 to 8) (size 9 to 14) (size 15 to 20)
#    0.000    1.920    2.400    4.080    0.000    1.920 
#    0.000    1.200    0.000    0.960    0.000    0.000 
#    0.000    0.000    0.000    0.000    0.000    0.000 
#
# Total GULP energy -139374.093757 kJ/mol
# GULP energy per Si atom -5574.963750 kJ/mol
# Density = 2.300550 g / cm^3
# Si number density = 23.057983 Si / 1000 Ang^3
#
#
#
# Elastic Constant Matrix: (Units=GPa)
#
#
# Indices 1 2 3 4 5 6 
#
# 1 158.2117 78.2530 30.3881 0.0000 -35.7848 0.0000
# 2 78.2530 210.7508 36.7013 0.0000 -8.4656 0.0000
# 3 30.3881 36.7013 62.9337 0.0000 -30.2269 0.0000
# 4 0.0000 0.0000 0.0000 -13.0541 0.0000 4.9858
# 5 -35.7848 -8.4656 -30.2269 0.0000 41.9652 0.0000
# 6 0.0000 0.0000 0.0000 4.9858 0.0000 12.7111
#
#
#
# Elastic Compliance Matrix: (Units=1/GPa)
#
#
# Indices 1 2 3 4 5 6 
#
# 1 0.009742 -0.003535 0.001537 0.000000 0.008701 0.000000
# 2 -0.003535 0.006651 -0.004549 0.000000 -0.004950 0.000000
# 3 0.001537 -0.004549 0.027504 0.000000 0.020204 0.000000
# 4 0.000000 0.000000 0.000000 -0.066623 0.000000 0.026132
# 5 0.008701 -0.004950 0.020204 0.000000 0.044803 0.000000
# 6 0.000000 0.000000 0.000000 0.026132 0.000000 0.068421
#
#
# Mechanical properties :
#
#
# Convention : Reuss Voigt Hill
#
# Bulk Modulus (GPa) = 32.46484 80.28677 56.37581
# Shear Modulus (GPa) = 43.91340 27.42803 35.67072
#
# Velocity S-wave (km/s) = 4.36877 3.45269 3.93746
# Velocity P-wave (km/s) = 6.28954 7.12670 6.72117
#
# Compressibility (1/GPa) = 0.03080255
#
# Stress axis : x y z
#
# Youngs Moduli (GPa) = 102.64638 150.35303 36.35807
#
# Poissons Ratio (x) = 0.53157 -0.05588
# Poissons Ratio (y) = 0.36290 0.16539
# Poissons Ratio (z) = -0.15775 0.68393
#
# Static dielectric constant tensor:
#      x y z
#    x 1.920760 0.000000 -0.025220 
#    y 0.000000 1.821170 0.000000 
#    z -0.025220 0.000000 2.013550 
# 
# From -- ./inp_files/75470.got.cif
#   From: 2010.05.17/outbox.cif.g08.bks.cpg/sg10_38_cif.got.tgz:75470.got - 2010.06.03 11:33:40.
