data_PCOD9147289
_publ_section_title
;
Structure prediction by ZEFSAII (Michael W. Deem and Ramdas Pophale) SiO2 
 PCOD9147289
Probable space group: P 2/M
;
_chemical_formula_sum "Si O2"
_cell_formula_units_Z 32
_cell_length_a 11.474248
_cell_length_b 8.017252
_cell_length_c 20.277189
_cell_angle_alpha 90.000000
_cell_angle_beta 125.750683
_cell_angle_gamma 90.000000
_cell_volume 1513.846722
_symmetry_space_group_name_H-M "P 2/M"
_symmetry_group_IT_number 10
_symmetry_cell_setting 'monoclinic'
loop_
_space_group_symop_operation_xyz
x,y,z
-x,y,-z
-x,-y,-z
x,-y,z
loop_
_atom_site_type_symbol
_atom_site_label
_atom_site_fract_x
_atom_site_fract_y
_atom_site_fract_z
Si Si1 0.546190 0.201195 0.322828
Si Si2 0.091825 0.187666 0.116565
Si Si3 0.103783 0.301756 0.264266
Si Si4 0.172049 0.300625 0.752157
Si Si5 0.871111 0.798088 0.410965
Si Si6 0.395615 0.797914 0.406583
Si Si7 0.207022 0.691097 0.021840
Si Si8 0.491459 0.299039 0.839394
O O1 0.713381 0.250718 0.384662
O O2 0.458569 0.261147 0.357103
O O3 0.495149 0.259034 0.233975
O O4 0.539421 0.000000 0.320283
O O5 0.141287 0.222133 0.206472
O O6 0.159481 0.304387 0.083166
O O7 0.128773 0.000000 0.109053
O O8 0.919945 0.212920 0.056718
O O9 0.093733 0.500000 0.251756
O O10 0.232225 0.262390 0.356957
O O11 0.950758 0.236568 0.239721
O O12 0.179970 0.500000 0.764005
O O13 0.120377 0.266166 0.660703
O O14 0.335455 0.235223 0.811130
O O15 0.000000 0.739868 0.500000
O O16 0.875481 0.000000 0.410217
O O17 0.500000 0.743739 0.500000
O O18 0.394201 0.000000 0.406156
O O19 0.206035 0.500000 0.997763
O O20 0.368354 0.760748 0.074960
O O21 0.492139 0.500000 0.845443
#
# Coordination Sequence:
#
# PCOD9147289 Si02
#       8
#     4   4   4   4   4   4   4   4
#     4   9  18  32  49  75 105 135 173 217 267 318
#     4  11  22  36  56  84 115 148 181 219 271 326
#     4  11  23  39  57  77 109 147 185 226 270 324
#     4   9  20  37  54  76 105 141 182 223 270 322
#     4   9  18  31  52  77 101 132 174 223 269 319
#     4  10  22  37  55  78 107 143 180 223 273 328
#     4  10  19  34  59  87 114 141 179 227 271 321
#     4   9  18  34  56  80 105 138 177 221 271 319
#
# _framework density 21.138204000000002
#
# number of rings (size 3 to 8) (size 9 to 14) (size 15 to 20)
#    0.000    2.250    0.000    3.375    1.750    5.000 
#    0.000    0.625    0.000    3.750    0.000    0.000 
#    0.000    0.000    0.000    0.000    0.000    0.000 
#
# Total GULP energy -178680.434642 kJ/mol
# GULP energy per Si atom -5583.763583 kJ/mol
# Density = 2.109009 g / cm^3
# Si number density = 21.138204 Si / 1000 Ang^3
#
#
#
# Elastic Constant Matrix: (Units=GPa)
#
#
# Indices 1 2 3 4 5 6 
#
# 1 57.9218 -2.0903 12.6532 0.0000 5.7920 0.0000
# 2 -2.0903 26.5782 -2.4747 0.0000 1.5021 0.0000
# 3 12.6532 -2.4747 79.8023 0.0000 26.7837 0.0000
# 4 0.0000 0.0000 0.0000 25.5812 0.0000 3.3310
# 5 5.7920 1.5021 26.7837 0.0000 25.1410 0.0000
# 6 0.0000 0.0000 0.0000 3.3310 0.0000 12.6695
#
#
#
# Elastic Compliance Matrix: (Units=1/GPa)
#
#
# Indices 1 2 3 4 5 6 
#
# 1 0.017977 0.001320 -0.002168 0.000000 -0.001911 0.000000
# 2 0.001320 0.038317 0.002879 0.000000 -0.005660 0.000000
# 3 -0.002168 0.002879 0.020008 0.000000 -0.020988 0.000000
# 4 0.000000 0.000000 0.000000 0.040477 0.000000 -0.010642
# 5 -0.001911 -0.005660 -0.020988 0.000000 0.062913 0.000000
# 6 0.000000 0.000000 0.000000 -0.010642 0.000000 0.081728
#
#
# Mechanical properties :
#
#
# Convention : Reuss Voigt Hill
#
# Bulk Modulus (GPa) = 12.44364 20.05319 16.24842
# Shear Modulus (GPa) = 17.59654 23.09260 20.34457
#
# Velocity S-wave (km/s) = 2.88835 3.30882 3.10571
# Velocity P-wave (km/s) = 4.12590 4.90969 4.53476
#
# Compressibility (1/GPa) = 0.08036233
#
# Stress axis : x y z
#
# Youngs Moduli (GPa) = 55.62667 26.09841 49.97970
#
# Poissons Ratio (x) = -0.03445 0.10837
# Poissons Ratio (y) = -0.07342 -0.14387
# Poissons Ratio (z) = 0.12061 -0.07513
#
# Static dielectric constant tensor:
#      x y z
#    x 1.784990 0.000000 0.043070 
#    y 0.000000 1.758480 0.000000 
#    z 0.043070 0.000000 1.746480 
# 
# From -- ./inp_files/83634.got.cif
#   From: 2010.05.17/outbox.cif.g08.bks.cpg/sg10_42_cif.got.tgz:83634.got - 2010.06.03 11:33:40.
