data_PCOD9147736
_publ_section_title
;
Structure prediction by ZEFSAII (Michael W. Deem and Ramdas Pophale) SiO2 
 PCOD9147736
Probable space group: P 2/M
;
_chemical_formula_sum "Si O2"
_cell_formula_units_Z 32
_cell_length_a 20.552597
_cell_length_b 7.483735
_cell_length_c 25.555616
_cell_angle_alpha 90.000000
_cell_angle_beta 158.556343
_cell_angle_gamma 90.000000
_cell_volume 1437.014469
_symmetry_space_group_name_H-M "P 2/M"
_symmetry_group_IT_number 10
_symmetry_cell_setting 'monoclinic'
loop_
_space_group_symop_operation_xyz
x,y,z
-x,y,-z
-x,-y,-z
x,-y,z
loop_
_atom_site_type_symbol
_atom_site_label
_atom_site_fract_x
_atom_site_fract_y
_atom_site_fract_z
Si Si1 0.376121 0.782019 0.859516
Si Si2 0.330128 0.281028 0.513558
Si Si3 0.993654 0.293624 0.197229
Si Si4 0.392265 0.795454 0.063548
Si Si5 0.717104 0.282998 0.780051
Si Si6 0.033121 0.718316 0.940459
Si Si7 0.985188 0.784254 0.550267
Si Si8 0.380048 0.296843 0.668704
O O1 0.466999 0.721873 0.873324
O O2 0.173027 0.724699 0.714624
O O3 0.368306 0.000000 0.851897
O O4 0.500000 0.728613 0.000000
O O5 0.321876 0.500000 0.509606
O O6 0.512967 0.228885 0.621710
O O7 0.352041 0.220341 0.589964
O O8 0.152374 0.217330 0.351407
O O9 0.043876 0.500000 0.226332
O O10 0.969133 0.215892 0.120626
O O11 0.801574 0.289832 0.080656
O O12 0.482577 0.789269 0.188096
O O13 0.360958 0.000000 0.025225
O O14 0.718870 0.500000 0.781381
O O15 0.853985 0.228443 0.837280
O O16 0.802228 0.226035 0.899425
O O17 0.039809 0.500000 0.944733
O O18 0.000000 0.741964 0.500000
O O19 0.811930 0.705792 0.447297
O O20 0.967644 0.000000 0.541248
O O21 0.445444 0.500000 0.711472
#
# Coordination Sequence:
#
# PCOD9147736 Si02
#       8
#     4   4   4   4   4   4   4   4
#     4   9  19  35  55  77 101 132 171 216 263 306
#     4   9  19  32  48  75 113 145 172 212 264 314
#     4  10  20  34  51  77 111 142 171 214 268 314
#     4  11  22  38  57  78 102 137 181 219 259 315
#     4   8  13  25  45  73 105 139 177 213 251 305
#     4   8  14  25  47  75 104 138 176 214 255 303
#     4  10  19  36  58  79 103 133 174 220 260 308
#     4  11  22  36  55  79 108 141 175 217 265 312
#
# _framework density 22.26839
#
# number of rings (size 3 to 8) (size 9 to 14) (size 15 to 20)
#    0.000    2.500    1.250    2.250    1.750    2.750 
#    0.000    3.125    0.000    1.875    0.000    9.625 
#    0.000    0.000    0.000    0.000    0.000    0.000 
#
# Total GULP energy -178717.693054 kJ/mol
# GULP energy per Si atom -5584.927908 kJ/mol
# Density = 2.221771 g / cm^3
# Si number density = 22.268390 Si / 1000 Ang^3
#
#
#
# Elastic Constant Matrix: (Units=GPa)
#
#
# Indices 1 2 3 4 5 6 
#
# 1 50.2283 -1.5818 24.7183 0.0000 2.1751 0.0000
# 2 -1.5818 55.6767 -4.4918 0.0000 -4.2122 0.0000
# 3 24.7183 -4.4918 159.2070 0.0000 7.8878 0.0000
# 4 0.0000 0.0000 0.0000 16.6003 0.0000 16.6751
# 5 2.1751 -4.2122 7.8878 0.0000 27.7940 0.0000
# 6 0.0000 0.0000 0.0000 16.6751 0.0000 14.1431
#
#
#
# Elastic Compliance Matrix: (Units=1/GPa)
#
#
# Indices 1 2 3 4 5 6 
#
# 1 0.021576 0.000293 -0.003307 0.000000 -0.000706 0.000000
# 2 0.000293 0.018196 0.000337 0.000000 0.002639 0.000000
# 3 -0.003307 0.000337 0.006885 0.000000 -0.001644 0.000000
# 4 0.000000 0.000000 0.000000 -0.326780 0.000000 0.385283
# 5 -0.000706 0.002639 -0.001644 0.000000 0.036901 0.000000
# 6 0.000000 0.000000 0.000000 0.385283 0.000000 -0.383555
#
#
# Mechanical properties :
#
#
# Convention : Reuss Voigt Hill
#
# Bulk Modulus (GPa) = 24.21053 33.60014 28.90534
# Shear Modulus (GPa) = -8.22835 28.13864 9.95514
#
# Velocity S-wave (km/s) = -1.92435 3.55859 2.11666
# Velocity P-wave (km/s) = 2.44096 5.65740 4.35686
#
# Compressibility (1/GPa) = 0.04130433
#
# Stress axis : x y z
#
# Youngs Moduli (GPa) = 46.34746 54.95708 145.23298
#
# Poissons Ratio (x) = -0.01609 0.48024
# Poissons Ratio (y) = -0.01357 -0.04897
# Poissons Ratio (z) = 0.15326 -0.01853
#
# Static dielectric constant tensor:
#      x y z
#    x 1.796160 0.000000 -0.005310 
#    y 0.000000 1.872230 0.000000 
#    z -0.005310 0.000000 1.786550 
# 
# From -- ./inp_files/93811.got.cif
#   From: 2010.05.17/outbox.cif.g08.bks.cpg/sg10_47_cif.got.tgz:93811.got - 2010.06.03 11:33:40.
