data_PCOD9147101
_publ_section_title
;
Structure prediction by ZEFSAII (Michael W. Deem and Ramdas Pophale) SiO2 
 PCOD9147101
Probable space group: P 2/M
;
_chemical_formula_sum "Si O2"
_cell_formula_units_Z 28
_cell_length_a 7.557039
_cell_length_b 13.861810
_cell_length_c 13.300306
_cell_angle_alpha 90.000000
_cell_angle_beta 55.890159
_cell_angle_gamma 90.000000
_cell_volume 1153.572002
_symmetry_space_group_name_H-M "P 2/M"
_symmetry_group_IT_number 10
_symmetry_cell_setting 'monoclinic'
loop_
_space_group_symop_operation_xyz
x,y,z
-x,y,-z
-x,-y,-z
x,-y,z
loop_
_atom_site_type_symbol
_atom_site_label
_atom_site_fract_x
_atom_site_fract_y
_atom_site_fract_z
Si Si1 0.230069 0.500000 0.057165
Si Si2 0.504797 0.305454 0.700104
Si Si3 0.268243 0.113018 0.537740
Si Si4 0.160313 0.610383 0.544935
Si Si5 0.726451 0.500000 0.182972
Si Si6 0.151541 0.889659 0.200889
Si Si7 0.193138 0.315412 0.197851
Si Si8 0.522775 0.894533 0.728389
O O1 0.271387 0.403318 0.105584
O O2 0.977188 0.500000 0.117468
O O3 0.333798 0.500000 0.915228
O O4 0.654548 0.320378 0.554729
O O5 0.366091 0.401189 0.744750
O O6 0.653927 0.305987 0.752766
O O7 0.388811 0.201654 0.748043
O O8 0.500000 0.150203 0.500000
O O9 0.280328 0.118439 0.413189
O O10 0.049076 0.138195 0.662523
O O11 0.276917 0.000000 0.557649
O O12 0.231093 0.500000 0.541385
O O13 0.000000 0.605648 0.500000
O O14 0.031378 0.650959 0.680477
O O15 0.182182 0.785145 0.138805
O O16 0.366971 0.897410 0.198940
O O17 0.119901 0.000000 0.169031
O O18 0.423085 0.000000 0.740716
#
# Coordination Sequence:
#
# PCOD9147101 Si02
#       8
#     2   4   4   4   2   4   4   4
#     4  11  25  42  57  76 104 135 172 223 274 315
#     4  10  19  34  57  81 107 142 179 213 258 317
#     4   9  16  25  39  64 102 147 187 214 241 292
#     4   9  15  26  47  77 110 137 167 211 255 298
#     4  11  25  42  57  76 104 135 172 223 274 315
#     4   9  17  29  47  73 105 139 175 216 261 309
#     4  10  19  34  57  81 107 142 179 213 258 317
#     4   9  17  29  47  73 105 139 175 216 261 309
#
# _framework density 24.272431999999998
#
# number of rings (size 3 to 8) (size 9 to 14) (size 15 to 20)
#    0.000    2.429    1.429    1.714    0.000    6.286 
#    0.000    1.429    0.000    0.857    0.000    6.000 
#    0.000    0.000    0.000    0.000    0.000    0.000 
#
# Total GULP energy -156155.702248 kJ/mol
# GULP energy per Si atom -5576.989366 kJ/mol
# Density = 2.421719 g / cm^3
# Si number density = 24.272432 Si / 1000 Ang^3
#
#
#
# Elastic Constant Matrix: (Units=GPa)
#
#
# Indices 1 2 3 4 5 6 
#
# 1 50.8474 30.0409 12.4334 0.0000 0.1531 0.0000
# 2 30.0409 245.3174 19.6809 0.0000 -4.4003 0.0000
# 3 12.4334 19.6809 30.3447 0.0000 1.5157 0.0000
# 4 0.0000 0.0000 0.0000 -11.5966 0.0000 4.9176
# 5 0.1531 -4.4003 1.5157 0.0000 22.9457 0.0000
# 6 0.0000 0.0000 0.0000 4.9176 0.0000 -2.9472
#
#
#
# Elastic Compliance Matrix: (Units=1/GPa)
#
#
# Indices 1 2 3 4 5 6 
#
# 1 0.022896 -0.002165 -0.007975 0.000000 -0.000041 0.000000
# 2 -0.002165 0.004528 -0.002101 0.000000 0.001022 0.000000
# 3 -0.007975 -0.002101 0.037727 0.000000 -0.002842 0.000000
# 4 0.000000 0.000000 0.000000 -0.294872 0.000000 -0.492015
# 5 -0.000041 0.001022 -0.002842 0.000000 0.043965 0.000000
# 6 0.000000 0.000000 0.000000 -0.492015 0.000000 -1.160269
#
#
# Mechanical properties :
#
#
# Convention : Reuss Voigt Hill
#
# Bulk Modulus (GPa) = 24.58860 50.09109 37.33984
# Shear Modulus (GPa) = -3.82267 19.30401 7.74067
#
# Velocity S-wave (km/s) = -1.25631 2.82318 1.78774
# Velocity P-wave (km/s) = 2.83687 5.59544 4.43603
#
# Compressibility (1/GPa) = 0.04066926
#
# Stress axis : x y z
#
# Youngs Moduli (GPa) = 43.67600 220.83269 26.50617
#
# Poissons Ratio (x) = 0.47803 0.21139
# Poissons Ratio (y) = 0.09454 0.05569
# Poissons Ratio (z) = 0.34833 0.46398
#
# Static dielectric constant tensor:
#      x y z
#    x 1.942770 0.000000 0.002980 
#    y 0.000000 2.031350 0.000000 
#    z 0.002980 0.000000 1.922510 
# 
# From -- ./inp_files/61793.got.cif
#   From: 2010.05.17/outbox.cif.g08.bks.cpg/sg10_31_cif.got.tgz:61793.got - 2010.06.03 11:33:40.
