data_PCOD9147537
_publ_section_title
;
Structure prediction by ZEFSAII (Michael W. Deem and Ramdas Pophale) SiO2 
 PCOD9147537
Probable space group: P 2/M
;
_chemical_formula_sum "Si O2"
_cell_formula_units_Z 32
_cell_length_a 12.577211
_cell_length_b 18.440924
_cell_length_c 15.040990
_cell_angle_alpha 90.000000
_cell_angle_beta 27.693465
_cell_angle_gamma 90.000000
_cell_volume 1621.266798
_symmetry_space_group_name_H-M "P 2/M"
_symmetry_group_IT_number 10
_symmetry_cell_setting 'monoclinic'
loop_
_space_group_symop_operation_xyz
x,y,z
-x,y,-z
-x,-y,-z
x,-y,z
loop_
_atom_site_type_symbol
_atom_site_label
_atom_site_fract_x
_atom_site_fract_y
_atom_site_fract_z
Si Si1 0.920639 0.307223 0.339662
Si Si2 0.891258 0.124172 0.995632
Si Si3 0.061186 0.138675 0.240618
Si Si4 0.263689 0.170149 0.272161
Si Si5 0.017951 0.284052 0.084226
Si Si6 0.528778 0.303132 0.777147
Si Si7 0.409359 0.084340 0.329557
Si Si8 0.330103 0.581739 0.043346
O O1 0.015959 0.225079 0.266491
O O2 0.717404 0.306509 0.560579
O O3 0.872460 0.320421 0.270525
O O4 0.117649 0.364466 0.219097
O O5 0.036863 0.198782 0.884360
O O6 0.620077 0.128894 0.214670
O O7 0.889772 0.103135 0.891861
O O8 0.000000 0.083499 0.000000
O O9 0.243773 0.140848 0.186288
O O10 0.828524 0.102185 0.446805
O O11 0.394227 0.244726 0.203833
O O12 0.370257 0.110153 0.257758
O O13 0.000000 0.182039 0.500000
O O14 0.282559 0.283228 0.918910
O O15 0.000000 0.317648 0.000000
O O16 0.480415 0.381037 0.855400
O O17 0.464221 0.000000 0.295196
O O18 0.253982 0.500000 0.078642
O O19 0.500000 0.579444 0.000000
#
# Coordination Sequence:
#
# PCOD9147537 Si02
#       8
#     4   4   4   4   4   4   4   4
#     4  10  19  35  60  85 113 155 199 237 288 342
#     4  10  21  39  58  80 112 151 197 242 290 348
#     4  10  21  37  59  87 111 150 195 241 289 342
#     4  10  19  35  58  87 116 146 198 237 286 351
#     4   9  19  35  57  88 119 146 195 257 294 334
#     4  11  19  36  60  86 117 155 197 241 289 350
#     4  11  23  39  57  84 119 151 189 243 298 348
#     4  10  23  36  52  87 127 159 189 231 289 351
#
# _framework density 19.737652000000001
#
# number of rings (size 3 to 8) (size 9 to 14) (size 15 to 20)
#    0.000    1.875    3.750    0.750    0.000    5.000 
#    0.000    6.250    0.000    6.000    0.000    7.000 
#    0.000    0.000    0.000    0.000    0.000    0.000 
#
# Total GULP energy -178213.888325 kJ/mol
# GULP energy per Si atom -5569.184010 kJ/mol
# Density = 1.969273 g / cm^3
# Si number density = 19.737652 Si / 1000 Ang^3
#
#
#
# Elastic Constant Matrix: (Units=GPa)
#
#
# Indices 1 2 3 4 5 6 
#
# 1 133.8197 4.7316 42.0655 0.0000 13.0464 0.0000
# 2 4.7316 79.3237 9.3797 0.0000 6.1734 0.0000
# 3 42.0655 9.3797 96.8046 0.0000 17.3372 0.0000
# 4 0.0000 0.0000 0.0000 23.4983 0.0000 -1.2197
# 5 13.0464 6.1734 17.3372 0.0000 24.7103 0.0000
# 6 0.0000 0.0000 0.0000 -1.2197 0.0000 1.4149
#
#
#
# Elastic Compliance Matrix: (Units=1/GPa)
#
#
# Indices 1 2 3 4 5 6 
#
# 1 0.008762 0.000056 -0.003410 0.000000 -0.002247 0.000000
# 2 0.000056 0.012907 -0.000791 0.000000 -0.002699 0.000000
# 3 -0.003410 -0.000791 0.013188 0.000000 -0.007255 0.000000
# 4 0.000000 0.000000 0.000000 0.044550 0.000000 0.038404
# 5 -0.002247 -0.002699 -0.007255 0.000000 0.047420 0.000000
# 6 0.000000 0.000000 0.000000 0.038404 0.000000 0.739859
#
#
# Mechanical properties :
#
#
# Convention : Reuss Voigt Hill
#
# Bulk Modulus (GPa) = 37.64453 46.92241 42.28347
# Shear Modulus (GPa) = 5.65718 26.84278 16.24998
#
# Velocity S-wave (km/s) = 1.69482 3.69179 2.87243
# Velocity P-wave (km/s) = 4.78996 6.48051 5.69828
#
# Compressibility (1/GPa) = 0.02656428
#
# Stress axis : x y z
#
# Youngs Moduli (GPa) = 114.13089 77.47817 75.82674
#
# Poissons Ratio (x) = -0.00430 0.25859
# Poissons Ratio (y) = -0.00633 0.06001
# Poissons Ratio (z) = 0.38922 0.06132
#
# Static dielectric constant tensor:
#      x y z
#    x 1.801980 0.000000 0.029220 
#    y 0.000000 1.720270 0.000000 
#    z 0.029220 0.000000 1.736170 
# 
# From -- ./inp_files/65388.got.cif
#   From: 2010.05.17/outbox.cif.g08.bks.cpg/sg10_33_cif.got.tgz:65388.got - 2010.06.03 11:33:40.
