data_PCOD9147029
_publ_section_title
;
Structure prediction by ZEFSAII (Michael W. Deem and Ramdas Pophale) SiO2 
 PCOD9147029
Probable space group: P 2/M
;
_chemical_formula_sum "Si O2"
_cell_formula_units_Z 28
_cell_length_a 28.449099
_cell_length_b 7.505631
_cell_length_c 8.331684
_cell_angle_alpha 90.000000
_cell_angle_beta 135.758772
_cell_angle_gamma 90.000000
_cell_volume 1241.210036
_symmetry_space_group_name_H-M "P 2/M"
_symmetry_group_IT_number 10
_symmetry_cell_setting 'monoclinic'
loop_
_space_group_symop_operation_xyz
x,y,z
-x,y,-z
-x,-y,-z
x,-y,z
loop_
_atom_site_type_symbol
_atom_site_label
_atom_site_fract_x
_atom_site_fract_y
_atom_site_fract_z
Si Si1 0.071952 0.284805 0.241298
Si Si2 0.643237 0.202863 0.685145
Si Si3 0.072090 0.717308 0.610969
Si Si4 0.421739 0.782747 0.802972
Si Si5 0.214550 0.702300 0.080080
Si Si6 0.213577 0.206703 0.436923
Si Si7 0.657429 0.782320 0.070627
O O1 0.071473 0.500000 0.232741
O O2 0.079070 0.232085 0.443117
O O3 0.136658 0.224850 0.301182
O O4 0.000000 0.222225 0.000000
O O5 0.611351 0.282316 0.444841
O O6 0.723604 0.200487 0.852209
O O7 0.617318 0.000000 0.628948
O O8 0.632806 0.283067 0.836625
O O9 0.070428 0.500000 0.618444
O O10 0.000000 0.779862 0.500000
O O11 0.139663 0.776448 0.866566
O O12 0.384635 0.725706 0.875709
O O13 0.416336 0.000000 0.789135
O O14 0.500000 0.735395 0.000000
O O15 0.215815 0.500000 0.021121
O O16 0.225872 0.700729 0.298037
O O17 0.265289 0.268543 0.700560
O O18 0.229171 0.000000 0.444906
O O19 0.654822 0.000000 0.055398
#
# Coordination Sequence:
#
# PCOD9147029 Si02
#       7
#     4   4   4   4   4   4   4
#     4  10  20  35  55  78 105 139 181 227 276 327
#     4  10  19  34  56  80 112 146 178 225 279 324
#     4   9  18  33  52  75 103 135 176 227 274 320
#     4   9  17  31  53  83 116 146 181 225 272 326
#     4  11  21  34  55  80 106 140 184 226 272 330
#     4  11  21  35  54  77 110 144 180 227 277 328
#     4   9  18  32  52  81 112 144 182 225 275 325
#
# _framework density 22.558630000000001
#
# number of rings (size 3 to 8) (size 9 to 14) (size 15 to 20)
#    0.000    2.143    1.429    2.571    0.000    3.143 
#    0.000    4.286    0.000    3.429    0.000    1.000 
#    0.000    0.000    0.000    0.000    0.000    0.000 
#
# Total GULP energy -156421.915070 kJ/mol
# GULP energy per Si atom -5586.496967 kJ/mol
# Density = 2.250729 g / cm^3
# Si number density = 22.558630 Si / 1000 Ang^3
#
#
#
# Elastic Constant Matrix: (Units=GPa)
#
#
# Indices 1 2 3 4 5 6 
#
# 1 120.3822 -2.5256 80.3784 0.0000 -15.0446 0.0000
# 2 -2.5256 60.5128 3.6527 0.0000 -2.6410 0.0000
# 3 80.3784 3.6527 156.2132 0.0000 -15.7883 0.0000
# 4 0.0000 0.0000 0.0000 4.8448 0.0000 4.9171
# 5 -15.0446 -2.6410 -15.7883 0.0000 43.2981 0.0000
# 6 0.0000 0.0000 0.0000 4.9171 0.0000 8.2759
#
#
#
# Elastic Compliance Matrix: (Units=1/GPa)
#
#
# Indices 1 2 3 4 5 6 
#
# 1 0.012904 0.001023 -0.006441 0.000000 0.002197 0.000000
# 2 0.001023 0.016664 -0.000807 0.000000 0.001078 0.000000
# 3 -0.006441 -0.000807 0.009867 0.000000 0.001311 0.000000
# 4 0.000000 0.000000 0.000000 0.519926 0.000000 -0.308911
# 5 0.002197 0.001078 0.001311 0.000000 0.024403 0.000000
# 6 0.000000 0.000000 0.000000 -0.308911 0.000000 0.304370
#
#
# Mechanical properties :
#
#
# Convention : Reuss Voigt Hill
#
# Bulk Modulus (GPa) = 37.05873 55.56877 46.31375
# Shear Modulus (GPa) = 5.49705 28.32395 16.91050
#
# Velocity S-wave (km/s) = 1.56271 3.54725 2.74090
# Velocity P-wave (km/s) = 4.44066 6.43924 5.53097
#
# Compressibility (1/GPa) = 0.02698419
#
# Stress axis : x y z
#
# Youngs Moduli (GPa) = 77.49624 60.00991 101.34543
#
# Poissons Ratio (x) = -0.06141 0.65281
# Poissons Ratio (y) = -0.07930 0.08181
# Poissons Ratio (z) = 0.49919 0.04844
#
# Static dielectric constant tensor:
#      x y z
#    x 1.781020 0.000000 -0.005170 
#    y 0.000000 1.873880 0.000000 
#    z -0.005170 0.000000 1.833260 
# 
# From -- ./inp_files/37907.got.cif
#   From: 2010.05.17/outbox.cif.g08.bks.cpg/sg10_19_cif.got.tgz:37907.got - 2010.06.03 11:33:40.
