data_PCOD9147327
_publ_section_title
;
Structure prediction by ZEFSAII (Michael W. Deem and Ramdas Pophale) SiO2 
 PCOD9147327
Probable space group: P 2/M
;
_chemical_formula_sum "Si O2"
_cell_formula_units_Z 16
_cell_length_a 5.345617
_cell_length_b 17.239427
_cell_length_c 7.379801
_cell_angle_alpha 90.000000
_cell_angle_beta 92.397602
_cell_angle_gamma 90.000000
_cell_volume 679.492960
_symmetry_space_group_name_H-M "P 2/M"
_symmetry_group_IT_number 10
_symmetry_cell_setting 'monoclinic'
loop_
_space_group_symop_operation_xyz
x,y,z
-x,y,-z
-x,-y,-z
x,-y,z
loop_
_atom_site_type_symbol
_atom_site_label
_atom_site_fract_x
_atom_site_fract_y
_atom_site_fract_z
Si Si1 0.077573 0.589450 0.291027
Si Si2 0.714412 0.844882 0.303686
Si Si3 0.211997 0.091031 0.285080
Si Si4 0.417000 0.678530 0.798973
O O1 0.111165 0.500000 0.236884
O O2 0.341037 0.633686 0.272119
O O3 0.000000 0.591530 0.500000
O O4 0.833006 0.626561 0.189266
O O5 0.751248 0.883488 0.502858
O O6 0.475622 0.885755 0.208928
O O7 0.659584 0.754071 0.316835
O O8 0.973554 0.861312 0.211523
O O9 0.163707 0.000000 0.272000
O O10 0.500000 0.705883 0.000000
#
# Coordination Sequence:
#
# PCOD9147327 Si02
#       4
#     4   4   4   4
#     4  11  26  46  70  97 128 168 222 277 319 376
#     4  10  20  33  56  89 123 159 204 270 310 371
#     4  10  19  34  60  90 119 164 219 267 315 374
#     4  12  26  42  66  98 137 176 213 260 332 401
#
# _framework density 23.546969000000001
#
# number of rings (size 3 to 8) (size 9 to 14) (size 15 to 20)
#    0.000    1.250    0.000    7.500   10.500    5.000 
#    0.000    0.000    0.000    8.250    0.000    0.000 
#    0.000    0.000    0.000    0.000    0.000    0.000 
#
# Total GULP energy -89500.779514 kJ/mol
# GULP energy per Si atom -5593.798720 kJ/mol
# Density = 2.349337 g / cm^3
# Si number density = 23.546969 Si / 1000 Ang^3
#
#
#
# Elastic Constant Matrix: (Units=GPa)
#
#
# Indices 1 2 3 4 5 6 
#
# 1 239.1326 83.0872 21.5935 0.0000 40.7359 0.0000
# 2 83.0872 169.6519 3.6503 0.0000 15.0941 0.0000
# 3 21.5935 3.6503 46.4112 0.0000 -5.1976 0.0000
# 4 0.0000 0.0000 0.0000 -8.4133 0.0000 20.1597
# 5 40.7359 15.0941 -5.1976 0.0000 25.3723 0.0000
# 6 0.0000 0.0000 0.0000 20.1597 0.0000 48.1003
#
#
#
# Elastic Compliance Matrix: (Units=1/GPa)
#
#
# Indices 1 2 3 4 5 6 
#
# 1 0.007384 -0.002516 -0.004501 0.000000 -0.011281 0.000000
# 2 -0.002516 0.007120 0.000602 0.000000 -0.000073 0.000000
# 3 -0.004501 0.000602 0.024934 0.000000 0.011976 0.000000
# 4 0.000000 0.000000 0.000000 -0.059303 0.000000 0.024855
# 5 -0.011281 -0.000073 0.011976 0.000000 0.060021 0.000000
# 6 0.000000 0.000000 0.000000 0.024855 0.000000 0.010373
#
#
# Mechanical properties :
#
#
# Convention : Reuss Voigt Hill
#
# Bulk Modulus (GPa) = 37.58034 74.65087 56.11560
# Shear Modulus (GPa) = 69.22478 36.13615 52.68047
#
# Velocity S-wave (km/s) = 5.42793 3.92170 4.73509
# Velocity P-wave (km/s) = 7.43489 7.23036 7.33334
#
# Compressibility (1/GPa) = 0.02660966
#
# Stress axis : x y z
#
# Youngs Moduli (GPa) = 135.42856 140.44743 40.10509
#
# Poissons Ratio (x) = 0.35334 0.18051
# Poissons Ratio (y) = 0.34071 -0.02416
# Poissons Ratio (z) = 0.60956 -0.08459
#
# Static dielectric constant tensor:
#      x y z
#    x 1.945710 0.000000 0.033880 
#    y 0.000000 1.829710 0.000000 
#    z 0.033880 0.000000 1.916270 
# 
# From -- ./inp_files/14343.got.cif
#   From: 2010.05.17/outbox.cif.g08.bks.cpg/sg10_8_cif.got.tgz:14343.got - 2010.06.03 11:33:40.
