data_PCOD9147925
_publ_section_title
;
Structure prediction by ZEFSAII (Michael W. Deem and Ramdas Pophale) SiO2 
 PCOD9147925
Probable space group: P 2/M
;
_chemical_formula_sum "Si O2"
_cell_formula_units_Z 30
_cell_length_a 30.362624
_cell_length_b 11.132906
_cell_length_c 24.604277
_cell_angle_alpha 90.000000
_cell_angle_beta 168.610535
_cell_angle_gamma 90.000000
_cell_volume 1642.385792
_symmetry_space_group_name_H-M "P 2/M"
_symmetry_group_IT_number 10
_symmetry_cell_setting 'monoclinic'
loop_
_space_group_symop_operation_xyz
x,y,z
-x,y,-z
-x,-y,-z
x,-y,z
loop_
_atom_site_type_symbol
_atom_site_label
_atom_site_fract_x
_atom_site_fract_y
_atom_site_fract_z
Si Si1 0.015877 0.636938 0.455779
Si Si2 0.025627 0.868571 0.805963
Si Si3 0.500000 0.698856 0.000000
Si Si4 0.600114 0.866239 0.222356
Si Si5 0.405451 0.238728 0.096691
Si Si6 0.509601 0.134638 0.340072
Si Si7 0.148830 0.631210 0.348801
Si Si8 0.200029 0.633802 0.284550
O O1 0.933026 0.500000 0.355319
O O2 0.267792 0.637097 0.737374
O O3 0.000000 0.677876 0.500000
O O4 0.845605 0.714734 0.213732
O O5 0.857921 0.863577 0.552110
O O6 0.970862 0.749375 0.773302
O O7 0.980166 0.000000 0.777870
O O8 0.276949 0.866936 0.090283
O O9 0.442609 0.776925 0.877880
O O10 0.536967 0.000000 0.129070
O O11 0.468998 0.831516 0.118654
O O12 0.454029 0.162659 0.209637
O O13 0.587753 0.346269 0.321264
O O14 0.648291 0.246967 0.531632
O O15 0.610695 0.000000 0.466724
O O16 0.083163 0.500000 0.291883
O O17 0.112544 0.629775 0.240498
O O18 0.306911 0.500000 0.404539
O O19 0.000000 0.645408 0.000000
#
# Coordination Sequence:
#
# PCOD9147925 Si02
#       8
#     4   4   2   4   4   4   4   4
#     4  11  23  39  56  77 109 146 188 238 291 348
#     4   9  19  35  53  78 110 144 182 233 282 329
#     4  12  22  38  54  80 106 144 186 234 298 352
#     4  10  20  35  55  77 106 141 181 231 286 346
#     4  10  19  37  56  80 108 143 186 235 289 336
#     4  10  20  35  58  84 112 145 189 234 279 336
#     4   9  18  33  57  83 106 141 186 227 275 333
#     4   9  19  36  57  83 116 149 184 227 275 331
#
# _framework density 18.266110999999999
#
# number of rings (size 3 to 8) (size 9 to 14) (size 15 to 20)
#    0.000    2.133    1.333    2.000    0.000    4.533 
#    0.000    6.667    0.000    4.000    0.000    0.000 
#    0.000    0.000    0.000    0.000    0.000    0.000 
#
# Total GULP energy -167072.190928 kJ/mol
# GULP energy per Si atom -5569.073031 kJ/mol
# Density = 1.822454 g / cm^3
# Si number density = 18.266111 Si / 1000 Ang^3
#
#
#
# Elastic Constant Matrix: (Units=GPa)
#
#
# Indices 1 2 3 4 5 6 
#
# 1 44.6620 33.3755 34.3988 0.0000 2.7286 0.0000
# 2 33.3755 158.1667 54.5369 0.0000 -2.2918 0.0000
# 3 34.3988 54.5369 71.3260 0.0000 -1.0150 0.0000
# 4 0.0000 0.0000 0.0000 15.7427 0.0000 7.5672
# 5 2.7286 -2.2918 -1.0150 0.0000 20.0018 0.0000
# 6 0.0000 0.0000 0.0000 7.5672 0.0000 7.4307
#
#
#
# Elastic Compliance Matrix: (Units=1/GPa)
#
#
# Indices 1 2 3 4 5 6 
#
# 1 0.036909 -0.002321 -0.016112 0.000000 -0.006119 0.000000
# 2 -0.002321 0.008741 -0.005549 0.000000 0.001037 0.000000
# 3 -0.016112 -0.005549 0.026075 0.000000 0.002885 0.000000
# 4 0.000000 0.000000 0.000000 0.124432 0.000000 -0.126718
# 5 -0.006119 0.001037 0.002885 0.000000 0.051095 0.000000
# 6 0.000000 0.000000 0.000000 -0.126718 0.000000 0.263621
#
#
# Mechanical properties :
#
#
# Convention : Reuss Voigt Hill
#
# Bulk Modulus (GPa) = 42.08984 57.64192 49.86588
# Shear Modulus (GPa) = 8.82212 18.75795 13.79003
#
# Velocity S-wave (km/s) = 2.20006 3.20805 2.75062
# Velocity P-wave (km/s) = 5.43565 6.73404 6.11938
#
# Compressibility (1/GPa) = 0.02375870
#
# Stress axis : x y z
#
# Youngs Moduli (GPa) = 27.09390 114.40859 38.35142
#
# Poissons Ratio (x) = 0.26557 0.61793
# Poissons Ratio (y) = 0.06289 0.21281
# Poissons Ratio (z) = 0.43655 0.63485
#
# Static dielectric constant tensor:
#      x y z
#    x 1.612030 0.000000 0.013950 
#    y 0.000000 1.674210 0.000000 
#    z 0.013950 0.000000 1.622600 
# 
# From -- ./inp_files/91480.got.cif
#   From: 2010.05.17/outbox.cif.g08.bks.cpg/sg10_46_cif.got.tgz:91480.got - 2010.06.03 11:33:40.
