data_PCOD9147811
_publ_section_title
;
Structure prediction by ZEFSAII (Michael W. Deem and Ramdas Pophale) SiO2 
 PCOD9147811
Probable space group: P 2/M
;
_chemical_formula_sum "Si O2"
_cell_formula_units_Z 32
_cell_length_a 13.101721
_cell_length_b 8.654316
_cell_length_c 14.881899
_cell_angle_alpha 90.000000
_cell_angle_beta 102.121311
_cell_angle_gamma 90.000000
_cell_volume 1649.785090
_symmetry_space_group_name_H-M "P 2/M"
_symmetry_group_IT_number 10
_symmetry_cell_setting 'monoclinic'
loop_
_space_group_symop_operation_xyz
x,y,z
-x,y,-z
-x,-y,-z
x,-y,z
loop_
_atom_site_type_symbol
_atom_site_label
_atom_site_fract_x
_atom_site_fract_y
_atom_site_fract_z
Si Si1 0.008568 0.815961 0.217391
Si Si2 0.803237 0.812546 0.068850
Si Si3 0.536801 0.314601 0.406406
Si Si4 0.416458 0.186784 0.212340
Si Si5 0.041121 0.682876 0.604628
Si Si6 0.810547 0.316166 0.874161
Si Si7 0.609049 0.179425 0.139165
Si Si8 0.267042 0.178699 0.648702
O O1 0.894459 0.773288 0.156359
O O2 0.012551 0.766333 0.321490
O O3 0.098283 0.737358 0.175554
O O4 0.018848 0.000000 0.211391
O O5 0.689093 0.754796 0.080518
O O6 0.798505 0.000000 0.063103
O O7 0.832662 0.745619 0.978183
O O8 0.500000 0.276387 0.500000
O O9 0.541198 0.500000 0.398282
O O10 0.460974 0.248126 0.315192
O O11 0.649728 0.242734 0.406681
O O12 0.300190 0.244123 0.174925
O O13 0.496311 0.242666 0.148018
O O14 0.420439 0.000000 0.213703
O O15 0.023574 0.500000 0.609666
O O16 0.163377 0.721422 0.631564
O O17 0.000000 0.734622 0.500000
O O18 0.803285 0.500000 0.872951
O O19 0.675343 0.182899 0.244093
O O20 0.591749 0.000000 0.110722
O O21 0.240447 0.000000 0.626012
#
# Coordination Sequence:
#
# PCOD9147811 Si02
#       8
#     4   4   4   4   4   4   4   4
#     4  11  23  42  67  90 118 159 209 258 305 364
#     4  10  20  39  65  91 119 155 203 253 308 367
#     4  10  21  37  59  88 122 159 197 246 311 369
#     4  10  21  39  62  87 119 159 206 253 304 361
#     4  11  24  40  60  90 126 161 197 247 315 370
#     4  12  26  41  58  87 128 166 204 252 310 370
#     4   8  16  34  61  89 114 147 192 248 299 349
#     4  10  19  36  60  86 115 154 203 249 295 354
#
# _framework density 19.396464000000002
#
# number of rings (size 3 to 8) (size 9 to 14) (size 15 to 20)
#    0.000    1.750    1.250    4.125    0.000    6.000 
#    0.000    5.000    0.000    0.000    0.000    0.000 
#    0.000    0.000    0.000    0.000    0.000    0.000 
#
# Total GULP energy -178746.985074 kJ/mol
# GULP energy per Si atom -5585.843284 kJ/mol
# Density = 1.935232 g / cm^3
# Si number density = 19.396464 Si / 1000 Ang^3
#
#
#
# Elastic Constant Matrix: (Units=GPa)
#
#
# Indices 1 2 3 4 5 6 
#
# 1 76.6546 10.9987 34.0244 0.0000 -18.1425 0.0000
# 2 10.9987 31.6509 21.0518 0.0000 -2.0358 0.0000
# 3 34.0244 21.0518 95.2502 0.0000 -20.5381 0.0000
# 4 0.0000 0.0000 0.0000 30.4760 0.0000 -3.3609
# 5 -18.1425 -2.0358 -20.5381 0.0000 32.6014 0.0000
# 6 0.0000 0.0000 0.0000 -3.3609 0.0000 31.2969
#
#
#
# Elastic Compliance Matrix: (Units=1/GPa)
#
#
# Indices 1 2 3 4 5 6 
#
# 1 0.016773 -0.002781 -0.003936 0.000000 0.006681 0.000000
# 2 -0.002781 0.037808 -0.008317 0.000000 -0.004426 0.000000
# 3 -0.003936 -0.008317 0.015227 0.000000 0.006883 0.000000
# 4 0.000000 0.000000 0.000000 0.033206 0.000000 0.003566
# 5 0.006681 -0.004426 0.006883 0.000000 0.038451 0.000000
# 6 0.000000 0.000000 0.000000 0.003566 0.000000 0.032335
#
#
# Mechanical properties :
#
#
# Convention : Reuss Voigt Hill
#
# Bulk Modulus (GPa) = 25.16391 37.30062 31.23227
# Shear Modulus (GPa) = 23.02924 28.04025 25.53475
#
# Velocity S-wave (km/s) = 3.44945 3.80628 3.63225
# Velocity P-wave (km/s) = 5.37276 6.21204 5.80758
#
# Compressibility (1/GPa) = 0.03973945
#
# Stress axis : x y z
#
# Youngs Moduli (GPa) = 59.62000 26.44921 65.67233
#
# Poissons Ratio (x) = 0.07355 0.25851
# Poissons Ratio (y) = 0.16579 0.54622
# Poissons Ratio (z) = 0.23469 0.21999
#
# Static dielectric constant tensor:
#      x y z
#    x 1.671820 0.000000 -0.002430 
#    y 0.000000 1.651040 0.000000 
#    z -0.002430 0.000000 1.667720 
# 
# From -- ./inp_files/63806.got.cif
#   From: 2010.05.17/outbox.cif.g08.bks.cpg/sg10_32_cif.got.tgz:63806.got - 2010.06.03 11:33:40.
