data_PCOD9147192
_publ_section_title
;
Structure prediction by ZEFSAII (Michael W. Deem and Ramdas Pophale) SiO2 
 PCOD9147192
Probable space group: P 2/M
;
_chemical_formula_sum "Si O2"
_cell_formula_units_Z 17
_cell_length_a 7.591211
_cell_length_b 23.570835
_cell_length_c 5.330497
_cell_angle_alpha 90.000000
_cell_angle_beta 133.632193
_cell_angle_gamma 90.000000
_cell_volume 690.339738
_symmetry_space_group_name_H-M "P 2/M"
_symmetry_group_IT_number 10
_symmetry_cell_setting 'monoclinic'
loop_
_space_group_symop_operation_xyz
x,y,z
-x,y,-z
-x,-y,-z
x,-y,z
loop_
_atom_site_type_symbol
_atom_site_label
_atom_site_fract_x
_atom_site_fract_y
_atom_site_fract_z
Si Si1 0.331195 0.939348 0.584057
Si Si2 0.362024 0.421229 0.613586
Si Si3 0.854973 0.691986 0.607595
Si Si4 0.336184 0.817732 0.588504
Si Si5 0.000000 0.500000 0.500000
O O1 0.500000 0.939418 0.500000
O O2 0.197178 0.878494 0.453045
O O3 0.194253 0.000000 0.448720
O O4 0.500000 0.939288 0.000000
O O5 0.500000 0.439511 0.500000
O O6 0.361804 0.352804 0.610137
O O7 0.101638 0.450121 0.403476
O O8 0.500000 0.440168 0.000000
O O9 0.804650 0.758959 0.557807
O O10 0.000000 0.679678 0.500000
O O11 0.000000 0.678187 0.000000
O O12 0.500000 0.817808 0.500000
O O13 0.500000 0.816116 0.000000
#
# Coordination Sequence:
#
# PCOD9147192 Si02
#       5
#     4   4   4   4   1
#     4   8  14  25  45  75 110 147 194 255 312 370
#     4  12  27  48  74 103 137 178 218 266 327 387
#     4  12  24  42  64  91 129 167 213 268 321 380
#     4  10  19  34  57  86 116 155 210 261 317 386
#     4  12  28  50  76 108 142 168 224 266 322 394
#
# _framework density 24.625557000000001
#
# number of rings (size 3 to 8) (size 9 to 14) (size 15 to 20)
#    0.000    1.412    1.176    4.941    0.000    0.941 
#    0.000    0.000    0.000    1.412    0.000    0.000 
#    0.000    0.000    0.000    0.000    0.000    0.000 
#
# Total GULP energy -94734.672126 kJ/mol
# GULP energy per Si atom -5572.627772 kJ/mol
# Density = 2.456951 g / cm^3
# Si number density = 24.625557 Si / 1000 Ang^3
#
#
#
# Elastic Constant Matrix: (Units=GPa)
#
#
# Indices 1 2 3 4 5 6 
#
# 1 171.4795 25.9236 36.5231 0.0000 -62.2826 0.0000
# 2 25.9236 221.4464 10.6398 0.0000 -5.8246 0.0000
# 3 36.5231 10.6398 123.7648 0.0000 -53.7107 0.0000
# 4 0.0000 0.0000 0.0000 30.2170 0.0000 -34.6533
# 5 -62.2826 -5.8246 -53.7107 0.0000 43.7617 0.0000
# 6 0.0000 0.0000 0.0000 -34.6533 0.0000 31.4532
#
#
#
# Elastic Compliance Matrix: (Units=1/GPa)
#
#
# Indices 1 2 3 4 5 6 
#
# 1 0.018703 -0.001700 0.013010 0.000000 0.042361 0.000000
# 2 -0.001700 0.004691 -0.001457 0.000000 -0.003583 0.000000
# 3 0.013010 -0.001457 0.026355 0.000000 0.050669 0.000000
# 4 0.000000 0.000000 0.000000 -0.125597 0.000000 -0.138376
# 5 0.042361 -0.003583 0.050669 0.000000 0.144851 0.000000
# 6 0.000000 0.000000 0.000000 -0.138376 0.000000 -0.120661
#
#
# Mechanical properties :
#
#
# Convention : Reuss Voigt Hill
#
# Bulk Modulus (GPa) = 14.39778 73.65155 44.02467
# Shear Modulus (GPa) = -103.70598 50.65999 -26.52300
#
# Velocity S-wave (km/s) = -6.49650 4.54057 -3.28541
# Velocity P-wave (km/s) = 7.10024 7.58041 1.87739
#
# Compressibility (1/GPa) = 0.06945514
#
# Stress axis : x y z
#
# Youngs Moduli (GPa) = 53.46630 213.19442 37.94391
#
# Poissons Ratio (x) = 0.36252 -0.49366
# Poissons Ratio (y) = 0.09091 0.05527
# Poissons Ratio (z) = -0.69561 0.31054
#
# Static dielectric constant tensor:
#      x y z
#    x 1.952700 0.000000 0.144640 
#    y 0.000000 2.035470 0.000000 
#    z 0.144640 0.000000 2.111430 
# 
# From -- ./inp_files/1619.got.cif
#   From: 2010.05.17/outbox.cif.g08.bks.cpg/sg10_1_cif.got.tgz:1619.got - 2010.06.03 11:33:40.
