data_PCOD9147716
_publ_section_title
;
Structure prediction by ZEFSAII (Michael W. Deem and Ramdas Pophale) SiO2 
 PCOD9147716
Probable space group: P 2/M
;
_chemical_formula_sum "Si O2"
_cell_formula_units_Z 26
_cell_length_a 13.566242
_cell_length_b 17.966684
_cell_length_c 6.229059
_cell_angle_alpha 90.000000
_cell_angle_beta 65.375683
_cell_angle_gamma 90.000000
_cell_volume 1380.200477
_symmetry_space_group_name_H-M "P 2/M"
_symmetry_group_IT_number 10
_symmetry_cell_setting 'monoclinic'
loop_
_space_group_symop_operation_xyz
x,y,z
-x,y,-z
-x,-y,-z
x,-y,z
loop_
_atom_site_type_symbol
_atom_site_label
_atom_site_fract_x
_atom_site_fract_y
_atom_site_fract_z
Si Si1 0.764817 0.173382 0.625495
Si Si2 0.880104 0.764549 0.135210
Si Si3 0.174664 0.915829 0.051379
Si Si4 0.687881 0.291907 0.023694
Si Si5 0.500000 0.332763 0.500000
Si Si6 0.384690 0.416257 0.226210
Si Si7 0.377419 0.914818 0.577677
O O1 0.845165 0.224039 0.412680
O O2 0.827054 0.109501 0.700580
O O3 0.682346 0.137034 0.535620
O O4 0.700249 0.222752 0.853384
O O5 0.789700 0.716866 0.091543
O O6 0.878806 0.848220 0.032435
O O7 0.000000 0.733618 0.000000
O O8 0.133735 0.000000 0.053682
O O9 0.300164 0.915365 0.856413
O O10 0.578135 0.289676 0.264174
O O11 0.684337 0.363400 0.869250
O O12 0.417199 0.380637 0.426397
O O13 0.341327 0.500000 0.289998
O O14 0.500000 0.421015 0.000000
O O15 0.500000 0.890787 0.500000
O O16 0.380398 0.000000 0.494170
#
# Coordination Sequence:
#
# PCOD9147716 Si02
#       7
#     4   4   4   4   2   4   4
#     4  10  20  37  51  79 105 143 185 228 281 329
#     4  10  22  40  57  77 108 145 189 237 284 327
#     4   9  19  35  53  76 103 136 185 238 285 331
#     4  10  21  37  54  85 117 148 182 222 271 325
#     4  10  19  36  56  88 123 146 178 214 269 324
#     4   9  18  34  57  84 116 152 183 215 259 320
#     4   9  18  34  51  72 104 143 185 226 272 328
#
# _framework density 18.837842999999999
#
# number of rings (size 3 to 8) (size 9 to 14) (size 15 to 20)
#    0.000    2.462    0.000    1.615    0.000    4.615 
#   41.538    3.077    0.000    0.462    0.000    4.308 
#    0.000    0.000    0.000    0.000    0.000    0.000 
#
# Total GULP energy -144970.901996 kJ/mol
# GULP energy per Si atom -5575.803923 kJ/mol
# Density = 1.879497 g / cm^3
# Si number density = 18.837843 Si / 1000 Ang^3
#
#
#
# Elastic Constant Matrix: (Units=GPa)
#
#
# Indices 1 2 3 4 5 6 
#
# 1 64.1951 21.6160 28.6612 0.0000 -9.9194 0.0000
# 2 21.6160 74.3469 23.3178 0.0000 2.4014 0.0000
# 3 28.6612 23.3178 90.6821 0.0000 11.2636 0.0000
# 4 0.0000 0.0000 0.0000 9.9052 0.0000 3.4998
# 5 -9.9194 2.4014 11.2636 0.0000 16.1008 0.0000
# 6 0.0000 0.0000 0.0000 3.4998 0.0000 13.1151
#
#
#
# Elastic Compliance Matrix: (Units=1/GPa)
#
#
# Indices 1 2 3 4 5 6 
#
# 1 0.025004 -0.005047 -0.009431 0.000000 0.022755 0.000000
# 2 -0.005047 0.015653 -0.001921 0.000000 -0.004100 0.000000
# 3 -0.009431 -0.001921 0.016634 0.000000 -0.017161 0.000000
# 4 0.000000 0.000000 0.000000 0.111467 0.000000 -0.029745
# 5 0.022755 -0.004100 -0.017161 0.000000 0.088744 0.000000
# 6 0.000000 0.000000 0.000000 -0.029745 0.000000 0.084186
#
#
# Mechanical properties :
#
#
# Convention : Reuss Voigt Hill
#
# Bulk Modulus (GPa) = 40.82825 41.82378 41.32602
# Shear Modulus (GPa) = 13.06682 18.19949 15.63316
#
# Velocity S-wave (km/s) = 2.63658 3.11161 2.88389
# Velocity P-wave (km/s) = 5.56680 5.92956 5.75104
#
# Compressibility (1/GPa) = 0.02449284
#
# Stress axis : x y z
#
# Youngs Moduli (GPa) = 39.99395 63.88745 60.11851
#
# Poissons Ratio (x) = 0.32242 0.56700
# Poissons Ratio (y) = 0.20184 0.11546
# Poissons Ratio (z) = 0.37720 0.12270
#
# Static dielectric constant tensor:
#      x y z
#    x 1.642050 0.000000 0.013150 
#    y 0.000000 1.691670 0.000000 
#    z 0.013150 0.000000 1.685840 
# 
# From -- ./inp_files/9594.got.cif
#   From: 2010.05.17/outbox.cif.g08.bks.cpg/sg10_5_cif.got.tgz:9594.got - 2010.06.03 11:33:40.
