data_PCOD9147311
_publ_section_title
;
Structure prediction by ZEFSAII (Michael W. Deem and Ramdas Pophale) SiO2 
 PCOD9147311
Probable space group: P 2/M
;
_chemical_formula_sum "Si O2"
_cell_formula_units_Z 24
_cell_length_a 9.780860
_cell_length_b 7.656996
_cell_length_c 21.326665
_cell_angle_alpha 90.000000
_cell_angle_beta 54.759555
_cell_angle_gamma 90.000000
_cell_volume 1304.490923
_symmetry_space_group_name_H-M "P 2/M"
_symmetry_group_IT_number 10
_symmetry_cell_setting 'monoclinic'
loop_
_space_group_symop_operation_xyz
x,y,z
-x,y,-z
-x,-y,-z
x,-y,z
loop_
_atom_site_type_symbol
_atom_site_label
_atom_site_fract_x
_atom_site_fract_y
_atom_site_fract_z
Si Si1 0.351770 0.703500 0.736337
Si Si2 0.220152 0.000000 0.555665
Si Si3 0.536275 0.000000 0.387847
Si Si4 0.614108 0.796545 0.915024
Si Si5 0.390084 0.211147 0.226268
Si Si6 0.983971 0.291116 0.808026
Si Si7 0.014508 0.702820 0.339310
O O1 0.354296 0.500000 0.716014
O O2 0.428722 0.830437 0.663749
O O3 0.458918 0.726381 0.770643
O O4 0.156944 0.755617 0.795754
O O5 0.348687 0.000000 0.464268
O O6 0.336364 0.000000 0.587251
O O7 0.101408 0.830798 0.590365
O O8 0.595475 0.723900 0.849454
O O9 0.810995 0.785990 0.878532
O O10 0.566501 0.000000 0.922211
O O11 0.500000 0.718152 0.000000
O O12 0.211709 0.274595 0.300203
O O13 0.385610 0.000000 0.227461
O O14 0.964064 0.500000 0.815505
O O15 0.003309 0.243054 0.729406
O O16 0.967248 0.500000 0.357949
#
# Coordination Sequence:
#
# PCOD9147311 Si02
#       7
#     4   2   2   4   4   4   4
#     4  11  22  38  57  84 115 149 193 232 279 337
#     4  11  22  37  59  89 112 145 190 230 288 342
#     4  11  24  37  59  87 116 148 182 236 292 329
#     4   9  19  34  56  87 115 144 185 232 280 330
#     4  10  19  34  60  83 112 152 192 232 279 333
#     4   9  19  33  55  80 106 149 191 225 273 331
#     4  10  19  35  57  83 112 147 192 236 275 330
#
# _framework density 18.397981000000001
#
# number of rings (size 3 to 8) (size 9 to 14) (size 15 to 20)
#    0.000    2.000    3.333    0.500    2.333    1.667 
#    0.000    4.167    0.000    7.000    0.000    0.000 
#    0.000    0.000    0.000    0.000    0.000    0.000 
#
# Total GULP energy -133920.263018 kJ/mol
# GULP energy per Si atom -5580.010959 kJ/mol
# Density = 1.835611 g / cm^3
# Si number density = 18.397981 Si / 1000 Ang^3
#
#
#
# Elastic Constant Matrix: (Units=GPa)
#
#
# Indices 1 2 3 4 5 6 
#
# 1 123.5534 10.2354 44.3081 0.0000 -16.3781 0.0000
# 2 10.2354 83.8881 42.2597 0.0000 -5.8625 0.0000
# 3 44.3081 42.2597 123.1539 0.0000 -20.0435 0.0000
# 4 0.0000 0.0000 0.0000 81.7467 0.0000 10.9620
# 5 -16.3781 -5.8625 -20.0435 0.0000 18.3295 0.0000
# 6 0.0000 0.0000 0.0000 10.9620 0.0000 28.6176
#
#
#
# Elastic Compliance Matrix: (Units=1/GPa)
#
#
# Indices 1 2 3 4 5 6 
#
# 1 0.009827 0.000617 -0.002781 0.000000 0.005937 0.000000
# 2 0.000617 0.014465 -0.005283 0.000000 -0.000599 0.000000
# 3 -0.002781 -0.005283 0.012474 0.000000 0.009466 0.000000
# 4 0.000000 0.000000 0.000000 0.012895 0.000000 -0.004940
# 5 0.005937 -0.000599 0.009466 0.000000 0.070021 0.000000
# 6 0.000000 0.000000 0.000000 -0.004940 0.000000 0.036836
#
#
# Mechanical properties :
#
#
# Convention : Reuss Voigt Hill
#
# Bulk Modulus (GPa) = 45.72195 58.24464 51.98330
# Shear Modulus (GPa) = 27.97954 41.32491 34.65222
#
# Velocity S-wave (km/s) = 3.90397 4.74451 4.34462
# Velocity P-wave (km/s) = 6.72509 7.85753 7.31326
#
# Compressibility (1/GPa) = 0.02187133
#
# Stress axis : x y z
#
# Youngs Moduli (GPa) = 101.76216 69.13293 80.16785
#
# Poissons Ratio (x) = -0.04264 0.22294
# Poissons Ratio (y) = -0.06277 0.42353
# Poissons Ratio (z) = 0.28299 0.36523
#
# Static dielectric constant tensor:
#      x y z
#    x 1.637690 0.000000 -0.000400 
#    y 0.000000 1.658610 0.000000 
#    z -0.000400 0.000000 1.617680 
# 
# From -- ./inp_files/33523.got.cif
#   From: 2010.05.17/outbox.cif.g08.bks.cpg/sg10_17_cif.got.tgz:33523.got - 2010.06.03 11:33:40.
