data_PCOD9147532
_publ_section_title
;
Structure prediction by ZEFSAII (Michael W. Deem and Ramdas Pophale) SiO2 
 PCOD9147532
Probable space group: P 2/M
;
_chemical_formula_sum "Si O2"
_cell_formula_units_Z 30
_cell_length_a 12.935601
_cell_length_b 15.297948
_cell_length_c 9.020392
_cell_angle_alpha 90.000000
_cell_angle_beta 121.830445
_cell_angle_gamma 90.000000
_cell_volume 1516.582814
_symmetry_space_group_name_H-M "P 2/M"
_symmetry_group_IT_number 10
_symmetry_cell_setting 'monoclinic'
loop_
_space_group_symop_operation_xyz
x,y,z
-x,y,-z
-x,-y,-z
x,-y,z
loop_
_atom_site_type_symbol
_atom_site_label
_atom_site_fract_x
_atom_site_fract_y
_atom_site_fract_z
Si Si1 0.222342 0.723267 0.336226
Si Si2 0.265595 0.897615 0.711029
Si Si3 0.442149 0.169724 0.598332
Si Si4 0.014730 0.862323 0.175290
Si Si5 0.842479 0.308756 0.041437
Si Si6 0.390406 0.767968 0.018788
Si Si7 0.952488 0.397768 0.625877
Si Si8 0.000000 0.876962 0.500000
O O1 0.358778 0.750397 0.476883
O O2 0.160642 0.660829 0.410120
O O3 0.144605 0.813334 0.272687
O O4 0.198678 0.679168 0.158969
O O5 0.352809 0.885547 0.635733
O O6 0.139343 0.843641 0.603401
O O7 0.234246 0.000000 0.704803
O O8 0.339360 0.855595 0.901951
O O9 0.500000 0.123357 0.500000
O O10 0.551115 0.205206 0.781760
O O11 0.916467 0.783126 0.103552
O O12 0.000753 0.908846 0.325010
O O13 0.000000 0.904359 0.000000
O O14 0.937744 0.378001 0.176610
O O15 0.721238 0.297354 0.045688
O O16 0.500000 0.733760 0.000000
O O17 0.923229 0.500000 0.600936
O O18 0.000000 0.370271 0.500000
#
# Coordination Sequence:
#
# PCOD9147532 Si02
#       8
#     4   4   4   4   4   4   4   2
#     4  10  20  35  59  88 117 150 201 258 291 355
#     4  11  25  41  59  86 119 160 203 254 322 386
#     4  11  22  38  62  87 118 155 210 256 295 362
#     4   9  19  31  56  87 112 143 194 251 314 353
#     4  10  19  35  58  86 116 153 198 252 301 350
#     4  10  22  35  58  86 112 155 199 252 293 358
#     4  10  23  37  59  94 128 159 190 239 307 370
#     4  12  19  36  66  82 117 158 188 262 317 372
#
# _framework density 19.781312
#
# number of rings (size 3 to 8) (size 9 to 14) (size 15 to 20)
#    0.000    1.733    4.000    1.400    7.467    3.733 
#    0.000    0.000    0.000    2.400    0.000    0.000 
#    0.000    0.000    0.000    0.000    0.000    0.000 
#
# Total GULP energy -167042.263697 kJ/mol
# GULP energy per Si atom -5568.075457 kJ/mol
# Density = 1.973629 g / cm^3
# Si number density = 19.781312 Si / 1000 Ang^3
#
#
#
# Elastic Constant Matrix: (Units=GPa)
#
#
# Indices 1 2 3 4 5 6 
#
# 1 93.2686 13.8358 37.4026 0.0000 -1.4051 0.0000
# 2 13.8358 40.8834 15.9609 0.0000 -6.6321 0.0000
# 3 37.4026 15.9609 133.2393 0.0000 -15.9671 0.0000
# 4 0.0000 0.0000 0.0000 -143.6754 0.0000 200.3019
# 5 -1.4051 -6.6321 -15.9671 0.0000 49.8870 0.0000
# 6 0.0000 0.0000 0.0000 200.3019 0.0000 -237.9300
#
#
#
# Elastic Compliance Matrix: (Units=1/GPa)
#
#
# Indices 1 2 3 4 5 6 
#
# 1 0.012477 -0.003129 -0.003260 0.000000 -0.001108 0.000000
# 2 -0.003129 0.026754 -0.001987 0.000000 0.002833 0.000000
# 3 -0.003260 -0.001987 0.008960 0.000000 0.002512 0.000000
# 4 0.000000 0.000000 0.000000 0.040082 0.000000 0.033743
# 5 -0.001108 0.002833 0.002512 0.000000 0.021195 0.000000
# 6 0.000000 0.000000 0.000000 0.033743 0.000000 0.024204
#
#
# Mechanical properties :
#
#
# Convention : Reuss Voigt Hill
#
# Bulk Modulus (GPa) = 31.80963 44.64331 38.22647
# Shear Modulus (GPa) = 31.07476 -52.99756 -10.96140
#
# Velocity S-wave (km/s) = 3.96778 -5.18169 -2.35655
# Velocity P-wave (km/s) = 6.09152 3.63076 3.45862
#
# Compressibility (1/GPa) = 0.03143702
#
# Stress axis : x y z
#
# Youngs Moduli (GPa) = 80.14931 37.37751 111.61275
#
# Poissons Ratio (x) = 0.11696 0.36390
# Poissons Ratio (y) = 0.25081 0.22177
# Poissons Ratio (z) = 0.26132 0.07427
#
# Static dielectric constant tensor:
#      x y z
#    x 1.723960 0.000000 -0.038100 
#    y 0.000000 1.665300 0.000000 
#    z -0.038100 0.000000 1.735420 
# 
# From -- ./inp_files/25865.got.cif
#   From: 2010.05.17/outbox.cif.g08.bks.cpg/sg10_13_cif.got.tgz:25865.got - 2010.06.03 11:33:40.
