data_PCOD9147584
_publ_section_title
;
Structure prediction by ZEFSAII (Michael W. Deem and Ramdas Pophale) SiO2 
 PCOD9147584
Probable space group: P 2/M
;
_chemical_formula_sum "Si O2"
_cell_formula_units_Z 28
_cell_length_a 9.139821
_cell_length_b 8.904838
_cell_length_c 22.771070
_cell_angle_alpha 90.000000
_cell_angle_beta 53.715614
_cell_angle_gamma 90.000000
_cell_volume 1493.930733
_symmetry_space_group_name_H-M "P 2/M"
_symmetry_group_IT_number 10
_symmetry_cell_setting 'monoclinic'
loop_
_space_group_symop_operation_xyz
x,y,z
-x,y,-z
-x,-y,-z
x,-y,z
loop_
_atom_site_type_symbol
_atom_site_label
_atom_site_fract_x
_atom_site_fract_y
_atom_site_fract_z
Si Si1 0.784352 0.680565 0.706597
Si Si2 0.799925 0.821002 0.573796
Si Si3 0.170717 0.172252 0.004704
Si Si4 0.520729 0.677889 0.425255
Si Si5 0.395556 0.321099 0.854322
Si Si6 0.895299 0.820629 0.292344
Si Si7 0.063936 0.321527 0.844587
O O1 0.801275 0.500000 0.700414
O O2 0.784076 0.746681 0.641346
O O3 0.594107 0.717583 0.783627
O O4 0.949537 0.750815 0.703430
O O5 0.650633 0.748657 0.566939
O O6 0.000000 0.794766 0.500000
O O7 0.771487 0.000000 0.584858
O O8 0.105446 0.269406 0.075395
O O9 0.201830 0.000000 0.014384
O O10 0.336010 0.237878 0.927749
O O11 0.000000 0.175953 0.000000
O O12 0.500000 0.697509 0.500000
O O13 0.531418 0.500000 0.410038
O O14 0.702201 0.757538 0.359566
O O15 0.386859 0.500000 0.866832
O O16 0.245328 0.288003 0.839726
O O17 0.928244 0.765676 0.218161
O O18 0.897831 0.000000 0.295210
O O19 0.057371 0.500000 0.835779
#
# Coordination Sequence:
#
# PCOD9147584 Si02
#       7
#     4   4   4   4   4   4   4
#     4  11  23  40  61  85 117 156 199 243 290 349
#     4  11  24  41  63  92 124 156 192 238 292 345
#     4   9  17  30  52  83 116 149 187 234 289 346
#     4  11  24  42  65  91 119 155 198 240 286 344
#     4   9  19  35  57  84 112 147 191 239 289 344
#     4  12  25  40  59  85 119 155 195 244 297 349
#     4  10  19  35  59  85 115 151 194 240 289 349
#
# _framework density 18.742502000000002
#
# number of rings (size 3 to 8) (size 9 to 14) (size 15 to 20)
#    0.000    1.571    0.000    5.143    0.000    9.143 
#    0.000    0.714    0.000    4.286    0.000    0.000 
#    0.000    0.000    0.000    0.000    0.000    0.000 
#
# Total GULP energy -156543.667016 kJ/mol
# GULP energy per Si atom -5590.845251 kJ/mol
# Density = 1.869984 g / cm^3
# Si number density = 18.742502 Si / 1000 Ang^3
#
#
#
# Elastic Constant Matrix: (Units=GPa)
#
#
# Indices 1 2 3 4 5 6 
#
# 1 126.7618 79.1117 78.8224 0.0000 -9.9668 0.0000
# 2 79.1117 121.5599 97.2827 0.0000 -8.0519 0.0000
# 3 78.8224 97.2827 152.2194 0.0000 -10.2262 0.0000
# 4 0.0000 0.0000 0.0000 25.3001 0.0000 -0.0039
# 5 -9.9668 -8.0519 -10.2262 0.0000 19.4929 0.0000
# 6 0.0000 0.0000 0.0000 -0.0039 0.0000 26.3148
#
#
#
# Elastic Compliance Matrix: (Units=1/GPa)
#
#
# Indices 1 2 3 4 5 6 
#
# 1 0.014042 -0.006720 -0.002779 0.000000 0.002946 0.000000
# 2 -0.006720 0.020089 -0.009363 0.000000 -0.000049 0.000000
# 3 -0.002779 -0.009363 0.014135 0.000000 0.002127 0.000000
# 4 0.000000 0.000000 0.000000 0.039526 0.000000 0.000006
# 5 0.002946 -0.000049 0.002127 0.000000 0.053903 0.000000
# 6 0.000000 0.000000 0.000000 0.000006 0.000000 0.038001
#
#
# Mechanical properties :
#
#
# Convention : Reuss Voigt Hill
#
# Bulk Modulus (GPa) = 94.84148 101.21940 98.03044
# Shear Modulus (GPa) = 22.63136 23.90985 23.27060
#
# Velocity S-wave (km/s) = 3.47866 3.57557 3.52745
# Velocity P-wave (km/s) = 8.17600 8.43616 8.30710
#
# Compressibility (1/GPa) = 0.01054391
#
# Stress axis : x y z
#
# Youngs Moduli (GPa) = 71.21444 49.77854 70.74687
#
# Poissons Ratio (x) = 0.33449 0.19660
# Poissons Ratio (y) = 0.47853 0.66237
# Poissons Ratio (z) = 0.19790 0.46605
#
# Static dielectric constant tensor:
#      x y z
#    x 1.624080 0.000000 -0.004470 
#    y 0.000000 1.624820 0.000000 
#    z -0.004470 0.000000 1.621470 
# 
# From -- ./inp_files/37028.got.cif
#   From: 2010.05.17/outbox.cif.g08.bks.cpg/sg10_19_cif.got.tgz:37028.got - 2010.06.03 11:33:40.
