data_PCOD9147469
_publ_section_title
;
Structure prediction by ZEFSAII (Michael W. Deem and Ramdas Pophale) SiO2 
 PCOD9147469
Probable space group: P 2/M
;
_chemical_formula_sum "Si O2"
_cell_formula_units_Z 28
_cell_length_a 14.610054
_cell_length_b 8.470813
_cell_length_c 17.882445
_cell_angle_alpha 90.000000
_cell_angle_beta 41.946756
_cell_angle_gamma 90.000000
_cell_volume 1479.333410
_symmetry_space_group_name_H-M "P 2/M"
_symmetry_group_IT_number 10
_symmetry_cell_setting 'monoclinic'
loop_
_space_group_symop_operation_xyz
x,y,z
-x,y,-z
-x,-y,-z
x,-y,z
loop_
_atom_site_type_symbol
_atom_site_label
_atom_site_fract_x
_atom_site_fract_y
_atom_site_fract_z
Si Si1 0.377189 0.814920 0.326979
Si Si2 0.670501 0.691076 0.166919
Si Si3 0.914738 0.690692 0.908003
Si Si4 0.230617 0.308037 0.733227
Si Si5 0.955505 0.814862 0.724554
Si Si6 0.739859 0.312709 0.450974
Si Si7 0.136202 0.687370 0.371862
O O1 0.531549 0.760422 0.218770
O O2 0.342241 0.772378 0.434094
O O3 0.267788 0.726995 0.341347
O O4 0.361318 0.000000 0.324806
O O5 0.661118 0.500000 0.172783
O O6 0.692162 0.744691 0.239474
O O7 0.802908 0.734735 0.037480
O O8 0.913759 0.500000 0.901637
O O9 0.886597 0.764998 0.844260
O O10 0.070126 0.736857 0.835161
O O11 0.234115 0.500000 0.730555
O O12 0.287010 0.258244 0.617931
O O13 0.867262 0.771899 0.705886
O O14 0.098745 0.719298 0.633360
O O15 0.987712 0.000000 0.705610
O O16 0.713298 0.500000 0.472195
O O17 0.127147 0.500000 0.365447
O O18 0.000000 0.737953 0.500000
#
# Coordination Sequence:
#
# PCOD9147469 Si02
#       7
#     4   4   4   4   4   4   4
#     4  12  25  38  54  81 119 153 184 228 286 346
#     4  10  20  37  59  82 112 153 196 237 278 325
#     4   9  18  35  60  86 113 148 194 238 275 324
#     4   8  16  32  59  88 110 141 193 245 279 315
#     4  11  21  34  57  88 119 146 178 228 286 337
#     4  10  19  35  57  83 113 147 191 236 277 329
#     4  11  22  38  63  87 109 142 187 234 276 331
#
# _framework density 18.927444000000001
#
# number of rings (size 3 to 8) (size 9 to 14) (size 15 to 20)
#    0.000    1.857    1.429    4.714    0.000    3.429 
#    0.000    7.143    0.000    8.571    0.000    0.000 
#    0.000    0.000    0.000    0.000    0.000    0.000 
#
# Total GULP energy -156395.264636 kJ/mol
# GULP energy per Si atom -5585.545166 kJ/mol
# Density = 1.888436 g / cm^3
# Si number density = 18.927444 Si / 1000 Ang^3
#
#
#
# Elastic Constant Matrix: (Units=GPa)
#
#
# Indices 1 2 3 4 5 6 
#
# 1 89.6287 -0.1589 8.7224 0.0000 8.0502 0.0000
# 2 -0.1589 18.3315 -5.8586 0.0000 4.8386 0.0000
# 3 8.7224 -5.8586 10.7212 0.0000 6.0932 0.0000
# 4 0.0000 0.0000 0.0000 0.3179 0.0000 4.0191
# 5 8.0502 4.8386 6.0932 0.0000 22.3845 0.0000
# 6 0.0000 0.0000 0.0000 4.0191 0.0000 -24.8830
#
#
#
# Elastic Compliance Matrix: (Units=1/GPa)
#
#
# Indices 1 2 3 4 5 6 
#
# 1 0.012330 -0.003477 -0.011639 0.000000 -0.000515 0.000000
# 2 -0.003477 0.087158 0.071517 0.000000 -0.037057 0.000000
# 3 -0.011639 0.071517 0.175357 0.000000 -0.059006 0.000000
# 4 0.000000 0.000000 0.000000 1.034038 0.000000 0.167016
# 5 -0.000515 -0.037057 -0.059006 0.000000 0.068931 0.000000
# 6 0.000000 0.000000 0.000000 0.167016 0.000000 -0.013212
#
#
# Mechanical properties :
#
#
# Convention : Reuss Voigt Hill
#
# Bulk Modulus (GPa) = 2.57966 13.78790 8.18378
# Shear Modulus (GPa) = 3.62052 7.29566 5.45809
#
# Velocity S-wave (km/s) = 1.38456 1.96543 1.69999
# Velocity P-wave (km/s) = 1.98037 3.52859 2.86119
#
# Compressibility (1/GPa) = 0.38764735
#
# Stress axis : x y z
#
# Youngs Moduli (GPa) = 81.10412 11.47342 5.70264
#
# Poissons Ratio (x) = 0.03989 0.06637
# Poissons Ratio (y) = 0.28199 -0.40783
# Poissons Ratio (z) = 0.94394 -0.82054
#
# Static dielectric constant tensor:
#      x y z
#    x 1.646110 0.000000 0.013490 
#    y 0.000000 1.637950 0.000000 
#    z 0.013490 0.000000 1.651810 
# 
# From -- ./inp_files/77697.got.cif
#   From: 2010.05.17/outbox.cif.g08.bks.cpg/sg10_39_cif.got.tgz:77697.got - 2010.06.03 11:33:40.
