data_PCOD9147758
_publ_section_title
;
Structure prediction by ZEFSAII (Michael W. Deem and Ramdas Pophale) SiO2 
 PCOD9147758
Probable space group: P 2/M
;
_chemical_formula_sum "Si O2"
_cell_formula_units_Z 24
_cell_length_a 12.453749
_cell_length_b 7.735109
_cell_length_c 11.757060
_cell_angle_alpha 90.000000
_cell_angle_beta 110.827899
_cell_angle_gamma 90.000000
_cell_volume 1058.560110
_symmetry_space_group_name_H-M "P 2/M"
_symmetry_group_IT_number 10
_symmetry_cell_setting 'monoclinic'
loop_
_space_group_symop_operation_xyz
x,y,z
-x,y,-z
-x,-y,-z
x,-y,z
loop_
_atom_site_type_symbol
_atom_site_label
_atom_site_fract_x
_atom_site_fract_y
_atom_site_fract_z
Si Si1 0.320666 0.791404 0.692912
Si Si2 0.891429 0.791839 0.540574
Si Si3 0.236517 0.297391 0.154836
Si Si4 0.982867 0.698723 0.815286
Si Si5 0.457262 0.292386 0.362247
Si Si6 0.241533 0.801562 0.905904
O O1 0.223440 0.732019 0.566863
O O2 0.444869 0.744392 0.693206
O O3 0.293245 0.725790 0.809354
O O4 0.309994 0.000000 0.693279
O O5 0.915257 0.706755 0.670446
O O6 0.000000 0.757227 0.500000
O O7 0.885477 0.000000 0.555078
O O8 0.225459 0.500000 0.178177
O O9 0.108762 0.226585 0.129362
O O10 0.335170 0.222592 0.272930
O O11 0.271929 0.282173 0.037374
O O12 0.013254 0.500000 0.856091
O O13 0.103192 0.793507 0.844474
O O14 0.500000 0.224160 0.500000
O O15 0.445999 0.500000 0.368030
O O16 0.278697 0.000000 0.927857
#
# Coordination Sequence:
#
# PCOD9147758 Si02
#       6
#     4   4   4   4   4   4
#     4  10  22  39  60  87 120 155 195 244 291 345
#     4  10  19  36  58  83 120 156 190 238 293 345
#     4  10  23  41  59  85 120 156 197 246 295 346
#     4  11  22  37  60  89 121 155 198 247 294 350
#     4  10  22  42  65  87 117 154 194 242 294 350
#     4  11  23  40  60  86 121 158 197 242 296 353
#
# _framework density 22.672308999999998
#
# number of rings (size 3 to 8) (size 9 to 14) (size 15 to 20)
#    0.000    1.667    1.667    2.500    0.000    8.667 
#    0.000    3.333    0.000    0.000    0.000    0.000 
#    0.000    0.000    0.000    0.000    0.000    0.000 
#
# Total GULP energy -134208.400375 kJ/mol
# GULP energy per Si atom -5592.016682 kJ/mol
# Density = 2.262071 g / cm^3
# Si number density = 22.672309 Si / 1000 Ang^3
#
#
#
# Elastic Constant Matrix: (Units=GPa)
#
#
# Indices 1 2 3 4 5 6 
#
# 1 104.9816 -5.7286 32.4791 0.0000 -6.4720 0.0000
# 2 -5.7286 36.7458 -3.9735 0.0000 -0.2235 0.0000
# 3 32.4791 -3.9735 111.4637 0.0000 -12.1385 0.0000
# 4 0.0000 0.0000 0.0000 26.1512 0.0000 -4.9267
# 5 -6.4720 -0.2235 -12.1385 0.0000 35.0805 0.0000
# 6 0.0000 0.0000 0.0000 -4.9267 0.0000 16.7399
#
#
#
# Elastic Compliance Matrix: (Units=1/GPa)
#
#
# Indices 1 2 3 4 5 6 
#
# 1 0.010562 0.001336 -0.002927 0.000000 0.000944 0.000000
# 2 0.001336 0.027498 0.000662 0.000000 0.000651 0.000000
# 3 -0.002927 0.000662 0.010173 0.000000 0.002984 0.000000
# 4 0.000000 0.000000 0.000000 0.040484 0.000000 0.011915
# 5 0.000944 0.000651 0.002984 0.000000 0.029717 0.000000
# 6 0.000000 0.000000 0.000000 0.011915 0.000000 0.063244
#
#
# Mechanical properties :
#
#
# Convention : Reuss Voigt Hill
#
# Bulk Modulus (GPa) = 21.56383 33.19390 27.37886
# Shear Modulus (GPa) = 25.12627 30.95526 28.04077
#
# Velocity S-wave (km/s) = 3.33263 3.69905 3.52061
# Velocity P-wave (km/s) = 4.93359 5.73729 5.35055
#
# Compressibility (1/GPa) = 0.04637396
#
# Stress axis : x y z
#
# Youngs Moduli (GPa) = 94.67709 36.36658 98.29868
#
# Poissons Ratio (x) = -0.04858 0.28774
# Poissons Ratio (y) = -0.12647 -0.06506
# Poissons Ratio (z) = 0.27714 -0.02407
#
# Static dielectric constant tensor:
#      x y z
#    x 1.825550 0.000000 0.000300 
#    y 0.000000 1.827560 0.000000 
#    z 0.000300 0.000000 1.844080 
# 
# From -- ./inp_files/45312.got.cif
#   From: 2010.05.17/outbox.cif.g08.bks.cpg/sg10_23_cif.got.tgz:45312.got - 2010.06.03 11:33:40.
