data_PCOD9147682
_publ_section_title
;
Structure prediction by ZEFSAII (Michael W. Deem and Ramdas Pophale) SiO2 
 PCOD9147682
Probable space group: P 2/M
;
_chemical_formula_sum "Si O2"
_cell_formula_units_Z 20
_cell_length_a 12.869028
_cell_length_b 11.304404
_cell_length_c 7.092823
_cell_angle_alpha 90.000000
_cell_angle_beta 54.237694
_cell_angle_gamma 90.000000
_cell_volume 837.285342
_symmetry_space_group_name_H-M "P 2/M"
_symmetry_group_IT_number 10
_symmetry_cell_setting 'monoclinic'
loop_
_space_group_symop_operation_xyz
x,y,z
-x,y,-z
-x,-y,-z
x,-y,z
loop_
_atom_site_type_symbol
_atom_site_label
_atom_site_fract_x
_atom_site_fract_y
_atom_site_fract_z
Si Si1 0.207731 0.272780 0.507356
Si Si2 0.623006 0.332422 0.986416
Si Si3 0.182198 0.629127 0.941255
Si Si4 0.035050 0.866078 0.185290
Si Si5 0.531675 0.133572 0.687389
O O1 0.255869 0.346919 0.278758
O O2 0.171614 0.349172 0.728491
O O3 0.335512 0.201593 0.427458
O O4 0.095165 0.180615 0.579803
O O5 0.500000 0.378061 0.000000
O O6 0.671851 0.377167 0.136167
O O7 0.580401 0.198868 0.080407
O O8 0.123408 0.500000 0.049028
O O9 0.127457 0.751303 0.088813
O O10 0.075318 0.000000 0.200723
O O11 0.000000 0.876287 0.000000
O O12 0.500000 0.136066 0.500000
O O13 0.546071 0.000000 0.732907
#
# Coordination Sequence:
#
# PCOD9147682 Si02
#       5
#     4   4   4   4   4
#     4  10  21  39  64  93 127 166 211 261 316 378
#     4  10  23  40  61  94 128 165 212 262 317 381
#     4  11  24  43  65  92 127 169 214 266 322 375
#     4   9  20  39  65  95 127 167 212 261 315 378
#     4  10  19  35  62  92 127 169 206 253 315 379
#
# _framework density 23.886721000000001
#
# number of rings (size 3 to 8) (size 9 to 14) (size 15 to 20)
#    0.000    2.000    2.000    0.600    0.000   11.600 
#    0.000    9.000    0.000    0.000    0.000    0.000 
#    0.000    0.000    0.000    0.000    0.000    0.000 
#
# Total GULP energy -111540.929003 kJ/mol
# GULP energy per Si atom -5577.046450 kJ/mol
# Density = 2.383235 g / cm^3
# Si number density = 23.886721 Si / 1000 Ang^3
#
#
#
# Elastic Constant Matrix: (Units=GPa)
#
#
# Indices 1 2 3 4 5 6 
#
# 1 86.7716 29.9489 -3.4142 0.0000 5.4602 0.0000
# 2 29.9489 188.3501 24.1815 0.0000 -8.7047 0.0000
# 3 -3.4142 24.1815 79.7269 0.0000 -3.4169 0.0000
# 4 0.0000 0.0000 0.0000 -18.9206 0.0000 -8.6289
# 5 5.4602 -8.7047 -3.4169 0.0000 32.3949 0.0000
# 6 0.0000 0.0000 0.0000 -8.6289 0.0000 -61.9373
#
#
#
# Elastic Compliance Matrix: (Units=1/GPa)
#
#
# Indices 1 2 3 4 5 6 
#
# 1 0.012508 -0.002251 0.001107 0.000000 -0.002596 0.000000
# 2 -0.002251 0.005986 -0.001835 0.000000 0.001794 0.000000
# 3 0.001107 -0.001835 0.013177 0.000000 0.000710 0.000000
# 4 0.000000 0.000000 0.000000 -0.056438 0.000000 0.007863
# 5 -0.002596 0.001794 0.000710 0.000000 0.031864 0.000000
# 6 0.000000 0.000000 0.000000 0.007863 0.000000 -0.017241
#
#
# Mechanical properties :
#
#
# Convention : Reuss Voigt Hill
#
# Bulk Modulus (GPa) = 38.89005 50.69788 44.79397
# Shear Modulus (GPa) = 1140.25775 10.58289 575.42032
#
# Velocity S-wave (km/s) = 21.87228 2.10715 15.53765
# Velocity P-wave (km/s) = 25.57692 5.21445 18.45764
#
# Compressibility (1/GPa) = 0.02571352
#
# Stress axis : x y z
#
# Youngs Moduli (GPa) = 79.94628 167.06471 75.88849
#
# Poissons Ratio (x) = 0.37607 -0.08402
# Poissons Ratio (y) = 0.17996 0.13925
# Poissons Ratio (z) = -0.08851 0.30656
#
# Static dielectric constant tensor:
#      x y z
#    x 1.923790 0.000000 0.023100 
#    y 0.000000 1.942640 0.000000 
#    z 0.023100 0.000000 1.975910 
# 
# From -- ./inp_files/27696.got.cif
#   From: 2010.05.17/outbox.cif.g08.bks.cpg/sg10_14_cif.got.tgz:27696.got - 2010.06.03 11:33:40.
