data_PCOD9147362
_publ_section_title
;
Structure prediction by ZEFSAII (Michael W. Deem and Ramdas Pophale) SiO2 
 PCOD9147362
Probable space group: P 2/M
;
_chemical_formula_sum "Si O2"
_cell_formula_units_Z 28
_cell_length_a 12.080137
_cell_length_b 7.705133
_cell_length_c 15.974950
_cell_angle_alpha 90.000000
_cell_angle_beta 115.926686
_cell_angle_gamma 90.000000
_cell_volume 1337.279823
_symmetry_space_group_name_H-M "P 2/M"
_symmetry_group_IT_number 10
_symmetry_cell_setting 'monoclinic'
loop_
_space_group_symop_operation_xyz
x,y,z
-x,y,-z
-x,-y,-z
x,-y,z
loop_
_atom_site_type_symbol
_atom_site_label
_atom_site_fract_x
_atom_site_fract_y
_atom_site_fract_z
Si Si1 0.948722 0.297167 0.804233
Si Si2 0.020872 0.712348 0.372840
Si Si3 0.706837 0.800863 0.811963
Si Si4 0.435910 0.794549 0.747721
Si Si5 0.172587 0.699970 0.978100
Si Si6 0.371122 0.791003 0.910442
Si Si7 0.196959 0.290718 0.577394
O O1 0.982702 0.500000 0.810599
O O2 0.969731 0.223538 0.718664
O O3 0.808867 0.284110 0.787142
O O4 0.041638 0.225165 0.905106
O O5 0.021756 0.500000 0.372010
O O6 0.134511 0.765738 0.469826
O O7 0.896485 0.765677 0.379574
O O8 0.570018 0.722382 0.769105
O O9 0.698065 0.000000 0.781472
O O10 0.759832 0.794088 0.923715
O O11 0.384752 0.727106 0.819688
O O12 0.333073 0.769958 0.643639
O O13 0.455164 0.000000 0.768296
O O14 0.157736 0.500000 0.001402
O O15 0.260659 0.708973 0.926249
O O16 0.351935 0.000000 0.904766
O O17 0.500000 0.756454 0.000000
O O18 0.197586 0.500000 0.577675
#
# Coordination Sequence:
#
# PCOD9147362 Si02
#       7
#     4   4   4   4   4   4   4
#     4  10  21  37  55  78 108 139 177 227 272 310
#     4   8  16  34  58  83 111 136 167 217 271 319
#     4  11  23  39  54  72 106 150 187 217 260 321
#     4  10  21  36  53  76 109 144 176 219 267 308
#     4  11  22  35  55  83 109 136 177 229 273 311
#     4  10  19  35  54  74 107 146 177 211 261 317
#     4   9  17  33  60  86 106 137 174 211 265 328
#
# _framework density 20.938026000000001
#
# number of rings (size 3 to 8) (size 9 to 14) (size 15 to 20)
#    0.000    2.143    1.429    3.000    0.000    6.000 
#    0.000    3.571    0.000    4.286    0.000    0.000 
#    0.000    0.000    0.000    0.000    0.000    0.000 
#
# Total GULP energy -156396.111741 kJ/mol
# GULP energy per Si atom -5585.575419 kJ/mol
# Density = 2.089037 g / cm^3
# Si number density = 20.938026 Si / 1000 Ang^3
#
#
#
# Elastic Constant Matrix: (Units=GPa)
#
#
# Indices 1 2 3 4 5 6 
#
# 1 83.1457 -6.0688 44.1120 0.0000 12.5350 0.0000
# 2 -6.0688 33.2216 -2.9090 0.0000 -1.2186 0.0000
# 3 44.1120 -2.9090 94.3211 0.0000 21.3557 0.0000
# 4 0.0000 0.0000 0.0000 14.8431 0.0000 2.3301
# 5 12.5350 -1.2186 21.3557 0.0000 24.1736 0.0000
# 6 0.0000 0.0000 0.0000 2.3301 0.0000 19.4739
#
#
#
# Elastic Compliance Matrix: (Units=1/GPa)
#
#
# Indices 1 2 3 4 5 6 
#
# 1 0.016252 0.002274 -0.007061 0.000000 -0.002075 0.000000
# 2 0.002274 0.030516 -0.000255 0.000000 0.000584 0.000000
# 3 -0.007061 -0.000255 0.016338 0.000000 -0.010785 0.000000
# 4 0.000000 0.000000 0.000000 0.068661 0.000000 -0.008215
# 5 -0.002075 0.000584 -0.010785 0.000000 0.052001 0.000000
# 6 0.000000 0.000000 0.000000 -0.008215 0.000000 0.052334
#
#
# Mechanical properties :
#
#
# Convention : Reuss Voigt Hill
#
# Bulk Modulus (GPa) = 18.85948 31.21741 25.03845
# Shear Modulus (GPa) = 18.94958 23.40173 21.17565
#
# Velocity S-wave (km/s) = 3.01164 3.34678 3.18362
# Velocity P-wave (km/s) = 4.59566 5.46593 5.04958
#
# Compressibility (1/GPa) = 0.05302372
#
# Stress axis : x y z
#
# Youngs Moduli (GPa) = 61.53122 32.77019 61.20568
#
# Poissons Ratio (x) = -0.07454 0.43216
# Poissons Ratio (y) = -0.13995 0.01560
# Poissons Ratio (z) = 0.43446 0.00835
#
# Static dielectric constant tensor:
#      x y z
#    x 1.738700 0.000000 0.008220 
#    y 0.000000 1.772630 0.000000 
#    z 0.008220 0.000000 1.744200 
# 
# From -- ./inp_files/49074.got.cif
#   From: 2010.05.17/outbox.cif.g08.bks.cpg/sg10_25_cif.got.tgz:49074.got - 2010.06.03 11:33:40.
