data_PCOD9147116
_publ_section_title
;
Structure prediction by ZEFSAII (Michael W. Deem and Ramdas Pophale) SiO2 
 PCOD9147116
Probable space group: P 2/M
;
_chemical_formula_sum "Si O2"
_cell_formula_units_Z 32
_cell_length_a 13.066458
_cell_length_b 7.666505
_cell_length_c 32.928498
_cell_angle_alpha 90.000000
_cell_angle_beta 26.805137
_cell_angle_gamma 90.000000
_cell_volume 1487.520293
_symmetry_space_group_name_H-M "P 2/M"
_symmetry_group_IT_number 10
_symmetry_cell_setting 'monoclinic'
loop_
_space_group_symop_operation_xyz
x,y,z
-x,y,-z
-x,-y,-z
x,-y,z
loop_
_atom_site_type_symbol
_atom_site_label
_atom_site_fract_x
_atom_site_fract_y
_atom_site_fract_z
Si Si1 0.374213 0.789501 0.670087
Si Si2 0.416243 0.786126 0.786327
Si Si3 0.397410 0.203255 0.884945
Si Si4 0.141680 0.697949 0.134400
Si Si5 0.752297 0.213058 0.600558
Si Si6 0.927970 0.792220 0.930218
Si Si7 0.810628 0.706105 0.793017
Si Si8 0.332726 0.210005 0.594030
O O1 0.570045 0.736501 0.631086
O O2 0.431143 0.747915 0.603504
O O3 0.131570 0.707565 0.765556
O O4 0.343476 0.000000 0.684700
O O5 0.403302 0.724098 0.837358
O O6 0.641669 0.730981 0.682359
O O7 0.188394 0.731533 0.842851
O O8 0.420173 0.000000 0.785009
O O9 0.639113 0.213163 0.821631
O O10 0.334841 0.000000 0.901938
O O11 0.219117 0.280348 0.980334
O O12 0.220680 0.500000 0.106869
O O13 0.185948 0.764274 0.073368
O O14 0.218938 0.778717 0.150250
O O15 0.000000 0.275470 0.500000
O O16 0.761418 0.000000 0.597947
O O17 0.938308 0.000000 0.931094
O O18 0.764433 0.500000 0.810836
O O19 0.071850 0.729506 0.687043
O O20 0.500000 0.276773 0.500000
O O21 0.322809 0.000000 0.594077
#
# Coordination Sequence:
#
# PCOD9147116 Si02
#       8
#     4   4   4   4   4   4   4   4
#     4   9  16  30  51  75 105 138 173 218 265 313
#     4   9  17  32  53  78 109 139 172 219 269 320
#     4  10  21  35  55  80 107 140 179 224 270 323
#     4  10  20  34  54  77 102 139 180 220 264 316
#     4   9  16  26  47  80 108 133 167 209 261 314
#     4  10  19  34  57  82 104 135 178 222 275 326
#     4  10  22  38  53  74 110 148 181 219 269 323
#     4   9  18  32  54  82 107 136 180 229 271 314
#
# _framework density 21.512311
#
# number of rings (size 3 to 8) (size 9 to 14) (size 15 to 20)
#    0.000    2.500    1.250    1.125    0.000    5.250 
#    0.000    6.875    0.000    1.875    0.000    0.000 
#    0.000    0.000    0.000    0.000    0.000    0.000 
#
# Total GULP energy -178544.798975 kJ/mol
# GULP energy per Si atom -5579.524968 kJ/mol
# Density = 2.146335 g / cm^3
# Si number density = 21.512311 Si / 1000 Ang^3
#
#
#
# Elastic Constant Matrix: (Units=GPa)
#
#
# Indices 1 2 3 4 5 6 
#
# 1 74.3503 3.6250 27.8940 0.0000 23.1542 0.0000
# 2 3.6250 34.1329 6.3398 0.0000 8.0582 0.0000
# 3 27.8940 6.3398 114.2498 0.0000 25.6151 0.0000
# 4 0.0000 0.0000 0.0000 6.2684 0.0000 -52.3607
# 5 23.1542 8.0582 25.6151 0.0000 35.2708 0.0000
# 6 0.0000 0.0000 0.0000 -52.3607 0.0000 29.5610
#
#
#
# Elastic Compliance Matrix: (Units=1/GPa)
#
#
# Indices 1 2 3 4 5 6 
#
# 1 0.017308 0.000923 -0.002009 0.000000 -0.010114 0.000000
# 2 0.000923 0.031019 -0.000265 0.000000 -0.007500 0.000000
# 3 -0.002009 -0.000265 0.010689 0.000000 -0.006383 0.000000
# 4 0.000000 0.000000 0.000000 -0.011564 0.000000 -0.020483
# 5 -0.010114 -0.007500 -0.006383 0.000000 0.041341 0.000000
# 6 0.000000 0.000000 0.000000 -0.020483 0.000000 -0.002452
#
#
# Mechanical properties :
#
#
# Convention : Reuss Voigt Hill
#
# Bulk Modulus (GPa) = 17.75777 33.16118 25.45947
# Shear Modulus (GPa) = 46.37517 26.54500 36.46008
#
# Velocity S-wave (km/s) = 4.64804 3.51657 4.12132
# Velocity P-wave (km/s) = 6.08920 5.65126 5.87431
#
# Compressibility (1/GPa) = 0.05631337
#
# Stress axis : x y z
#
# Youngs Moduli (GPa) = 57.77528 32.23818 93.55230
#
# Poissons Ratio (x) = -0.02975 0.18799
# Poissons Ratio (y) = -0.05331 0.02479
# Poissons Ratio (z) = 0.11610 0.00854
#
# Static dielectric constant tensor:
#      x y z
#    x 1.771870 0.000000 0.030650 
#    y 0.000000 1.806910 0.000000 
#    z 0.030650 0.000000 1.779850 
# 
# From -- ./inp_files/58152.got.cif
#   From: 2010.05.17/outbox.cif.g08.bks.cpg/sg10_30_cif.got.tgz:58152.got - 2010.06.03 11:33:40.
