data_PCOD9147486
_publ_section_title
;
Structure prediction by ZEFSAII (Michael W. Deem and Ramdas Pophale) SiO2 
 PCOD9147486
Probable space group: P 2/M
;
_chemical_formula_sum "Si O2"
_cell_formula_units_Z 28
_cell_length_a 13.618759
_cell_length_b 17.164347
_cell_length_c 7.252298
_cell_angle_alpha 90.000000
_cell_angle_beta 50.107811
_cell_angle_gamma 90.000000
_cell_volume 1300.705048
_symmetry_space_group_name_H-M "P 2/M"
_symmetry_group_IT_number 10
_symmetry_cell_setting 'monoclinic'
loop_
_space_group_symop_operation_xyz
x,y,z
-x,y,-z
-x,-y,-z
x,-y,z
loop_
_atom_site_type_symbol
_atom_site_label
_atom_site_fract_x
_atom_site_fract_y
_atom_site_fract_z
Si Si1 0.398249 0.500000 0.286220
Si Si2 0.975943 0.672153 0.242392
Si Si3 0.238364 0.741657 0.991945
Si Si4 0.667504 0.911732 0.099096
Si Si5 0.372503 0.915010 0.407953
Si Si6 0.908411 0.500000 0.428252
Si Si7 0.270891 0.242660 0.503402
Si Si8 0.504635 0.663500 0.280813
O O1 0.249869 0.500000 0.393478
O O2 0.440911 0.578050 0.342416
O O3 0.500000 0.500000 0.000000
O O4 0.950570 0.580471 0.284699
O O5 0.846705 0.716054 0.451118
O O6 0.000000 0.691119 0.000000
O O7 0.101519 0.702674 0.193103
O O8 0.256749 0.831620 0.031975
O O9 0.253769 0.746492 0.747389
O O10 0.348661 0.684302 0.939873
O O11 0.523436 0.902252 0.194840
O O12 0.647853 0.913512 0.345620
O O13 0.714025 0.000000 0.995213
O O14 0.284710 0.847163 0.439141
O O15 0.338265 0.000000 0.379442
O O16 0.000000 0.500000 0.500000
O O17 0.405656 0.282000 0.294673
O O18 0.500000 0.685916 0.500000
#
# Coordination Sequence:
#
# PCOD9147486 Si02
#       8
#     2   4   4   4   4   2   4   4
#     4  12  27  42  56  80 108 134 171 226 274 318
#     4  10  21  37  57  76 103 141 179 218 261 314
#     4   9  17  27  49  77 102 135 179 212 253 309
#     4   8  12  20  36  65 104 140 168 204 252 304
#     4   8  12  19  37  65 102 141 171 202 253 305
#     4  12  27  44  56  74 108 142 173 216 274 330
#     4   9  15  29  47  73 103 138 176 217 253 301
#     4  10  19  35  58  79 104 137 179 223 261 303
#
# _framework density 21.526788
#
# number of rings (size 3 to 8) (size 9 to 14) (size 15 to 20)
#    0.000    2.571    2.857    1.286    2.000    0.000 
#    0.000    0.714    0.000    4.286    0.000    0.000 
#    0.000    6.857    0.000    0.000    0.000    0.000 
#
# Total GULP energy -156079.228450 kJ/mol
# GULP energy per Si atom -5574.258159 kJ/mol
# Density = 2.147779 g / cm^3
# Si number density = 21.526788 Si / 1000 Ang^3
#
#
#
# Elastic Constant Matrix: (Units=GPa)
#
#
# Indices 1 2 3 4 5 6 
#
# 1 127.1370 54.2864 60.9313 0.0000 -32.3197 0.0000
# 2 54.2864 174.3517 31.8038 0.0000 -56.5918 0.0000
# 3 60.9313 31.8038 57.5636 0.0000 -32.5466 0.0000
# 4 0.0000 0.0000 0.0000 -8.5053 0.0000 -34.8641
# 5 -32.3197 -56.5918 -32.5466 0.0000 47.2045 0.0000
# 6 0.0000 0.0000 0.0000 -34.8641 0.0000 -14.0533
#
#
#
# Elastic Compliance Matrix: (Units=1/GPa)
#
#
# Indices 1 2 3 4 5 6 
#
# 1 0.017472 -0.003906 -0.020027 0.000000 -0.006529 0.000000
# 2 -0.003906 0.010395 0.006433 0.000000 0.014223 0.000000
# 3 -0.020027 0.006433 0.051830 0.000000 0.029736 0.000000
# 4 0.000000 0.000000 0.000000 0.012823 0.000000 -0.031811
# 5 -0.006529 0.014223 0.029736 0.000000 0.054268 0.000000
# 6 0.000000 0.000000 0.000000 -0.031811 0.000000 0.007760
#
#
# Mechanical properties :
#
#
# Convention : Reuss Voigt Hill
#
# Bulk Modulus (GPa) = 22.37335 72.56612 47.46974
# Shear Modulus (GPa) = 24.45623 19.06456 21.76040
#
# Velocity S-wave (km/s) = 3.37424 2.97917 3.18284
# Velocity P-wave (km/s) = 5.05930 6.75402 5.96713
#
# Compressibility (1/GPa) = 0.04469604
#
# Stress axis : x y z
#
# Youngs Moduli (GPa) = 57.23457 96.20144 19.29402
#
# Poissons Ratio (x) = 0.37576 0.38641
# Poissons Ratio (y) = 0.22356 -0.12412
# Poissons Ratio (z) = 1.14626 -0.61888
#
# Static dielectric constant tensor:
#      x y z
#    x 1.805690 0.000000 0.055260 
#    y 0.000000 1.756680 0.000000 
#    z 0.055260 0.000000 1.815470 
# 
# From -- ./inp_files/30129.got.cif
#   From: 2010.05.17/outbox.cif.g08.bks.cpg/sg10_16_cif.got.tgz:30129.got - 2010.06.03 11:33:40.
