data_PCOD9147468
_publ_section_title
;
Structure prediction by ZEFSAII (Michael W. Deem and Ramdas Pophale) SiO2 
 PCOD9147468
Probable space group: P 2/M
;
_chemical_formula_sum "Si O2"
_cell_formula_units_Z 32
_cell_length_a 31.927040
_cell_length_b 8.675510
_cell_length_c 12.319852
_cell_angle_alpha 90.000000
_cell_angle_beta 30.224372
_cell_angle_gamma 90.000000
_cell_volume 1717.756587
_symmetry_space_group_name_H-M "P 2/M"
_symmetry_group_IT_number 10
_symmetry_cell_setting 'monoclinic'
loop_
_space_group_symop_operation_xyz
x,y,z
-x,y,-z
-x,-y,-z
x,-y,z
loop_
_atom_site_type_symbol
_atom_site_label
_atom_site_fract_x
_atom_site_fract_y
_atom_site_fract_z
Si Si1 0.403811 0.815844 0.209306
Si Si2 0.227653 0.686462 0.202281
Si Si3 0.534687 0.682419 0.544224
Si Si4 0.739975 0.684401 0.327944
Si Si5 0.626590 0.685494 0.955314
Si Si6 0.283717 0.181506 0.847862
Si Si7 0.922314 0.687641 0.315711
Si Si8 0.891124 0.687857 0.140547
O O1 0.347184 0.746135 0.430606
O O2 0.367562 0.762391 0.174778
O O3 0.402207 0.000000 0.220843
O O4 0.500000 0.763678 0.000000
O O5 0.229033 0.500000 0.190875
O O6 0.300486 0.729230 0.124391
O O7 0.140164 0.736757 0.450310
O O8 0.246133 0.754619 0.043638
O O9 0.500000 0.702457 0.500000
O O10 0.553863 0.500000 0.514584
O O11 0.618407 0.776761 0.371249
O O12 0.461665 0.723936 0.791291
O O13 0.738005 0.500000 0.334942
O O14 0.753782 0.740240 0.175041
O O15 0.813765 0.740069 0.242164
O O16 0.630616 0.500000 0.932777
O O17 0.272477 0.000000 0.867018
O O18 0.922094 0.500000 0.316381
O O19 0.888285 0.734753 0.273181
O O20 0.018513 0.735995 0.107276
O O21 0.889983 0.500000 0.142550
#
# Coordination Sequence:
#
# PCOD9147468 Si02
#       8
#     4   4   4   4   4   4   4   4
#     4  11  24  39  54  78 113 147 182 226 275 326
#     4  10  19  35  57  83 111 143 183 228 277 327
#     4  10  19  36  58  80 107 141 185 233 274 321
#     4  11  22  38  60  81 108 147 191 230 273 330
#     4  10  20  34  57  84 109 139 181 227 274 327
#     4  12  25  38  53  77 112 151 190 230 278 330
#     4   8  14  28  56  89 117 135 165 226 286 330
#     4   8  15  30  55  89 115 136 171 223 283 331
#
# _framework density 18.628948999999999
#
# number of rings (size 3 to 8) (size 9 to 14) (size 15 to 20)
#    0.000    2.000    1.250    4.125    0.000    6.250 
#    0.000    0.625    0.000    5.250    0.000    5.250 
#    0.000    0.000    0.000    0.000    0.000    0.000 
#
# Total GULP energy -178736.257174 kJ/mol
# GULP energy per Si atom -5585.508037 kJ/mol
# Density = 1.858655 g / cm^3
# Si number density = 18.628949 Si / 1000 Ang^3
#
#
#
# Elastic Constant Matrix: (Units=GPa)
#
#
# Indices 1 2 3 4 5 6 
#
# 1 97.2950 24.0996 53.7824 0.0000 5.0157 0.0000
# 2 24.0996 25.5302 29.2629 0.0000 3.1243 0.0000
# 3 53.7824 29.2629 118.1303 0.0000 7.4709 0.0000
# 4 0.0000 0.0000 0.0000 -11.3196 0.0000 0.6938
# 5 5.0157 3.1243 7.4709 0.0000 29.6919 0.0000
# 6 0.0000 0.0000 0.0000 0.6938 0.0000 -17.2858
#
#
#
# Elastic Compliance Matrix: (Units=1/GPa)
#
#
# Indices 1 2 3 4 5 6 
#
# 1 0.015053 -0.008843 -0.004635 0.000000 -0.000446 0.000000
# 2 -0.008843 0.060062 -0.010718 0.000000 -0.002129 0.000000
# 3 -0.004635 -0.010718 0.013321 0.000000 -0.001441 0.000000
# 4 0.000000 0.000000 0.000000 -0.088560 0.000000 -0.003555
# 5 -0.000446 -0.002129 -0.001441 0.000000 0.034341 0.000000
# 6 0.000000 0.000000 0.000000 -0.003555 0.000000 -0.057994
#
#
# Mechanical properties :
#
#
# Convention : Reuss Voigt Hill
#
# Bulk Modulus (GPa) = 24.97121 50.58280 37.77701
# Shear Modulus (GPa) = 131.70600 9.13801 70.42200
#
# Velocity S-wave (km/s) = 8.41743 2.21719 6.15504
# Velocity P-wave (km/s) = 10.38771 5.81088 8.41638
#
# Compressibility (1/GPa) = 0.04004611
#
# Stress axis : x y z
#
# Youngs Moduli (GPa) = 66.43046 16.64949 75.06697
#
# Poissons Ratio (x) = 0.14723 0.34792
# Poissons Ratio (y) = 0.58743 0.80455
# Poissons Ratio (z) = 0.30789 0.17844
#
# Static dielectric constant tensor:
#      x y z
#    x 1.631840 0.000000 -0.008570 
#    y 0.000000 1.627860 0.000000 
#    z -0.008570 0.000000 1.639960 
# 
# From -- ./inp_files/58204.got.cif
#   From: 2010.05.17/outbox.cif.g08.bks.cpg/sg10_30_cif.got.tgz:58204.got - 2010.06.03 11:33:40.
