data_PCOD9147854
_publ_section_title
;
Structure prediction by ZEFSAII (Michael W. Deem and Ramdas Pophale) SiO2 
 PCOD9147854
Probable space group: P 2/M
;
_chemical_formula_sum "Si O2"
_cell_formula_units_Z 28
_cell_length_a 11.978970
_cell_length_b 14.643975
_cell_length_c 9.748461
_cell_angle_alpha 90.000000
_cell_angle_beta 120.316842
_cell_angle_gamma 90.000000
_cell_volume 1476.215283
_symmetry_space_group_name_H-M "P 2/M"
_symmetry_group_IT_number 10
_symmetry_cell_setting 'monoclinic'
loop_
_space_group_symop_operation_xyz
x,y,z
-x,y,-z
-x,-y,-z
x,-y,z
loop_
_atom_site_type_symbol
_atom_site_label
_atom_site_fract_x
_atom_site_fract_y
_atom_site_fract_z
Si Si1 0.944843 0.106043 0.807888
Si Si2 0.689926 0.718391 0.846111
Si Si3 0.478699 0.395089 0.836269
Si Si4 0.094402 0.718410 0.803435
Si Si5 0.872120 0.606539 0.755752
Si Si6 0.823851 0.396312 0.400858
Si Si7 0.361196 0.103740 0.334607
O O1 0.787164 0.114377 0.695189
O O2 0.016483 0.185962 0.766844
O O3 0.976407 0.000000 0.791890
O O4 0.000000 0.119074 0.000000
O O5 0.564959 0.656320 0.781865
O O6 0.780370 0.672230 0.786649
O O7 0.643562 0.818586 0.780356
O O8 0.768883 0.724781 0.036062
O O9 0.523465 0.500000 0.867723
O O10 0.329031 0.391698 0.712789
O O11 0.500000 0.355042 0.000000
O O12 0.113505 0.675897 0.664576
O O13 0.016773 0.645263 0.848868
O O14 0.860164 0.500000 0.786741
O O15 0.844829 0.615540 0.575577
O O16 0.863758 0.500000 0.385111
O O17 0.500000 0.115157 0.500000
O O18 0.362553 0.000000 0.284126
#
# Coordination Sequence:
#
# PCOD9147854 Si02
#       7
#     4   4   4   4   4   4   4
#     4  10  19  36  61  92 126 157 201 258 314 373
#     4  12  23  36  63  93 119 156 212 263 305 360
#     4  10  21  38  58  84 122 168 208 250 310 371
#     4  12  21  37  61  90 120 162 207 252 308 371
#     4  11  24  38  55  88 125 160 205 258 309 360
#     4  10  23  41  59  82 123 173 211 249 309 374
#     4  10  22  40  62  92 128 162 200 253 319 377
#
# _framework density 18.967423
#
# number of rings (size 3 to 8) (size 9 to 14) (size 15 to 20)
#    0.000    1.286    4.286    1.714    2.000    3.429 
#    0.000    2.143    0.000    3.857    0.000    0.000 
#    0.000    0.000    0.000    0.000    0.000    0.000 
#
# Total GULP energy -156077.296753 kJ/mol
# GULP energy per Si atom -5574.189170 kJ/mol
# Density = 1.892425 g / cm^3
# Si number density = 18.967423 Si / 1000 Ang^3
#
#
#
# Elastic Constant Matrix: (Units=GPa)
#
#
# Indices 1 2 3 4 5 6 
#
# 1 90.7533 45.0705 31.3200 0.0000 13.2654 0.0000
# 2 45.0705 108.1034 49.8384 0.0000 -0.4002 0.0000
# 3 31.3200 49.8384 80.0453 0.0000 13.2214 0.0000
# 4 0.0000 0.0000 0.0000 228.7673 0.0000 -124.6625
# 5 13.2654 -0.4002 13.2214 0.0000 30.6694 0.0000
# 6 0.0000 0.0000 0.0000 -124.6625 0.0000 112.8763
#
#
#
# Elastic Compliance Matrix: (Units=1/GPa)
#
#
# Indices 1 2 3 4 5 6 
#
# 1 0.015231 -0.005732 -0.001389 0.000000 -0.006064 0.000000
# 2 -0.005732 0.015588 -0.008512 0.000000 0.006352 0.000000
# 3 -0.001389 -0.008512 0.019655 0.000000 -0.007983 0.000000
# 4 0.000000 0.000000 0.000000 0.010978 0.000000 0.012125
# 5 -0.006064 0.006352 -0.007983 0.000000 0.038753 0.000000
# 6 0.000000 0.000000 0.000000 0.012125 0.000000 0.022250
#
#
# Mechanical properties :
#
#
# Convention : Reuss Voigt Hill
#
# Bulk Modulus (GPa) = 52.06194 59.03999 55.55096
# Shear Modulus (GPa) = 31.22563 84.64080 57.93321
#
# Velocity S-wave (km/s) = 4.06184 6.68739 5.53262
# Velocity P-wave (km/s) = 7.03603 9.53010 8.37641
#
# Compressibility (1/GPa) = 0.01920789
#
# Stress axis : x y z
#
# Youngs Moduli (GPa) = 65.65345 64.15170 50.87835
#
# Poissons Ratio (x) = 0.36775 0.07067
# Poissons Ratio (y) = 0.37635 0.43307
# Poissons Ratio (z) = 0.09119 0.54605
#
# Static dielectric constant tensor:
#      x y z
#    x 1.699620 0.000000 0.032780 
#    y 0.000000 1.655800 0.000000 
#    z 0.032780 0.000000 1.691590 
# 
# From -- ./inp_files/25398.got.cif
#   From: 2010.05.17/outbox.cif.g08.bks.cpg/sg10_13_cif.got.tgz:25398.got - 2010.06.03 11:33:40.
