data_PCOD9147019
_publ_section_title
;
Structure prediction by ZEFSAII (Michael W. Deem and Ramdas Pophale) SiO2 
 PCOD9147019
Probable space group: P 2/M
;
_chemical_formula_sum "Si O2"
_cell_formula_units_Z 30
_cell_length_a 12.970088
_cell_length_b 13.455529
_cell_length_c 20.423485
_cell_angle_alpha 90.000000
_cell_angle_beta 27.786264
_cell_angle_gamma 90.000000
_cell_volume 1661.583300
_symmetry_space_group_name_H-M "P 2/M"
_symmetry_group_IT_number 10
_symmetry_cell_setting 'monoclinic'
loop_
_space_group_symop_operation_xyz
x,y,z
-x,y,-z
-x,-y,-z
x,-y,z
loop_
_atom_site_type_symbol
_atom_site_label
_atom_site_fract_x
_atom_site_fract_y
_atom_site_fract_z
Si Si1 0.059865 0.611609 0.673595
Si Si2 0.345870 0.677561 0.026437
Si Si3 0.738641 0.386531 0.726503
Si Si4 0.000000 0.768139 0.500000
Si Si5 0.342812 0.117137 0.390742
Si Si6 0.799907 0.119568 0.068179
Si Si7 0.299154 0.185999 0.562111
Si Si8 0.850443 0.115775 0.884891
O O1 0.150386 0.500000 0.622807
O O2 0.233059 0.700480 0.581733
O O3 0.890474 0.627867 0.829183
O O4 0.905341 0.622900 0.695571
O O5 0.310878 0.796411 0.048764
O O6 0.500000 0.646150 0.000000
O O7 0.487727 0.639790 0.886351
O O8 0.754877 0.500000 0.694417
O O9 0.818990 0.304688 0.631509
O O10 0.877663 0.832890 0.514053
O O11 0.561548 0.154461 0.228930
O O12 0.358615 0.136008 0.459457
O O13 0.325946 0.000000 0.388553
O O14 0.794432 0.000000 0.080040
O O15 0.853180 0.134527 0.961732
O O16 0.000000 0.159419 0.000000
O O17 0.500000 0.180972 0.500000
O O18 0.084080 0.135977 0.717425
O O19 0.786218 0.000000 0.910445
#
# Coordination Sequence:
#
# PCOD9147019 Si02
#       8
#     4   4   4   2   4   4   4   4
#     4   9  18  35  56  79 107 140 182 233 287 335
#     4   9  18  32  52  77 106 139 180 222 269 331
#     4  10  19  34  56  80 108 142 184 231 275 328
#     4  12  22  36  54  82 118 150 186 224 278 356
#     4  11  23  38  56  81 116 156 188 227 283 339
#     4   9  18  34  54  74  99 139 190 230 263 314
#     4  11  22  37  57  83 112 145 190 239 281 332
#     4  10  20  34  52  78 108 142 184 228 273 320
#
# _framework density 18.055067999999999
#
# number of rings (size 3 to 8) (size 9 to 14) (size 15 to 20)
#    0.000    2.000    1.333    2.800    0.000    4.267 
#    0.000    0.667    0.000    0.000    0.000    0.000 
#    0.000   11.733    0.000    0.000    0.000    0.000 
#
# Total GULP energy -167202.247189 kJ/mol
# GULP energy per Si atom -5573.408240 kJ/mol
# Density = 1.801397 g / cm^3
# Si number density = 18.055068 Si / 1000 Ang^3
#
#
#
# Elastic Constant Matrix: (Units=GPa)
#
#
# Indices 1 2 3 4 5 6 
#
# 1 40.7000 8.4139 2.9469 0.0000 1.4853 0.0000
# 2 8.4139 81.5959 13.4075 0.0000 0.1938 0.0000
# 3 2.9469 13.4075 55.1337 0.0000 12.5720 0.0000
# 4 0.0000 0.0000 0.0000 10.2054 0.0000 -2.0695
# 5 1.4853 0.1938 12.5720 0.0000 23.6369 0.0000
# 6 0.0000 0.0000 0.0000 -2.0695 0.0000 -8.1790
#
#
#
# Elastic Compliance Matrix: (Units=1/GPa)
#
#
# Indices 1 2 3 4 5 6 
#
# 1 0.025171 -0.002522 -0.000428 0.000000 -0.001333 0.000000
# 2 -0.002522 0.013083 -0.003481 0.000000 0.001902 0.000000
# 3 -0.000428 -0.003481 0.021616 0.000000 -0.011442 0.000000
# 4 0.000000 0.000000 0.000000 0.093205 0.000000 -0.023584
# 5 -0.001333 0.001902 -0.011442 0.000000 0.048461 0.000000
# 6 0.000000 0.000000 0.000000 -0.023584 0.000000 -0.116296
#
#
# Mechanical properties :
#
#
# Convention : Reuss Voigt Hill
#
# Bulk Modulus (GPa) = 21.27260 25.21845 23.24552
# Shear Modulus (GPa) = 43.94848 15.31008 29.62928
#
# Velocity S-wave (km/s) = 4.93905 2.91514 4.05538
# Velocity P-wave (km/s) = 6.65832 5.03275 5.90177
#
# Compressibility (1/GPa) = 0.04700884
#
# Stress axis : x y z
#
# Youngs Moduli (GPa) = 39.72811 76.43525 46.26202
#
# Poissons Ratio (x) = 0.19277 0.01980
# Poissons Ratio (y) = 0.10020 0.16102
# Poissons Ratio (z) = 0.01700 0.26604
#
# Static dielectric constant tensor:
#      x y z
#    x 1.610150 0.000000 0.017550 
#    y 0.000000 1.611880 0.000000 
#    z 0.017550 0.000000 1.697550 
# 
# From -- ./inp_files/76909.got.cif
#   From: 2010.05.17/outbox.cif.g08.bks.cpg/sg10_39_cif.got.tgz:76909.got - 2010.06.03 11:33:40.
