data_PCOD9147235
_publ_section_title
;
Structure prediction by ZEFSAII (Michael W. Deem and Ramdas Pophale) SiO2 
 PCOD9147235
Probable space group: P 2/M
;
_chemical_formula_sum "Si O2"
_cell_formula_units_Z 32
_cell_length_a 26.265722
_cell_length_b 7.518692
_cell_length_c 20.536390
_cell_angle_alpha 90.000000
_cell_angle_beta 158.851932
_cell_angle_gamma 90.000000
_cell_volume 1463.178957
_symmetry_space_group_name_H-M "P 2/M"
_symmetry_group_IT_number 10
_symmetry_cell_setting 'monoclinic'
loop_
_space_group_symop_operation_xyz
x,y,z
-x,y,-z
-x,-y,-z
x,-y,z
loop_
_atom_site_type_symbol
_atom_site_label
_atom_site_fract_x
_atom_site_fract_y
_atom_site_fract_z
Si Si1 0.588651 0.281391 0.398094
Si Si2 0.827476 0.715404 0.483668
Si Si3 0.030559 0.718086 0.610392
Si Si4 0.893350 0.285080 0.704945
Si Si5 0.494427 0.205935 0.920562
Si Si6 0.103793 0.793361 0.068014
Si Si7 0.581332 0.703112 0.536377
Si Si8 0.341167 0.703931 0.009129
O O1 0.591123 0.500000 0.399781
O O2 0.742167 0.226703 0.554230
O O3 0.568190 0.221363 0.448017
O O4 0.460996 0.219402 0.199603
O O5 0.821292 0.500000 0.475479
O O6 0.901115 0.769293 0.638925
O O7 0.667464 0.781177 0.294201
O O8 0.911139 0.773183 0.519280
O O9 0.032678 0.500000 0.612305
O O10 0.000000 0.774450 0.500000
O O11 0.184436 0.780880 0.817793
O O12 0.895144 0.500000 0.709301
O O13 0.020655 0.220766 0.901420
O O14 0.593202 0.294546 0.984940
O O15 0.538553 0.000000 0.976517
O O16 0.500000 0.282373 0.000000
O O17 0.253976 0.701343 0.249494
O O18 0.130755 0.000000 0.115371
O O19 0.000000 0.720602 0.000000
O O20 0.500000 0.788539 0.500000
O O21 0.527687 0.500000 0.466825
O O22 0.322960 0.500000 0.008979
#
# Coordination Sequence:
#
# PCOD9147235 Si02
#       8
#     4   4   4   4   4   4   4   4
#     4   9  17  32  55  84 112 139 178 231 282 324
#     4  10  20  36  58  85 110 140 184 228 276 329
#     4   9  18  32  54  85 116 143 176 225 278 327
#     4  10  19  34  58  85 112 142 183 234 280 325
#     4  11  23  36  52  79 112 145 184 229 274 325
#     4  11  23  37  56  83 113 151 191 225 276 335
#     4  10  21  37  59  85 113 147 188 232 281 331
#     4  10  19  35  58  81 108 145 186 228 277 332
#
# _framework density 21.870187000000001
#
# number of rings (size 3 to 8) (size 9 to 14) (size 15 to 20)
#    0.000    2.000    2.500    1.500    0.000    4.250 
#    0.000    5.000    0.000    3.750    0.000    0.000 
#    0.000    0.000    0.000    0.000    0.000    0.000 
#
# Total GULP energy -178805.241587 kJ/mol
# GULP energy per Si atom -5587.663800 kJ/mol
# Density = 2.182041 g / cm^3
# Si number density = 21.870187 Si / 1000 Ang^3
#
#
#
# Elastic Constant Matrix: (Units=GPa)
#
#
# Indices 1 2 3 4 5 6 
#
# 1 97.8701 1.9278 -10.1398 0.0000 -2.0851 0.0000
# 2 1.9278 58.1236 -6.0575 0.0000 0.3100 0.0000
# 3 -10.1398 -6.0575 50.4827 0.0000 -4.2981 0.0000
# 4 0.0000 0.0000 0.0000 6.0734 0.0000 -3.6911
# 5 -2.0851 0.3100 -4.2981 0.0000 44.3786 0.0000
# 6 0.0000 0.0000 0.0000 -3.6911 0.0000 -4.7705
#
#
#
# Elastic Compliance Matrix: (Units=1/GPa)
#
#
# Indices 1 2 3 4 5 6 
#
# 1 0.010457 -0.000127 0.002145 0.000000 0.000700 0.000000
# 2 -0.000127 0.017424 0.002071 0.000000 0.000073 0.000000
# 3 0.002145 0.002071 0.020666 0.000000 0.002088 0.000000
# 4 0.000000 0.000000 0.000000 0.111990 0.000000 -0.086650
# 5 0.000700 0.000073 0.002088 0.000000 0.022768 0.000000
# 6 0.000000 0.000000 0.000000 -0.086650 0.000000 -0.142579
#
#
# Mechanical properties :
#
#
# Convention : Reuss Voigt Hill
#
# Bulk Modulus (GPa) = 17.62861 19.77080 18.69971
# Shear Modulus (GPa) = 97.16705 23.85269 60.50987
#
# Velocity S-wave (km/s) = 6.67274 3.30608 5.26572
# Velocity P-wave (km/s) = 8.21251 4.86140 6.74828
#
# Compressibility (1/GPa) = 0.05672597
#
# Stress axis : x y z
#
# Youngs Moduli (GPa) = 95.62742 57.39066 48.38892
#
# Poissons Ratio (x) = 0.00729 -0.10378
# Poissons Ratio (y) = 0.01215 -0.10024
# Poissons Ratio (z) = -0.20510 -0.11888
#
# Static dielectric constant tensor:
#      x y z
#    x 1.778230 0.000000 -0.019270 
#    y 0.000000 1.907320 0.000000 
#    z -0.019270 0.000000 1.757600 
# 
# From -- ./inp_files/86904.got.cif
#   From: 2010.05.17/outbox.cif.g08.bks.cpg/sg10_44_cif.got.tgz:86904.got - 2010.06.03 11:33:40.
