data_PCOD9147572
_publ_section_title
;
Structure prediction by ZEFSAII (Michael W. Deem and Ramdas Pophale) SiO2 
 PCOD9147572
Probable space group: P 2/M
;
_chemical_formula_sum "Si O2"
_cell_formula_units_Z 24
_cell_length_a 9.858785
_cell_length_b 7.620214
_cell_length_c 12.843423
_cell_angle_alpha 90.000000
_cell_angle_beta 78.362700
_cell_angle_gamma 90.000000
_cell_volume 945.041807
_symmetry_space_group_name_H-M "P 2/M"
_symmetry_group_IT_number 10
_symmetry_cell_setting 'monoclinic'
loop_
_space_group_symop_operation_xyz
x,y,z
-x,y,-z
-x,-y,-z
x,-y,z
loop_
_atom_site_type_symbol
_atom_site_label
_atom_site_fract_x
_atom_site_fract_y
_atom_site_fract_z
Si Si1 0.391943 0.714727 0.105678
Si Si2 0.984804 0.711775 0.336357
Si Si3 0.218228 0.803093 0.801323
Si Si4 0.860680 0.698222 0.976934
Si Si5 0.497240 0.288580 0.317437
Si Si6 0.221226 0.285876 0.448727
O O1 0.386129 0.500000 0.105997
O O2 0.442630 0.766554 0.211611
O O3 0.500000 0.769228 0.000000
O O4 0.239302 0.775729 0.094420
O O5 0.982916 0.500000 0.333420
O O6 0.925893 0.775218 0.236293
O O7 0.872489 0.771131 0.440317
O O8 0.133951 0.762714 0.358565
O O9 0.229750 0.687401 0.902701
O O10 0.344096 0.767753 0.702817
O O11 0.230009 0.000000 0.836775
O O12 0.898338 0.500000 0.937075
O O13 0.000000 0.784911 0.000000
O O14 0.498903 0.500000 0.322255
O O15 0.379584 0.227203 0.415916
O O16 0.222224 0.500000 0.452424
#
# Coordination Sequence:
#
# PCOD9147572 Si02
#       6
#     4   4   4   4   4   4
#     4   9  16  30  54  83 109 134 173 226 278 325
#     4   9  18  37  61  86 113 141 182 236 289 337
#     4  12  25  38  52  79 118 157 189 223 273 332
#     4  10  21  37  60  86 109 141 185 233 282 328
#     4  10  19  35  59  84 111 144 187 235 279 330
#     4   8  17  34  62  91 109 135 183 242 292 330
#
# _framework density 25.395702
#
# number of rings (size 3 to 8) (size 9 to 14) (size 15 to 20)
#    0.000    2.333    1.667    2.500    2.333    1.000 
#    0.000    8.333    0.000    0.000    0.000    0.000 
#    0.000    0.000    0.000    0.000    0.000    0.000 
#
# Total GULP energy -134180.145763 kJ/mol
# GULP energy per Si atom -5590.839407 kJ/mol
# Density = 2.533790 g / cm^3
# Si number density = 25.395702 Si / 1000 Ang^3
#
#
#
# Elastic Constant Matrix: (Units=GPa)
#
#
# Indices 1 2 3 4 5 6 
#
# 1 128.6818 -0.0839 -1.1540 0.0000 4.6009 0.0000
# 2 -0.0839 66.7493 -1.3552 0.0000 -3.4213 0.0000
# 3 -1.1540 -1.3552 54.4401 0.0000 3.3353 0.0000
# 4 0.0000 0.0000 0.0000 -16.3386 0.0000 5.0083
# 5 4.6009 -3.4213 3.3353 0.0000 50.3888 0.0000
# 6 0.0000 0.0000 0.0000 5.0083 0.0000 -334.0021
#
#
#
# Elastic Compliance Matrix: (Units=1/GPa)
#
#
# Indices 1 2 3 4 5 6 
#
# 1 0.007799 -0.000023 0.000209 0.000000 -0.000728 0.000000
# 2 -0.000023 0.015039 0.000312 0.000000 0.001003 0.000000
# 3 0.000209 0.000312 0.018456 0.000000 -0.001219 0.000000
# 4 0.000000 0.000000 0.000000 -0.061487 0.000000 -0.000922
# 5 -0.000728 0.001003 -0.001219 0.000000 0.020061 0.000000
# 6 0.000000 0.000000 0.000000 -0.000922 0.000000 -0.003008
#
#
# Mechanical properties :
#
#
# Convention : Reuss Voigt Hill
#
# Bulk Modulus (GPa) = 23.64571 27.18721 25.41646
# Shear Modulus (GPa) = 502.02690 -43.15943 229.43373
#
# Velocity S-wave (km/s) = 14.07519 -4.12694 9.51523
# Velocity P-wave (km/s) = 16.53720 3.46125 11.43457
#
# Compressibility (1/GPa) = 0.04229097
#
# Stress axis : x y z
#
# Youngs Moduli (GPa) = 128.22190 66.49319 54.18365
#
# Poissons Ratio (x) = 0.00155 -0.01134
# Poissons Ratio (y) = 0.00298 -0.01693
# Poissons Ratio (z) = -0.02684 -0.02078
#
# Static dielectric constant tensor:
#      x y z
#    x 2.020890 0.000000 -0.061100 
#    y 0.000000 1.989820 0.000000 
#    z -0.061100 0.000000 2.011230 
# 
# From -- ./inp_files/60269.got.cif
#   From: 2010.05.17/outbox.cif.g08.bks.cpg/sg10_31_cif.got.tgz:60269.got - 2010.06.03 11:33:40.
