data_PCOD9147913
_publ_section_title
;
Structure prediction by ZEFSAII (Michael W. Deem and Ramdas Pophale) SiO2 
 PCOD9147913
Probable space group: P 2/M
;
_chemical_formula_sum "Si O2"
_cell_formula_units_Z 32
_cell_length_a 11.581133
_cell_length_b 15.540967
_cell_length_c 17.958521
_cell_angle_alpha 90.000000
_cell_angle_beta 28.002359
_cell_angle_gamma 90.000000
_cell_volume 1517.548475
_symmetry_space_group_name_H-M "P 2/M"
_symmetry_group_IT_number 10
_symmetry_cell_setting 'monoclinic'
loop_
_space_group_symop_operation_xyz
x,y,z
-x,y,-z
-x,-y,-z
x,-y,z
loop_
_atom_site_type_symbol
_atom_site_label
_atom_site_fract_x
_atom_site_fract_y
_atom_site_fract_z
Si Si1 0.825927 0.259172 0.168994
Si Si2 0.341788 0.732247 0.353453
Si Si3 0.913742 0.904408 0.906511
Si Si4 0.937323 0.596796 0.223216
Si Si5 0.037592 0.338775 0.318119
Si Si6 0.493332 0.596403 0.143029
Si Si7 0.329775 0.904577 0.275391
Si Si8 0.789638 0.851578 0.817136
O O1 0.553629 0.248661 0.292566
O O2 0.936623 0.171549 0.139892
O O3 0.829736 0.332436 0.229438
O O4 0.000000 0.284397 0.000000
O O5 0.452803 0.671666 0.225838
O O6 0.265375 0.823276 0.362321
O O7 0.123935 0.680971 0.517379
O O8 0.920644 0.894624 0.812989
O O9 0.997259 0.000000 0.880812
O O10 0.625013 0.896494 0.092765
O O11 0.864107 0.500000 0.244525
O O12 0.888158 0.615358 0.337716
O O13 0.234367 0.604103 0.045441
O O14 0.280208 0.390436 0.203661
O O15 0.119286 0.245763 0.241441
O O16 0.471208 0.500000 0.188022
O O17 0.196588 0.895676 0.271241
O O18 0.285922 0.000000 0.331374
O O19 0.500000 0.850606 0.000000
#
# Coordination Sequence:
#
# PCOD9147913 Si02
#       8
#     4   4   4   4   4   4   4   4
#     4  12  23  42  66  92 129 171 219 266 308 374
#     4  12  26  41  61  96 136 176 211 256 319 381
#     4  10  20  37  66  98 123 162 221 275 316 365
#     4  11  24  44  71  98 123 165 217 268 318 377
#     4  12  24  40  65  93 132 168 208 259 326 383
#     4  11  23  42  70  99 128 162 209 267 323 382
#     4  10  20  37  63  96 130 167 212 265 323 382
#     4  10  19  36  65  94 126 163 209 268 323 375
#
# _framework density 21.086642000000001
#
# number of rings (size 3 to 8) (size 9 to 14) (size 15 to 20)
#    0.000    1.000    5.000    2.250    0.000    6.000 
#    0.000    2.500    0.000    0.750    0.000    0.000 
#    0.000    0.000    0.000    0.000    0.000    0.000 
#
# Total GULP energy -179026.667212 kJ/mol
# GULP energy per Si atom -5594.583350 kJ/mol
# Density = 2.103865 g / cm^3
# Si number density = 21.086642 Si / 1000 Ang^3
#
#
#
# Elastic Constant Matrix: (Units=GPa)
#
#
# Indices 1 2 3 4 5 6 
#
# 1 81.6602 23.3601 11.5967 0.0000 -2.5351 0.0000
# 2 23.3601 129.7032 15.5348 0.0000 4.5181 0.0000
# 3 11.5967 15.5348 37.5946 0.0000 7.6990 0.0000
# 4 0.0000 0.0000 0.0000 -10.4367 0.0000 -17.9390
# 5 -2.5351 4.5181 7.6990 0.0000 27.3695 0.0000
# 6 0.0000 0.0000 0.0000 -17.9390 0.0000 -17.6903
#
#
#
# Elastic Compliance Matrix: (Units=1/GPa)
#
#
# Indices 1 2 3 4 5 6 
#
# 1 0.013464 -0.002057 -0.003850 0.000000 0.002670 0.000000
# 2 -0.002057 0.008430 -0.002679 0.000000 -0.000828 0.000000
# 3 -0.003850 -0.002679 0.030642 0.000000 -0.008534 0.000000
# 4 0.000000 0.000000 0.000000 0.128955 0.000000 -0.130769
# 5 0.002670 -0.000828 -0.008534 0.000000 0.039322 0.000000
# 6 0.000000 0.000000 0.000000 -0.130769 0.000000 0.076079
#
#
# Mechanical properties :
#
#
# Convention : Reuss Voigt Hill
#
# Bulk Modulus (GPa) = 28.27760 38.88235 33.57997
# Shear Modulus (GPa) = 15.34437 13.07961 14.21199
#
# Velocity S-wave (km/s) = 2.70048 2.49324 2.59893
# Velocity P-wave (km/s) = 4.81277 5.17375 4.99652
#
# Compressibility (1/GPa) = 0.03536369
#
# Stress axis : x y z
#
# Youngs Moduli (GPa) = 74.27297 118.62237 32.63503
#
# Poissons Ratio (x) = 0.24398 0.12564
# Poissons Ratio (y) = 0.15276 0.08744
# Poissons Ratio (z) = 0.28595 0.31783
#
# Static dielectric constant tensor:
#      x y z
#    x 1.747790 0.000000 0.013580 
#    y 0.000000 1.742150 0.000000 
#    z 0.013580 0.000000 1.768880 
# 
# From -- ./inp_files/76979.got.cif
#   From: 2010.05.17/outbox.cif.g08.bks.cpg/sg10_39_cif.got.tgz:76979.got - 2010.06.03 11:33:40.
