data_PCOD9147316
_publ_section_title
;
Structure prediction by ZEFSAII (Michael W. Deem and Ramdas Pophale) SiO2 
 PCOD9147316
Probable space group: P 2/M
;
_chemical_formula_sum "Si O2"
_cell_formula_units_Z 28
_cell_length_a 17.403319
_cell_length_b 9.215848
_cell_length_c 10.943952
_cell_angle_alpha 90.000000
_cell_angle_beta 125.800075
_cell_angle_gamma 90.000000
_cell_volume 1423.626888
_symmetry_space_group_name_H-M "P 2/M"
_symmetry_group_IT_number 10
_symmetry_cell_setting 'monoclinic'
loop_
_space_group_symop_operation_xyz
x,y,z
-x,y,-z
-x,-y,-z
x,-y,z
loop_
_atom_site_type_symbol
_atom_site_label
_atom_site_fract_x
_atom_site_fract_y
_atom_site_fract_z
Si Si1 0.688772 0.827978 0.885177
Si Si2 0.976220 0.332789 0.788949
Si Si3 0.177110 0.165757 0.214276
Si Si4 0.501939 0.673493 0.356052
Si Si5 0.685247 0.833315 0.421936
Si Si6 0.866829 0.829310 0.204839
Si Si7 0.840625 0.668170 0.424024
O O1 0.755391 0.786245 0.832630
O O2 0.594148 0.735253 0.791890
O O3 0.666312 0.000000 0.851498
O O4 0.757197 0.809537 0.064629
O O5 0.000766 0.500000 0.834815
O O6 0.911019 0.266508 0.834507
O O7 0.910985 0.326726 0.605493
O O8 0.066901 0.237737 0.838516
O O9 0.244686 0.163351 0.395998
O O10 0.145638 0.000000 0.160225
O O11 0.500000 0.707503 0.500000
O O12 0.508558 0.500000 0.349578
O O13 0.591152 0.750839 0.376297
O O14 0.744318 0.748613 0.374242
O O15 0.665652 0.000000 0.368492
O O16 0.883651 0.748303 0.347359
O O17 0.886266 0.000000 0.233386
O O18 0.823593 0.500000 0.379104
#
# Coordination Sequence:
#
# PCOD9147316 Si02
#       7
#     4   4   4   4   4   4   4
#     4  10  22  39  57  81 114 151 189 230 277 333
#     4  10  21  36  57  83 112 147 187 232 282 332
#     4   9  18  34  56  82 111 145 185 229 277 328
#     4  11  22  35  57  88 118 147 182 226 278 334
#     4  10  19  34  60  87 112 145 187 232 277 327
#     4  11  23  38  57  81 112 150 192 234 277 329
#     4  10  21  38  59  83 114 147 187 235 282 331
#
# _framework density 19.668074000000001
#
# number of rings (size 3 to 8) (size 9 to 14) (size 15 to 20)
#    0.000    1.857    1.429    2.571    0.000    6.857 
#    0.000    3.571    0.000    4.286    0.000    0.000 
#    0.000    0.000    0.000    0.000    0.000    0.000 
#
# Total GULP energy -156489.508127 kJ/mol
# GULP energy per Si atom -5588.911005 kJ/mol
# Density = 1.962331 g / cm^3
# Si number density = 19.668074 Si / 1000 Ang^3
#
#
#
# Elastic Constant Matrix: (Units=GPa)
#
#
# Indices 1 2 3 4 5 6 
#
# 1 96.4890 55.8356 14.2960 0.0000 20.1095 0.0000
# 2 55.8356 118.8925 28.3243 0.0000 23.0263 0.0000
# 3 14.2960 28.3243 29.6009 0.0000 10.0888 0.0000
# 4 0.0000 0.0000 0.0000 5.6770 0.0000 -2.7348
# 5 20.1095 23.0263 10.0888 0.0000 27.8417 0.0000
# 6 0.0000 0.0000 0.0000 -2.7348 0.0000 34.4529
#
#
#
# Elastic Compliance Matrix: (Units=1/GPa)
#
#
# Indices 1 2 3 4 5 6 
#
# 1 0.015029 -0.006015 0.000572 0.000000 -0.006087 0.000000
# 2 -0.006015 0.014247 -0.009347 0.000000 -0.004051 0.000000
# 3 0.000572 -0.009347 0.045587 0.000000 -0.009202 0.000000
# 4 0.000000 0.000000 0.000000 0.183153 0.000000 0.014538
# 5 -0.006087 -0.004051 -0.009202 0.000000 0.046999 0.000000
# 6 0.000000 0.000000 0.000000 0.014538 0.000000 0.030179
#
#
# Mechanical properties :
#
#
# Convention : Reuss Voigt Hill
#
# Bulk Modulus (GPa) = 22.08339 49.09935 35.59137
# Shear Modulus (GPa) = 13.16247 23.36276 18.26262
#
# Velocity S-wave (km/s) = 2.58976 3.45026 3.05050
# Velocity P-wave (km/s) = 4.49387 6.39458 5.52655
#
# Compressibility (1/GPa) = 0.04528291
#
# Stress axis : x y z
#
# Youngs Moduli (GPa) = 66.53954 70.18836 21.93631
#
# Poissons Ratio (x) = 0.42221 -0.01256
# Poissons Ratio (y) = 0.40026 0.20504
# Poissons Ratio (z) = -0.03809 0.65605
#
# Static dielectric constant tensor:
#      x y z
#    x 1.655850 0.000000 -0.006210 
#    y 0.000000 1.664890 0.000000 
#    z -0.006210 0.000000 1.713480 
# 
# From -- ./inp_files/49601.got.cif
#   From: 2010.05.17/outbox.cif.g08.bks.cpg/sg10_25_cif.got.tgz:49601.got - 2010.06.03 11:33:40.
