data_PCOD9147461
_publ_section_title
;
Structure prediction by ZEFSAII (Michael W. Deem and Ramdas Pophale) SiO2 
 PCOD9147461
Probable space group: P 2/M
;
_chemical_formula_sum "Si O2"
_cell_formula_units_Z 32
_cell_length_a 25.331028
_cell_length_b 7.825956
_cell_length_c 14.689805
_cell_angle_alpha 90.000000
_cell_angle_beta 150.139185
_cell_angle_gamma 90.000000
_cell_volume 1449.919168
_symmetry_space_group_name_H-M "P 2/M"
_symmetry_group_IT_number 10
_symmetry_cell_setting 'monoclinic'
loop_
_space_group_symop_operation_xyz
x,y,z
-x,y,-z
-x,-y,-z
x,-y,z
loop_
_atom_site_type_symbol
_atom_site_label
_atom_site_fract_x
_atom_site_fract_y
_atom_site_fract_z
Si Si1 0.884417 0.207052 0.789439
Si Si2 0.151313 0.198507 0.468534
Si Si3 0.321223 0.209099 0.000503
Si Si4 0.902653 0.790206 0.417648
Si Si5 0.541137 0.196138 0.261802
Si Si6 0.383900 0.795096 0.295232
Si Si7 0.617112 0.694837 0.197001
Si Si8 0.692202 0.301676 0.633225
O O1 0.869272 0.272008 0.662922
O O2 0.795491 0.266989 0.727271
O O3 0.875093 0.000000 0.772706
O O4 0.000000 0.252113 0.000000
O O5 0.094309 0.270317 0.472935
O O6 0.277767 0.209722 0.676387
O O7 0.120747 0.000000 0.417142
O O8 0.421548 0.261884 0.089213
O O9 0.345122 0.267451 0.139017
O O10 0.322962 0.000000 0.002806
O O11 0.208723 0.263578 0.793409
O O12 0.000000 0.736843 0.500000
O O13 0.902536 0.000000 0.419555
O O14 0.614011 0.299851 0.302051
O O15 0.594503 0.203153 0.440266
O O16 0.542276 0.000000 0.232948
O O17 0.500000 0.729306 0.500000
O O18 0.302329 0.752949 0.253954
O O19 0.392027 0.000000 0.300287
O O20 0.622075 0.500000 0.172162
O O21 0.500000 0.766091 0.000000
O O22 0.666417 0.500000 0.590804
#
# Coordination Sequence:
#
# PCOD9147461 Si02
#       8
#     4   4   4   4   4   4   4   4
#     4  10  22  40  62  88 117 155 204 249 291 350
#     4  10  20  36  60  87 115 153 196 242 294 349
#     4   9  18  32  54  82 112 148 192 241 292 344
#     4   9  18  33  55  86 117 144 186 242 292 337
#     4  11  20  35  58  83 114 152 197 244 293 352
#     4  10  19  35  57  81 113 156 200 243 293 351
#     4  11  23  36  53  84 122 158 194 239 298 356
#     4  12  24  37  56  85 120 157 193 240 305 361
#
# _framework density 22.070197
#
# number of rings (size 3 to 8) (size 9 to 14) (size 15 to 20)
#    0.000    1.750    2.500    2.625    0.000    3.500 
#    0.000    3.750    0.000    1.125    0.000    0.000 
#    0.000    0.000    0.000    0.000    0.000    0.000 
#
# Total GULP energy -178790.591402 kJ/mol
# GULP energy per Si atom -5587.205981 kJ/mol
# Density = 2.201996 g / cm^3
# Si number density = 22.070197 Si / 1000 Ang^3
#
#
#
# Elastic Constant Matrix: (Units=GPa)
#
#
# Indices 1 2 3 4 5 6 
#
# 1 163.4692 4.3225 45.9213 0.0000 4.6578 0.0000
# 2 4.3225 42.5563 8.3679 0.0000 -3.3823 0.0000
# 3 45.9213 8.3679 77.1709 0.0000 6.5796 0.0000
# 4 0.0000 0.0000 0.0000 3.4628 0.0000 -11.2717
# 5 4.6578 -3.3823 6.5796 0.0000 34.6717 0.0000
# 6 0.0000 0.0000 0.0000 -11.2717 0.0000 -37.1256
#
#
#
# Elastic Compliance Matrix: (Units=1/GPa)
#
#
# Indices 1 2 3 4 5 6 
#
# 1 0.007346 0.000101 -0.004370 0.000000 -0.000148 0.000000
# 2 0.000101 0.024299 -0.002944 0.000000 0.002915 0.000000
# 3 -0.004370 -0.002944 0.016113 0.000000 -0.002758 0.000000
# 4 0.000000 0.000000 0.000000 0.145244 0.000000 -0.044097
# 5 -0.000148 0.002915 -0.002758 0.000000 0.029670 0.000000
# 6 0.000000 0.000000 0.000000 -0.044097 0.000000 -0.013547
#
#
# Mechanical properties :
#
#
# Convention : Reuss Voigt Hill
#
# Bulk Modulus (GPa) = 29.99995 44.49110 37.24552
# Shear Modulus (GPa) = 21.30743 15.17409 18.24076
#
# Velocity S-wave (km/s) = 3.11052 2.62494 2.87799
# Velocity P-wave (km/s) = 5.15004 5.42123 5.28738
#
# Compressibility (1/GPa) = 0.03333339
#
# Stress axis : x y z
#
# Youngs Moduli (GPa) = 136.11933 41.15478 62.06177
#
# Poissons Ratio (x) = -0.00417 0.27121
# Poissons Ratio (y) = -0.01379 0.18269
# Poissons Ratio (z) = 0.59484 0.12115
#
# Static dielectric constant tensor:
#      x y z
#    x 1.838120 0.000000 -0.044010 
#    y 0.000000 1.779710 0.000000 
#    z -0.044010 0.000000 1.809460 
# 
# From -- ./inp_files/71616.got.cif
#   From: 2010.05.17/outbox.cif.g08.bks.cpg/sg10_36_cif.got.tgz:71616.got - 2010.06.03 11:33:40.
