data_PCOD9147812
_publ_section_title
;
Structure prediction by ZEFSAII (Michael W. Deem and Ramdas Pophale) SiO2 
 PCOD9147812
Probable space group: P 2/M
;
_chemical_formula_sum "Si O2"
_cell_formula_units_Z 26
_cell_length_a 7.808925
_cell_length_b 20.904640
_cell_length_c 13.488581
_cell_angle_alpha 90.000000
_cell_angle_beta 35.857300
_cell_angle_gamma 90.000000
_cell_volume 1289.811447
_symmetry_space_group_name_H-M "P 2/M"
_symmetry_group_IT_number 10
_symmetry_cell_setting 'monoclinic'
loop_
_space_group_symop_operation_xyz
x,y,z
-x,y,-z
-x,-y,-z
x,-y,z
loop_
_atom_site_type_symbol
_atom_site_label
_atom_site_fract_x
_atom_site_fract_y
_atom_site_fract_z
Si Si1 0.579854 0.777915 0.291045
Si Si2 0.822856 0.331783 0.819395
Si Si3 0.060745 0.201624 0.671635
Si Si4 0.231627 0.360341 0.812743
Si Si5 0.174535 0.570526 0.519775
Si Si6 0.153192 0.929137 0.144590
Si Si7 0.000000 0.876903 0.000000
O O1 0.754795 0.783600 0.314067
O O2 0.253425 0.789848 0.482633
O O3 0.625454 0.707799 0.222577
O O4 0.724267 0.830789 0.153154
O O5 0.821139 0.257897 0.785000
O O6 0.027738 0.340544 0.817887
O O7 0.990066 0.376403 0.663769
O O8 0.500000 0.352905 0.000000
O O9 0.963219 0.129155 0.734192
O O10 0.496212 0.405492 0.655500
O O11 0.000000 0.387350 0.000000
O O12 0.178704 0.500000 0.566432
O O13 0.000000 0.564624 0.500000
O O14 0.072299 0.914994 0.067105
O O15 0.038695 0.000000 0.224168
O O16 0.500000 0.929539 0.000000
#
# Coordination Sequence:
#
# PCOD9147812 Si02
#       7
#     4   4   4   4   4   4   2
#     4   9  17  33  58  87 117 150 194 254 295 358
#     4  11  22  38  63  92 121 157 206 255 303 370
#     4   9  18  35  57  87 119 153 199 246 306 353
#     4  11  21  38  63  90 123 158 200 251 311 360
#     4  11  25  44  62  88 125 161 202 252 307 370
#     4  10  21  38  58  83 121 161 200 249 305 369
#     4  10  19  36  60  86 117 158 204 250 307 362
#
# _framework density 20.157985
#
# number of rings (size 3 to 8) (size 9 to 14) (size 15 to 20)
#    0.000    1.846    2.308    2.077    0.000    1.846 
#    2.769    7.692    0.000    1.846    0.000    0.000 
#    0.000    0.000    0.000    0.000    0.000    0.000 
#
# Total GULP energy -145018.051405 kJ/mol
# GULP energy per Si atom -5577.617362 kJ/mol
# Density = 2.011210 g / cm^3
# Si number density = 20.157985 Si / 1000 Ang^3
#
#
#
# Elastic Constant Matrix: (Units=GPa)
#
#
# Indices 1 2 3 4 5 6 
#
# 1 40.1668 14.9408 11.9724 0.0000 -9.6700 0.0000
# 2 14.9408 121.4065 52.8508 0.0000 -2.9036 0.0000
# 3 11.9724 52.8508 139.7141 0.0000 -6.4342 0.0000
# 4 0.0000 0.0000 0.0000 16.6609 0.0000 -1.8306
# 5 -9.6700 -2.9036 -6.4342 0.0000 23.5479 0.0000
# 6 0.0000 0.0000 0.0000 -1.8306 0.0000 24.2546
#
#
#
# Elastic Compliance Matrix: (Units=1/GPa)
#
#
# Indices 1 2 3 4 5 6 
#
# 1 0.028958 -0.002921 -0.000856 0.000000 0.011297 0.000000
# 2 -0.002921 0.010156 -0.003635 0.000000 -0.000940 0.000000
# 3 -0.000856 -0.003635 0.008678 0.000000 0.001571 0.000000
# 4 0.000000 0.000000 0.000000 0.060523 0.000000 0.004568
# 5 0.011297 -0.000940 0.001571 0.000000 0.047419 0.000000
# 6 0.000000 0.000000 0.000000 0.004568 0.000000 0.041574
#
#
# Mechanical properties :
#
#
# Convention : Reuss Voigt Hill
#
# Bulk Modulus (GPa) = 30.33228 51.20172 40.76700
# Shear Modulus (GPa) = 22.40937 27.66091 25.03514
#
# Velocity S-wave (km/s) = 3.33781 3.70835 3.52795
# Velocity P-wave (km/s) = 5.47125 6.61749 6.07148
#
# Compressibility (1/GPa) = 0.03296818
#
# Stress axis : x y z
#
# Youngs Moduli (GPa) = 34.53323 98.46346 115.23130
#
# Poissons Ratio (x) = 0.28758 0.09868
# Poissons Ratio (y) = 0.10086 0.41885
# Poissons Ratio (z) = 0.02957 0.35790
#
# Static dielectric constant tensor:
#      x y z
#    x 1.715080 0.000000 -0.006220 
#    y 0.000000 1.749970 0.000000 
#    z -0.006220 0.000000 1.700750 
# 
# From -- ./inp_files/20428.got.cif
#   From: 2010.05.17/outbox.cif.g08.bks.cpg/sg10_11_cif.got.tgz:20428.got - 2010.06.03 11:33:40.
