data_PCOD9147924
_publ_section_title
;
Structure prediction by ZEFSAII (Michael W. Deem and Ramdas Pophale) SiO2 
 PCOD9147924
Probable space group: P 2/M
;
_chemical_formula_sum "Si O2"
_cell_formula_units_Z 26
_cell_length_a 5.936625
_cell_length_b 20.473202
_cell_length_c 12.538304
_cell_angle_alpha 90.000000
_cell_angle_beta 120.332058
_cell_angle_gamma 90.000000
_cell_volume 1315.321453
_symmetry_space_group_name_H-M "P 2/M"
_symmetry_group_IT_number 10
_symmetry_cell_setting 'monoclinic'
loop_
_space_group_symop_operation_xyz
x,y,z
-x,y,-z
-x,-y,-z
x,-y,z
loop_
_atom_site_type_symbol
_atom_site_label
_atom_site_fract_x
_atom_site_fract_y
_atom_site_fract_z
Si Si1 0.257340 0.608974 0.871143
Si Si2 0.038104 0.736998 0.128379
Si Si3 0.129494 0.500000 0.293760
Si Si4 0.270570 0.927605 0.632364
Si Si5 0.500000 0.858331 0.500000
Si Si6 0.612230 0.319208 0.312180
Si Si7 0.947702 0.802456 0.321586
Si Si8 0.500000 0.604854 0.500000
O O1 0.338436 0.626817 0.768545
O O2 0.150835 0.675089 0.899013
O O3 0.030747 0.556569 0.810394
O O4 0.500000 0.586161 0.000000
O O5 0.330288 0.712244 0.221264
O O6 0.968537 0.788490 0.201939
O O7 0.000000 0.761172 0.000000
O O8 0.280393 0.557675 0.398648
O O9 0.488543 0.904591 0.600464
O O10 0.221818 0.867008 0.698170
O O11 0.000000 0.931120 0.500000
O O12 0.319825 0.000000 0.687685
O O13 0.761219 0.815537 0.564702
O O14 0.820054 0.261263 0.344869
O O15 0.608327 0.351483 0.428092
#
# Coordination Sequence:
#
# PCOD9147924 Si02
#       8
#     4   4   2   4   2   4   4   2
#     4  11  23  44  68  93 118 160 216 271 320 378
#     4  11  22  43  64  90 122 156 216 271 320 372
#     4  11  25  47  63  95 124 168 210 256 331 397
#     4   9  18  34  57  90 132 174 213 249 298 371
#     4  10  19  37  54  94 131 169 210 248 310 374
#     4  11  24  43  63  92 125 166 207 266 321 379
#     4  10  23  37  61  94 127 168 209 258 318 366
#     4  11  26  45  64  90 132 166 210 254 329 409
#
# _framework density 19.767029999999998
#
# number of rings (size 3 to 8) (size 9 to 14) (size 15 to 20)
#    0.000    1.538    3.077    1.385    0.000    8.000 
#    2.769    1.154    0.000    0.462    0.000    4.308 
#    0.000    0.000    0.000    0.000    0.000    0.000 
#
# Total GULP energy -144789.121322 kJ/mol
# GULP energy per Si atom -5568.812359 kJ/mol
# Density = 1.972204 g / cm^3
# Si number density = 19.767030 Si / 1000 Ang^3
#
#
#
# Elastic Constant Matrix: (Units=GPa)
#
#
# Indices 1 2 3 4 5 6 
#
# 1 61.2562 21.4494 22.8093 0.0000 -13.5019 0.0000
# 2 21.4494 104.7630 45.4995 0.0000 -19.0152 0.0000
# 3 22.8093 45.4995 91.2015 0.0000 -3.2167 0.0000
# 4 0.0000 0.0000 0.0000 9.8467 0.0000 -9.7814
# 5 -13.5019 -19.0152 -3.2167 0.0000 45.3104 0.0000
# 6 0.0000 0.0000 0.0000 -9.7814 0.0000 117.5723
#
#
#
# Elastic Compliance Matrix: (Units=1/GPa)
#
#
# Indices 1 2 3 4 5 6 
#
# 1 0.019369 -0.001331 -0.004006 0.000000 0.004929 0.000000
# 2 -0.001331 0.013362 -0.006165 0.000000 0.004773 0.000000
# 3 -0.004006 -0.006165 0.014946 0.000000 -0.002720 0.000000
# 4 0.000000 0.000000 0.000000 0.110706 0.000000 0.009210
# 5 0.004929 0.004773 -0.002720 0.000000 0.025349 0.000000
# 6 0.000000 0.000000 0.000000 0.009210 0.000000 0.009272
#
#
# Mechanical properties :
#
#
# Convention : Reuss Voigt Hill
#
# Bulk Modulus (GPa) = 40.53044 48.52635 44.52839
# Shear Modulus (GPa) = 22.29836 45.71004 34.00420
#
# Velocity S-wave (km/s) = 3.36230 4.81400 4.15209
# Velocity P-wave (km/s) = 5.96842 7.44996 6.74996
#
# Compressibility (1/GPa) = 0.02467282
#
# Stress axis : x y z
#
# Youngs Moduli (GPa) = 51.62856 74.84110 66.90631
#
# Poissons Ratio (x) = 0.09962 0.26804
# Poissons Ratio (y) = 0.06872 0.41246
# Poissons Ratio (z) = 0.20684 0.46137
#
# Static dielectric constant tensor:
#      x y z
#    x 1.746600 0.000000 -0.007290 
#    y 0.000000 1.677030 0.000000 
#    z -0.007290 0.000000 1.685890 
# 
# From -- ./inp_files/39807.got.cif
#   From: 2010.05.17/outbox.cif.g08.bks.cpg/sg10_20_cif.got.tgz:39807.got - 2010.06.03 11:33:40.
