data_PCOD9147948
_publ_section_title
;
Structure prediction by ZEFSAII (Michael W. Deem and Ramdas Pophale) SiO2 
 PCOD9147948
Probable space group: P 2/M
;
_chemical_formula_sum "Si O2"
_cell_formula_units_Z 19
_cell_length_a 16.065742
_cell_length_b 11.173390
_cell_length_c 5.179933
_cell_angle_alpha 90.000000
_cell_angle_beta 87.211806
_cell_angle_gamma 90.000000
_cell_volume 928.742796
_symmetry_space_group_name_H-M "P 2/M"
_symmetry_group_IT_number 10
_symmetry_cell_setting 'monoclinic'
loop_
_space_group_symop_operation_xyz
x,y,z
-x,y,-z
-x,-y,-z
x,-y,z
loop_
_atom_site_type_symbol
_atom_site_label
_atom_site_fract_x
_atom_site_fract_y
_atom_site_fract_z
Si Si1 0.313011 0.213362 0.220723
Si Si2 0.557852 0.000000 0.740943
Si Si3 0.120813 0.138013 0.273244
Si Si4 0.906570 0.289036 0.221519
Si Si5 0.713349 0.638332 0.271913
Si Si6 0.000000 0.500000 0.500000
O O1 0.382526 0.115235 0.262159
O O2 0.221400 0.152170 0.239086
O O3 0.311993 0.312137 0.445661
O O4 0.323867 0.277978 0.945135
O O5 0.500000 0.000000 0.500000
O O6 0.500000 0.000000 0.000000
O O7 0.095079 0.187265 0.556663
O O8 0.097665 0.000000 0.240049
O O9 0.085457 0.224212 0.055503
O O10 0.813461 0.346600 0.236043
O O11 0.966064 0.394838 0.305962
O O12 0.691578 0.500000 0.240898
#
# Coordination Sequence:
#
# PCOD9147948 Si02
#       6
#     4   2   4   4   4   1
#     4  10  21  36  61  89 119 157 191 252 291 338
#     4  12  24  40  62  94 128 157 190 235 308 376
#     4  10  20  40  61  87 115 149 213 243 298 335
#     4  10  23  35  61  85 118 164 189 257 290 369
#     4  10  19  37  60  90 114 152 215 244 287 334
#     4  12  24  46  54  90 132 154 208 232 336 342
#
# _framework density 20.457761999999999
#
# number of rings (size 3 to 8) (size 9 to 14) (size 15 to 20)
#    0.000    1.684    2.105    2.526    0.000    2.526 
#    0.000    3.158    0.000   12.632    0.000    0.000 
#    0.000    0.000    0.000    0.000    0.000    0.000 
#
# Total GULP energy -106028.262569 kJ/mol
# GULP energy per Si atom -5580.434872 kJ/mol
# Density = 2.041120 g / cm^3
# Si number density = 20.457762 Si / 1000 Ang^3
#
#
#
# Elastic Constant Matrix: (Units=GPa)
#
#
# Indices 1 2 3 4 5 6 
#
# 1 81.7318 38.9840 25.4950 0.0000 26.4534 0.0000
# 2 38.9840 150.6639 33.1738 0.0000 23.4491 0.0000
# 3 25.4950 33.1738 122.2558 0.0000 28.8444 0.0000
# 4 0.0000 0.0000 0.0000 13.5996 0.0000 16.5191
# 5 26.4534 23.4491 28.8444 0.0000 31.1978 0.0000
# 6 0.0000 0.0000 0.0000 16.5191 0.0000 22.1791
#
#
#
# Elastic Compliance Matrix: (Units=1/GPa)
#
#
# Indices 1 2 3 4 5 6 
#
# 1 0.017682 -0.002549 0.000115 0.000000 -0.013183 0.000000
# 2 -0.002549 0.007963 -0.000930 0.000000 -0.002964 0.000000
# 3 0.000115 -0.000930 0.010572 0.000000 -0.009173 0.000000
# 4 0.000000 0.000000 0.000000 0.771567 0.000000 -0.574669
# 5 -0.013183 -0.002964 -0.009173 0.000000 0.053941 0.000000
# 6 0.000000 0.000000 0.000000 -0.574669 0.000000 0.473105
#
#
# Mechanical properties :
#
#
# Convention : Reuss Voigt Hill
#
# Bulk Modulus (GPa) = 33.91052 61.10635 47.50844
# Shear Modulus (GPa) = 3.69990 30.52854 17.11422
#
# Velocity S-wave (km/s) = 1.34628 3.86718 2.89548
# Velocity P-wave (km/s) = 4.36217 7.06219 5.86954
#
# Compressibility (1/GPa) = 0.02948937
#
# Stress axis : x y z
#
# Youngs Moduli (GPa) = 56.55491 125.58344 94.58762
#
# Poissons Ratio (x) = 0.32006 -0.01084
# Poissons Ratio (y) = 0.14413 0.08795
# Poissons Ratio (z) = -0.00648 0.11677
#
# Static dielectric constant tensor:
#      x y z
#    x 1.755430 0.000000 -0.020320 
#    y 0.000000 1.665720 0.000000 
#    z -0.020320 0.000000 1.702520 
# 
# From -- ./inp_files/10597.got.cif
#   From: 2010.05.17/outbox.cif.g08.bks.cpg/sg10_6_cif.got.tgz:10597.got - 2010.06.03 11:33:40.
