data_PCOD9147229
_publ_section_title
;
Structure prediction by ZEFSAII (Michael W. Deem and Ramdas Pophale) SiO2 
 PCOD9147229
Probable space group: P 2/M
;
_chemical_formula_sum "Si O2"
_cell_formula_units_Z 22
_cell_length_a 9.206217
_cell_length_b 14.183931
_cell_length_c 8.714655
_cell_angle_alpha 90.000000
_cell_angle_beta 94.033516
_cell_angle_gamma 90.000000
_cell_volume 1135.144023
_symmetry_space_group_name_H-M "P 2/M"
_symmetry_group_IT_number 10
_symmetry_cell_setting 'monoclinic'
loop_
_space_group_symop_operation_xyz
x,y,z
-x,y,-z
-x,-y,-z
x,-y,z
loop_
_atom_site_type_symbol
_atom_site_label
_atom_site_fract_x
_atom_site_fract_y
_atom_site_fract_z
Si Si1 0.244699 0.500000 0.526826
Si Si2 0.621235 0.827788 0.399514
Si Si3 0.563304 0.293126 0.844833
Si Si4 0.000000 0.661860 0.500000
Si Si5 0.465642 0.500000 0.254779
Si Si6 0.172530 0.213716 0.305019
Si Si7 0.787813 0.000000 0.333003
Si Si8 0.887759 0.000000 0.700583
O O1 0.138601 0.591218 0.526540
O O2 0.342034 0.500000 0.379161
O O3 0.371006 0.500000 0.663787
O O4 0.500000 0.875616 0.500000
O O5 0.539258 0.748738 0.297157
O O6 0.738006 0.788063 0.527444
O O7 0.695254 0.906532 0.301212
O O8 0.555607 0.404947 0.839310
O O9 0.727091 0.263737 0.812910
O O10 0.500000 0.256756 0.000000
O O11 0.030545 0.728938 0.352999
O O12 0.158742 0.104717 0.252108
O O13 0.836828 0.000000 0.517212
O O14 0.939898 0.000000 0.260568
#
# Coordination Sequence:
#
# PCOD9147229 Si02
#       8
#     2   4   4   2   2   4   2   2
#     4  10  22  32  61  90 113 136 184 234 285 329
#     4   9  18  31  53  82 108 143 183 228 273 319
#     4  11  23  37  56  79 109 148 188 229 276 331
#     4  11  18  33  56  94 114 141 174 235 276 336
#     4  11  21  40  55  82 112 145 183 231 282 337
#     4  10  19  34  58  84 115 143 183 228 275 327
#     4   9  15  30  52  81 112 140 174 231 282 325
#     4   9  18  30  52  85 111 141 184 225 278 324
#
# _framework density 19.380800000000001
#
# number of rings (size 3 to 8) (size 9 to 14) (size 15 to 20)
#    0.000    2.000    1.818    3.818    5.091    2.182 
#    0.000    1.818    0.000   12.000    0.000    0.000 
#    0.000    0.000    0.000    0.000    0.000    0.000 
#
# Total GULP energy -122579.262695 kJ/mol
# GULP energy per Si atom -5571.784668 kJ/mol
# Density = 1.933669 g / cm^3
# Si number density = 19.380800 Si / 1000 Ang^3
#
#
#
# Elastic Constant Matrix: (Units=GPa)
#
#
# Indices 1 2 3 4 5 6 
#
# 1 105.4333 50.9687 21.4689 0.0000 -17.1553 0.0000
# 2 50.9687 139.4719 18.9631 0.0000 -11.9615 0.0000
# 3 21.4689 18.9631 31.0472 0.0000 -23.2624 0.0000
# 4 0.0000 0.0000 0.0000 -3.8468 0.0000 -5.6791
# 5 -17.1553 -11.9615 -23.2624 0.0000 20.2856 0.0000
# 6 0.0000 0.0000 0.0000 -5.6791 0.0000 36.4384
#
#
#
# Elastic Compliance Matrix: (Units=1/GPa)
#
#
# Indices 1 2 3 4 5 6 
#
# 1 0.012769 -0.003918 -0.000545 0.000000 0.007864 0.000000
# 2 -0.003918 0.009131 -0.009349 0.000000 -0.008650 0.000000
# 3 -0.000545 -0.009349 0.240211 0.000000 0.269487 0.000000
# 4 0.000000 0.000000 0.000000 -0.211331 0.000000 -0.032937
# 5 0.007864 -0.008650 0.269487 0.000000 0.359878 0.000000
# 6 0.000000 0.000000 0.000000 -0.032937 0.000000 0.022310
#
#
# Mechanical properties :
#
#
# Convention : Reuss Voigt Hill
#
# Bulk Modulus (GPa) = 4.26461 50.97262 27.61862
# Shear Modulus (GPa) = 9.28066 22.87890 16.07978
#
# Velocity S-wave (km/s) = 2.19066 3.43956 2.88353
# Velocity P-wave (km/s) = 2.93323 6.49090 5.03665
#
# Compressibility (1/GPa) = 0.23448808
#
# Stress axis : x y z
#
# Youngs Moduli (GPa) = 78.31403 109.51817 4.16300
#
# Poissons Ratio (x) = 0.42908 0.00227
# Poissons Ratio (y) = 0.30682 0.03892
# Poissons Ratio (z) = 0.04267 1.02386
#
# Static dielectric constant tensor:
#      x y z
#    x 1.730980 0.000000 -0.017470 
#    y 0.000000 1.705030 0.000000 
#    z -0.017470 0.000000 1.649580 
# 
# From -- ./inp_files/18957.got.cif
#   From: 2010.05.17/outbox.cif.g08.bks.cpg/sg10_10_cif.got.tgz:18957.got - 2010.06.03 11:33:40.
