data_PCOD9147909
_publ_section_title
;
Structure prediction by ZEFSAII (Michael W. Deem and Ramdas Pophale) SiO2 
 PCOD9147909
Probable space group: P 2/M
;
_chemical_formula_sum "Si O2"
_cell_formula_units_Z 32
_cell_length_a 27.569335
_cell_length_b 13.043912
_cell_length_c 9.692482
_cell_angle_alpha 90.000000
_cell_angle_beta 26.545562
_cell_angle_gamma 90.000000
_cell_volume 1557.717056
_symmetry_space_group_name_H-M "P 2/M"
_symmetry_group_IT_number 10
_symmetry_cell_setting 'monoclinic'
loop_
_space_group_symop_operation_xyz
x,y,z
-x,y,-z
-x,-y,-z
x,-y,z
loop_
_atom_site_type_symbol
_atom_site_label
_atom_site_fract_x
_atom_site_fract_y
_atom_site_fract_z
Si Si1 0.485200 0.215028 0.890930
Si Si2 0.115692 0.117935 0.786547
Si Si3 0.324742 0.379677 0.650835
Si Si4 0.939776 0.616841 0.297945
Si Si5 0.148983 0.679062 0.873552
Si Si6 0.667177 0.390213 0.771521
Si Si7 0.287290 0.315935 0.050550
Si Si8 0.339637 0.884778 0.036969
O O1 0.582450 0.292720 0.605405
O O2 0.500000 0.160124 0.000000
O O3 0.389404 0.297167 0.159988
O O4 0.437620 0.143964 0.891850
O O5 0.132803 0.204339 0.860521
O O6 0.224561 0.123965 0.413829
O O7 0.112097 0.000000 0.847755
O O8 0.000000 0.133455 0.000000
O O9 0.349799 0.500000 0.552406
O O10 0.222584 0.342646 0.818904
O O11 0.299859 0.373454 0.876319
O O12 0.899968 0.500000 0.395917
O O13 0.838843 0.687880 0.587441
O O14 0.000000 0.638531 0.000000
O O15 0.030166 0.631484 0.184659
O O16 0.210545 0.618774 0.592719
O O17 0.621109 0.500000 0.852388
O O18 0.658095 0.371867 0.957338
O O19 0.335153 0.201661 0.931222
O O20 0.350140 0.000000 0.959480
#
# Coordination Sequence:
#
# PCOD9147909 Si02
#       8
#     4   4   4   4   4   4   4   4
#     4  11  22  39  61  88 121 159 204 256 302 362
#     4  10  19  36  64  95 124 158 203 260 312 356
#     4  12  26  41  59  87 129 168 201 250 312 366
#     4  11  20  33  60  90 121 161 202 245 299 363
#     4  12  21  36  58  92 123 158 207 249 298 362
#     4  11  20  34  58  84 116 156 202 248 291 354
#     4  11  23  41  58  89 126 159 203 255 304 369
#     4  10  21  40  64  90 118 157 207 259 308 361
#
# _framework density 20.542881999999999
#
# number of rings (size 3 to 8) (size 9 to 14) (size 15 to 20)
#    0.000    1.000    5.000    3.750    0.000    3.250 
#    0.000    6.875    0.000    0.000    0.000    4.375 
#    0.000    0.000    0.000    0.000    0.000    0.000 
#
# Total GULP energy -178559.498282 kJ/mol
# GULP energy per Si atom -5579.984321 kJ/mol
# Density = 2.049613 g / cm^3
# Si number density = 20.542882 Si / 1000 Ang^3
#
#
#
# Elastic Constant Matrix: (Units=GPa)
#
#
# Indices 1 2 3 4 5 6 
#
# 1 109.0815 33.5156 30.7644 0.0000 -1.7584 0.0000
# 2 33.5156 138.2113 -0.3583 0.0000 0.3713 0.0000
# 3 30.7644 -0.3583 34.2054 0.0000 -4.1316 0.0000
# 4 0.0000 0.0000 0.0000 9.7979 0.0000 -3.3497
# 5 -1.7584 0.3713 -4.1316 0.0000 33.4423 0.0000
# 6 0.0000 0.0000 0.0000 -3.3497 0.0000 13.0777
#
#
#
# Elastic Compliance Matrix: (Units=1/GPa)
#
#
# Indices 1 2 3 4 5 6 
#
# 1 0.013695 -0.003351 -0.012447 0.000000 -0.000780 0.000000
# 2 -0.003351 0.008056 0.003113 0.000000 0.000119 0.000000
# 3 -0.012447 0.003113 0.040991 0.000000 0.004375 0.000000
# 4 0.000000 0.000000 0.000000 0.111858 0.000000 0.028651
# 5 -0.000780 0.000119 0.004375 0.000000 0.030400 0.000000
# 6 0.000000 0.000000 0.000000 0.028651 0.000000 0.083805
#
#
# Mechanical properties :
#
#
# Convention : Reuss Voigt Hill
#
# Bulk Modulus (GPa) = 26.75845 45.48240 36.12042
# Shear Modulus (GPa) = 15.30779 25.76866 20.53822
#
# Velocity S-wave (km/s) = 2.73273 3.54557 3.16535
# Velocity P-wave (km/s) = 4.79698 6.24097 5.56600
#
# Compressibility (1/GPa) = 0.03737138
#
# Stress axis : x y z
#
# Youngs Moduli (GPa) = 73.02039 124.13614 24.39581
#
# Poissons Ratio (x) = 0.41599 0.30364
# Poissons Ratio (y) = 0.24470 -0.07594
# Poissons Ratio (z) = 0.90885 -0.38640
#
# Static dielectric constant tensor:
#      x y z
#    x 1.769150 0.000000 -0.033630 
#    y 0.000000 1.736060 0.000000 
#    z -0.033630 0.000000 1.763770 
# 
# From -- ./inp_files/37689.got.cif
#   From: 2010.05.17/outbox.cif.g08.bks.cpg/sg10_19_cif.got.tgz:37689.got - 2010.06.03 11:33:40.
