data_PCOD9147960
_publ_section_title
;
Structure prediction by ZEFSAII (Michael W. Deem and Ramdas Pophale) SiO2 
 PCOD9147960
Probable space group: P 2/M
;
_chemical_formula_sum "Si O2"
_cell_formula_units_Z 24
_cell_length_a 27.630052
_cell_length_b 7.550579
_cell_length_c 20.790446
_cell_angle_alpha 90.000000
_cell_angle_beta 17.898675
_cell_angle_gamma 90.000000
_cell_volume 1333.021753
_symmetry_space_group_name_H-M "P 2/M"
_symmetry_group_IT_number 10
_symmetry_cell_setting 'monoclinic'
loop_
_space_group_symop_operation_xyz
x,y,z
-x,y,-z
-x,-y,-z
x,-y,z
loop_
_atom_site_type_symbol
_atom_site_label
_atom_site_fract_x
_atom_site_fract_y
_atom_site_fract_z
Si Si1 0.778441 0.794166 0.408998
Si Si2 0.821679 0.500000 0.248354
Si Si3 0.950615 0.790391 0.320323
Si Si4 0.487290 0.500000 0.439458
Si Si5 0.389368 0.500000 0.041098
Si Si6 0.256702 0.500000 0.349471
Si Si7 0.317293 0.789489 0.884725
Si Si8 0.583449 0.206540 0.095872
O O1 0.792754 0.669420 0.330055
O O2 0.902812 0.748415 0.307319
O O3 0.605046 0.772358 0.658681
O O4 0.796597 0.000000 0.368375
O O5 0.693920 0.500000 0.353513
O O6 0.000000 0.500000 0.000000
O O7 0.842292 0.670042 0.502361
O O8 0.919202 0.000000 0.369839
O O9 0.134511 0.758051 0.099772
O O10 0.500000 0.500000 0.500000
O O11 0.573428 0.669540 0.298431
O O12 0.572377 0.500000 0.832338
O O13 0.360753 0.330689 0.032032
O O14 0.287602 0.500000 0.234376
O O15 0.348172 0.744807 0.920556
O O16 0.350858 0.000000 0.834600
O O17 0.617995 0.000000 0.040238
#
# Coordination Sequence:
#
# PCOD9147960 Si02
#       8
#     4   2   4   2   2   2   4   4
#     4  10  20  38  63  83 109 151 198 239 275 326
#     4  12  26  39  57  87 122 151 183 235 287 336
#     4  10  21  38  61  87 112 148 195 239 281 331
#     4  12  26  40  58  86 119 154 186 226 290 351
#     4  11  22  34  55  87 121 153 187 232 288 341
#     4  11  22  35  54  86 124 153 182 235 292 339
#     4  10  22  41  64  85 111 149 194 239 280 332
#     4  10  19  37  62  84 107 149 200 238 274 328
#
# _framework density 18.004208999999999
#
# number of rings (size 3 to 8) (size 9 to 14) (size 15 to 20)
#    0.000    1.500    3.333    2.000    2.333    1.333 
#    0.000    3.333    0.000    3.000    0.000    0.000 
#    0.000    0.000    0.000    0.000    0.000    0.000 
#
# Total GULP energy -134092.835217 kJ/mol
# GULP energy per Si atom -5587.201467 kJ/mol
# Density = 1.796323 g / cm^3
# Si number density = 18.004209 Si / 1000 Ang^3
#
#
#
# Elastic Constant Matrix: (Units=GPa)
#
#
# Indices 1 2 3 4 5 6 
#
# 1 169.6914 66.2706 57.6924 0.0000 -2.7554 0.0000
# 2 66.2706 82.6388 44.9694 0.0000 15.6094 0.0000
# 3 57.6924 44.9694 73.2100 0.0000 -3.9620 0.0000
# 4 0.0000 0.0000 0.0000 -39.8516 0.0000 -35.2580
# 5 -2.7554 15.6094 -3.9620 0.0000 36.3322 0.0000
# 6 0.0000 0.0000 0.0000 -35.2580 0.0000 1.5457
#
#
#
# Elastic Compliance Matrix: (Units=1/GPa)
#
#
# Indices 1 2 3 4 5 6 
#
# 1 0.009634 -0.006418 -0.003481 0.000000 0.003109 0.000000
# 2 -0.006418 0.026014 -0.011621 0.000000 -0.012931 0.000000
# 3 -0.003481 -0.011621 0.023938 0.000000 0.007339 0.000000
# 4 0.000000 0.000000 0.000000 -0.001185 0.000000 -0.027023
# 5 0.003109 -0.012931 0.007339 0.000000 0.034115 0.000000
# 6 0.000000 0.000000 0.000000 -0.027023 0.000000 0.030544
#
#
# Mechanical properties :
#
#
# Convention : Reuss Voigt Hill
#
# Bulk Modulus (GPa) = 60.44170 73.71168 67.07669
# Shear Modulus (GPa) = 29.13481 10.04579 19.59030
#
# Velocity S-wave (km/s) = 4.02708 2.36470 3.30221
# Velocity P-wave (km/s) = 7.43417 6.96319 7.20253
#
# Compressibility (1/GPa) = 0.01654487
#
# Stress axis : x y z
#
# Youngs Moduli (GPa) = 103.80313 38.44048 41.77492
#
# Poissons Ratio (x) = 0.24673 0.14541
# Poissons Ratio (y) = 0.66626 0.48547
# Poissons Ratio (z) = 0.36132 0.44672
#
# Static dielectric constant tensor:
#      x y z
#    x 1.602440 0.000000 -0.026770 
#    y 0.000000 1.627020 0.000000 
#    z -0.026770 0.000000 1.581470 
# 
# From -- ./inp_files/80109.got.cif
#   From: 2010.05.17/outbox.cif.g08.bks.cpg/sg10_41_cif.got.tgz:80109.got - 2010.06.03 11:33:40.
