data_PCOD9147310
_publ_section_title
;
Structure prediction by ZEFSAII (Michael W. Deem and Ramdas Pophale) SiO2 
 PCOD9147310
Probable space group: P 2/M
;
_chemical_formula_sum "Si O2"
_cell_formula_units_Z 30
_cell_length_a 9.440525
_cell_length_b 14.645312
_cell_length_c 8.427868
_cell_angle_alpha 90.000000
_cell_angle_beta 95.380706
_cell_angle_gamma 90.000000
_cell_volume 1160.097779
_symmetry_space_group_name_H-M "P 2/M"
_symmetry_group_IT_number 10
_symmetry_cell_setting 'monoclinic'
loop_
_space_group_symop_operation_xyz
x,y,z
-x,y,-z
-x,-y,-z
x,-y,z
loop_
_atom_site_type_symbol
_atom_site_label
_atom_site_fract_x
_atom_site_fract_y
_atom_site_fract_z
Si Si1 0.500000 0.871084 0.000000
Si Si2 0.193669 0.890506 0.892824
Si Si3 0.447649 0.663870 0.658468
Si Si4 0.198543 0.607100 0.809479
Si Si5 0.099867 0.107012 0.249627
Si Si6 0.584185 0.864067 0.660389
Si Si7 0.909855 0.606520 0.633749
Si Si8 0.304859 0.606235 0.148164
O O1 0.654850 0.839404 0.084535
O O2 0.442361 0.906631 0.167042
O O3 0.064576 0.857361 0.764135
O O4 0.221009 0.000000 0.863366
O O5 0.137526 0.885649 0.067076
O O6 0.500000 0.619730 0.500000
O O7 0.282002 0.654912 0.674396
O O8 0.513610 0.764220 0.668375
O O9 0.528218 0.614579 0.810827
O O10 0.238357 0.500000 0.801392
O O11 0.029659 0.608498 0.782488
O O12 0.249160 0.647217 0.980845
O O13 0.244972 0.140490 0.349598
O O14 0.089120 0.000000 0.290175
O O15 0.500000 0.903935 0.500000
O O16 0.879607 0.500000 0.583398
O O17 0.772635 0.646317 0.704532
O O18 0.000000 0.648570 0.500000
O O19 0.264501 0.500000 0.141536
#
# Coordination Sequence:
#
# PCOD9147310 Si02
#       8
#     2   4   4   4   4   4   4   4
#     4  10  19  34  60  82 115 158 184 236 288 342
#     4   8  14  28  56  92 118 147 192 234 285 347
#     4  11  23  37  53  75 109 147 187 237 285 342
#     4  10  20  34  55  81 108 139 183 238 289 345
#     4   8  15  32  58  85 119 154 188 240 291 341
#     4  10  23  39  55  82 115 154 200 241 287 347
#     4   9  17  31  52  78 108 140 176 223 282 343
#     4  10  20  34  55  81 107 139 184 235 286 344
#
# _framework density 25.859888000000002
#
# number of rings (size 3 to 8) (size 9 to 14) (size 15 to 20)
#    0.000    2.533    0.000    3.000    1.867    5.600 
#    0.000    2.000    5.867    4.800    0.000    0.000 
#    0.000    0.000    0.000    0.000    0.000    0.000 
#
# Total GULP energy -167111.971560 kJ/mol
# GULP energy per Si atom -5570.399052 kJ/mol
# Density = 2.580103 g / cm^3
# Si number density = 25.859888 Si / 1000 Ang^3
#
#
#
# Elastic Constant Matrix: (Units=GPa)
#
#
# Indices 1 2 3 4 5 6 
#
# 1 185.5728 21.0166 30.8136 0.0000 32.5051 0.0000
# 2 21.0166 76.0624 -0.1315 0.0000 2.3782 0.0000
# 3 30.8136 -0.1315 115.8955 0.0000 12.9267 0.0000
# 4 0.0000 0.0000 0.0000 20.3274 0.0000 -13.1977
# 5 32.5051 2.3782 12.9267 0.0000 49.2020 0.0000
# 6 0.0000 0.0000 0.0000 -13.1977 0.0000 18.7689
#
#
#
# Elastic Compliance Matrix: (Units=1/GPa)
#
#
# Indices 1 2 3 4 5 6 
#
# 1 0.006467 -0.001669 -0.001292 0.000000 -0.003852 0.000000
# 2 -0.001669 0.013598 0.000422 0.000000 0.000334 0.000000
# 3 -0.001292 0.000422 0.009147 0.000000 -0.001570 0.000000
# 4 0.000000 0.000000 0.000000 0.090521 0.000000 0.063652
# 5 -0.003852 0.000334 -0.001570 0.000000 0.023266 0.000000
# 6 0.000000 0.000000 0.000000 0.063652 0.000000 0.098037
#
#
# Mechanical properties :
#
#
# Convention : Reuss Voigt Hill
#
# Bulk Modulus (GPa) = 41.43195 53.43647 47.43421
# Shear Modulus (GPa) = 19.67269 39.38180 29.52724
#
# Velocity S-wave (km/s) = 2.76115 3.90666 3.38274
# Velocity P-wave (km/s) = 5.12072 6.40765 5.79999
#
# Compressibility (1/GPa) = 0.02413596
#
# Stress axis : x y z
#
# Youngs Moduli (GPa) = 154.63244 73.53787 109.31949
#
# Poissons Ratio (x) = 0.12271 0.14120
# Poissons Ratio (y) = 0.25803 -0.04611
# Poissons Ratio (z) = 0.19972 -0.03102
#
# Static dielectric constant tensor:
#      x y z
#    x 1.982480 0.000000 0.003010 
#    y 0.000000 2.053620 0.000000 
#    z 0.003010 0.000000 2.132940 
# 
# From -- ./inp_files/20242.got.cif
#   From: 2010.05.17/outbox.cif.g08.bks.cpg/sg10_11_cif.got.tgz:20242.got - 2010.06.03 11:33:40.
