data_PCOD9147403
_publ_section_title
;
Structure prediction by ZEFSAII (Michael W. Deem and Ramdas Pophale) SiO2 
 PCOD9147403
Probable space group: P 2/M
;
_chemical_formula_sum "Si O2"
_cell_formula_units_Z 32
_cell_length_a 11.853771
_cell_length_b 9.220299
_cell_length_c 34.009640
_cell_angle_alpha 90.000000
_cell_angle_beta 150.823821
_cell_angle_gamma 90.000000
_cell_volume 1812.071161
_symmetry_space_group_name_H-M "P 2/M"
_symmetry_group_IT_number 10
_symmetry_cell_setting 'monoclinic'
loop_
_space_group_symop_operation_xyz
x,y,z
-x,y,-z
-x,-y,-z
x,-y,z
loop_
_atom_site_type_symbol
_atom_site_label
_atom_site_fract_x
_atom_site_fract_y
_atom_site_fract_z
Si Si1 0.870158 0.167377 0.918719
Si Si2 0.778792 0.671776 0.027152
Si Si3 0.937300 0.829064 0.149737
Si Si4 0.184841 0.165301 0.520300
Si Si5 0.479320 0.826189 0.311493
Si Si6 0.321220 0.828447 0.761987
Si Si7 0.339497 0.171948 0.856796
Si Si8 0.839170 0.327380 0.362861
O O1 0.597982 0.192719 0.841109
O O2 0.990118 0.273324 0.924518
O O3 0.901935 0.000000 0.915094
O O4 0.000000 0.182114 0.000000
O O5 0.764155 0.500000 0.023144
O O6 0.790239 0.736310 0.074368
O O7 0.565219 0.740587 0.938575
O O8 0.852945 0.804707 0.168488
O O9 0.208135 0.795728 0.226946
O O10 0.902915 0.000000 0.130591
O O11 0.419362 0.207272 0.614231
O O12 0.000000 0.163834 0.500000
O O13 0.075371 0.269328 0.454672
O O14 0.202397 0.000000 0.510745
O O15 0.630291 0.741182 0.325388
O O16 0.514371 0.000000 0.315995
O O17 0.264547 0.790946 0.789824
O O18 0.191708 0.734681 0.690152
O O19 0.275510 0.000000 0.741691
O O20 0.399581 0.000000 0.874593
O O21 0.827975 0.500000 0.360652
#
# Coordination Sequence:
#
# PCOD9147403 Si02
#       8
#     4   4   4   4   4   4   4   4
#     4  10  19  35  56  75  98 132 174 214 256 305
#     4  12  24  35  51  77 109 138 170 213 263 314
#     4  10  21  37  58  78  99 131 177 223 258 302
#     4   8  15  30  52  76 105 136 166 203 253 306
#     4   9  18  34  55  80 106 134 167 209 260 305
#     4  10  20  35  55  75 100 134 173 215 260 305
#     4  10  21  39  58  74  95 134 183 223 258 300
#     4  11  21  31  49  80 112 138 168 203 248 309
#
# _framework density 17.659351000000001
#
# number of rings (size 3 to 8) (size 9 to 14) (size 15 to 20)
#    0.000    2.000    1.250    4.125    0.000    9.000 
#    0.000    0.000    0.000    0.750    0.000    5.250 
#    0.000    0.000    0.000    0.000    0.000    0.000 
#
# Total GULP energy -178671.464767 kJ/mol
# GULP energy per Si atom -5583.483274 kJ/mol
# Density = 1.761916 g / cm^3
# Si number density = 17.659351 Si / 1000 Ang^3
#
#
#
# Elastic Constant Matrix: (Units=GPa)
#
#
# Indices 1 2 3 4 5 6 
#
# 1 73.4867 48.2102 31.5679 0.0000 -25.3235 0.0000
# 2 48.2102 79.3017 59.3929 0.0000 -24.1787 0.0000
# 3 31.5679 59.3929 90.6998 0.0000 -32.8833 0.0000
# 4 0.0000 0.0000 0.0000 2.1131 0.0000 11.0080
# 5 -25.3235 -24.1787 -32.8833 0.0000 24.7957 0.0000
# 6 0.0000 0.0000 0.0000 11.0080 0.0000 -21.5305
#
#
#
# Elastic Compliance Matrix: (Units=1/GPa)
#
#
# Indices 1 2 3 4 5 6 
#
# 1 0.031007 -0.019201 0.012469 0.000000 0.029480 0.000000
# 2 -0.019201 0.036974 -0.022278 0.000000 -0.013100 0.000000
# 3 0.012469 -0.022278 0.034698 0.000000 0.037026 0.000000
# 4 0.000000 0.000000 0.000000 0.129179 0.000000 0.066046
# 5 0.029480 -0.013100 0.037026 0.000000 0.106765 0.000000
# 6 0.000000 0.000000 0.000000 0.066046 0.000000 -0.012678
#
#
# Mechanical properties :
#
#
# Convention : Reuss Voigt Hill
#
# Bulk Modulus (GPa) = 22.39184 57.98113 40.18648
# Shear Modulus (GPa) = 12.53605 8.03015 10.28310
#
# Velocity S-wave (km/s) = 2.66725 2.13474 2.41571
# Velocity P-wave (km/s) = 4.71095 6.24344 5.53053
#
# Compressibility (1/GPa) = 0.04465912
#
# Stress axis : x y z
#
# Youngs Moduli (GPa) = 32.25119 27.04606 28.82034
#
# Poissons Ratio (x) = 0.51930 -0.35937
# Poissons Ratio (y) = 0.61924 0.64207
# Poissons Ratio (z) = -0.40215 0.60254
#
# Static dielectric constant tensor:
#      x y z
#    x 1.602780 0.000000 -0.010110 
#    y 0.000000 1.583200 0.000000 
#    z -0.010110 0.000000 1.613930 
# 
# From -- ./inp_files/95067.got.cif
#   From: 2010.05.17/outbox.cif.g08.bks.cpg/sg10_48_cif.got.tgz:95067.got - 2010.06.03 11:33:40.
