data_PCOD9147117
_publ_section_title
;
Structure prediction by ZEFSAII (Michael W. Deem and Ramdas Pophale) SiO2 
 PCOD9147117
Probable space group: P 2/M
;
_chemical_formula_sum "Si O2"
_cell_formula_units_Z 28
_cell_length_a 20.249631
_cell_length_b 8.879892
_cell_length_c 17.315830
_cell_angle_alpha 90.000000
_cell_angle_beta 31.227153
_cell_angle_gamma 90.000000
_cell_volume 1614.210530
_symmetry_space_group_name_H-M "P 2/M"
_symmetry_group_IT_number 10
_symmetry_cell_setting 'monoclinic'
loop_
_space_group_symop_operation_xyz
x,y,z
-x,y,-z
-x,-y,-z
x,-y,z
loop_
_atom_site_type_symbol
_atom_site_label
_atom_site_fract_x
_atom_site_fract_y
_atom_site_fract_z
Si Si1 0.649145 0.181157 0.689966
Si Si2 0.756882 0.817520 0.066817
Si Si3 0.999999 0.680749 0.909329
Si Si4 0.350854 0.181157 0.988256
Si Si5 0.654682 0.326361 0.845318
Si Si6 0.243116 0.817520 0.580582
Si Si7 0.500001 0.816934 0.587910
O O1 0.499999 0.225245 0.826193
O O2 0.694254 0.247558 0.726219
O O3 0.733806 0.225502 0.531816
O O4 0.650021 0.000000 0.693738
O O5 0.876691 0.744802 0.988849
O O6 0.768179 0.000000 0.058914
O O7 0.733807 0.774499 0.000570
O O8 0.627917 0.772343 0.240319
O O9 1.000000 0.500000 0.906359
O O10 0.123307 0.744804 0.742233
O O11 0.000000 0.726278 0.000000
O O12 0.349978 0.000000 0.993781
O O13 0.305746 0.247559 0.114727
O O14 0.692652 0.500000 0.807347
O O15 0.500000 0.318520 0.000000
O O16 0.372081 0.772343 0.496156
O O17 0.231820 0.000000 0.595273
O O18 0.500000 0.763717 0.500000
O O19 0.500001 0.000000 0.587350
#
# Coordination Sequence:
#
# PCOD9147117 Si02
#       7
#     4   4   4   4   4   4   4
#     4   9  16  29  50  78 109 136 169 216 268 314
#     4  10  19  34  57  82 105 135 177 223 270 319
#     4  11  25  41  53  72 107 148 185 219 262 319
#     4   9  16  29  50  78 109 136 169 216 268 314
#     4   9  17  27  43  72 109 146 179 206 246 310
#     4  10  19  34  57  82 105 135 177 223 270 319
#     4   9  16  28  51  82 107 126 162 221 275 315
#
# _framework density 17.345941
#
# number of rings (size 3 to 8) (size 9 to 14) (size 15 to 20)
#    0.000    2.429    1.429    1.714    0.000    5.143 
#    0.000    0.714    0.000    3.429    0.000    6.000 
#    0.000    0.000    0.000    0.000    0.000    0.000 
#
# Total GULP energy -156139.614029 kJ/mol
# GULP energy per Si atom -5576.414787 kJ/mol
# Density = 1.730646 g / cm^3
# Si number density = 17.345941 Si / 1000 Ang^3
#
#
#
# Elastic Constant Matrix: (Units=GPa)
#
#
# Indices 1 2 3 4 5 6 
#
# 1 176.9704 49.2551 100.2035 0.0000 27.2731 0.0000
# 2 49.2551 27.9856 38.9883 0.0000 9.2587 0.0000
# 3 100.2035 38.9883 131.3510 0.0000 13.8630 0.0000
# 4 0.0000 0.0000 0.0000 12.5566 0.0000 3.4750
# 5 27.2731 9.2587 13.8630 0.0000 35.3560 0.0000
# 6 0.0000 0.0000 0.0000 3.4750 0.0000 16.4096
#
#
#
# Elastic Compliance Matrix: (Units=1/GPa)
#
#
# Indices 1 2 3 4 5 6 
#
# 1 0.013539 -0.014704 -0.005495 0.000000 -0.004438 0.000000
# 2 -0.014704 0.079940 -0.011995 0.000000 -0.004888 0.000000
# 3 -0.005495 -0.011995 0.015217 0.000000 0.001414 0.000000
# 4 0.000000 0.000000 0.000000 0.084597 0.000000 -0.017915
# 5 -0.004438 -0.004888 0.001414 0.000000 0.032433 0.000000
# 6 0.000000 0.000000 0.000000 -0.017915 0.000000 0.064734
#
#
# Mechanical properties :
#
#
# Convention : Reuss Voigt Hill
#
# Bulk Modulus (GPa) = 22.56999 79.24453 50.90726
# Shear Modulus (GPa) = 13.52751 22.72179 18.12465
#
# Velocity S-wave (km/s) = 2.79564 3.62321 3.23599
# Velocity P-wave (km/s) = 4.84363 7.95534 6.58590
#
# Compressibility (1/GPa) = 0.04430663
#
# Stress axis : x y z
#
# Youngs Moduli (GPa) = 73.86267 12.50933 65.71795
#
# Poissons Ratio (x) = 0.18394 0.36113
# Poissons Ratio (y) = 1.08609 0.78829
# Poissons Ratio (z) = 0.40589 0.15005
#
# Static dielectric constant tensor:
#      x y z
#    x 1.587650 0.000000 0.013510 
#    y 0.000000 1.582460 0.000000 
#    z 0.013510 0.000000 1.572670 
# 
# From -- ./inp_files/79260.got.cif
#   From: 2010.05.17/outbox.cif.g08.bks.cpg/sg10_40_cif.got.tgz:79260.got - 2010.06.03 11:33:40.
