data_PCOD9147517
_publ_section_title
;
Structure prediction by ZEFSAII (Michael W. Deem and Ramdas Pophale) SiO2 
 PCOD9147517
Probable space group: P 2/M
;
_chemical_formula_sum "Si O2"
_cell_formula_units_Z 32
_cell_length_a 25.778684
_cell_length_b 8.873952
_cell_length_c 20.717514
_cell_angle_alpha 90.000000
_cell_angle_beta 22.721164
_cell_angle_gamma 90.000000
_cell_volume 1830.544690
_symmetry_space_group_name_H-M "P 2/M"
_symmetry_group_IT_number 10
_symmetry_cell_setting 'monoclinic'
loop_
_space_group_symop_operation_xyz
x,y,z
-x,y,-z
-x,-y,-z
x,-y,z
loop_
_atom_site_type_symbol
_atom_site_label
_atom_site_fract_x
_atom_site_fract_y
_atom_site_fract_z
Si Si1 0.661381 0.673625 0.326973
Si Si2 0.127828 0.680989 0.159681
Si Si3 0.417700 0.318041 0.445587
Si Si4 0.836607 0.180682 0.511721
Si Si5 0.291274 0.821195 0.858413
Si Si6 0.359564 0.318803 0.366916
Si Si7 0.348810 0.818513 0.154622
Si Si8 0.658508 0.681089 0.975599
O O1 0.500000 0.675814 0.500000
O O2 0.705533 0.500000 0.269691
O O3 0.672232 0.723045 0.388977
O O4 0.724830 0.771847 0.197661
O O5 0.125132 0.500000 0.159349
O O6 0.982143 0.744723 0.343236
O O7 0.181822 0.746671 0.030444
O O8 0.234468 0.725905 0.092791
O O9 0.438810 0.500000 0.424362
O O10 0.563084 0.241582 0.286237
O O11 0.355808 0.282427 0.447241
O O12 0.750651 0.236315 0.549265
O O13 0.753244 0.225083 0.671507
O O14 0.848224 0.000000 0.497502
O O15 0.288733 0.000000 0.867230
O O16 0.344701 0.500000 0.377110
O O17 0.508149 0.276936 0.170676
O O18 0.349487 0.000000 0.149474
O O19 0.500000 0.769581 0.000000
O O20 0.312453 0.751570 0.127116
O O21 0.662122 0.500000 0.966446
#
# Coordination Sequence:
#
# PCOD9147517 Si02
#       8
#     4   4   4   4   4   4   4   4
#     4   8  15  28  48  74 108 149 185 225 273 325
#     4  11  23  41  59  80 112 149 189 232 278 332
#     4   9  17  32  53  79 112 147 189 231 273 326
#     4  11  24  40  57  83 114 147 186 226 278 341
#     4  11  20  30  50  80 114 148 183 228 280 331
#     4  10  19  35  58  84 111 144 187 234 276 321
#     4  10  21  38  58  81 114 149 180 221 278 337
#     4  10  21  36  60  86 108 140 189 236 272 321
#
# _framework density 17.481135999999999
#
# number of rings (size 3 to 8) (size 9 to 14) (size 15 to 20)
#    0.000    2.000    2.500    2.625    0.000    5.500 
#    0.000    2.500    0.000    0.750    0.000    5.250 
#    0.000    0.000    0.000    0.000    0.000    0.000 
#
# Total GULP energy -178600.082028 kJ/mol
# GULP energy per Si atom -5581.252563 kJ/mol
# Density = 1.744135 g / cm^3
# Si number density = 17.481136 Si / 1000 Ang^3
#
#
#
# Elastic Constant Matrix: (Units=GPa)
#
#
# Indices 1 2 3 4 5 6 
#
# 1 101.0253 32.5300 49.0713 0.0000 24.2683 0.0000
# 2 32.5300 42.1591 37.5115 0.0000 6.8215 0.0000
# 3 49.0713 37.5115 98.2678 0.0000 9.9388 0.0000
# 4 0.0000 0.0000 0.0000 26.3506 0.0000 -4.7953
# 5 24.2683 6.8215 9.9388 0.0000 32.1989 0.0000
# 6 0.0000 0.0000 0.0000 -4.7953 0.0000 -36.1325
#
#
#
# Elastic Compliance Matrix: (Units=1/GPa)
#
#
# Indices 1 2 3 4 5 6 
#
# 1 0.016832 -0.007286 -0.004642 0.000000 -0.009710 0.000000
# 2 -0.007286 0.039457 -0.011492 0.000000 0.000680 0.000000
# 3 -0.004642 -0.011492 0.016806 0.000000 0.000746 0.000000
# 4 0.000000 0.000000 0.000000 0.037055 0.000000 -0.004918
# 5 -0.009710 0.000680 0.000746 0.000000 0.038001 0.000000
# 6 0.000000 0.000000 0.000000 -0.004918 0.000000 -0.027023
#
#
# Mechanical properties :
#
#
# Convention : Reuss Voigt Hill
#
# Bulk Modulus (GPa) = 38.08915 53.29752 45.69333
# Shear Modulus (GPa) = 28.29358 12.63937 20.46647
#
# Velocity S-wave (km/s) = 4.02745 2.69184 3.42537
# Velocity P-wave (km/s) = 6.59266 6.34162 6.46836
#
# Compressibility (1/GPa) = 0.02625420
#
# Stress axis : x y z
#
# Youngs Moduli (GPa) = 59.41134 25.34405 59.50403
#
# Poissons Ratio (x) = 0.18466 0.27620
# Poissons Ratio (y) = 0.43289 0.68382
# Poissons Ratio (z) = 0.27577 0.29125
#
# Static dielectric constant tensor:
#      x y z
#    x 1.597560 0.000000 0.017890 
#    y 0.000000 1.583980 0.000000 
#    z 0.017890 0.000000 1.577260 
# 
# From -- ./inp_files/86911.got.cif
#   From: 2010.05.17/outbox.cif.g08.bks.cpg/sg10_44_cif.got.tgz:86911.got - 2010.06.03 11:33:40.
