data_PCOD9147938
_publ_section_title
;
Structure prediction by ZEFSAII (Michael W. Deem and Ramdas Pophale) SiO2 
 PCOD9147938
Probable space group: P 2/M
;
_chemical_formula_sum "Si O2"
_cell_formula_units_Z 24
_cell_length_a 8.875367
_cell_length_b 15.809912
_cell_length_c 14.840641
_cell_angle_alpha 90.000000
_cell_angle_beta 140.347290
_cell_angle_gamma 90.000000
_cell_volume 1328.860338
_symmetry_space_group_name_H-M "P 2/M"
_symmetry_group_IT_number 10
_symmetry_cell_setting 'monoclinic'
loop_
_space_group_symop_operation_xyz
x,y,z
-x,y,-z
-x,-y,-z
x,-y,z
loop_
_atom_site_type_symbol
_atom_site_label
_atom_site_fract_x
_atom_site_fract_y
_atom_site_fract_z
Si Si1 0.615928 0.500000 0.767422
Si Si2 0.837469 0.690540 0.120804
Si Si3 0.913397 0.099602 0.356669
Si Si4 0.744805 0.650251 0.418441
Si Si5 0.859045 0.500000 0.071352
Si Si6 0.567958 0.239573 0.172644
Si Si7 0.232414 0.768923 0.399098
O O1 0.453660 0.579219 0.668276
O O2 0.868410 0.500000 0.835017
O O3 0.684671 0.500000 0.904887
O O4 0.822506 0.589399 0.104328
O O5 0.711024 0.718390 0.155367
O O6 0.099367 0.727317 0.252669
O O7 0.698916 0.737097 0.976044
O O8 0.658836 0.143596 0.222637
O O9 0.000000 0.113027 0.500000
O O10 0.091219 0.150831 0.373580
O O11 0.910248 0.000000 0.337864
O O12 0.652449 0.716731 0.302417
O O13 0.775567 0.697709 0.526768
O O14 0.000000 0.618626 0.500000
O O15 0.500000 0.790352 0.500000
#
# Coordination Sequence:
#
# PCOD9147938 Si02
#       7
#     2   4   4   4   2   4   4
#     4  11  25  34  55  82 112 159 202 238 277 330
#     4  10  21  36  58  81 117 151 190 238 286 326
#     4  10  19  37  65  89 112 147 190 238 285 342
#     4  12  20  40  58  80 115 151 198 242 276 332
#     4  11  22  39  50  80 120 156 197 232 286 344
#     4  10  19  37  59  86 109 145 196 234 285 339
#     4  11  22  38  58  87 120 151 188 233 291 348
#
# _framework density 18.060589
#
# number of rings (size 3 to 8) (size 9 to 14) (size 15 to 20)
#    0.000    1.333    6.667    1.250    0.000    3.000 
#    0.000    8.333    0.000    0.000    0.000    2.333 
#    0.000    0.000    0.000    0.000    0.000    0.000 
#
# Total GULP energy -133901.850369 kJ/mol
# GULP energy per Si atom -5579.243765 kJ/mol
# Density = 1.801948 g / cm^3
# Si number density = 18.060589 Si / 1000 Ang^3
#
#
#
# Elastic Constant Matrix: (Units=GPa)
#
#
# Indices 1 2 3 4 5 6 
#
# 1 23.8649 21.2248 17.9696 0.0000 7.1476 0.0000
# 2 21.2248 151.6106 59.7239 0.0000 6.7705 0.0000
# 3 17.9696 59.7239 132.4135 0.0000 15.0268 0.0000
# 4 0.0000 0.0000 0.0000 8.8820 0.0000 -5.1366
# 5 7.1476 6.7705 15.0268 0.0000 19.8074 0.0000
# 6 0.0000 0.0000 0.0000 -5.1366 0.0000 10.6018
#
#
#
# Elastic Compliance Matrix: (Units=1/GPa)
#
#
# Indices 1 2 3 4 5 6 
#
# 1 0.053753 -0.005658 -0.003021 0.000000 -0.015171 0.000000
# 2 -0.005658 0.008616 -0.003300 0.000000 0.001600 0.000000
# 3 -0.003021 -0.003300 0.010065 0.000000 -0.005418 0.000000
# 4 0.000000 0.000000 0.000000 0.156413 0.000000 0.075783
# 5 -0.015171 0.001600 -0.005418 0.000000 0.059524 0.000000
# 6 0.000000 0.000000 0.000000 0.075783 0.000000 0.131041
#
#
# Mechanical properties :
#
#
# Convention : Reuss Voigt Hill
#
# Bulk Modulus (GPa) = 20.62834 56.19172 38.41003
# Shear Modulus (GPa) = 10.88067 21.78962 16.33515
#
# Velocity S-wave (km/s) = 2.45716 3.47720 3.01069
# Velocity P-wave (km/s) = 4.41551 6.87762 5.77920
#
# Compressibility (1/GPa) = 0.04847699
#
# Stress axis : x y z
#
# Youngs Moduli (GPa) = 18.60363 116.05702 99.34964
#
# Poissons Ratio (x) = 0.65659 0.30016
# Poissons Ratio (y) = 0.10525 0.32787
# Poissons Ratio (z) = 0.05621 0.38301
#
# Static dielectric constant tensor:
#      x y z
#    x 1.632250 0.000000 0.032770 
#    y 0.000000 1.602410 0.000000 
#    z 0.032770 0.000000 1.662810 
# 
# From -- ./inp_files/29339.got.cif
#   From: 2010.05.17/outbox.cif.g08.bks.cpg/sg10_15_cif.got.tgz:29339.got - 2010.06.03 11:33:40.
