data_PCOD9147080
_publ_section_title
;
Structure prediction by ZEFSAII (Michael W. Deem and Ramdas Pophale) SiO2 
 PCOD9147080
Probable space group: P 2/M
;
_chemical_formula_sum "Si O2"
_cell_formula_units_Z 32
_cell_length_a 23.685337
_cell_length_b 7.430851
_cell_length_c 15.499253
_cell_angle_alpha 90.000000
_cell_angle_beta 31.125877
_cell_angle_gamma 90.000000
_cell_volume 1410.107506
_symmetry_space_group_name_H-M "P 2/M"
_symmetry_group_IT_number 10
_symmetry_cell_setting 'monoclinic'
loop_
_space_group_symop_operation_xyz
x,y,z
-x,y,-z
-x,-y,-z
x,-y,z
loop_
_atom_site_type_symbol
_atom_site_label
_atom_site_fract_x
_atom_site_fract_y
_atom_site_fract_z
Si Si1 0.510063 0.715496 0.888037
Si Si2 0.720938 0.718746 0.873772
Si Si3 0.029569 0.718619 0.197087
Si Si4 0.499378 0.792427 0.405392
Si Si5 0.092458 0.793231 0.816651
Si Si6 0.662738 0.783938 0.531586
Si Si7 0.256162 0.717514 0.963972
Si Si8 0.929527 0.280611 0.509432
O O1 0.502444 0.500000 0.903579
O O2 0.614415 0.748611 0.690522
O O3 0.500000 0.782203 0.000000
O O4 0.401932 0.782306 0.979773
O O5 0.718507 0.500000 0.876364
O O6 0.805051 0.774428 0.689956
O O7 0.766904 0.769904 0.906948
O O8 0.026381 0.500000 0.197659
O O9 0.961496 0.790070 0.206720
O O10 0.977184 0.776964 0.356159
O O11 0.156698 0.773915 0.033257
O O12 0.500000 0.708242 0.500000
O O13 0.422135 0.716381 0.430803
O O14 0.624774 0.787576 0.213048
O O15 0.463300 0.000000 0.462902
O O16 0.214786 0.715751 0.648052
O O17 0.107133 0.000000 0.827333
O O18 0.000000 0.710087 0.000000
O O19 0.666197 0.000000 0.521830
O O20 0.261088 0.500000 0.954497
O O21 0.933413 0.500000 0.503753
O O22 0.000000 0.223584 0.500000
#
# Coordination Sequence:
#
# PCOD9147080 Si02
#       8
#     4   4   4   4   4   4   4   4
#     4  10  21  35  56  86 115 151 194 232 276 339
#     4   9  16  29  49  76 114 149 179 218 270 331
#     4  10  21  35  58  89 116 146 191 238 279 332
#     4  10  22  38  60  85 108 142 189 235 280 339
#     4  10  24  44  63  79 107 155 200 240 290 345
#     4  10  22  41  60  84 115 148 192 241 290 341
#     4  10  19  34  56  86 118 145 180 230 288 339
#     4   9  15  27  49  79 113 147 178 215 267 329
#
# _framework density 22.693304000000001
#
# number of rings (size 3 to 8) (size 9 to 14) (size 15 to 20)
#    0.000    2.250    2.500    0.000    3.500    1.750 
#    0.000    0.000    0.000    1.125    0.000    0.000 
#    0.000    0.000    0.000    0.000    0.000    0.000 
#
# Total GULP energy -178657.169891 kJ/mol
# GULP energy per Si atom -5583.036559 kJ/mol
# Density = 2.264165 g / cm^3
# Si number density = 22.693304 Si / 1000 Ang^3
#
#
#
# Elastic Constant Matrix: (Units=GPa)
#
#
# Indices 1 2 3 4 5 6 
#
# 1 100.7303 -1.8724 74.6472 0.0000 2.9558 0.0000
# 2 -1.8724 71.2688 -3.5421 0.0000 0.0541 0.0000
# 3 74.6472 -3.5421 179.6870 0.0000 -6.1525 0.0000
# 4 0.0000 0.0000 0.0000 1.8695 0.0000 -15.9986
# 5 2.9558 0.0541 -6.1525 0.0000 41.4945 0.0000
# 6 0.0000 0.0000 0.0000 -15.9986 0.0000 -9.7959
#
#
#
# Elastic Compliance Matrix: (Units=1/GPa)
#
#
# Indices 1 2 3 4 5 6 
#
# 1 0.014497 0.000080 -0.006087 0.000000 -0.001935 0.000000
# 2 0.000080 0.014046 0.000244 0.000000 0.000012 0.000000
# 3 -0.006087 0.000244 0.008155 0.000000 0.001642 0.000000
# 4 0.000000 0.000000 0.000000 0.035717 0.000000 -0.058332
# 5 -0.001935 0.000012 0.001642 0.000000 0.024481 0.000000
# 6 0.000000 0.000000 0.000000 -0.058332 0.000000 -0.006816
#
#
# Mechanical properties :
#
#
# Convention : Reuss Voigt Hill
#
# Bulk Modulus (GPa) = 39.72814 54.46130 47.09472
# Shear Modulus (GPa) = 45.45661 25.54384 35.50022
#
# Velocity S-wave (km/s) = 4.48044 3.35865 3.95947
# Velocity P-wave (km/s) = 6.65660 6.25233 6.45763
#
# Compressibility (1/GPa) = 0.02517107
#
# Stress axis : x y z
#
# Youngs Moduli (GPa) = 68.98172 71.19668 122.62423
#
# Poissons Ratio (x) = -0.00568 0.74641
# Poissons Ratio (y) = -0.00550 -0.02994
# Poissons Ratio (z) = 0.41989 -0.01738
#
# Static dielectric constant tensor:
#      x y z
#    x 1.816240 0.000000 -0.000450 
#    y 0.000000 1.895390 0.000000 
#    z -0.000450 0.000000 1.851090 
# 
# From -- ./inp_files/71464.got.cif
#   From: 2010.05.17/outbox.cif.g08.bks.cpg/sg10_36_cif.got.tgz:71464.got - 2010.06.03 11:33:40.
