data_PCOD9147013
_publ_section_title
;
Structure prediction by ZEFSAII (Michael W. Deem and Ramdas Pophale) SiO2 
 PCOD9147013
Probable space group: P 2/M
;
_chemical_formula_sum "Si O2"
_cell_formula_units_Z 28
_cell_length_a 13.068416
_cell_length_b 14.379909
_cell_length_c 8.017235
_cell_angle_alpha 90.000000
_cell_angle_beta 73.445288
_cell_angle_gamma 90.000000
_cell_volume 1444.167637
_symmetry_space_group_name_H-M "P 2/M"
_symmetry_group_IT_number 10
_symmetry_cell_setting 'monoclinic'
loop_
_space_group_symop_operation_xyz
x,y,z
-x,y,-z
-x,-y,-z
x,-y,z
loop_
_atom_site_type_symbol
_atom_site_label
_atom_site_fract_x
_atom_site_fract_y
_atom_site_fract_z
Si Si1 0.498790 0.106210 0.796759
Si Si2 0.783562 0.604270 0.249075
Si Si3 0.688165 0.230304 0.716601
Si Si4 0.411905 0.604187 0.405885
Si Si5 0.095140 0.894291 0.822824
Si Si6 0.711217 0.783592 0.098072
Si Si7 0.907680 0.732691 0.418131
O O1 0.612978 0.146511 0.688167
O O2 0.402592 0.174794 0.792336
O O3 0.481062 0.000000 0.751260
O O4 0.500000 0.106731 0.000000
O O5 0.804364 0.500000 0.176235
O O6 0.695836 0.597058 0.435978
O O7 0.734503 0.678000 0.142659
O O8 0.883963 0.654699 0.289323
O O9 0.613907 0.321690 0.724732
O O10 0.796754 0.245461 0.564796
O O11 0.714722 0.212958 0.896719
O O12 0.500000 0.634950 0.500000
O O13 0.441472 0.500000 0.333169
O O14 0.198105 0.847086 0.860084
O O15 0.061076 0.827865 0.687990
O O16 0.117796 0.000000 0.761163
O O17 0.000000 0.894999 0.000000
O O18 0.000000 0.702747 0.500000
#
# Coordination Sequence:
#
# PCOD9147013 Si02
#       7
#     4   4   4   4   4   4   4
#     4   9  18  32  50  75 107 141 175 213 262 318
#     4   9  19  34  53  77 106 142 180 220 269 324
#     4  10  20  33  54  81 107 140 181 225 272 320
#     4   9  17  31  50  73 105 141 177 220 269 319
#     4  10  21  37  57  80 107 141 180 222 271 323
#     4  10  19  34  56  79 110 144 180 223 269 320
#     4  10  21  37  56  79 109 141 180 227 273 322
#
# _framework density 19.388331999999998
#
# number of rings (size 3 to 8) (size 9 to 14) (size 15 to 20)
#    0.000    2.429    0.000    2.143    0.000    2.286 
#    0.000    0.000    0.000   28.714    0.000    0.000 
#    0.000    0.000    0.000    0.000    0.000    0.000 
#
# Total GULP energy -156158.548991 kJ/mol
# GULP energy per Si atom -5577.091035 kJ/mol
# Density = 1.934420 g / cm^3
# Si number density = 19.388332 Si / 1000 Ang^3
#
#
#
# Elastic Constant Matrix: (Units=GPa)
#
#
# Indices 1 2 3 4 5 6 
#
# 1 72.5303 27.8239 -1.6569 0.0000 0.4314 0.0000
# 2 27.8239 128.1211 6.0009 0.0000 2.3824 0.0000
# 3 -1.6569 6.0009 12.6608 0.0000 -2.1792 0.0000
# 4 0.0000 0.0000 0.0000 22.5027 0.0000 -3.6260
# 5 0.4314 2.3824 -2.1792 0.0000 24.0997 0.0000
# 6 0.0000 0.0000 0.0000 -3.6260 0.0000 9.6820
#
#
#
# Elastic Compliance Matrix: (Units=1/GPa)
#
#
# Indices 1 2 3 4 5 6 
#
# 1 0.015206 -0.003484 0.003711 0.000000 0.000408 0.000000
# 2 -0.003484 0.008812 -0.004847 0.000000 -0.001247 0.000000
# 3 0.003711 -0.004847 0.083132 0.000000 0.007930 0.000000
# 4 0.000000 0.000000 0.000000 0.047293 0.000000 0.017712
# 5 0.000408 -0.001247 0.007930 0.000000 0.042327 0.000000
# 6 0.000000 0.000000 0.000000 0.017712 0.000000 0.109917
#
#
# Mechanical properties :
#
#
# Convention : Reuss Voigt Hill
#
# Bulk Modulus (GPa) = 10.21338 30.84978 20.53158
# Shear Modulus (GPa) = 14.34459 23.33317 18.83888
#
# Velocity S-wave (km/s) = 2.72298 3.47286 3.12053
# Velocity P-wave (km/s) = 3.89428 5.65925 4.85760
#
# Compressibility (1/GPa) = 0.09791082
#
# Stress axis : x y z
#
# Youngs Moduli (GPa) = 65.76307 113.48316 12.02909
#
# Poissons Ratio (x) = 0.39534 -0.04464
# Poissons Ratio (y) = 0.22910 0.05831
# Poissons Ratio (z) = -0.24407 0.55007
#
# Static dielectric constant tensor:
#      x y z
#    x 1.678330 0.000000 -0.002430 
#    y 0.000000 1.708950 0.000000 
#    z -0.002430 0.000000 1.672110 
# 
# From -- ./inp_files/24874.got.cif
#   From: 2010.05.17/outbox.cif.g08.bks.cpg/sg10_13_cif.got.tgz:24874.got - 2010.06.03 11:33:40.
