data_PCOD9147275
_publ_section_title
;
Structure prediction by ZEFSAII (Michael W. Deem and Ramdas Pophale) SiO2 
 PCOD9147275
Probable space group: P 2/M
;
_chemical_formula_sum "Si O2"
_cell_formula_units_Z 28
_cell_length_a 7.687546
_cell_length_b 14.214082
_cell_length_c 12.911638
_cell_angle_alpha 90.000000
_cell_angle_beta 115.366650
_cell_angle_gamma 90.000000
_cell_volume 1274.843301
_symmetry_space_group_name_H-M "P 2/M"
_symmetry_group_IT_number 10
_symmetry_cell_setting 'monoclinic'
loop_
_space_group_symop_operation_xyz
x,y,z
-x,y,-z
-x,-y,-z
x,-y,z
loop_
_atom_site_type_symbol
_atom_site_label
_atom_site_fract_x
_atom_site_fract_y
_atom_site_fract_z
Si Si1 0.231352 0.746675 0.057575
Si Si2 0.247931 0.283501 0.677244
Si Si3 0.207049 0.293527 0.434584
Si Si4 0.772540 0.395422 0.758129
Si Si5 0.482474 0.892312 0.799171
Si Si6 0.322263 0.900984 0.375851
Si Si7 0.240088 0.393967 0.873502
O O1 0.276693 0.686514 0.173158
O O2 0.363248 0.839214 0.088851
O O3 0.282257 0.679671 0.974716
O O4 0.000000 0.766261 0.000000
O O5 0.309086 0.291672 0.572568
O O6 0.306198 0.180111 0.734448
O O7 0.314221 0.356541 0.781968
O O8 0.021288 0.304762 0.612144
O O9 0.285522 0.368991 0.373329
O O10 0.216823 0.192825 0.380617
O O11 0.707259 0.500000 0.772284
O O12 0.006098 0.396637 0.814405
O O13 0.592885 0.896561 0.717108
O O14 0.433385 0.000000 0.815782
O O15 0.500000 0.904291 0.500000
O O16 0.211671 0.000000 0.359193
O O17 0.303149 0.500000 0.909961
#
# Coordination Sequence:
#
# PCOD9147275 Si02
#       7
#     4   4   4   4   4   4   4
#     4  10  20  37  62  85 110 145 196 244 283 331
#     4  10  22  36  56  85 122 155 185 225 282 341
#     4  10  19  35  58  87 118 152 187 229 275 342
#     4   9  17  32  58  89 114 143 188 238 285 331
#     4  11  23  39  59  84 116 150 188 240 294 335
#     4  10  19  34  59  85 110 148 193 237 283 336
#     4   9  19  37  59  82 112 153 193 229 279 341
#
# _framework density 21.963484000000001
#
# number of rings (size 3 to 8) (size 9 to 14) (size 15 to 20)
#    0.000    2.143    2.857    0.429    0.000    3.714 
#    0.000    7.857    0.000    1.286    0.000    0.000 
#    0.000    0.000    0.000    0.000    0.000    0.000 
#
# Total GULP energy -156250.773850 kJ/mol
# GULP energy per Si atom -5580.384780 kJ/mol
# Density = 2.191349 g / cm^3
# Si number density = 21.963484 Si / 1000 Ang^3
#
#
#
# Elastic Constant Matrix: (Units=GPa)
#
#
# Indices 1 2 3 4 5 6 
#
# 1 52.8693 4.5372 12.8148 0.0000 12.0804 0.0000
# 2 4.5372 88.6837 42.6056 0.0000 0.4625 0.0000
# 3 12.8148 42.6056 92.5043 0.0000 2.7365 0.0000
# 4 0.0000 0.0000 0.0000 43.5589 0.0000 7.3358
# 5 12.0804 0.4625 2.7365 0.0000 19.7996 0.0000
# 6 0.0000 0.0000 0.0000 7.3358 0.0000 38.4005
#
#
#
# Elastic Compliance Matrix: (Units=1/GPa)
#
#
# Indices 1 2 3 4 5 6 
#
# 1 0.022656 0.000293 -0.002876 0.000000 -0.013432 0.000000
# 2 0.000293 0.014491 -0.006727 0.000000 0.000413 0.000000
# 3 -0.002876 -0.006727 0.014309 0.000000 -0.000066 0.000000
# 4 0.000000 0.000000 0.000000 0.023721 0.000000 -0.004531
# 5 -0.013432 0.000413 -0.000066 0.000000 0.058701 0.000000
# 6 0.000000 0.000000 0.000000 -0.004531 0.000000 0.026907
#
#
# Mechanical properties :
#
#
# Convention : Reuss Voigt Hill
#
# Bulk Modulus (GPa) = 30.45534 39.33027 34.89281
# Shear Modulus (GPa) = 26.26752 31.95847 29.11300
#
# Velocity S-wave (km/s) = 3.46202 3.81868 3.64472
# Velocity P-wave (km/s) = 5.46601 6.11466 5.79941
#
# Compressibility (1/GPa) = 0.03283496
#
# Stress axis : x y z
#
# Youngs Moduli (GPa) = 44.13887 69.01020 69.88659
#
# Poissons Ratio (x) = -0.02019 0.20099
# Poissons Ratio (y) = -0.01292 0.47011
# Poissons Ratio (z) = 0.12694 0.46422
#
# Static dielectric constant tensor:
#      x y z
#    x 2.058440 0.000000 -0.013750 
#    y 0.000000 1.814940 0.000000 
#    z -0.013750 0.000000 1.828840 
# 
# From -- ./inp_files/43029.got.cif
#   From: 2010.05.17/outbox.cif.g08.bks.cpg/sg10_22_cif.got.tgz:43029.got - 2010.06.03 11:33:40.
