data_PCOD9147580
_publ_section_title
;
Structure prediction by ZEFSAII (Michael W. Deem and Ramdas Pophale) SiO2 
 PCOD9147580
Probable space group: P 2/M
;
_chemical_formula_sum "Si O2"
_cell_formula_units_Z 32
_cell_length_a 14.535306
_cell_length_b 8.343957
_cell_length_c 13.360308
_cell_angle_alpha 90.000000
_cell_angle_beta 85.884796
_cell_angle_gamma 90.000000
_cell_volume 1616.186787
_symmetry_space_group_name_H-M "P 2/M"
_symmetry_group_IT_number 10
_symmetry_cell_setting 'monoclinic'
loop_
_space_group_symop_operation_xyz
x,y,z
-x,y,-z
-x,-y,-z
x,-y,z
loop_
_atom_site_type_symbol
_atom_site_label
_atom_site_fract_x
_atom_site_fract_y
_atom_site_fract_z
Si Si1 0.101770 0.306221 0.702036
Si Si2 0.793568 0.810664 0.503700
Si Si3 0.438490 0.809475 0.098891
Si Si4 0.592047 0.693259 0.226429
Si Si5 0.216220 0.695637 0.885169
Si Si6 0.398709 0.306654 0.543183
Si Si7 0.229824 0.307267 0.106333
Si Si8 0.109067 0.693794 0.302868
O O1 0.101552 0.500000 0.704749
O O2 0.161619 0.256605 0.601661
O O3 0.148161 0.250539 0.802243
O O4 0.996615 0.250559 0.697861
O O5 0.686034 0.763533 0.511884
O O6 0.845654 0.743171 0.596254
O O7 0.802896 0.000000 0.502395
O O8 0.498651 0.766898 0.191221
O O9 0.337330 0.734913 0.108711
O O10 0.428582 0.000000 0.090258
O O11 0.500000 0.749805 0.000000
O O12 0.584412 0.500000 0.222317
O O13 0.679731 0.743257 0.153095
O O14 0.611438 0.737301 0.339460
O O15 0.214425 0.500000 0.884964
O O16 0.196310 0.750002 0.999521
O O17 0.500000 0.256058 0.500000
O O18 0.393699 0.500000 0.536046
O O19 0.222124 0.500000 0.106631
O O20 0.169915 0.247289 0.204323
O O21 0.107820 0.500000 0.299764
#
# Coordination Sequence:
#
# PCOD9147580 Si02
#       8
#     4   4   4   4   4   4   4   4
#     4  10  20  40  66  90 115 149 197 250 301 352
#     4  12  25  40  61  88 122 159 197 242 291 353
#     4  11  23  36  53  81 118 158 195 233 279 339
#     4  10  19  35  59  85 112 150 195 242 290 342
#     4   9  17  33  61  90 116 146 189 243 295 346
#     4  10  22  40  62  88 118 153 194 241 294 350
#     4  10  21  38  59  87 119 154 196 241 295 355
#     4  10  23  40  62  88 117 155 198 247 300 352
#
# _framework density 19.799690999999999
#
# number of rings (size 3 to 8) (size 9 to 14) (size 15 to 20)
#    0.000    1.750    2.500    1.875    1.750    4.250 
#    0.000    3.125    0.000    0.000    0.000    2.625 
#    0.000    0.000    0.000    0.000    0.000    0.000 
#
# Total GULP energy -178781.798485 kJ/mol
# GULP energy per Si atom -5586.931203 kJ/mol
# Density = 1.975463 g / cm^3
# Si number density = 19.799691 Si / 1000 Ang^3
#
#
#
# Elastic Constant Matrix: (Units=GPa)
#
#
# Indices 1 2 3 4 5 6 
#
# 1 149.7302 10.9310 71.6673 0.0000 14.6200 0.0000
# 2 10.9310 8.1393 11.3666 0.0000 0.4284 0.0000
# 3 71.6673 11.3666 116.0966 0.0000 26.0039 0.0000
# 4 0.0000 0.0000 0.0000 -2.1092 0.0000 -9.4023
# 5 14.6200 0.4284 26.0039 0.0000 30.7788 0.0000
# 6 0.0000 0.0000 0.0000 -9.4023 0.0000 -18.1284
#
#
#
# Elastic Compliance Matrix: (Units=1/GPa)
#
#
# Indices 1 2 3 4 5 6 
#
# 1 0.009680 -0.005362 -0.005473 0.000000 0.000101 0.000000
# 2 -0.005362 0.149026 -0.014044 0.000000 0.012338 0.000000
# 3 -0.005473 -0.014044 0.015715 0.000000 -0.010482 0.000000
# 4 0.000000 0.000000 0.000000 0.361369 0.000000 -0.187424
# 5 0.000101 0.012338 -0.010482 0.000000 0.041126 0.000000
# 6 0.000000 0.000000 0.000000 -0.187424 0.000000 0.042045
#
#
# Mechanical properties :
#
#
# Convention : Reuss Voigt Hill
#
# Bulk Modulus (GPa) = 8.02169 51.32176 29.67172
# Shear Modulus (GPa) = 7.03954 14.10832 10.57393
#
# Velocity S-wave (km/s) = 1.88762 2.67226 2.31345
# Velocity P-wave (km/s) = 2.96833 5.95803 4.70686
#
# Compressibility (1/GPa) = 0.12466206
#
# Stress axis : x y z
#
# Youngs Moduli (GPa) = 103.30623 6.71024 63.63422
#
# Poissons Ratio (x) = 0.03598 0.34827
# Poissons Ratio (y) = 0.55396 0.89368
# Poissons Ratio (z) = 0.56540 0.09424
#
# Static dielectric constant tensor:
#      x y z
#    x 1.670210 0.000000 -0.004840 
#    y 0.000000 1.678230 0.000000 
#    z -0.004840 0.000000 1.696070 
# 
# From -- ./inp_files/49979.got.cif
#   From: 2010.05.17/outbox.cif.g08.bks.cpg/sg10_25_cif.got.tgz:49979.got - 2010.06.03 11:33:40.
