data_PCOD9147466
_publ_section_title
;
Structure prediction by ZEFSAII (Michael W. Deem and Ramdas Pophale) SiO2 
 PCOD9147466
Probable space group: P 2/M
;
_chemical_formula_sum "Si O2"
_cell_formula_units_Z 32
_cell_length_a 21.291153
_cell_length_b 9.560212
_cell_length_c 16.766152
_cell_angle_alpha 90.000000
_cell_angle_beta 27.346549
_cell_angle_gamma 90.000000
_cell_volume 1567.703775
_symmetry_space_group_name_H-M "P 2/M"
_symmetry_group_IT_number 10
_symmetry_cell_setting 'monoclinic'
loop_
_space_group_symop_operation_xyz
x,y,z
-x,y,-z
-x,-y,-z
x,-y,z
loop_
_atom_site_type_symbol
_atom_site_label
_atom_site_fract_x
_atom_site_fract_y
_atom_site_fract_z
Si Si1 0.628605 0.340457 0.529411
Si Si2 0.912279 0.337401 0.495757
Si Si3 0.340389 0.160084 0.660520
Si Si4 0.178856 0.166741 0.176243
Si Si5 0.155688 0.833638 0.014756
Si Si6 0.516507 0.162752 0.180493
Si Si7 0.642726 0.165044 0.799279
Si Si8 0.090338 0.652404 0.693377
O O1 0.587018 0.500000 0.559686
O O2 0.671887 0.259436 0.401315
O O3 0.514899 0.257717 0.708155
O O4 0.761288 0.342344 0.436177
O O5 0.910718 0.500000 0.522958
O O6 0.776149 0.251988 0.672762
O O7 0.903165 0.336533 0.409315
O O8 0.055925 0.258475 0.351355
O O9 0.500000 0.154364 0.500000
O O10 0.295131 0.000000 0.693436
O O11 0.261882 0.212853 0.827704
O O12 0.185072 0.201089 0.074131
O O13 0.149113 0.000000 0.219278
O O14 0.335268 0.192927 0.025993
O O15 0.007884 0.771172 0.163190
O O16 0.153867 0.000000 0.014083
O O17 0.396559 0.176230 0.250290
O O18 0.522630 0.000000 0.198939
O O19 0.664648 0.000000 0.792652
O O20 0.500000 0.210106 0.000000
O O21 0.028749 0.500000 0.781712
#
# Coordination Sequence:
#
# PCOD9147466 Si02
#       8
#     4   4   4   4   4   4   4   4
#     4  11  22  35  53  78 108 141 181 228 276 330
#     4  10  19  35  57  82 113 149 185 222 272 330
#     4  10  21  37  53  72 103 141 182 229 279 329
#     4   9  18  34  57  83 108 142 187 231 275 322
#     4   9  18  32  52  75 101 135 180 227 269 319
#     4  10  20  36  59  84 111 144 185 232 278 327
#     4  10  21  37  59  87 115 145 183 227 276 330
#     4   9  19  34  51  74 105 139 175 220 271 323
#
# _framework density 20.412019000000001
#
# number of rings (size 3 to 8) (size 9 to 14) (size 15 to 20)
#    0.000    2.250    1.250    1.500    0.000    5.500 
#    0.000    5.625    0.000    3.750    0.000    0.000 
#    0.000    0.000    0.000    0.000    0.000    0.000 
#
# Total GULP energy -178603.356057 kJ/mol
# GULP energy per Si atom -5581.354877 kJ/mol
# Density = 2.036556 g / cm^3
# Si number density = 20.412019 Si / 1000 Ang^3
#
#
#
# Elastic Constant Matrix: (Units=GPa)
#
#
# Indices 1 2 3 4 5 6 
#
# 1 55.9132 34.0320 23.4160 0.0000 -3.1428 0.0000
# 2 34.0320 61.5729 57.6301 0.0000 -0.2277 0.0000
# 3 23.4160 57.6301 130.0894 0.0000 -1.8575 0.0000
# 4 0.0000 0.0000 0.0000 49.3784 0.0000 1.6844
# 5 -3.1428 -0.2277 -1.8575 0.0000 37.2765 0.0000
# 6 0.0000 0.0000 0.0000 1.6844 0.0000 11.2736
#
#
#
# Elastic Compliance Matrix: (Units=1/GPa)
#
#
# Indices 1 2 3 4 5 6 
#
# 1 0.027860 -0.018327 0.003138 0.000000 0.002393 0.000000
# 2 -0.018327 0.039808 -0.014365 0.000000 -0.002018 0.000000
# 3 0.003138 -0.014365 0.013498 0.000000 0.000849 0.000000
# 4 0.000000 0.000000 0.000000 0.020356 0.000000 -0.003041
# 5 0.002393 -0.002018 0.000849 0.000000 0.027058 0.000000
# 6 0.000000 0.000000 0.000000 -0.003041 0.000000 0.089158
#
#
# Mechanical properties :
#
#
# Convention : Reuss Voigt Hill
#
# Bulk Modulus (GPa) = 45.33380 53.08131 49.20756
# Shear Modulus (GPa) = 17.59335 28.41887 23.00611
#
# Velocity S-wave (km/s) = 2.93902 3.73535 3.36085
# Velocity P-wave (km/s) = 5.81160 6.68320 6.26258
#
# Compressibility (1/GPa) = 0.02205859
#
# Stress axis : x y z
#
# Youngs Moduli (GPa) = 35.89381 25.12036 74.08461
#
# Poissons Ratio (x) = 0.46038 -0.23250
# Poissons Ratio (y) = 0.65783 1.06424
# Poissons Ratio (z) = -0.11265 0.36086
#
# Static dielectric constant tensor:
#      x y z
#    x 1.755950 0.000000 0.007480 
#    y 0.000000 1.714550 0.000000 
#    z 0.007480 0.000000 1.714750 
# 
# From -- ./inp_files/86771.got.cif
#   From: 2010.05.17/outbox.cif.g08.bks.cpg/sg10_44_cif.got.tgz:86771.got - 2010.06.03 11:33:40.
