data_PCOD9147747
_publ_section_title
;
Structure prediction by ZEFSAII (Michael W. Deem and Ramdas Pophale) SiO2 
 PCOD9147747
Probable space group: P 2/M
;
_chemical_formula_sum "Si O2"
_cell_formula_units_Z 32
_cell_length_a 29.532536
_cell_length_b 7.645859
_cell_length_c 11.991705
_cell_angle_alpha 90.000000
_cell_angle_beta 32.139951
_cell_angle_gamma 90.000000
_cell_volume 1440.491568
_symmetry_space_group_name_H-M "P 2/M"
_symmetry_group_IT_number 10
_symmetry_cell_setting 'monoclinic'
loop_
_space_group_symop_operation_xyz
x,y,z
-x,y,-z
-x,-y,-z
x,-y,z
loop_
_atom_site_type_symbol
_atom_site_label
_atom_site_fract_x
_atom_site_fract_y
_atom_site_fract_z
Si Si1 0.166169 0.300417 0.471739
Si Si2 0.579624 0.286095 0.259778
Si Si3 0.459733 0.714005 0.908020
Si Si4 0.624309 0.706647 0.688581
Si Si5 0.231516 0.286164 0.095819
Si Si6 0.026266 0.200917 0.122591
Si Si7 0.919646 0.711659 0.746444
Si Si8 0.810304 0.198921 0.332884
O O1 0.197327 0.500000 0.414950
O O2 0.197855 0.228737 0.287620
O O3 0.197618 0.209192 0.517725
O O4 0.063928 0.295829 0.686121
O O5 0.500000 0.229062 0.500000
O O6 0.579182 0.500000 0.260203
O O7 0.569764 0.227716 0.152033
O O8 0.670771 0.232649 0.118825
O O9 0.456573 0.500000 0.910972
O O10 0.555911 0.769753 0.740324
O O11 0.402649 0.773351 0.132217
O O12 0.610143 0.500000 0.723423
O O13 0.723563 0.732794 0.460594
O O14 0.227954 0.500000 0.103745
O O15 0.166161 0.230425 0.136671
O O16 0.065279 0.207724 0.164691
O O17 0.006625 0.000000 0.130375
O O18 0.099367 0.280155 0.891004
O O19 0.917728 0.500000 0.763564
O O20 0.000000 0.752636 0.500000
O O21 0.817785 0.000000 0.280536
#
# Coordination Sequence:
#
# PCOD9147747 Si02
#       8
#     4   4   4   4   4   4   4   4
#     4  11  21  37  60  81 105 141 186 230 277 329
#     4   9  16  26  43  72 109 141 166 205 269 330
#     4   8  15  29  50  77 106 133 175 229 272 316
#     4   9  17  32  55  78 101 137 181 226 272 322
#     4   9  18  32  53  81 110 139 175 226 276 316
#     4  11  24  39  54  77 112 149 181 224 280 332
#     4  10  19  36  58  81 109 140 183 233 272 316
#     4  11  24  38  51  77 116 147 179 226 277 333
#
# _framework density 22.214638000000001
#
# number of rings (size 3 to 8) (size 9 to 14) (size 15 to 20)
#    0.000    2.250    1.250    3.000    0.000    6.750 
#    0.000    3.750    0.000    0.000    0.000    0.000 
#    0.000    7.500    0.000    0.000    0.000    0.000 
#
# Total GULP energy -178747.511391 kJ/mol
# GULP energy per Si atom -5585.859731 kJ/mol
# Density = 2.216408 g / cm^3
# Si number density = 22.214638 Si / 1000 Ang^3
#
#
#
# Elastic Constant Matrix: (Units=GPa)
#
#
# Indices 1 2 3 4 5 6 
#
# 1 104.1120 -1.3086 23.1602 0.0000 -21.6024 0.0000
# 2 -1.3086 38.0430 0.8426 0.0000 1.3353 0.0000
# 3 23.1602 0.8426 73.9197 0.0000 -32.8459 0.0000
# 4 0.0000 0.0000 0.0000 66.2141 0.0000 -62.4029
# 5 -21.6024 1.3353 -32.8459 0.0000 37.1627 0.0000
# 6 0.0000 0.0000 0.0000 -62.4029 0.0000 93.3608
#
#
#
# Elastic Compliance Matrix: (Units=1/GPa)
#
#
# Indices 1 2 3 4 5 6 
#
# 1 0.010968 0.000207 -0.001003 0.000000 0.005482 0.000000
# 2 0.000207 0.026386 -0.001208 0.000000 -0.001895 0.000000
# 3 -0.001003 -0.001208 0.022422 0.000000 0.019278 0.000000
# 4 0.000000 0.000000 0.000000 0.040810 0.000000 0.027278
# 5 0.005482 -0.001895 0.019278 0.000000 0.047202 0.000000
# 6 0.000000 0.000000 0.000000 0.027278 0.000000 0.028944
#
#
# Mechanical properties :
#
#
# Convention : Reuss Voigt Hill
#
# Bulk Modulus (GPa) = 17.93094 29.05144 23.49119
# Shear Modulus (GPa) = 25.08392 52.23953 38.66172
#
# Velocity S-wave (km/s) = 3.36395 4.85457 4.17630
# Velocity P-wave (km/s) = 4.81429 6.67297 5.81833
#
# Compressibility (1/GPa) = 0.05576954
#
# Stress axis : x y z
#
# Youngs Moduli (GPa) = 91.17264 37.89821 44.59829
#
# Poissons Ratio (x) = -0.00785 0.04474
# Poissons Ratio (y) = -0.01888 0.05386
# Poissons Ratio (z) = 0.09145 0.04577
#
# Static dielectric constant tensor:
#      x y z
#    x 1.782650 0.000000 -0.015470 
#    y 0.000000 1.842700 0.000000 
#    z -0.015470 0.000000 1.833690 
# 
# From -- ./inp_files/58160.got.cif
#   From: 2010.05.17/outbox.cif.g08.bks.cpg/sg10_30_cif.got.tgz:58160.got - 2010.06.03 11:33:40.
