data_PCOD9147421
_publ_section_title
;
Structure prediction by ZEFSAII (Michael W. Deem and Ramdas Pophale) SiO2 
 PCOD9147421
Probable space group: P 2/M
;
_chemical_formula_sum "Si O2"
_cell_formula_units_Z 32
_cell_length_a 25.139970
_cell_length_b 7.431475
_cell_length_c 20.494351
_cell_angle_alpha 90.000000
_cell_angle_beta 22.722828
_cell_angle_gamma 90.000000
_cell_volume 1479.002618
_symmetry_space_group_name_H-M "P 2/M"
_symmetry_group_IT_number 10
_symmetry_cell_setting 'monoclinic'
loop_
_space_group_symop_operation_xyz
x,y,z
-x,y,-z
-x,-y,-z
x,-y,z
loop_
_atom_site_type_symbol
_atom_site_label
_atom_site_fract_x
_atom_site_fract_y
_atom_site_fract_z
Si Si1 0.392904 0.286435 0.814912
Si Si2 0.104980 0.202952 0.194971
Si Si3 0.082882 0.218525 0.708341
Si Si4 0.614217 0.785435 0.673419
Si Si5 0.627434 0.719826 0.311188
Si Si6 0.868034 0.779672 0.691356
Si Si7 0.441472 0.780148 0.995506
Si Si8 0.928263 0.710908 0.016155
O O1 0.367534 0.500000 0.843050
O O2 0.523102 0.250498 0.712751
O O3 0.400263 0.225136 0.731964
O O4 0.263019 0.196612 0.995753
O O5 0.103628 0.286805 0.267586
O O6 0.022995 0.283357 0.227280
O O7 0.048752 0.000000 0.266287
O O8 0.233051 0.281034 0.515654
O O9 0.029487 0.275227 0.839669
O O10 0.081958 0.000000 0.711362
O O11 0.536459 0.719626 0.826875
O O12 0.625328 0.000000 0.669501
O O13 0.500000 0.776944 0.500000
O O14 0.629625 0.500000 0.309205
O O15 0.777348 0.782982 0.166586
O O16 0.000000 0.727884 0.500000
O O17 0.862848 0.000000 0.698593
O O18 0.717218 0.723644 0.836636
O O19 0.442218 0.000000 0.994093
O O20 0.500000 0.724795 0.000000
O O21 0.904212 0.500000 0.056822
O O22 0.000000 0.787591 0.000000
#
# Coordination Sequence:
#
# PCOD9147421 Si02
#       8
#     4   4   4   4   4   4   4   4
#     4  11  21  35  59  83 105 141 185 229 268 320
#     4  10  19  35  56  80 111 144 178 226 278 321
#     4  10  22  36  55  80 113 148 177 220 276 332
#     4  10  21  37  54  80 114 146 180 223 275 323
#     4   9  19  35  54  79 106 134 176 227 271 310
#     4   9  17  28  48  78 106 136 178 225 267 313
#     4   9  17  29  48  75 107 140 176 222 267 312
#     4  10  21  37  58  80 107 142 181 225 267 316
#
# _framework density 21.636202000000001
#
# number of rings (size 3 to 8) (size 9 to 14) (size 15 to 20)
#    0.000    2.250    2.500    0.375    3.500    0.750 
#    0.000    0.000    0.000    2.625    0.000    0.000 
#    0.000    0.000    0.000    0.000    0.000    0.000 
#
# Total GULP energy -178687.363307 kJ/mol
# GULP energy per Si atom -5583.980103 kJ/mol
# Density = 2.158696 g / cm^3
# Si number density = 21.636202 Si / 1000 Ang^3
#
#
#
# Elastic Constant Matrix: (Units=GPa)
#
#
# Indices 1 2 3 4 5 6 
#
# 1 -35.8692 -50.4317 -67.6540 0.0000 27.7631 0.0000
# 2 -50.4317 45.2241 -22.3217 0.0000 0.5404 0.0000
# 3 -67.6540 -22.3217 35.5615 0.0000 24.9062 0.0000
# 4 0.0000 0.0000 0.0000 50.5584 0.0000 27.8525
# 5 27.7631 0.5404 24.9062 0.0000 41.3049 0.0000
# 6 0.0000 0.0000 0.0000 27.8525 0.0000 35.1679
#
#
#
# Elastic Compliance Matrix: (Units=1/GPa)
#
#
# Indices 1 2 3 4 5 6 
#
# 1 -0.000703 -0.004992 -0.008390 0.000000 0.005597 0.000000
# 2 -0.004992 0.013925 -0.005156 0.000000 0.006282 0.000000
# 3 -0.008390 -0.005156 0.008525 0.000000 0.000567 0.000000
# 4 0.000000 0.000000 0.000000 0.035088 0.000000 -0.027789
# 5 0.005597 0.006282 0.000567 0.000000 0.020024 0.000000
# 6 0.000000 0.000000 0.000000 -0.027789 0.000000 0.050444
#
#
# Mechanical properties :
#
#
# Convention : Reuss Voigt Hill
#
# Bulk Modulus (GPa) = -65.23402 -26.21094 -45.72248
# Shear Modulus (GPa) = 31.39324 37.76117 34.57720
#
# Velocity S-wave (km/s) = 3.81328 4.18218 4.00198
# Velocity P-wave (km/s) = 3.29055 3.34368 0.41979
#
# Compressibility (1/GPa) = -0.01532943
#
# Stress axis : x y z
#
# Youngs Moduli (GPa) = -1422.87785 71.81124 117.30886
#
# Poissons Ratio (x) = 0.35848 0.98427
# Poissons Ratio (y) = -7.10296 0.60483
# Poissons Ratio (z) = -11.93858 0.37025
#
# Static dielectric constant tensor:
#      x y z
#    x 1.734550 0.000000 0.011510 
#    y 0.000000 1.840490 0.000000 
#    z 0.011510 0.000000 1.754410 
# 
# From -- ./inp_files/86816.got.cif
#   From: 2010.05.17/outbox.cif.g08.bks.cpg/sg10_44_cif.got.tgz:86816.got - 2010.06.03 11:33:40.
