data_PCOD9147248
_publ_section_title
;
Structure prediction by ZEFSAII (Michael W. Deem and Ramdas Pophale) SiO2 
 PCOD9147248
Probable space group: P 2/M
;
_chemical_formula_sum "Si O2"
_cell_formula_units_Z 32
_cell_length_a 13.511348
_cell_length_b 9.507392
_cell_length_c 25.825225
_cell_angle_alpha 90.000000
_cell_angle_beta 28.736185
_cell_angle_gamma 90.000000
_cell_volume 1594.954153
_symmetry_space_group_name_H-M "P 2/M"
_symmetry_group_IT_number 10
_symmetry_cell_setting 'monoclinic'
loop_
_space_group_symop_operation_xyz
x,y,z
-x,y,-z
-x,-y,-z
x,-y,z
loop_
_atom_site_type_symbol
_atom_site_label
_atom_site_fract_x
_atom_site_fract_y
_atom_site_fract_z
Si Si1 0.893884 0.829252 0.900635
Si Si2 0.755776 0.346962 0.717973
Si Si3 0.975439 0.840137 0.753881
Si Si4 0.443491 0.273488 0.083237
Si Si5 0.135684 0.829267 0.889893
Si Si6 0.354325 0.168151 0.516747
Si Si7 0.610623 0.831449 0.691815
Si Si8 0.759136 0.335944 0.526853
O O1 0.992507 0.772732 0.802259
O O2 0.025685 0.779502 0.888363
O O3 0.896061 0.000000 0.898782
O O4 0.656401 0.784249 0.008231
O O5 0.701518 0.500000 0.719865
O O6 0.668912 0.346808 0.816528
O O7 0.660749 0.224797 0.726150
O O8 0.001977 0.332390 0.600515
O O9 0.735570 0.836643 0.849728
O O10 0.129699 0.784694 0.640625
O O11 0.045396 0.000000 0.727611
O O12 0.500000 0.338003 0.000000
O O13 0.373696 0.795765 0.787476
O O14 0.125306 0.000000 0.894068
O O15 0.000000 0.778754 0.000000
O O16 0.500000 0.190841 0.500000
O O17 0.380732 0.256736 0.452221
O O18 0.361747 0.000000 0.500923
O O19 0.741567 0.748948 0.588646
O O20 0.640162 0.000000 0.675038
O O21 0.701818 0.500000 0.558938
#
# Coordination Sequence:
#
# PCOD9147248 Si02
#       8
#     4   4   4   4   4   4   4   4
#     4   9  17  29  51  82 120 156 191 240 304 361
#     4  11  24  42  62  87 122 163 203 253 316 370
#     4   9  17  30  50  83 119 153 190 243 300 353
#     4  10  19  34  58  87 118 159 207 253 295 360
#     4   9  18  33  54  85 120 154 191 239 300 361
#     4  10  21  36  60  91 124 157 200 253 304 354
#     4  11  24  40  65  95 121 156 206 257 304 364
#     4  11  24  43  64  88 124 166 205 250 308 371
#
# _framework density 20.063272999999999
#
# number of rings (size 3 to 8) (size 9 to 14) (size 15 to 20)
#    0.000    2.000    1.250    2.250    1.750    6.500 
#    0.000    0.000    0.000    6.750    0.000    0.000 
#    0.000    0.000    0.000    0.000    0.000    0.000 
#
# Total GULP energy -178230.113020 kJ/mol
# GULP energy per Si atom -5569.691032 kJ/mol
# Density = 2.001761 g / cm^3
# Si number density = 20.063273 Si / 1000 Ang^3
#
#
#
# Elastic Constant Matrix: (Units=GPa)
#
#
# Indices 1 2 3 4 5 6 
#
# 1 110.0711 49.4760 24.5776 0.0000 8.7422 0.0000
# 2 49.4760 75.5190 35.0594 0.0000 8.0849 0.0000
# 3 24.5776 35.0594 81.2003 0.0000 18.5203 0.0000
# 4 0.0000 0.0000 0.0000 -0.7068 0.0000 -6.2335
# 5 8.7422 8.0849 18.5203 0.0000 33.7657 0.0000
# 6 0.0000 0.0000 0.0000 -6.2335 0.0000 3.5929
#
#
#
# Elastic Compliance Matrix: (Units=1/GPa)
#
#
# Indices 1 2 3 4 5 6 
#
# 1 0.012937 -0.008325 -0.000014 0.000000 -0.001349 0.000000
# 2 -0.008325 0.021918 -0.007130 0.000000 0.000818 0.000000
# 3 -0.000014 -0.007130 0.017154 0.000000 -0.007698 0.000000
# 4 0.000000 0.000000 0.000000 -0.086795 0.000000 -0.150583
# 5 -0.001349 0.000818 -0.007698 0.000000 0.033991 0.000000
# 6 0.000000 0.000000 0.000000 -0.150583 0.000000 0.017075
#
#
# Mechanical properties :
#
#
# Convention : Reuss Voigt Hill
#
# Bulk Modulus (GPa) = 47.45843 53.89071 50.67457
# Shear Modulus (GPa) = 92.17853 17.84219 55.01036
#
# Velocity S-wave (km/s) = 6.78555 2.98534 5.24194
# Velocity P-wave (km/s) = 9.22482 6.22910 7.87080
#
# Compressibility (1/GPa) = 0.02107107
#
# Stress axis : x y z
#
# Youngs Moduli (GPa) = 77.29625 45.62365 58.29602
#
# Poissons Ratio (x) = 0.37982 0.00080
# Poissons Ratio (y) = 0.64349 0.41568
# Poissons Ratio (z) = 0.00107 0.32532
#
# Static dielectric constant tensor:
#      x y z
#    x 1.727830 0.000000 0.025810 
#    y 0.000000 1.688770 0.000000 
#    z 0.025810 0.000000 1.739550 
# 
# From -- ./inp_files/88911.got.cif
#   From: 2010.05.17/outbox.cif.g08.bks.cpg/sg10_45_cif.got.tgz:88911.got - 2010.06.03 11:33:40.
