data_PCOD9147480
_publ_section_title
;
Structure prediction by ZEFSAII (Michael W. Deem and Ramdas Pophale) SiO2 
 PCOD9147480
Probable space group: P 2/M
;
_chemical_formula_sum "Si O2"
_cell_formula_units_Z 28
_cell_length_a 14.880902
_cell_length_b 7.515354
_cell_length_c 12.883709
_cell_angle_alpha 90.000000
_cell_angle_beta 55.940227
_cell_angle_gamma 90.000000
_cell_volume 1193.679883
_symmetry_space_group_name_H-M "P 2/M"
_symmetry_group_IT_number 10
_symmetry_cell_setting 'monoclinic'
loop_
_space_group_symop_operation_xyz
x,y,z
-x,y,-z
-x,-y,-z
x,-y,z
loop_
_atom_site_type_symbol
_atom_site_label
_atom_site_fract_x
_atom_site_fract_y
_atom_site_fract_z
Si Si1 0.874878 0.217154 0.074656
Si Si2 0.503348 0.786283 0.171891
Si Si3 0.193683 0.781874 0.653784
Si Si4 0.080131 0.798929 0.531604
Si Si5 0.736416 0.702798 0.732256
Si Si6 0.433835 0.782736 0.442335
Si Si7 0.258120 0.215383 0.041069
O O1 0.820699 0.272837 0.218099
O O2 0.872108 0.000000 0.074455
O O3 0.813756 0.276063 0.010011
O O4 0.000000 0.270981 0.000000
O O5 0.391564 0.745538 0.185419
O O6 0.485571 0.723045 0.301182
O O7 0.511678 0.000000 0.167979
O O8 0.617590 0.720886 0.054109
O O9 0.102879 0.721143 0.630302
O O10 0.310169 0.726222 0.535613
O O11 0.190716 0.000000 0.654300
O O12 0.195335 0.808636 0.397160
O O13 0.000000 0.711426 0.500000
O O14 0.037938 0.000000 0.576648
O O15 0.749485 0.500000 0.693081
O O16 0.780383 0.731043 0.819809
O O17 0.500000 0.725898 0.500000
O O18 0.434968 0.000000 0.439920
O O19 0.258168 0.000000 0.039673
#
# Coordination Sequence:
#
# PCOD9147480 Si02
#       7
#     4   4   4   4   4   4   4
#     4   9  18  31  52  86 121 147 179 234 295 345
#     4  10  19  35  57  85 115 148 192 243 292 340
#     4   9  16  29  50  82 115 140 174 225 285 340
#     4  10  21  37  62  90 114 145 189 238 288 339
#     4  12  25  39  57  82 117 157 196 236 288 346
#     4   9  15  25  48  80 113 142 175 225 285 341
#     4  10  21  36  58  86 117 151 194 242 290 340
#
# _framework density 23.456875
#
# number of rings (size 3 to 8) (size 9 to 14) (size 15 to 20)
#    0.000    2.143    1.429    2.571    2.000    6.000 
#    0.000    0.000    0.000    1.714    0.000    0.000 
#    0.000    0.000    0.000    0.000    0.000    0.000 
#
# Total GULP energy -156509.934479 kJ/mol
# GULP energy per Si atom -5589.640517 kJ/mol
# Density = 2.340349 g / cm^3
# Si number density = 23.456875 Si / 1000 Ang^3
#
#
#
# Elastic Constant Matrix: (Units=GPa)
#
#
# Indices 1 2 3 4 5 6 
#
# 1 120.5604 -6.9795 11.7954 0.0000 33.5589 0.0000
# 2 -6.9795 69.0880 -7.2107 0.0000 -1.6422 0.0000
# 3 11.7954 -7.2107 80.6367 0.0000 30.0136 0.0000
# 4 0.0000 0.0000 0.0000 -53.8844 0.0000 57.4949
# 5 33.5589 -1.6422 30.0136 0.0000 47.9869 0.0000
# 6 0.0000 0.0000 0.0000 57.4949 0.0000 -199.9378
#
#
#
# Elastic Compliance Matrix: (Units=1/GPa)
#
#
# Indices 1 2 3 4 5 6 
#
# 1 0.010520 0.001038 0.001667 0.000000 -0.008364 0.000000
# 2 0.001038 0.014719 0.001626 0.000000 -0.001239 0.000000
# 3 0.001667 0.001626 0.016575 0.000000 -0.011477 0.000000
# 4 0.000000 0.000000 0.000000 -0.026773 0.000000 -0.007699
# 5 -0.008364 -0.001239 -0.011477 0.000000 0.033824 0.000000
# 6 0.000000 0.000000 0.000000 -0.007699 0.000000 -0.007215
#
#
# Mechanical properties :
#
#
# Convention : Reuss Voigt Hill
#
# Bulk Modulus (GPa) = 19.81183 29.49950 24.65566
# Shear Modulus (GPa) = 100.37538 -22.98839 38.69349
#
# Velocity S-wave (km/s) = 6.54861 -3.13394 4.06588
# Velocity P-wave (km/s) = 8.10207 0.70146 5.70752
#
# Compressibility (1/GPa) = 0.05047490
#
# Stress axis : x y z
#
# Youngs Moduli (GPa) = 95.05904 67.93780 60.33342
#
# Poissons Ratio (x) = -0.07052 -0.10059
# Poissons Ratio (y) = -0.09867 -0.09807
# Poissons Ratio (z) = -0.15848 -0.11043
#
# Static dielectric constant tensor:
#      x y z
#    x 1.881830 0.000000 -0.005740 
#    y 0.000000 1.934590 0.000000 
#    z -0.005740 0.000000 1.847850 
# 
# From -- ./inp_files/49128.got.cif
#   From: 2010.05.17/outbox.cif.g08.bks.cpg/sg10_25_cif.got.tgz:49128.got - 2010.06.03 11:33:40.
