data_PCOD9147860
_publ_section_title
;
Structure prediction by ZEFSAII (Michael W. Deem and Ramdas Pophale) SiO2 
 PCOD9147860
Probable space group: P 2/M
;
_chemical_formula_sum "Si O2"
_cell_formula_units_Z 32
_cell_length_a 21.592599
_cell_length_b 7.657500
_cell_length_c 27.443930
_cell_angle_alpha 90.000000
_cell_angle_beta 18.930352
_cell_angle_gamma 90.000000
_cell_volume 1472.122371
_symmetry_space_group_name_H-M "P 2/M"
_symmetry_group_IT_number 10
_symmetry_cell_setting 'monoclinic'
loop_
_space_group_symop_operation_xyz
x,y,z
-x,y,-z
-x,-y,-z
x,-y,z
loop_
_atom_site_type_symbol
_atom_site_label
_atom_site_fract_x
_atom_site_fract_y
_atom_site_fract_z
Si Si1 0.701917 0.199820 0.365831
Si Si2 0.207002 0.210627 0.864544
Si Si3 0.383103 0.297686 0.466109
Si Si4 0.187685 0.286218 0.226802
Si Si5 0.246318 0.289064 0.462087
Si Si6 0.521469 0.293411 0.909003
Si Si7 0.878876 0.786204 0.963463
Si Si8 0.532822 0.793997 0.160979
O O1 0.500000 0.281577 0.500000
O O2 0.702683 0.200703 0.423793
O O3 0.903554 0.277816 0.199455
O O4 0.699078 0.000000 0.348763
O O5 0.387753 0.284670 0.702114
O O6 0.215947 0.000000 0.853637
O O7 0.217383 0.258965 0.913570
O O8 0.000000 0.266364 0.000000
O O9 0.325088 0.500000 0.512927
O O10 0.321971 0.228066 0.458561
O O11 0.178983 0.500000 0.233038
O O12 0.299207 0.228205 0.192669
O O13 0.970283 0.226784 0.384779
O O14 0.324532 0.229021 0.080317
O O15 0.246692 0.500000 0.463723
O O16 0.382087 0.240177 0.316178
O O17 0.519781 0.500000 0.918873
O O18 0.530794 0.267479 0.844653
O O19 0.887952 0.000000 0.954555
O O20 0.738942 0.723019 0.025047
O O21 0.554919 0.000000 0.140343
#
# Coordination Sequence:
#
# PCOD9147860 Si02
#       8
#     4   4   4   4   4   4   4   4
#     4  10  21  39  61  81 105 143 191 232 272 331
#     4  10  19  36  62  82 103 145 194 231 266 320
#     4  11  23  36  54  85 119 145 176 228 286 332
#     4   8  17  36  61  85 109 142 188 230 265 323
#     4  10  21  38  57  80 112 150 188 223 269 331
#     4   9  18  36  62  86 108 142 186 230 274 322
#     4   9  19  35  54  80 109 140 182 230 273 319
#     4  11  22  36  54  81 117 149 182 228 277 328
#
# _framework density 21.737321999999999
#
# number of rings (size 3 to 8) (size 9 to 14) (size 15 to 20)
#    0.000    2.250    1.250    2.250    1.750    3.500 
#    0.000    6.250    0.000    0.000    0.000    0.000 
#    0.000    0.000    0.000    0.000    0.000    0.000 
#
# Total GULP energy -178694.563214 kJ/mol
# GULP energy per Si atom -5584.205100 kJ/mol
# Density = 2.168785 g / cm^3
# Si number density = 21.737322 Si / 1000 Ang^3
#
#
#
# Elastic Constant Matrix: (Units=GPa)
#
#
# Indices 1 2 3 4 5 6 
#
# 1 91.6174 -8.2394 10.6226 0.0000 -1.8987 0.0000
# 2 -8.2394 36.8496 -9.2498 0.0000 -3.2190 0.0000
# 3 10.6226 -9.2498 90.4521 0.0000 -14.4471 0.0000
# 4 0.0000 0.0000 0.0000 12.3585 0.0000 -6.2804
# 5 -1.8987 -3.2190 -14.4471 0.0000 35.0156 0.0000
# 6 0.0000 0.0000 0.0000 -6.2804 0.0000 54.6130
#
#
#
# Elastic Compliance Matrix: (Units=1/GPa)
#
#
# Indices 1 2 3 4 5 6 
#
# 1 0.011248 0.002293 -0.001023 0.000000 0.000399 0.000000
# 2 0.002293 0.028853 0.003345 0.000000 0.004157 0.000000
# 3 -0.001023 0.003345 0.012373 0.000000 0.005357 0.000000
# 4 0.000000 0.000000 0.000000 0.085938 0.000000 0.009883
# 5 0.000399 0.004157 0.005357 0.000000 0.031173 0.000000
# 6 0.000000 0.000000 0.000000 0.009883 0.000000 0.019447
#
#
# Mechanical properties :
#
#
# Convention : Reuss Voigt Hill
#
# Bulk Modulus (GPa) = 16.20603 22.79845 19.50224
# Shear Modulus (GPa) = 24.95385 35.44978 30.20181
#
# Velocity S-wave (km/s) = 3.39185 4.04273 3.73151
# Velocity P-wave (km/s) = 4.77610 5.68353 5.24946
#
# Compressibility (1/GPa) = 0.06170542
#
# Stress axis : x y z
#
# Youngs Moduli (GPa) = 88.90445 34.65855 80.81827
#
# Poissons Ratio (x) = -0.07948 0.08266
# Poissons Ratio (y) = -0.20387 -0.27035
# Poissons Ratio (z) = 0.09093 -0.11594
#
# Static dielectric constant tensor:
#      x y z
#    x 1.816080 0.000000 -0.028770 
#    y 0.000000 1.841580 0.000000 
#    z -0.028770 0.000000 1.762970 
# 
# From -- ./inp_files/93564.got.cif
#   From: 2010.05.17/outbox.cif.g08.bks.cpg/sg10_47_cif.got.tgz:93564.got - 2010.06.03 11:33:40.
