data_PCOD9147227
_publ_section_title
;
Structure prediction by ZEFSAII (Michael W. Deem and Ramdas Pophale) SiO2 
 PCOD9147227
Probable space group: P 2/M
;
_chemical_formula_sum "Si O2"
_cell_formula_units_Z 32
_cell_length_a 28.576318
_cell_length_b 8.868871
_cell_length_c 22.104317
_cell_angle_alpha 90.000000
_cell_angle_beta 18.714727
_cell_angle_gamma 90.000000
_cell_volume 1797.473419
_symmetry_space_group_name_H-M "P 2/M"
_symmetry_group_IT_number 10
_symmetry_cell_setting 'monoclinic'
loop_
_space_group_symop_operation_xyz
x,y,z
-x,y,-z
-x,-y,-z
x,-y,z
loop_
_atom_site_type_symbol
_atom_site_label
_atom_site_fract_x
_atom_site_fract_y
_atom_site_fract_z
Si Si1 0.663136 0.818679 0.784728
Si Si2 0.185675 0.319826 0.888656
Si Si3 0.683239 0.180320 0.393740
Si Si4 0.660817 0.820166 0.181827
Si Si5 0.897445 0.680480 0.813192
Si Si6 0.160408 0.679987 0.681542
Si Si7 0.178607 0.819425 0.532318
Si Si8 0.057912 0.681372 0.494209
O O1 0.709604 0.782539 0.658864
O O2 0.787302 0.749835 0.675689
O O3 0.668279 0.000000 0.784516
O O4 0.500000 0.767363 0.000000
O O5 0.205126 0.500000 0.866417
O O6 0.250461 0.253507 0.747670
O O7 0.266645 0.247065 0.846613
O O8 0.012971 0.288149 0.103327
O O9 0.510794 0.212741 0.608323
O O10 0.762542 0.247003 0.355201
O O11 0.702610 0.000000 0.367645
O O12 0.680786 0.000000 0.156839
O O13 0.745823 0.748127 0.021259
O O14 0.897303 0.500000 0.820593
O O15 0.024302 0.750289 0.699893
O O16 0.944349 0.717788 0.687201
O O17 0.179845 0.500000 0.658274
O O18 0.218280 0.749211 0.548046
O O19 0.166242 0.000000 0.552158
O O20 0.072512 0.500000 0.474814
O O21 0.000000 0.732803 0.500000
#
# Coordination Sequence:
#
# PCOD9147227 Si02
#       8
#     4   4   4   4   4   4   4   4
#     4   9  19  36  57  84 116 148 187 232 277 330
#     4  11  23  39  62  87 112 146 189 235 283 338
#     4  11  25  41  57  83 117 151 188 234 286 336
#     4  11  23  39  59  84 114 149 191 235 281 336
#     4  10  19  34  58  84 112 148 191 235 278 331
#     4  11  23  39  59  85 115 148 190 235 282 337
#     4  10  19  34  59  84 112 150 191 233 278 330
#     4   9  19  36  57  83 116 148 186 232 278 332
#
# _framework density 17.802766999999999
#
# number of rings (size 3 to 8) (size 9 to 14) (size 15 to 20)
#    0.000    1.750    1.250    3.000    0.000    8.000 
#    2.250    0.000    0.000    0.000    0.000    0.000 
#    0.000    0.000    0.000    0.000    0.000    0.000 
#
# Total GULP energy -178767.749312 kJ/mol
# GULP energy per Si atom -5586.492166 kJ/mol
# Density = 1.776225 g / cm^3
# Si number density = 17.802767 Si / 1000 Ang^3
#
#
#
# Elastic Constant Matrix: (Units=GPa)
#
#
# Indices 1 2 3 4 5 6 
#
# 1 125.4071 51.8824 78.5363 0.0000 8.5998 0.0000
# 2 51.8824 54.2093 64.7654 0.0000 -4.1019 0.0000
# 3 78.5363 64.7654 132.8620 0.0000 8.6834 0.0000
# 4 0.0000 0.0000 0.0000 35.6686 0.0000 -1.6430
# 5 8.5998 -4.1019 8.6834 0.0000 22.7773 0.0000
# 6 0.0000 0.0000 0.0000 -1.6430 0.0000 30.1509
#
#
#
# Elastic Compliance Matrix: (Units=1/GPa)
#
#
# Indices 1 2 3 4 5 6 
#
# 1 0.014911 -0.011387 -0.002832 0.000000 -0.006601 0.000000
# 2 -0.011387 0.059950 -0.024079 0.000000 0.024275 0.000000
# 3 -0.002832 -0.024079 0.021692 0.000000 -0.011537 0.000000
# 4 0.000000 0.000000 0.000000 0.028106 0.000000 0.001532
# 5 -0.006601 0.024275 -0.011537 0.000000 0.055166 0.000000
# 6 0.000000 0.000000 0.000000 0.001532 0.000000 0.033250
#
#
# Mechanical properties :
#
#
# Convention : Reuss Voigt Hill
#
# Bulk Modulus (GPa) = 50.10693 78.09408 64.10050
# Shear Modulus (GPa) = 16.87343 25.53897 21.20620
#
# Velocity S-wave (km/s) = 3.08197 3.79165 3.45508
# Velocity P-wave (km/s) = 6.39308 7.94546 7.21116
#
# Compressibility (1/GPa) = 0.01995732
#
# Stress axis : x y z
#
# Youngs Moduli (GPa) = 67.06349 16.68057 46.09973
#
# Poissons Ratio (x) = 0.18995 0.13055
# Poissons Ratio (y) = 0.76367 1.11003
# Poissons Ratio (z) = 0.18992 0.40165
#
# Static dielectric constant tensor:
#      x y z
#    x 1.582880 0.000000 0.016660 
#    y 0.000000 1.594660 0.000000 
#    z 0.016660 0.000000 1.599490 
# 
# From -- ./inp_files/86841.got.cif
#   From: 2010.05.17/outbox.cif.g08.bks.cpg/sg10_44_cif.got.tgz:86841.got - 2010.06.03 11:33:40.
