data_PCOD9147220
_publ_section_title
;
Structure prediction by ZEFSAII (Michael W. Deem and Ramdas Pophale) SiO2 
 PCOD9147220
Probable space group: P 2/M
;
_chemical_formula_sum "Si O2"
_cell_formula_units_Z 32
_cell_length_a 26.603590
_cell_length_b 7.704358
_cell_length_c 20.772108
_cell_angle_alpha 90.000000
_cell_angle_beta 21.352263
_cell_angle_gamma 90.000000
_cell_volume 1550.169057
_symmetry_space_group_name_H-M "P 2/M"
_symmetry_group_IT_number 10
_symmetry_cell_setting 'monoclinic'
loop_
_space_group_symop_operation_xyz
x,y,z
-x,y,-z
-x,-y,-z
x,-y,z
loop_
_atom_site_type_symbol
_atom_site_label
_atom_site_fract_x
_atom_site_fract_y
_atom_site_fract_z
Si Si1 0.185495 0.707435 0.878177
Si Si2 0.157263 0.710405 0.298006
Si Si3 0.346725 0.205599 0.192489
Si Si4 0.133022 0.209620 0.552393
Si Si5 0.120853 0.206202 0.712938
Si Si6 0.170623 0.708274 0.138090
Si Si7 0.673237 0.291660 0.420251
Si Si8 0.357165 0.713263 0.797543
O O1 0.203742 0.500000 0.855146
O O2 0.242226 0.775636 0.742573
O O3 0.275042 0.771693 0.831925
O O4 0.024765 0.739123 0.082621
O O5 0.159153 0.500000 0.296416
O O6 0.258342 0.771956 0.233199
O O7 0.196309 0.771812 0.179846
O O8 0.000000 0.765069 0.500000
O O9 0.255845 0.276569 0.360201
O O10 0.362215 0.000000 0.186435
O O11 0.500000 0.279468 0.000000
O O12 0.136079 0.276239 0.622085
O O13 0.985708 0.252731 0.696612
O O14 0.142668 0.000000 0.542657
O O15 0.244766 0.253778 0.612458
O O16 0.116844 0.000000 0.712592
O O17 0.184324 0.500000 0.123471
O O18 0.274867 0.772478 0.959009
O O19 0.666579 0.500000 0.422384
O O20 0.515644 0.229094 0.608188
O O21 0.355787 0.500000 0.799132
#
# Coordination Sequence:
#
# PCOD9147220 Si02
#       8
#     4   4   4   4   4   4   4   4
#     4  10  19  35  60  83 105 141 186 227 269 321
#     4  10  20  34  55  85 115 141 175 222 273 323
#     4  10  22  39  58  81 110 146 187 225 265 319
#     4  10  21  37  56  78 107 143 184 225 266 317
#     4  11  23  37  54  79 112 147 182 223 272 324
#     4  10  19  34  58  84 110 141 180 224 270 323
#     4  10  21  36  55  82 112 141 180 228 273 322
#     4   9  18  34  57  83 109 139 180 227 272 317
#
# _framework density 20.642907999999998
#
# number of rings (size 3 to 8) (size 9 to 14) (size 15 to 20)
#    0.000    2.000    2.500    1.125    0.000    6.000 
#    0.000    1.250    0.000    1.500    0.000    0.000 
#    0.000    0.000    0.000    0.000    0.000    0.000 
#
# Total GULP energy -178766.259064 kJ/mol
# GULP energy per Si atom -5586.445596 kJ/mol
# Density = 2.059592 g / cm^3
# Si number density = 20.642908 Si / 1000 Ang^3
#
#
#
# Elastic Constant Matrix: (Units=GPa)
#
#
# Indices 1 2 3 4 5 6 
#
# 1 68.7198 -9.2650 42.4460 0.0000 14.8036 0.0000
# 2 -9.2650 31.9118 0.6669 0.0000 5.7591 0.0000
# 3 42.4460 0.6669 116.0304 0.0000 7.0490 0.0000
# 4 0.0000 0.0000 0.0000 -43.7991 0.0000 19.2153
# 5 14.8036 5.7591 7.0490 0.0000 44.5621 0.0000
# 6 0.0000 0.0000 0.0000 19.2153 0.0000 11.5377
#
#
#
# Elastic Compliance Matrix: (Units=1/GPa)
#
#
# Indices 1 2 3 4 5 6 
#
# 1 0.021807 0.007761 -0.007594 0.000000 -0.007046 0.000000
# 2 0.007761 0.034848 -0.002635 0.000000 -0.006665 0.000000
# 3 -0.007594 -0.002635 0.011347 0.000000 0.001068 0.000000
# 4 0.000000 0.000000 0.000000 -0.013192 0.000000 0.021971
# 5 -0.007046 -0.006665 0.001068 0.000000 0.025474 0.000000
# 6 0.000000 0.000000 0.000000 0.021971 0.000000 0.050081
#
#
# Mechanical properties :
#
#
# Convention : Reuss Voigt Hill
#
# Bulk Modulus (GPa) = 15.85617 31.59528 23.72573
# Shear Modulus (GPa) = 31.98586 14.64776 23.31681
#
# Velocity S-wave (km/s) = 3.94062 2.66668 3.36450
# Velocity P-wave (km/s) = 5.32940 4.98201 5.15863
#
# Compressibility (1/GPa) = 0.06306694
#
# Stress axis : x y z
#
# Youngs Moduli (GPa) = 45.85774 28.69629 88.13199
#
# Poissons Ratio (x) = -0.22272 0.66926
# Poissons Ratio (y) = -0.35592 0.23220
# Poissons Ratio (z) = 0.34823 0.07560
#
# Static dielectric constant tensor:
#      x y z
#    x 1.713830 0.000000 0.030760 
#    y 0.000000 1.780560 0.000000 
#    z 0.030760 0.000000 1.722930 
# 
# From -- ./inp_files/86727.got.cif
#   From: 2010.05.17/outbox.cif.g08.bks.cpg/sg10_44_cif.got.tgz:86727.got - 2010.06.03 11:33:40.
