data_PCOD9147175
_publ_section_title
;
Structure prediction by ZEFSAII (Michael W. Deem and Ramdas Pophale) SiO2 
 PCOD9147175
Probable space group: P 2/M
;
_chemical_formula_sum "Si O2"
_cell_formula_units_Z 28
_cell_length_a 10.544392
_cell_length_b 8.368747
_cell_length_c 31.927142
_cell_angle_alpha 90.000000
_cell_angle_beta 147.355727
_cell_angle_gamma 90.000000
_cell_volume 1519.743710
_symmetry_space_group_name_H-M "P 2/M"
_symmetry_group_IT_number 10
_symmetry_cell_setting 'monoclinic'
loop_
_space_group_symop_operation_xyz
x,y,z
-x,y,-z
-x,-y,-z
x,-y,z
loop_
_atom_site_type_symbol
_atom_site_label
_atom_site_fract_x
_atom_site_fract_y
_atom_site_fract_z
Si Si1 0.326114 0.309182 0.340756
Si Si2 0.878103 0.306822 0.094292
Si Si3 0.184718 0.193021 0.671439
Si Si4 0.543336 0.694293 0.078740
Si Si5 0.628154 0.809332 0.741292
Si Si6 0.340973 0.807131 0.495028
Si Si7 0.819553 0.306450 0.235588
O O1 0.323927 0.500000 0.341462
O O2 0.350212 0.256622 0.299603
O O3 0.535438 0.246720 0.428066
O O4 0.077120 0.253218 0.291021
O O5 0.892325 0.500000 0.097837
O O6 0.737418 0.261385 0.097671
O O7 0.137831 0.238532 0.168446
O O8 0.710062 0.254700 0.009310
O O9 0.394671 0.250041 0.699971
O O10 0.223722 0.244734 0.730034
O O11 0.926514 0.249171 0.585082
O O12 0.182714 0.000000 0.669556
O O13 0.540043 0.500000 0.078120
O O14 0.629531 0.747485 0.148128
O O15 0.615846 0.000000 0.735272
O O16 0.500000 0.751437 0.500000
O O17 0.339609 0.000000 0.493802
O O18 0.818722 0.500000 0.236065
#
# Coordination Sequence:
#
# PCOD9147175 Si02
#       7
#     4   4   4   4   4   4   4
#     4  11  22  36  59  86 112 141 182 230 276 326
#     4   9  16  32  57  81 110 144 181 227 274 321
#     4  10  23  40  56  78 111 151 185 222 275 332
#     4   8  15  30  55  84 110 140 179 227 276 320
#     4  11  23  38  55  79 115 151 184 222 273 331
#     4  10  20  37  60  82 108 144 187 228 273 325
#     4  10  19  34  57  85 110 139 182 229 273 324
#
# _framework density 18.424159
#
# number of rings (size 3 to 8) (size 9 to 14) (size 15 to 20)
#    0.000    2.143    2.857    1.714    0.000    3.143 
#    0.000    5.714    0.000    4.286    0.000    0.000 
#    0.000    0.000    0.000    0.000    0.000    0.000 
#
# Total GULP energy -156266.226357 kJ/mol
# GULP energy per Si atom -5580.936656 kJ/mol
# Density = 1.838223 g / cm^3
# Si number density = 18.424159 Si / 1000 Ang^3
#
#
#
# Elastic Constant Matrix: (Units=GPa)
#
#
# Indices 1 2 3 4 5 6 
#
# 1 87.9563 -0.6649 36.8562 0.0000 8.7097 0.0000
# 2 -0.6649 0.2086 0.0855 0.0000 3.9961 0.0000
# 3 36.8562 0.0855 130.5137 0.0000 2.2965 0.0000
# 4 0.0000 0.0000 0.0000 32.8652 0.0000 -6.8353
# 5 8.7097 3.9961 2.2965 0.0000 29.3313 0.0000
# 6 0.0000 0.0000 0.0000 -6.8353 0.0000 24.6795
#
#
#
# Elastic Compliance Matrix: (Units=1/GPa)
#
#
# Indices 1 2 3 4 5 6 
#
# 1 0.011786 -0.062699 -0.003381 0.000000 0.005307 0.000000
# 2 -0.062699 -2.640976 0.012795 0.000000 0.377423 0.000000
# 3 -0.003381 0.012795 0.008633 0.000000 -0.001415 0.000000
# 4 0.000000 0.000000 0.000000 0.032287 0.000000 0.008942
# 5 0.005307 0.377423 -0.001415 0.000000 -0.018792 0.000000
# 6 0.000000 0.000000 0.000000 0.008942 0.000000 0.042996
#
#
# Mechanical properties :
#
#
# Convention : Reuss Voigt Hill
#
# Bulk Modulus (GPa) = -0.36669 32.35913 15.99622
# Shear Modulus (GPa) = -1.48521 29.53533 14.02506
#
# Velocity S-wave (km/s) = -0.89882 4.00819 2.76204
# Velocity P-wave (km/s) = 1.12987 6.24678 4.34429
#
# Compressibility (1/GPa) = -2.72712693
#
# Stress axis : x y z
#
# Youngs Moduli (GPa) = 84.84348 -0.37865 115.83141
#
# Poissons Ratio (x) = -0.02374 0.39159
# Poissons Ratio (y) = 5.31963 -1.48205
# Poissons Ratio (z) = 0.28683 0.00484
#
# Static dielectric constant tensor:
#      x y z
#    x 1.611210 0.000000 0.011930 
#    y 0.000000 1.640970 0.000000 
#    z 0.011930 0.000000 1.637740 
# 
# From -- ./inp_files/36960.got.cif
#   From: 2010.05.17/outbox.cif.g08.bks.cpg/sg10_19_cif.got.tgz:36960.got - 2010.06.03 11:33:40.
