data_PCOD9147201
_publ_section_title
;
Structure prediction by ZEFSAII (Michael W. Deem and Ramdas Pophale) SiO2 
 PCOD9147201
Probable space group: P 2/M
;
_chemical_formula_sum "Si O2"
_cell_formula_units_Z 32
_cell_length_a 20.523659
_cell_length_b 14.417187
_cell_length_c 7.846904
_cell_angle_alpha 90.000000
_cell_angle_beta 137.900410
_cell_angle_gamma 90.000000
_cell_volume 1556.615932
_symmetry_space_group_name_H-M "P 2/M"
_symmetry_group_IT_number 10
_symmetry_cell_setting 'monoclinic'
loop_
_space_group_symop_operation_xyz
x,y,z
-x,y,-z
-x,-y,-z
x,-y,z
loop_
_atom_site_type_symbol
_atom_site_label
_atom_site_fract_x
_atom_site_fract_y
_atom_site_fract_z
Si Si1 0.726176 0.711101 0.950542
Si Si2 0.929494 0.353354 0.225919
Si Si3 0.361110 0.668943 0.587919
Si Si4 0.770271 0.104172 0.226769
Si Si5 0.157847 0.599609 0.307329
Si Si6 0.543331 0.673478 0.767912
Si Si7 0.413717 0.838966 0.937760
Si Si8 0.939848 0.779559 0.717587
O O1 0.676281 0.704320 0.668832
O O2 0.658372 0.660300 0.960404
O O3 0.830018 0.665104 0.131575
O O4 0.741940 0.817508 0.034323
O O5 0.000000 0.399545 0.500000
O O6 0.984181 0.258633 0.273894
O O7 0.899235 0.396713 0.985307
O O8 0.272495 0.609070 0.488325
O O9 0.468158 0.627174 0.753891
O O10 0.376642 0.754219 0.746548
O O11 0.678869 0.105558 0.179380
O O12 0.865898 0.144426 0.504313
O O13 0.784462 0.000000 0.190037
O O14 0.137475 0.500000 0.349691
O O15 0.121585 0.688384 0.342310
O O16 0.500000 0.653540 0.500000
O O17 0.539720 0.782619 0.812420
O O18 0.500000 0.886544 0.000000
O O19 0.000000 0.811021 0.000000
#
# Coordination Sequence:
#
# PCOD9147201 Si02
#       8
#     4   4   4   4   4   4   4   4
#     4   9  18  33  53  77 106 144 189 221 274 324
#     4  10  19  34  58  77 106 146 187 227 271 324
#     4   9  16  32  58  80 107 145 180 219 275 329
#     4  11  21  35  55  81 112 147 186 228 276 328
#     4  10  21  36  58  86 112 141 181 228 278 332
#     4   8  15  28  53  82 105 143 185 211 270 332
#     4   9  17  31  55  82 109 148 186 222 274 325
#     4  10  21  37  57  76 110 150 183 230 282 322
#
# _framework density 20.557414999999999
#
# number of rings (size 3 to 8) (size 9 to 14) (size 15 to 20)
#    0.000    2.500    2.500    0.000    0.000    3.000 
#    0.000    1.875    0.000   46.500    0.000    0.000 
#    0.000    0.000    0.000    0.000    0.000    0.000 
#
# Total GULP energy -178234.028719 kJ/mol
# GULP energy per Si atom -5569.813397 kJ/mol
# Density = 2.051063 g / cm^3
# Si number density = 20.557415 Si / 1000 Ang^3
#
#
#
# Elastic Constant Matrix: (Units=GPa)
#
#
# Indices 1 2 3 4 5 6 
#
# 1 80.1399 -4.8052 31.3972 0.0000 21.9870 0.0000
# 2 -4.8052 41.8569 15.3771 0.0000 6.5716 0.0000
# 3 31.3972 15.3771 76.5006 0.0000 10.4532 0.0000
# 4 0.0000 0.0000 0.0000 -0.7403 0.0000 -5.8127
# 5 21.9870 6.5716 10.4532 0.0000 43.7507 0.0000
# 6 0.0000 0.0000 0.0000 -5.8127 0.0000 4.0138
#
#
#
# Elastic Compliance Matrix: (Units=1/GPa)
#
#
# Indices 1 2 3 4 5 6 
#
# 1 0.018034 0.006115 -0.007512 0.000000 -0.008187 0.000000
# 2 0.006115 0.028188 -0.007419 0.000000 -0.005534 0.000000
# 3 -0.007512 -0.007419 0.017551 0.000000 0.000696 0.000000
# 4 0.000000 0.000000 0.000000 -0.109194 0.000000 -0.158130
# 5 -0.008187 -0.005534 0.000696 0.000000 0.027636 0.000000
# 6 0.000000 0.000000 0.000000 -0.158130 0.000000 0.020140
#
#
# Mechanical properties :
#
#
# Convention : Reuss Voigt Hill
#
# Bulk Modulus (GPa) = 21.67298 31.38172 26.52735
# Shear Modulus (GPa) = 141.37344 19.84007 80.60675
#
# Velocity S-wave (km/s) = 8.30177 3.10998 6.26863
# Velocity P-wave (km/s) = 10.12215 5.30985 8.08247
#
# Compressibility (1/GPa) = 0.04614040
#
# Stress axis : x y z
#
# Youngs Moduli (GPa) = 55.45075 35.47655 56.97647
#
# Poissons Ratio (x) = -0.21695 0.42801
# Poissons Ratio (y) = -0.33910 0.42274
# Poissons Ratio (z) = 0.41655 0.26322
#
# Static dielectric constant tensor:
#      x y z
#    x 1.785670 0.000000 0.018190 
#    y 0.000000 1.683350 0.000000 
#    z 0.018190 0.000000 1.789450 
# 
# From -- ./inp_files/35161.got.cif
#   From: 2010.05.17/outbox.cif.g08.bks.cpg/sg10_18_cif.got.tgz:35161.got - 2010.06.03 11:33:40.
