data_PCOD9147559
_publ_section_title
;
Structure prediction by ZEFSAII (Michael W. Deem and Ramdas Pophale) SiO2 
 PCOD9147559
Probable space group: P 2/M
;
_chemical_formula_sum "Si O2"
_cell_formula_units_Z 20
_cell_length_a 5.287822
_cell_length_b 12.342179
_cell_length_c 18.664916
_cell_angle_alpha 90.000000
_cell_angle_beta 123.890768
_cell_angle_gamma 90.000000
_cell_volume 1011.174812
_symmetry_space_group_name_H-M "P 2/M"
_symmetry_group_IT_number 10
_symmetry_cell_setting 'monoclinic'
loop_
_space_group_symop_operation_xyz
x,y,z
-x,y,-z
-x,-y,-z
x,-y,z
loop_
_atom_site_type_symbol
_atom_site_label
_atom_site_fract_x
_atom_site_fract_y
_atom_site_fract_z
Si Si1 0.743141 0.288464 0.400629
Si Si2 0.241714 0.239587 0.092647
Si Si3 0.920707 0.673760 0.681776
Si Si4 0.197853 0.377271 0.875398
Si Si5 0.305224 0.872871 0.727651
O O1 0.437256 0.338580 0.383663
O O2 0.648083 0.177927 0.344032
O O3 0.000000 0.269762 0.500000
O O4 0.888806 0.357700 0.358511
O O5 0.422191 0.161866 0.175820
O O6 0.040937 0.321753 0.108681
O O7 0.502094 0.306022 0.911257
O O8 0.000000 0.186355 0.000000
O O9 0.038498 0.620318 0.772333
O O10 0.014591 0.801088 0.706109
O O11 0.263908 0.500000 0.907124
O O12 0.259204 0.000000 0.720535
#
# Coordination Sequence:
#
# PCOD9147559 Si02
#       5
#     4   4   4   4   4
#     4  10  19  35  59  82 113 148 186 233 281 324
#     4  11  23  39  57  87 117 146 191 232 276 338
#     4   9  19  37  53  84 114 147 184 232 274 339
#     4  11  21  39  63  84 113 149 186 235 290 331
#     4   9  21  37  58  82 116 153 187 228 279 329
#
# _framework density 19.778972
#
# number of rings (size 3 to 8) (size 9 to 14) (size 15 to 20)
#    1.200    0.800    2.000    1.800    0.000    4.000 
#    0.000    1.000    0.000    7.200    0.000    0.000 
#    0.000    0.000    0.000    0.000    0.000    0.000 
#
# Total GULP energy -111418.562394 kJ/mol
# GULP energy per Si atom -5570.928120 kJ/mol
# Density = 1.973395 g / cm^3
# Si number density = 19.778972 Si / 1000 Ang^3
#
#
#
# Elastic Constant Matrix: (Units=GPa)
#
#
# Indices 1 2 3 4 5 6 
#
# 1 115.9726 6.3403 9.1139 0.0000 15.4588 0.0000
# 2 6.3403 31.7301 -20.8800 0.0000 -4.5721 0.0000
# 3 9.1139 -20.8800 101.2605 0.0000 15.5549 0.0000
# 4 0.0000 0.0000 0.0000 -22.8925 0.0000 -4.9981
# 5 15.4588 -4.5721 15.5549 0.0000 33.2274 0.0000
# 6 0.0000 0.0000 0.0000 -4.9981 0.0000 -1.5094
#
#
#
# Elastic Compliance Matrix: (Units=1/GPa)
#
#
# Indices 1 2 3 4 5 6 
#
# 1 0.009444 -0.003051 -0.000797 0.000000 -0.004441 0.000000
# 2 -0.003051 0.037530 0.007545 0.000000 0.003052 0.000000
# 3 -0.000797 0.007545 0.012161 0.000000 -0.004284 0.000000
# 4 0.000000 0.000000 0.000000 -0.157680 0.000000 0.522136
# 5 -0.004441 0.003052 -0.004284 0.000000 0.034587 0.000000
# 6 0.000000 0.000000 0.000000 0.522136 0.000000 -2.391496
#
#
# Mechanical properties :
#
#
# Convention : Reuss Voigt Hill
#
# Bulk Modulus (GPa) = 15.03151 26.45685 20.74418
# Shear Modulus (GPa) = -2.04862 18.72438 8.33788
#
# Velocity S-wave (km/s) = -1.01882 3.08016 2.05540
# Velocity P-wave (km/s) = 2.49644 5.10442 4.01792
#
# Compressibility (1/GPa) = 0.06652692
#
# Stress axis : x y z
#
# Youngs Moduli (GPa) = 105.88619 26.64540 82.22990
#
# Poissons Ratio (x) = 0.08131 0.06555
# Poissons Ratio (y) = 0.32311 -0.62039
# Poissons Ratio (z) = 0.08440 -0.20103
#
# Static dielectric constant tensor:
#      x y z
#    x 1.708780 0.000000 -0.015880 
#    y 0.000000 1.665400 0.000000 
#    z -0.015880 0.000000 1.720050 
# 
# From -- ./inp_files/73246.got.cif
#   From: 2010.05.17/outbox.cif.g08.bks.cpg/sg10_37_cif.got.tgz:73246.got - 2010.06.03 11:33:40.
