data_PCOD9147279
_publ_section_title
;
Structure prediction by ZEFSAII (Michael W. Deem and Ramdas Pophale) SiO2 
 PCOD9147279
Probable space group: P 2/M
;
_chemical_formula_sum "Si O2"
_cell_formula_units_Z 30
_cell_length_a 5.267783
_cell_length_b 15.464178
_cell_length_c 19.690644
_cell_angle_alpha 90.000000
_cell_angle_beta 108.966763
_cell_angle_gamma 90.000000
_cell_volume 1516.950354
_symmetry_space_group_name_H-M "P 2/M"
_symmetry_group_IT_number 10
_symmetry_cell_setting 'monoclinic'
loop_
_space_group_symop_operation_xyz
x,y,z
-x,y,-z
-x,-y,-z
x,-y,z
loop_
_atom_site_type_symbol
_atom_site_label
_atom_site_fract_x
_atom_site_fract_y
_atom_site_fract_z
Si Si1 0.229933 0.159956 0.135661
Si Si2 0.117265 0.342326 0.081060
Si Si3 0.008467 0.907213 0.244480
Si Si4 0.334215 0.252169 0.734584
Si Si5 0.684371 0.000000 0.949376
Si Si6 0.346083 0.901691 0.397668
Si Si7 0.719352 0.601088 0.165880
Si Si8 0.862173 0.206296 0.423267
O O1 0.103319 0.237552 0.081984
O O2 0.392029 0.217915 0.206380
O O3 0.041230 0.103549 0.167559
O O4 0.365718 0.087779 0.099494
O O5 0.424535 0.373056 0.112837
O O6 0.942133 0.376153 0.128976
O O7 0.000000 0.374254 0.000000
O O8 0.851713 0.825960 0.257520
O O9 0.285382 0.905559 0.311220
O O10 0.879940 0.000000 0.250071
O O11 0.247077 0.339270 0.764871
O O12 0.291632 0.258340 0.649942
O O13 0.500000 0.000000 0.000000
O O14 0.000000 0.000000 0.000000
O O15 0.633530 0.858145 0.431671
O O16 0.103849 0.847387 0.409340
O O17 0.336071 0.000000 0.421123
O O18 0.728452 0.500000 0.182071
O O19 0.000000 0.252533 0.500000
#
# Coordination Sequence:
#
# PCOD9147279 Si02
#       8
#     4   4   4   4   2   4   4   4
#     4  11  22  38  62  80 120 162 202 251 289 347
#     4  11  24  41  63  91 124 154 191 245 312 366
#     4  10  19  34  59  85 113 158 206 247 285 341
#     4  10  23  39  60  88 121 153 206 246 296 354
#     4  12  30  42  58  88 123 163 213 255 296 350
#     4  10  21  35  53  80 116 154 202 244 288 341
#     4  11  24  42  67  91 116 155 197 247 304 363
#     4  11  22  36  56  83 118 157 193 240 299 350
#
# _framework density 19.776522
#
# number of rings (size 3 to 8) (size 9 to 14) (size 15 to 20)
#    0.000    1.333    3.333    2.000    2.800    5.867 
#    0.000    0.000    0.000    0.400    0.000    0.000 
#    0.000    6.933    0.000    0.000    0.000    0.800 
#
# Total GULP energy -167299.055631 kJ/mol
# GULP energy per Si atom -5576.635188 kJ/mol
# Density = 1.973151 g / cm^3
# Si number density = 19.776522 Si / 1000 Ang^3
#
#
#
# Elastic Constant Matrix: (Units=GPa)
#
#
# Indices 1 2 3 4 5 6 
#
# 1 101.5170 -17.3685 -34.4989 0.0000 59.8457 0.0000
# 2 -17.3685 115.3334 32.7903 0.0000 -31.8102 0.0000
# 3 -34.4989 32.7903 151.3953 0.0000 -76.6666 0.0000
# 4 0.0000 0.0000 0.0000 6.4263 0.0000 -0.7473
# 5 59.8457 -31.8102 -76.6666 0.0000 147.0882 0.0000
# 6 0.0000 0.0000 0.0000 -0.7473 0.0000 10.4991
#
#
#
# Elastic Compliance Matrix: (Units=1/GPa)
#
#
# Indices 1 2 3 4 5 6 
#
# 1 0.013000 0.000483 0.000315 0.000000 -0.005020 0.000000
# 2 0.000483 0.009443 -0.001359 0.000000 0.001137 0.000000
# 3 0.000315 -0.001359 0.009181 0.000000 0.004363 0.000000
# 4 0.000000 0.000000 0.000000 0.156908 0.000000 0.011168
# 5 -0.005020 0.001137 0.004363 0.000000 0.011361 0.000000
# 6 0.000000 0.000000 0.000000 0.011168 0.000000 0.096041
#
#
# Mechanical properties :
#
#
# Convention : Reuss Voigt Hill
#
# Bulk Modulus (GPa) = 32.78350 36.67682 34.73016
# Shear Modulus (GPa) = 16.27478 58.62426 37.44952
#
# Velocity S-wave (km/s) = 2.87180 5.45048 4.35631
# Velocity P-wave (km/s) = 5.25445 7.62864 6.55002
#
# Compressibility (1/GPa) = 0.03050315
#
# Stress axis : x y z
#
# Youngs Moduli (GPa) = 76.92286 105.89400 108.92088
#
# Poissons Ratio (x) = -0.05119 -0.03434
# Poissons Ratio (y) = -0.03718 0.14806
# Poissons Ratio (z) = -0.02426 0.14395
#
# Static dielectric constant tensor:
#      x y z
#    x 1.741370 0.000000 0.062790 
#    y 0.000000 1.645940 0.000000 
#    z 0.062790 0.000000 1.864760 
# 
# From -- ./inp_files/73560.got.cif
#   From: 2010.05.17/outbox.cif.g08.bks.cpg/sg10_37_cif.got.tgz:73560.got - 2010.06.03 11:33:40.
