data_PCOD9147945
_publ_section_title
;
Structure prediction by ZEFSAII (Michael W. Deem and Ramdas Pophale) SiO2 
 PCOD9147945
Probable space group: P 2/M
;
_chemical_formula_sum "Si O2"
_cell_formula_units_Z 16
_cell_length_a 9.294710
_cell_length_b 13.366700
_cell_length_c 9.053446
_cell_angle_alpha 90.000000
_cell_angle_beta 47.798251
_cell_angle_gamma 90.000000
_cell_volume 833.231361
_symmetry_space_group_name_H-M "P 2/M"
_symmetry_group_IT_number 10
_symmetry_cell_setting 'monoclinic'
loop_
_space_group_symop_operation_xyz
x,y,z
-x,y,-z
-x,-y,-z
x,-y,z
loop_
_atom_site_type_symbol
_atom_site_label
_atom_site_fract_x
_atom_site_fract_y
_atom_site_fract_z
Si Si1 0.889561 0.887377 0.418793
Si Si2 0.885523 0.271913 0.935569
Si Si3 0.527907 0.801363 0.811690
Si Si4 0.788125 0.612961 0.720189
O O1 0.666562 0.867346 0.614781
O O2 0.000000 0.877617 0.500000
O O3 0.979703 0.805570 0.248094
O O4 0.919103 0.000000 0.342934
O O5 0.824016 0.359315 0.865896
O O6 0.683082 0.216610 0.110280
O O7 0.000000 0.305978 0.000000
O O8 0.643542 0.696269 0.755035
O O9 0.500000 0.840958 0.000000
O O10 0.716824 0.500000 0.749626
O O11 0.000000 0.621626 0.500000
#
# Coordination Sequence:
#
# PCOD9147945 Si02
#       4
#     4   4   4   4
#     4  11  21  38  61  86 114 147 197 240 276 331
#     4  11  23  38  57  86 122 150 185 234 288 339
#     4  10  19  37  60  86 109 150 195 230 283 333
#     4  10  19  38  64  84 111 150 194 235 279 337
#
# _framework density 19.202351
#
# number of rings (size 3 to 8) (size 9 to 14) (size 15 to 20)
#    0.000    1.500    7.500    0.000    0.000    8.000 
#    0.000    1.250    0.000    3.000    0.000    0.000 
#    0.000    0.000    0.000    0.000    0.000    0.000 
#
# Total GULP energy -89333.750365 kJ/mol
# GULP energy per Si atom -5583.359398 kJ/mol
# Density = 1.915865 g / cm^3
# Si number density = 19.202351 Si / 1000 Ang^3
#
#
#
# Elastic Constant Matrix: (Units=GPa)
#
#
# Indices 1 2 3 4 5 6 
#
# 1 65.2276 -18.9678 4.2941 0.0000 -8.4836 0.0000
# 2 -18.9678 59.0746 4.9757 0.0000 12.5175 0.0000
# 3 4.2941 4.9757 66.3043 0.0000 -26.6257 0.0000
# 4 0.0000 0.0000 0.0000 8.4014 0.0000 -1.5580
# 5 -8.4836 12.5175 -26.6257 0.0000 25.6772 0.0000
# 6 0.0000 0.0000 0.0000 -1.5580 0.0000 11.1709
#
#
#
# Elastic Compliance Matrix: (Units=1/GPa)
#
#
# Indices 1 2 3 4 5 6 
#
# 1 0.017163 0.004899 -0.000276 0.000000 0.002996 0.000000
# 2 0.004899 0.023800 -0.010474 0.000000 -0.020844 0.000000
# 3 -0.000276 -0.010474 0.030671 0.000000 0.036818 0.000000
# 4 0.000000 0.000000 0.000000 0.122188 0.000000 0.017042
# 5 0.002996 -0.020844 0.036818 0.000000 0.088275 0.000000
# 6 0.000000 0.000000 0.000000 0.017042 0.000000 0.091895
#
#
# Mechanical properties :
#
#
# Convention : Reuss Voigt Hill
#
# Bulk Modulus (GPa) = 16.68522 19.02337 17.85430
# Shear Modulus (GPa) = 12.32527 22.40353 17.36440
#
# Velocity S-wave (km/s) = 2.53625 3.41942 3.01040
# Velocity P-wave (km/s) = 4.15749 5.05155 4.62617
#
# Compressibility (1/GPa) = 0.05993328
#
# Stress axis : x y z
#
# Youngs Moduli (GPa) = 58.26326 42.01729 32.60422
#
# Poissons Ratio (x) = -0.20586 0.00900
# Poissons Ratio (y) = -0.28545 0.34148
# Poissons Ratio (z) = 0.01609 0.44007
#
# Static dielectric constant tensor:
#      x y z
#    x 1.661870 0.000000 -0.025570 
#    y 0.000000 1.671830 0.000000 
#    z -0.025570 0.000000 1.693580 
# 
# From -- ./inp_files/18095.got.cif
#   From: 2010.05.17/outbox.cif.g08.bks.cpg/sg10_10_cif.got.tgz:18095.got - 2010.06.03 11:33:40.
