data_PCOD9147830
_publ_section_title
;
Structure prediction by ZEFSAII (Michael W. Deem and Ramdas Pophale) SiO2 
 PCOD9147830
Probable space group: P 2/M
;
_chemical_formula_sum "Si O2"
_cell_formula_units_Z 28
_cell_length_a 27.627160
_cell_length_b 9.188154
_cell_length_c 9.882287
_cell_angle_alpha 90.000000
_cell_angle_beta 38.577047
_cell_angle_gamma 90.000000
_cell_volume 1564.244808
_symmetry_space_group_name_H-M "P 2/M"
_symmetry_group_IT_number 10
_symmetry_cell_setting 'monoclinic'
loop_
_space_group_symop_operation_xyz
x,y,z
-x,y,-z
-x,-y,-z
x,-y,z
loop_
_atom_site_type_symbol
_atom_site_label
_atom_site_fract_x
_atom_site_fract_y
_atom_site_fract_z
Si Si1 0.826134 0.174137 0.290781
Si Si2 0.978755 0.332917 0.886132
Si Si3 0.866689 0.175254 0.511851
Si Si4 0.523152 0.671089 0.793524
Si Si5 0.566277 0.825982 0.242208
Si Si6 0.268762 0.176550 0.993412
Si Si7 0.311932 0.824675 0.599796
O O1 0.832788 0.208716 0.435786
O O2 0.744515 0.213243 0.401037
O O3 0.835909 0.000000 0.256173
O O4 0.896645 0.251884 0.059146
O O5 0.973381 0.500000 0.854137
O O6 0.049515 0.249759 0.660340
O O7 0.000000 0.331270 0.000000
O O8 0.875625 0.000000 0.499681
O O9 0.805425 0.225137 0.758600
O O10 0.529280 0.500000 0.750055
O O11 0.459770 0.744216 0.835144
O O12 0.605268 0.748712 0.589367
O O13 0.500000 0.689380 0.000000
O O14 0.500000 0.800031 0.500000
O O15 0.649997 0.778888 0.115205
O O16 0.568657 0.000000 0.212723
O O17 0.271354 0.216954 0.830318
O O18 0.267883 0.000000 0.999991
O O19 0.323234 0.000000 0.576059
#
# Coordination Sequence:
#
# PCOD9147830 Si02
#       7
#     4   4   4   4   4   4   4
#     4   9  18  31  53  80 103 133 173 216 263 312
#     4   9  17  31  51  75 104 137 172 211 259 311
#     4   9  17  31  52  78 105 132 171 218 260 312
#     4  11  25  40  53  77 113 148 182 222 269 321
#     4  10  19  36  61  83 105 139 183 227 270 317
#     4   9  18  33  54  81 108 134 170 221 271 315
#     4  10  20  37  57  79 107 139 177 221 270 320
#
# _framework density 17.900012
#
# number of rings (size 3 to 8) (size 9 to 14) (size 15 to 20)
#    0.000    2.429    1.429    0.857    2.000    3.714 
#    0.000    2.143    0.000    4.286    0.000    0.000 
#    0.000    0.000    0.000    0.000    0.000    0.000 
#
# Total GULP energy -156190.101801 kJ/mol
# GULP energy per Si atom -5578.217921 kJ/mol
# Density = 1.785927 g / cm^3
# Si number density = 17.900012 Si / 1000 Ang^3
#
#
#
# Elastic Constant Matrix: (Units=GPa)
#
#
# Indices 1 2 3 4 5 6 
#
# 1 21.1128 4.5080 -15.4769 0.0000 8.5350 0.0000
# 2 4.5080 17.0458 16.5592 0.0000 8.9958 0.0000
# 3 -15.4769 16.5592 81.4261 0.0000 -1.3586 0.0000
# 4 0.0000 0.0000 0.0000 7.0857 0.0000 5.7185
# 5 8.5350 8.9958 -1.3586 0.0000 18.0496 0.0000
# 6 0.0000 0.0000 0.0000 5.7185 0.0000 0.8100
#
#
#
# Elastic Compliance Matrix: (Units=1/GPa)
#
#
# Indices 1 2 3 4 5 6 
#
# 1 0.076484 -0.029174 0.020135 0.000000 -0.020111 0.000000
# 2 -0.029174 0.123372 -0.031470 0.000000 -0.050061 0.000000
# 3 0.020135 -0.031470 0.022639 0.000000 0.007867 0.000000
# 4 0.000000 0.000000 0.000000 -0.030044 0.000000 0.212096
# 5 -0.020111 -0.050061 0.007867 0.000000 0.090455 0.000000
# 6 0.000000 0.000000 0.000000 0.212096 0.000000 -0.262801
#
#
# Mechanical properties :
#
#
# Convention : Reuss Voigt Hill
#
# Bulk Modulus (GPa) = 7.06830 14.52946 10.79888
# Shear Modulus (GPa) = 33.71951 12.78869 23.25410
#
# Velocity S-wave (km/s) = 4.34495 2.67582 3.60823
# Velocity P-wave (km/s) = 5.39711 4.20492 4.83788
#
# Compressibility (1/GPa) = 0.14147670
#
# Stress axis : x y z
#
# Youngs Moduli (GPa) = 13.07465 8.10557 44.17086
#
# Poissons Ratio (x) = 0.23647 -0.88938
# Poissons Ratio (y) = 0.38144 1.39006
# Poissons Ratio (z) = -0.26326 0.25508
#
# Static dielectric constant tensor:
#      x y z
#    x 1.598360 0.000000 0.011910 
#    y 0.000000 1.597390 0.000000 
#    z 0.011910 0.000000 1.600820 
# 
# From -- ./inp_files/36983.got.cif
#   From: 2010.05.17/outbox.cif.g08.bks.cpg/sg10_19_cif.got.tgz:36983.got - 2010.06.03 11:33:40.
