data_PCOD9147237
_publ_section_title
;
Structure prediction by ZEFSAII (Michael W. Deem and Ramdas Pophale) SiO2 
 PCOD9147237
Probable space group: P 2/M
;
_chemical_formula_sum "Si O2"
_cell_formula_units_Z 24
_cell_length_a 21.093482
_cell_length_b 8.596424
_cell_length_c 10.162130
_cell_angle_alpha 90.000000
_cell_angle_beta 146.388751
_cell_angle_gamma 90.000000
_cell_volume 1020.027034
_symmetry_space_group_name_H-M "P 2/M"
_symmetry_group_IT_number 10
_symmetry_cell_setting 'monoclinic'
loop_
_space_group_symop_operation_xyz
x,y,z
-x,y,-z
-x,-y,-z
x,-y,z
loop_
_atom_site_type_symbol
_atom_site_label
_atom_site_fract_x
_atom_site_fract_y
_atom_site_fract_z
Si Si1 0.074610 0.179523 0.306916
Si Si2 0.167096 0.824497 0.057104
Si Si3 0.320882 0.814790 0.662349
Si Si4 0.123428 0.743885 0.690910
Si Si5 0.405478 0.319179 0.545713
Si Si6 0.641398 0.183297 0.964415
O O1 0.187847 0.240559 0.431976
O O2 0.105727 0.181309 0.516546
O O3 0.064745 0.000000 0.251029
O O4 0.947273 0.247892 0.073728
O O5 0.285029 0.734612 0.276205
O O6 0.184278 0.000000 0.136410
O O7 0.133873 0.834179 0.846055
O O8 0.387974 0.719402 0.670027
O O9 0.327212 0.000000 0.642417
O O10 0.362605 0.801074 0.884079
O O11 0.000000 0.659598 0.500000
O O12 0.257654 0.699365 0.907585
O O13 0.424372 0.500000 0.556411
O O14 0.517544 0.225479 0.694625
O O15 0.669152 0.000000 0.984079
#
# Coordination Sequence:
#
# PCOD9147237 Si02
#       6
#     4   4   4   4   4   4
#     4   8  15  30  58  92 114 132 169 227 284 326
#     4  10  19  34  58  85 114 145 178 218 269 329
#     4   9  18  36  61  85 108 136 178 230 279 326
#     4   9  17  33  62  95 115 130 168 228 282 327
#     4  12  26  39  50  72 113 157 192 225 263 313
#     4  10  20  36  61  88 110 136 176 226 277 328
#
# _framework density 23.528790000000001
#
# number of rings (size 3 to 8) (size 9 to 14) (size 15 to 20)
#    0.000    2.333    0.000    4.500    0.000    7.667 
#    0.000    7.500    0.000   12.000    0.000    0.000 
#    0.000    0.000    0.000    0.000    0.000    0.000 
#
# Total GULP energy -133655.071807 kJ/mol
# GULP energy per Si atom -5568.961325 kJ/mol
# Density = 2.347524 g / cm^3
# Si number density = 23.528790 Si / 1000 Ang^3
#
#
#
# Elastic Constant Matrix: (Units=GPa)
#
#
# Indices 1 2 3 4 5 6 
#
# 1 61.1545 12.8247 42.6456 0.0000 24.6696 0.0000
# 2 12.8247 56.4817 32.0512 0.0000 8.2313 0.0000
# 3 42.6456 32.0512 154.6117 0.0000 51.0590 0.0000
# 4 0.0000 0.0000 0.0000 -127.7589 0.0000 -146.9042
# 5 24.6696 8.2313 51.0590 0.0000 49.9059 0.0000
# 6 0.0000 0.0000 0.0000 -146.9042 0.0000 -147.8553
#
#
#
# Elastic Compliance Matrix: (Units=1/GPa)
#
#
# Indices 1 2 3 4 5 6 
#
# 1 0.021955 -0.002094 -0.003249 0.000000 -0.007183 0.000000
# 2 -0.002094 0.020333 -0.004337 0.000000 0.002119 0.000000
# 3 -0.003249 -0.004337 0.011322 0.000000 -0.009262 0.000000
# 4 0.000000 0.000000 0.000000 0.054944 0.000000 -0.054591
# 5 -0.007183 0.002119 -0.009262 0.000000 0.032715 0.000000
# 6 0.000000 0.000000 0.000000 -0.054591 0.000000 0.047476
#
#
# Mechanical properties :
#
#
# Convention : Reuss Voigt Hill
#
# Bulk Modulus (GPa) = 29.19922 49.69899 39.44911
# Shear Modulus (GPa) = 22.77680 -32.82656 -5.02488
#
# Velocity S-wave (km/s) = 3.11471 -3.73924 -1.46296
# Velocity P-wave (km/s) = 5.03708 1.58931 3.73484
#
# Compressibility (1/GPa) = 0.03424749
#
# Stress axis : x y z
#
# Youngs Moduli (GPa) = 45.54833 49.18187 88.32535
#
# Poissons Ratio (x) = 0.10300 0.28701
# Poissons Ratio (y) = 0.09539 0.38308
# Poissons Ratio (z) = 0.14801 0.21331
#
# Static dielectric constant tensor:
#      x y z
#    x 1.934460 0.000000 0.028030 
#    y 0.000000 1.809560 0.000000 
#    z 0.028030 0.000000 1.952920 
# 
# From -- ./inp_files/56687.got.cif
#   From: 2010.05.17/outbox.cif.g08.bks.cpg/sg10_29_cif.got.tgz:56687.got - 2010.06.03 11:33:40.
