data_PCOD9147159
_publ_section_title
;
Structure prediction by ZEFSAII (Michael W. Deem and Ramdas Pophale) SiO2 
 PCOD9147159
Probable space group: P 2/M
;
_chemical_formula_sum "Si O2"
_cell_formula_units_Z 28
_cell_length_a 30.453030
_cell_length_b 7.736089
_cell_length_c 10.480966
_cell_angle_alpha 90.000000
_cell_angle_beta 34.373953
_cell_angle_gamma 90.000000
_cell_volume 1394.080588
_symmetry_space_group_name_H-M "P 2/M"
_symmetry_group_IT_number 10
_symmetry_cell_setting 'monoclinic'
loop_
_space_group_symop_operation_xyz
x,y,z
-x,y,-z
-x,-y,-z
x,-y,z
loop_
_atom_site_type_symbol
_atom_site_label
_atom_site_fract_x
_atom_site_fract_y
_atom_site_fract_z
Si Si1 0.923148 0.288843 0.846017
Si Si2 0.096404 0.709066 0.401871
Si Si3 0.494389 0.202838 0.156718
Si Si4 0.230499 0.294672 0.663528
Si Si5 0.663328 0.700121 0.818317
Si Si6 0.263644 0.202542 0.093203
Si Si7 0.335158 0.789990 0.656014
O O1 0.922677 0.500000 0.848206
O O2 0.901580 0.238316 0.752331
O O3 0.012049 0.235519 0.656684
O O4 0.856268 0.226331 0.101668
O O5 0.098897 0.500000 0.398671
O O6 0.171509 0.775669 0.294611
O O7 0.421837 0.271542 0.411787
O O8 0.476515 0.000000 0.183628
O O9 0.500000 0.278203 0.000000
O O10 0.577982 0.218341 0.021352
O O11 0.222161 0.500000 0.660628
O O12 0.280719 0.222819 0.425706
O O13 0.278802 0.267750 0.677267
O O14 0.650116 0.500000 0.817282
O O15 0.704673 0.712661 0.854909
O O16 0.281909 0.000000 0.060284
O O17 0.304403 0.271516 0.866628
O O18 0.332912 0.000000 0.665417
#
# Coordination Sequence:
#
# PCOD9147159 Si02
#       7
#     4   4   4   4   4   4   4
#     4   8  15  29  54  85 110 138 177 224 273 319
#     4   9  16  31  56  82 110 142 179 223 271 323
#     4  10  20  37  60  82 109 143 179 223 275 326
#     4  10  19  34  57  84 110 140 181 227 271 319
#     4  11  24  38  56  82 112 146 184 225 273 325
#     4  11  23  38  55  79 114 150 183 222 272 326
#     4  10  21  36  57  83 108 142 184 222 269 327
#
# _framework density 20.084921999999999
#
# number of rings (size 3 to 8) (size 9 to 14) (size 15 to 20)
#    0.000    2.143    2.857    1.714    0.000    2.571 
#    0.000    5.714    0.000    4.286    0.000    0.000 
#    0.000    0.000    0.000    0.000    0.000    0.000 
#
# Total GULP energy -156276.577036 kJ/mol
# GULP energy per Si atom -5581.306323 kJ/mol
# Density = 2.003921 g / cm^3
# Si number density = 20.084922 Si / 1000 Ang^3
#
#
#
# Elastic Constant Matrix: (Units=GPa)
#
#
# Indices 1 2 3 4 5 6 
#
# 1 91.6746 -18.7997 56.1633 0.0000 -7.4627 0.0000
# 2 -18.7997 26.3797 -6.3313 0.0000 2.1908 0.0000
# 3 56.1633 -6.3313 162.4498 0.0000 -18.8994 0.0000
# 4 0.0000 0.0000 0.0000 2.0003 0.0000 -3.3702
# 5 -7.4627 2.1908 -18.8994 0.0000 32.3153 0.0000
# 6 0.0000 0.0000 0.0000 -3.3702 0.0000 26.3648
#
#
#
# Elastic Compliance Matrix: (Units=1/GPa)
#
#
# Indices 1 2 3 4 5 6 
#
# 1 0.016208 0.010302 -0.005202 0.000000 0.000002 0.000000
# 2 0.010302 0.044917 -0.002026 0.000000 -0.001851 0.000000
# 3 -0.005202 -0.002026 0.008317 0.000000 0.003800 0.000000
# 4 0.000000 0.000000 0.000000 0.637154 0.000000 0.081448
# 5 0.000002 -0.001851 0.003800 0.000000 0.033294 0.000000
# 6 0.000000 0.000000 0.000000 0.081448 0.000000 0.048341
#
#
# Mechanical properties :
#
#
# Convention : Reuss Voigt Hill
#
# Bulk Modulus (GPa) = 13.22936 38.06321 25.64629
# Shear Modulus (GPa) = 6.19364 28.76753 17.48059
#
# Velocity S-wave (km/s) = 1.75796 3.78867 2.95334
# Velocity P-wave (km/s) = 3.27438 6.17503 4.94230
#
# Compressibility (1/GPa) = 0.07558946
#
# Stress axis : x y z
#
# Youngs Moduli (GPa) = 61.69918 22.26331 120.23171
#
# Poissons Ratio (x) = -0.22935 0.62540
# Poissons Ratio (y) = -0.63562 0.24364
# Poissons Ratio (z) = 0.32094 0.04511
#
# Static dielectric constant tensor:
#      x y z
#    x 1.648870 0.000000 -0.003430 
#    y 0.000000 2.443820 0.000000 
#    z -0.003430 0.000000 1.749500 
# 
# From -- ./inp_files/36961.got.cif
#   From: 2010.05.17/outbox.cif.g08.bks.cpg/sg10_19_cif.got.tgz:36961.got - 2010.06.03 11:33:40.
