data_PCOD9147045
_publ_section_title
;
Structure prediction by ZEFSAII (Michael W. Deem and Ramdas Pophale) SiO2 
 PCOD9147045
Probable space group: P 2/M
;
_chemical_formula_sum "Si O2"
_cell_formula_units_Z 28
_cell_length_a 9.802706
_cell_length_b 8.032621
_cell_length_c 33.301225
_cell_angle_alpha 90.000000
_cell_angle_beta 33.558253
_cell_angle_gamma 90.000000
_cell_volume 1449.503719
_symmetry_space_group_name_H-M "P 2/M"
_symmetry_group_IT_number 10
_symmetry_cell_setting 'monoclinic'
loop_
_space_group_symop_operation_xyz
x,y,z
-x,y,-z
-x,-y,-z
x,-y,z
loop_
_atom_site_type_symbol
_atom_site_label
_atom_site_fract_x
_atom_site_fract_y
_atom_site_fract_z
Si Si1 0.732115 0.697069 0.262827
Si Si2 0.761506 0.312324 0.825856
Si Si3 0.284622 0.297880 0.430253
Si Si4 0.595223 0.695125 0.431862
Si Si5 0.118225 0.187836 0.287235
Si Si6 0.251835 0.800968 0.919044
Si Si7 0.605812 0.198808 0.205782
O O1 0.743633 0.500000 0.269526
O O2 0.489949 0.760774 0.346870
O O3 0.702936 0.721047 0.222511
O O4 0.000368 0.767276 0.210523
O O5 0.730148 0.500000 0.848736
O O6 0.489207 0.234348 0.888923
O O7 0.844875 0.308696 0.759041
O O8 0.271804 0.500000 0.428914
O O9 0.401327 0.259687 0.445019
O O10 0.000000 0.237486 0.500000
O O11 0.500000 0.711500 0.500000
O O12 0.658628 0.500000 0.409674
O O13 0.839612 0.801648 0.368181
O O14 0.311645 0.228181 0.274535
O O15 0.182486 0.000000 0.257508
O O16 0.294778 0.742566 0.862336
O O17 0.230042 0.000000 0.921381
O O18 0.000000 0.733821 0.000000
O O19 0.649207 0.000000 0.198085
#
# Coordination Sequence:
#
# PCOD9147045 Si02
#       7
#     4   4   4   4   4   4   4
#     4  10  20  34  54  79 109 143 180 225 271 320
#     4  10  19  34  56  82 109 138 179 222 264 320
#     4   9  18  33  50  73 105 139 179 226 272 316
#     4  10  20  33  52  76 101 134 181 231 278 325
#     4  10  20  35  53  74 104 142 181 225 272 319
#     4   9  19  38  61  84 111 143 179 218 264 320
#     4   9  20  35  53  79 107 137 178 220 261 318
#
# _framework density 19.316956000000001
#
# number of rings (size 3 to 8) (size 9 to 14) (size 15 to 20)
#    0.000    2.429    1.429    1.714    2.000    4.571 
#    0.000    0.714    0.000    5.143    0.000    0.000 
#    0.000    0.000    0.000    0.000    0.000    0.000 
#
# Total GULP energy -155933.621125 kJ/mol
# GULP energy per Si atom -5569.057897 kJ/mol
# Density = 1.927299 g / cm^3
# Si number density = 19.316956 Si / 1000 Ang^3
#
#
#
# Elastic Constant Matrix: (Units=GPa)
#
#
# Indices 1 2 3 4 5 6 
#
# 1 149.3808 8.5222 72.9856 0.0000 -17.3536 0.0000
# 2 8.5222 8.5762 14.3649 0.0000 -2.7356 0.0000
# 3 72.9856 14.3649 112.3874 0.0000 -26.7077 0.0000
# 4 0.0000 0.0000 0.0000 19.7844 0.0000 -0.5703
# 5 -17.3536 -2.7356 -26.7077 0.0000 27.7576 0.0000
# 6 0.0000 0.0000 0.0000 -0.5703 0.0000 17.2841
#
#
#
# Elastic Compliance Matrix: (Units=1/GPa)
#
#
# Indices 1 2 3 4 5 6 
#
# 1 0.009815 0.001178 -0.006532 0.000000 -0.000033 0.000000
# 2 0.001178 0.148980 -0.020928 0.000000 -0.004718 0.000000
# 3 -0.006532 -0.020928 0.018609 0.000000 0.011759 0.000000
# 4 0.000000 0.000000 0.000000 0.050593 0.000000 0.001669
# 5 -0.000033 -0.004718 0.011759 0.000000 0.046855 0.000000
# 6 0.000000 0.000000 0.000000 0.001669 0.000000 0.057912
#
#
# Mechanical properties :
#
#
# Convention : Reuss Voigt Hill
#
# Bulk Modulus (GPa) = 8.01030 51.34332 29.67681
# Shear Modulus (GPa) = 11.71120 24.59666 18.15393
#
# Velocity S-wave (km/s) = 2.46492 3.57223 3.06893
# Velocity P-wave (km/s) = 3.50098 6.60693 5.28717
#
# Compressibility (1/GPa) = 0.12483923
#
# Stress axis : x y z
#
# Youngs Moduli (GPa) = 101.88638 6.71230 53.73674
#
# Poissons Ratio (x) = -0.00790 0.35102
# Poissons Ratio (y) = -0.11999 1.12460
# Poissons Ratio (z) = 0.66555 0.14047
#
# Static dielectric constant tensor:
#      x y z
#    x 1.667590 0.000000 -0.030710 
#    y 0.000000 1.718190 0.000000 
#    z -0.030710 0.000000 1.686580 
# 
# From -- ./inp_files/37944.got.cif
#   From: 2010.05.17/outbox.cif.g08.bks.cpg/sg10_19_cif.got.tgz:37944.got - 2010.06.03 11:33:40.
