data_PCOD9147802
_publ_section_title
;
Structure prediction by ZEFSAII (Michael W. Deem and Ramdas Pophale) SiO2 
 PCOD9147802
Probable space group: P 2/M
;
_chemical_formula_sum "Si O2"
_cell_formula_units_Z 24
_cell_length_a 5.291268
_cell_length_b 13.428828
_cell_length_c 19.078587
_cell_angle_alpha 90.000000
_cell_angle_beta 90.000326
_cell_angle_gamma 90.000000
_cell_volume 1355.639070
_symmetry_space_group_name_H-M "P 2/M"
_symmetry_group_IT_number 10
_symmetry_cell_setting 'monoclinic'
loop_
_space_group_symop_operation_xyz
x,y,z
-x,y,-z
-x,-y,-z
x,-y,z
loop_
_atom_site_type_symbol
_atom_site_label
_atom_site_fract_x
_atom_site_fract_y
_atom_site_fract_z
Si Si1 0.750013 0.183192 0.355200
Si Si2 0.250013 0.310502 0.343310
Si Si3 0.249993 0.882914 0.802919
Si Si4 0.749999 0.000000 0.456207
Si Si5 0.250002 0.619139 0.044365
Si Si6 0.750001 0.500000 0.551360
Si Si7 0.749993 0.751576 0.818165
O O1 0.502362 0.250131 0.360818
O O2 0.750008 0.126649 0.281063
O O3 0.997683 0.250120 0.360821
O O4 0.749998 0.099083 0.411839
O O5 0.250001 0.407205 0.393489
O O6 0.250005 0.308471 0.256810
O O7 0.502415 0.822169 0.823968
O O8 0.997566 0.822172 0.823967
O O9 0.249996 0.000000 0.823350
O O10 0.500000 0.000000 0.500000
O O11 0.000000 0.000000 0.500000
O O12 0.250009 0.500000 0.055403
O O13 0.250001 0.674804 0.118089
O O14 0.500000 0.644778 0.000000
O O15 0.000000 0.644773 0.000000
O O16 0.500000 0.500000 0.500000
O O17 0.000000 0.500000 0.500000
#
# Coordination Sequence:
#
# PCOD9147802 Si02
#       7
#     4   4   4   2   4   2   4
#     4  10  21  39  55  81 112 142 190 243 286 337
#     4  10  23  39  61  83 110 152 196 241 281 336
#     4  10  19  36  60  84 115 148 195 241 282 331
#     4  12  24  34  54  82 110 148 182 234 302 350
#     4  10  21  38  61  90 124 157 187 233 293 346
#     4  12  26  42  60  82 114 156 192 236 300 350
#     4  10  21  36  62  90 114 154 194 240 283 334
#
# _framework density 17.703827
#
# number of rings (size 3 to 8) (size 9 to 14) (size 15 to 20)
#    0.000    1.667    0.833    3.500    1.167    4.000 
#    0.000    0.000    0.000   10.000    0.000    0.000 
#    0.000    0.000    0.000    0.000    0.000    0.000 
#
# Total GULP energy -133837.348640 kJ/mol
# GULP energy per Si atom -5576.556193 kJ/mol
# Density = 1.766353 g / cm^3
# Si number density = 17.703827 Si / 1000 Ang^3
#
#
#
# Elastic Constant Matrix: (Units=GPa)
#
#
# Indices 1 2 3 4 5 6 
#
# 1 190.5062 71.2939 86.8972 0.0000 0.0086 0.0000
# 2 71.2939 113.5130 100.3365 0.0000 0.0090 0.0000
# 3 86.8972 100.3365 141.7911 0.0000 0.0050 0.0000
# 4 0.0000 0.0000 0.0000 46.4615 0.0000 -0.0012
# 5 0.0086 0.0090 0.0050 0.0000 21.4022 0.0000
# 6 0.0000 0.0000 0.0000 -0.0012 0.0000 5.6513
#
#
#
# Elastic Compliance Matrix: (Units=1/GPa)
#
#
# Indices 1 2 3 4 5 6 
#
# 1 0.007408 -0.001708 -0.003331 0.000000 -0.000001 0.000000
# 2 -0.001708 0.023917 -0.015878 0.000000 -0.000006 0.000000
# 3 -0.003331 -0.015878 0.020330 0.000000 0.000003 0.000000
# 4 0.000000 0.000000 0.000000 0.021523 0.000000 0.000004
# 5 -0.000001 -0.000006 0.000003 0.000000 0.046724 0.000000
# 6 0.000000 0.000000 0.000000 0.000004 0.000000 0.176951
#
#
# Mechanical properties :
#
#
# Convention : Reuss Voigt Hill
#
# Bulk Modulus (GPa) = 101.82661 106.98505 104.40583
# Shear Modulus (GPa) = 14.62154 27.18850 20.90502
#
# Velocity S-wave (km/s) = 2.87696 3.92311 3.44003
# Velocity P-wave (km/s) = 8.28719 9.00459 8.65333
#
# Compressibility (1/GPa) = 0.00982062
#
# Stress axis : x y z
#
# Youngs Moduli (GPa) = 134.99071 41.81120 49.18874
#
# Poissons Ratio (x) = 0.07142 0.16386
# Poissons Ratio (y) = 0.23058 0.78101
# Poissons Ratio (z) = 0.44969 0.66387
#
# Static dielectric constant tensor:
#      x y z
#    x 1.603700 0.000000 0.000000 
#    y 0.000000 1.573340 0.000000 
#    z 0.000000 0.000000 1.591600 
# 
# From -- ./inp_files/73201.got.cif
#   From: 2010.05.17/outbox.cif.g08.bks.cpg/sg10_37_cif.got.tgz:73201.got - 2010.06.03 11:33:40.
