data_PCOD9147877
_publ_section_title
;
Structure prediction by ZEFSAII (Michael W. Deem and Ramdas Pophale) SiO2 
 PCOD9147877
Probable space group: P 2/M
;
_chemical_formula_sum "Si O2"
_cell_formula_units_Z 32
_cell_length_a 15.027364
_cell_length_b 7.954093
_cell_length_c 23.139176
_cell_angle_alpha 90.000000
_cell_angle_beta 151.204954
_cell_angle_gamma 90.000000
_cell_volume 1332.226549
_symmetry_space_group_name_H-M "P 2/M"
_symmetry_group_IT_number 10
_symmetry_cell_setting 'monoclinic'
loop_
_space_group_symop_operation_xyz
x,y,z
-x,y,-z
-x,-y,-z
x,-y,z
loop_
_atom_site_type_symbol
_atom_site_label
_atom_site_fract_x
_atom_site_fract_y
_atom_site_fract_z
Si Si1 0.953432 0.701270 0.541504
Si Si2 0.552966 0.701385 0.899466
Si Si3 0.555166 0.204871 0.466659
Si Si4 0.755792 0.194597 0.196843
Si Si5 0.278220 0.801134 0.209631
Si Si6 0.038882 0.300962 0.894412
Si Si7 0.568286 0.301305 0.289789
Si Si8 0.948403 0.203625 0.718777
O O1 0.967712 0.500000 0.560879
O O2 0.741127 0.765513 0.424964
O O3 0.000000 0.725500 0.500000
O O4 0.095762 0.785327 0.666456
O O5 0.564627 0.500000 0.901906
O O6 0.439179 0.737837 0.892177
O O7 0.436368 0.765385 0.777964
O O8 0.758466 0.769058 0.005770
O O9 0.500000 0.256160 0.500000
O O10 0.413841 0.265114 0.337790
O O11 0.767818 0.257452 0.580362
O O12 0.547434 0.000000 0.460979
O O13 0.864052 0.270513 0.203573
O O14 0.726437 0.000000 0.167825
O O15 0.367386 0.723910 0.203226
O O16 0.071321 0.767071 0.113164
O O17 0.300439 0.000000 0.216838
O O18 0.050868 0.500000 0.908569
O O19 0.927259 0.259035 0.772588
O O20 0.603682 0.500000 0.306235
O O21 0.952169 0.000000 0.720387
#
# Coordination Sequence:
#
# PCOD9147877 Si02
#       8
#     4   4   4   4   4   4   4   4
#     4  10  19  36  62  88 120 161 197 235 292 352
#     4  10  23  44  63  80 114 160 202 245 294 349
#     4   9  16  32  59  84 112 155 188 217 282 358
#     4  11  23  37  60  92 123 154 194 245 297 354
#     4  11  22  38  62  89 121 154 189 241 298 354
#     4  11  24  41  62  86 112 152 205 251 290 346
#     4  10  21  39  62  86 116 156 199 239 286 349
#     4  10  21  39  60  86 121 156 190 236 299 357
#
# _framework density 24.019939999999998
#
# number of rings (size 3 to 8) (size 9 to 14) (size 15 to 20)
#    0.000    1.750    2.500    1.875    0.000    5.250 
#    0.000    6.875    0.000    0.000    0.000    0.000 
#    0.000    0.000    0.000    0.000    0.000    0.000 
#
# Total GULP energy -178856.916352 kJ/mol
# GULP energy per Si atom -5589.278636 kJ/mol
# Density = 2.396527 g / cm^3
# Si number density = 24.019940 Si / 1000 Ang^3
#
#
#
# Elastic Constant Matrix: (Units=GPa)
#
#
# Indices 1 2 3 4 5 6 
#
# 1 115.1685 -9.9898 6.7074 0.0000 26.9745 0.0000
# 2 -9.9898 17.6228 -0.9828 0.0000 2.0554 0.0000
# 3 6.7074 -0.9828 57.5937 0.0000 28.8764 0.0000
# 4 0.0000 0.0000 0.0000 16.4898 0.0000 14.4750
# 5 26.9745 2.0554 28.8764 0.0000 42.6737 0.0000
# 6 0.0000 0.0000 0.0000 14.4750 0.0000 17.9792
#
#
#
# Elastic Compliance Matrix: (Units=1/GPa)
#
#
# Indices 1 2 3 4 5 6 
#
# 1 0.011586 0.008007 0.004015 0.000000 -0.010426 0.000000
# 2 0.008007 0.063086 0.006365 0.000000 -0.012407 0.000000
# 3 0.004015 0.006365 0.027894 0.000000 -0.021719 0.000000
# 4 0.000000 0.000000 0.000000 0.206781 0.000000 -0.166479
# 5 -0.010426 -0.012407 -0.021719 0.000000 0.045318 0.000000
# 6 0.000000 0.000000 0.000000 -0.166479 0.000000 0.189651
#
#
# Mechanical properties :
#
#
# Convention : Reuss Voigt Hill
#
# Bulk Modulus (GPa) = 7.17678 20.20605 13.69141
# Shear Modulus (GPa) = 9.02546 28.40524 18.71535
#
# Velocity S-wave (km/s) = 1.94053 3.44258 2.79437
# Velocity P-wave (km/s) = 2.83111 4.92263 4.01544
#
# Compressibility (1/GPa) = 0.13933834
#
# Stress axis : x y z
#
# Youngs Moduli (GPa) = 86.31446 15.85141 35.85032
#
# Poissons Ratio (x) = -0.12693 -0.14392
# Poissons Ratio (y) = -0.69115 -0.22817
# Poissons Ratio (z) = -0.34652 -0.10089
#
# Static dielectric constant tensor:
#      x y z
#    x 1.921890 0.000000 0.038050 
#    y 0.000000 1.840990 0.000000 
#    z 0.038050 0.000000 1.985150 
# 
# From -- ./inp_files/66471.got.cif
#   From: 2010.05.17/outbox.cif.g08.bks.cpg/sg10_34_cif.got.tgz:66471.got - 2010.06.03 11:33:40.
