data_PCOD9147233
_publ_section_title
;
Structure prediction by ZEFSAII (Michael W. Deem and Ramdas Pophale) SiO2 
 PCOD9147233
Probable space group: P 2/M
;
_chemical_formula_sum "Si O2"
_cell_formula_units_Z 32
_cell_length_a 12.362104
_cell_length_b 8.061459
_cell_length_c 29.866072
_cell_angle_alpha 90.000000
_cell_angle_beta 148.520054
_cell_angle_gamma 90.000000
_cell_volume 1554.250809
_symmetry_space_group_name_H-M "P 2/M"
_symmetry_group_IT_number 10
_symmetry_cell_setting 'monoclinic'
loop_
_space_group_symop_operation_xyz
x,y,z
-x,y,-z
-x,-y,-z
x,-y,z
loop_
_atom_site_type_symbol
_atom_site_label
_atom_site_fract_x
_atom_site_fract_y
_atom_site_fract_z
Si Si1 0.419316 0.304316 0.247953
Si Si2 0.762672 0.299675 0.910451
Si Si3 0.160746 0.797200 0.812362
Si Si4 0.431553 0.310968 0.545083
Si Si5 0.991251 0.798351 0.848512
Si Si6 0.809989 0.806887 0.624710
Si Si7 0.776729 0.805848 0.436486
Si Si8 0.382029 0.199152 0.045234
O O1 0.463918 0.500000 0.260443
O O2 0.344530 0.241089 0.173039
O O3 0.223251 0.276327 0.210951
O O4 0.616006 0.217499 0.339234
O O5 0.769698 0.500000 0.910925
O O6 0.640609 0.245175 0.911128
O O7 0.000000 0.240019 0.000000
O O8 0.397551 0.739630 0.894958
O O9 0.049775 0.749375 0.819025
O O10 0.022325 0.744103 0.721439
O O11 0.162683 0.000000 0.812200
O O12 0.502737 0.500000 0.571223
O O13 0.269159 0.286662 0.447113
O O14 0.630926 0.205896 0.599615
O O15 0.326302 0.268932 0.555116
O O16 0.975998 0.000000 0.845270
O O17 0.179537 0.742081 0.947067
O O18 0.832168 0.000000 0.620348
O O19 0.000000 0.736473 0.500000
O O20 0.804615 0.000000 0.456064
O O21 0.382404 0.000000 0.040611
#
# Coordination Sequence:
#
# PCOD9147233 Si02
#       8
#     4   4   4   4   4   4   4   4
#     4  11  23  39  62  88 116 153 195 240 291 346
#     4  10  21  39  58  79 116 156 191 235 289 344
#     4   9  19  34  53  82 117 150 187 238 293 340
#     4  11  22  38  61  87 118 151 193 244 295 354
#     4  10  19  34  58  84 115 153 194 237 285 342
#     4  10  19  35  60  86 117 158 201 243 294 349
#     4  11  25  44  64  87 117 152 193 244 301 361
#     4  10  20  34  56  84 113 149 196 243 284 333
#
# _framework density 20.588698000000001
#
# number of rings (size 3 to 8) (size 9 to 14) (size 15 to 20)
#    0.000    1.750    1.250    4.125    0.000    5.750 
#    0.000    6.250    0.000    1.500    0.000    0.000 
#    0.000    0.000    0.000    0.000    0.000    0.000 
#
# Total GULP energy -178807.278811 kJ/mol
# GULP energy per Si atom -5587.727463 kJ/mol
# Density = 2.054184 g / cm^3
# Si number density = 20.588698 Si / 1000 Ang^3
#
#
#
# Elastic Constant Matrix: (Units=GPa)
#
#
# Indices 1 2 3 4 5 6 
#
# 1 -16.3476 -10.4947 24.0292 0.0000 -24.3430 0.0000
# 2 -10.4947 19.9792 -9.3009 0.0000 -3.6068 0.0000
# 3 24.0292 -9.3009 115.1467 0.0000 4.3009 0.0000
# 4 0.0000 0.0000 0.0000 3.2090 0.0000 -15.9487
# 5 -24.3430 -3.6068 4.3009 0.0000 18.0618 0.0000
# 6 0.0000 0.0000 0.0000 -15.9487 0.0000 24.4778
#
#
#
# Elastic Compliance Matrix: (Units=1/GPa)
#
#
# Indices 1 2 3 4 5 6 
#
# 1 -0.015099 -0.010655 0.003158 0.000000 -0.023229 0.000000
# 2 -0.010655 0.046146 0.006198 0.000000 -0.006621 0.000000
# 3 0.003158 0.006198 0.008396 0.000000 0.003495 0.000000
# 4 0.000000 0.000000 0.000000 -0.139227 0.000000 -0.090714
# 5 -0.023229 -0.006621 0.003495 0.000000 0.021904 0.000000
# 6 0.000000 0.000000 0.000000 -0.090714 0.000000 -0.018252
#
#
# Mechanical properties :
#
#
# Convention : Reuss Voigt Hill
#
# Bulk Modulus (GPa) = 27.14056 14.13840 20.63948
# Shear Modulus (GPa) = -61.53482 16.78603 -22.37439
#
# Velocity S-wave (km/s) = -5.47289 2.85845 -3.30014
# Velocity P-wave (km/s) = 5.16971 4.21619 2.11537
#
# Compressibility (1/GPa) = 0.03684522
#
# Stress axis : x y z
#
# Youngs Moduli (GPa) = -66.22996 21.67058 119.10880
#
# Poissons Ratio (x) = 0.23089 -0.37614
# Poissons Ratio (y) = -0.70565 -0.73825
# Poissons Ratio (z) = 0.20915 -0.13432
#
# Static dielectric constant tensor:
#      x y z
#    x 1.706470 0.000000 -0.003700 
#    y 0.000000 1.733820 0.000000 
#    z -0.003700 0.000000 1.740050 
# 
# From -- ./inp_files/95018.got.cif
#   From: 2010.05.17/outbox.cif.g08.bks.cpg/sg10_48_cif.got.tgz:95018.got - 2010.06.03 11:33:40.
