data_PCOD9147319
_publ_section_title
;
Structure prediction by ZEFSAII (Michael W. Deem and Ramdas Pophale) SiO2 
 PCOD9147319
Probable space group: P 2/M
;
_chemical_formula_sum "Si O2"
_cell_formula_units_Z 21
_cell_length_a 19.429415
_cell_length_b 7.639485
_cell_length_c 10.692280
_cell_angle_alpha 90.000000
_cell_angle_beta 140.046505
_cell_angle_gamma 90.000000
_cell_volume 1019.157220
_symmetry_space_group_name_H-M "P 2/M"
_symmetry_group_IT_number 10
_symmetry_cell_setting 'monoclinic'
loop_
_space_group_symop_operation_xyz
x,y,z
-x,y,-z
-x,-y,-z
x,-y,z
loop_
_atom_site_type_symbol
_atom_site_label
_atom_site_fract_x
_atom_site_fract_y
_atom_site_fract_z
Si Si1 0.076645 0.711026 0.496008
Si Si2 0.678277 0.707214 0.149989
Si Si3 0.919661 0.790618 0.782105
Si Si4 0.500000 0.500000 0.500000
Si Si5 0.676269 0.789155 0.429886
Si Si6 0.531236 0.201852 0.718072
O O1 0.078874 0.500000 0.504849
O O2 0.198906 0.773009 0.684596
O O3 0.042763 0.757862 0.307679
O O4 0.000000 0.774881 0.500000
O O5 0.677607 0.500000 0.126018
O O6 0.642641 0.737748 0.242987
O O7 0.603959 0.792199 0.943021
O O8 0.797128 0.723027 0.621250
O O9 0.913155 0.000000 0.789328
O O10 0.000000 0.721930 0.000000
O O11 0.567068 0.343225 0.667359
O O12 0.586911 0.731282 0.403495
O O13 0.677505 0.000000 0.436371
O O14 0.527021 0.000000 0.671305
#
# Coordination Sequence:
#
# PCOD9147319 Si02
#       6
#     4   4   4   1   4   4
#     4   9  19  36  55  82 117 152 193 244 292 343
#     4  10  19  34  60  88 114 147 194 245 296 350
#     4   9  18  35  56  82 114 148 192 242 288 345
#     4  12  26  44  58  82 120 164 198 238 276 360
#     4   9  19  35  58  86 113 144 189 244 298 347
#     4  11  23  41  61  85 119 155 193 240 295 348
#
# _framework density 20.605260000000001
#
# number of rings (size 3 to 8) (size 9 to 14) (size 15 to 20)
#    0.000    2.286    0.952    1.429    1.333    3.810 
#    3.429    0.000    0.000    0.000    0.000    0.000 
#    0.000    0.000    0.000    0.000    0.000    0.000 
#
# Total GULP energy -116965.021267 kJ/mol
# GULP energy per Si atom -5569.762917 kJ/mol
# Density = 2.055836 g / cm^3
# Si number density = 20.605260 Si / 1000 Ang^3
#
#
#
# Elastic Constant Matrix: (Units=GPa)
#
#
# Indices 1 2 3 4 5 6 
#
# 1 78.9794 7.3945 43.8541 0.0000 -8.4507 0.0000
# 2 7.3945 78.0975 12.9787 0.0000 -0.6637 0.0000
# 3 43.8541 12.9787 152.8589 0.0000 -15.2954 0.0000
# 4 0.0000 0.0000 0.0000 24.7845 0.0000 -2.3716
# 5 -8.4507 -0.6637 -15.2954 0.0000 14.3501 0.0000
# 6 0.0000 0.0000 0.0000 -2.3716 0.0000 10.1233
#
#
#
# Elastic Compliance Matrix: (Units=1/GPa)
#
#
# Indices 1 2 3 4 5 6 
#
# 1 0.015405 -0.000775 -0.003861 0.000000 0.004920 0.000000
# 2 -0.000775 0.013032 -0.000973 0.000000 -0.000891 0.000000
# 3 -0.003861 -0.000973 0.008396 0.000000 0.006630 0.000000
# 4 0.000000 0.000000 0.000000 0.041273 0.000000 0.009669
# 5 0.004920 -0.000891 0.006630 0.000000 0.079609 0.000000
# 6 0.000000 0.000000 0.000000 0.009669 0.000000 0.101047
#
#
# Mechanical properties :
#
#
# Convention : Reuss Voigt Hill
#
# Bulk Modulus (GPa) = 39.04257 48.71006 43.87632
# Shear Modulus (GPa) = 17.95209 26.23213 22.09211
#
# Velocity S-wave (km/s) = 2.95488 3.57189 3.27794
# Velocity P-wave (km/s) = 5.53450 6.37983 5.97214
#
# Compressibility (1/GPa) = 0.02561307
#
# Stress axis : x y z
#
# Youngs Moduli (GPa) = 64.91568 76.73382 119.10679
#
# Poissons Ratio (x) = 0.05947 0.45991
# Poissons Ratio (y) = 0.05031 0.11593
# Poissons Ratio (z) = 0.25066 0.07469
#
# Static dielectric constant tensor:
#      x y z
#    x 1.777960 0.000000 -0.000890 
#    y 0.000000 1.789520 0.000000 
#    z -0.000890 0.000000 1.736690 
# 
# From -- ./inp_files/26817.got.cif
#   From: 2010.05.17/outbox.cif.g08.bks.cpg/sg10_14_cif.got.tgz:26817.got - 2010.06.03 11:33:40.
