data_PCOD9147675
_publ_section_title
;
Structure prediction by ZEFSAII (Michael W. Deem and Ramdas Pophale) SiO2 
 PCOD9147675
Probable space group: P 2/M
;
_chemical_formula_sum "Si O2"
_cell_formula_units_Z 32
_cell_length_a 31.408328
_cell_length_b 8.279678
_cell_length_c 11.564982
_cell_angle_alpha 90.000000
_cell_angle_beta 151.434956
_cell_angle_gamma 90.000000
_cell_volume 1438.046532
_symmetry_space_group_name_H-M "P 2/M"
_symmetry_group_IT_number 10
_symmetry_cell_setting 'monoclinic'
loop_
_space_group_symop_operation_xyz
x,y,z
-x,y,-z
-x,-y,-z
x,-y,z
loop_
_atom_site_type_symbol
_atom_site_label
_atom_site_fract_x
_atom_site_fract_y
_atom_site_fract_z
Si Si1 0.623095 0.187777 0.346474
Si Si2 0.504208 0.309890 0.257868
Si Si3 0.205101 0.820338 0.077355
Si Si4 0.673493 0.187126 0.061643
Si Si5 0.023857 0.683146 0.683729
Si Si6 0.322308 0.685509 0.177964
Si Si7 0.758974 0.802896 0.491303
Si Si8 0.042439 0.805306 0.978299
O O1 0.543079 0.271450 0.223656
O O2 0.707407 0.190849 0.635280
O O3 0.671348 0.259961 0.349088
O O4 0.599584 0.000000 0.271179
O O5 0.484334 0.500000 0.220418
O O6 0.584410 0.270050 0.538607
O O7 0.419598 0.207373 0.093278
O O8 0.242485 0.791058 0.038849
O O9 0.166987 0.000000 0.002235
O O10 0.130816 0.694010 0.934098
O O11 0.749199 0.236088 0.333423
O O12 0.685588 0.000000 0.058383
O O13 0.670671 0.292631 0.940960
O O14 0.990050 0.500000 0.600924
O O15 0.000000 0.758493 0.500000
O O16 0.000393 0.753794 0.754582
O O17 0.304937 0.500000 0.169073
O O18 0.853525 0.753320 0.768314
O O19 0.754891 0.000000 0.491202
O O20 0.040560 0.000000 0.975297
O O21 0.000000 0.750853 0.000000
#
# Coordination Sequence:
#
# PCOD9147675 Si02
#       8
#     4   4   4   4   4   4   4   4
#     4   9  17  34  59  81 108 144 188 237 289 344
#     4  10  21  36  54  79 113 150 194 245 298 348
#     4  10  19  35  62  88 110 145 196 243 285 345
#     4  11  22  35  54  80 115 156 200 243 292 351
#     4  11  24  40  60  91 130 163 197 247 307 368
#     4  10  21  37  56  80 116 155 191 241 301 352
#     4   9  19  37  58  84 115 148 189 243 296 348
#     4  10  21  41  68  94 122 159 205 255 306 364
#
# _framework density 22.252409
#
# number of rings (size 3 to 8) (size 9 to 14) (size 15 to 20)
#    0.000    2.000    1.250    2.250    0.000    6.250 
#    0.000    6.250    0.000    0.000    0.000    0.000 
#    0.000    0.000    0.000    0.000    0.000    0.000 
#
# Total GULP energy -178613.990538 kJ/mol
# GULP energy per Si atom -5581.687204 kJ/mol
# Density = 2.220176 g / cm^3
# Si number density = 22.252409 Si / 1000 Ang^3
#
#
#
# Elastic Constant Matrix: (Units=GPa)
#
#
# Indices 1 2 3 4 5 6 
#
# 1 129.5365 -0.7083 33.6341 0.0000 -24.2595 0.0000
# 2 -0.7083 13.2316 2.6726 0.0000 -6.7609 0.0000
# 3 33.6341 2.6726 46.8558 0.0000 -23.6112 0.0000
# 4 0.0000 0.0000 0.0000 11.8044 0.0000 -0.8672
# 5 -24.2595 -6.7609 -23.6112 0.0000 34.2482 0.0000
# 6 0.0000 0.0000 0.0000 -0.8672 0.0000 19.9286
#
#
#
# Elastic Compliance Matrix: (Units=1/GPa)
#
#
# Indices 1 2 3 4 5 6 
#
# 1 0.009866 0.003687 -0.005216 0.000000 0.004120 0.000000
# 2 0.003687 0.086357 0.003577 0.000000 0.022125 0.000000
# 3 -0.005216 0.003577 0.035820 0.000000 0.021706 0.000000
# 4 0.000000 0.000000 0.000000 0.084986 0.000000 0.003698
# 5 0.004120 0.022125 0.021706 0.000000 0.051449 0.000000
# 6 0.000000 0.000000 0.000000 0.003698 0.000000 0.050340
#
#
# Mechanical properties :
#
#
# Convention : Reuss Voigt Hill
#
# Bulk Modulus (GPa) = 7.34546 28.98008 18.16277
# Shear Modulus (GPa) = 13.88493 23.46462 18.67478
#
# Velocity S-wave (km/s) = 2.50066 3.25079 2.90008
# Velocity P-wave (km/s) = 3.41260 5.20978 4.40384
#
# Compressibility (1/GPa) = 0.13613848
#
# Stress axis : x y z
#
# Youngs Moduli (GPa) = 101.35830 11.57985 27.91712
#
# Poissons Ratio (x) = -0.04270 0.14562
# Poissons Ratio (y) = -0.37372 -0.09985
# Poissons Ratio (z) = 0.52869 -0.04142
#
# Static dielectric constant tensor:
#      x y z
#    x 1.847360 0.000000 -0.028470 
#    y 0.000000 1.792700 0.000000 
#    z -0.028470 0.000000 1.831560 
# 
# From -- ./inp_files/58230.got.cif
#   From: 2010.05.17/outbox.cif.g08.bks.cpg/sg10_30_cif.got.tgz:58230.got - 2010.06.03 11:33:40.
