data_PCOD9147353
_publ_section_title
;
Structure prediction by ZEFSAII (Michael W. Deem and Ramdas Pophale) SiO2 
 PCOD9147353
Probable space group: P 2/M
;
_chemical_formula_sum "Si O2"
_cell_formula_units_Z 26
_cell_length_a 17.343159
_cell_length_b 18.657328
_cell_length_c 16.520872
_cell_angle_alpha 90.000000
_cell_angle_beta 162.285955
_cell_angle_gamma 90.000000
_cell_volume 1626.540459
_symmetry_space_group_name_H-M "P 2/M"
_symmetry_group_IT_number 10
_symmetry_cell_setting 'monoclinic'
loop_
_space_group_symop_operation_xyz
x,y,z
-x,y,-z
-x,-y,-z
x,-y,z
loop_
_atom_site_type_symbol
_atom_site_label
_atom_site_fract_x
_atom_site_fract_y
_atom_site_fract_z
Si Si1 0.250001 0.500000 0.694797
Si Si2 0.749999 0.658412 0.308617
Si Si3 0.749999 0.844040 0.975556
Si Si4 0.250000 0.000000 0.933885
Si Si5 0.750001 0.783366 0.446830
Si Si6 0.749999 0.084078 0.804169
Si Si7 0.250000 0.151165 0.713987
Si Si8 0.249999 0.000000 0.675508
O O1 0.250000 0.577907 0.653263
O O2 0.000000 0.500000 0.500000
O O3 0.500000 0.500000 0.000000
O O4 0.749999 0.715615 0.383460
O O5 0.000000 0.663356 0.500000
O O6 0.500000 0.663356 0.000000
O O7 0.996207 0.797760 0.248378
O O8 0.749998 0.923388 0.018025
O O9 0.503788 0.797761 0.755957
O O10 0.750004 0.863998 0.881079
O O11 0.995055 0.000000 0.626474
O O12 0.504945 0.000000 0.136364
O O13 0.749999 0.846909 0.381272
O O14 0.500000 0.094591 0.500000
O O15 0.749994 0.000000 0.830769
O O16 0.000000 0.094588 0.000000
O O17 0.000000 0.184973 0.500000
O O18 0.250000 0.068421 0.733477
O O19 0.500000 0.184973 0.000000
#
# Coordination Sequence:
#
# PCOD9147353 Si02
#       8
#     2   4   4   2   4   4   4   2
#     4   8  16  30  54  76  96 130 168 210 254 286
#     4  10  19  35  53  75 103 134 175 213 245 294
#     4  12  22  37  53  70  97 127 159 204 251 306
#     4  12  20  37  48  65  86 120 162 206 244 299
#     4  12  23  34  50  70  97 132 161 199 254 297
#     4  10  21  36  56  77  93 118 160 210 256 300
#     4  12  22  33  43  58  82 117 163 206 240 265
#     4  12  22  35  46  57  82 116 168 216 246 275
#
# _framework density 15.984845999999999
#
# number of rings (size 3 to 8) (size 9 to 14) (size 15 to 20)
#    0.000    0.923    3.846    5.077    0.000    0.000 
#    0.000    0.000    0.000    0.000    0.000    0.000 
#    0.000    0.000    0.000   13.846    0.000    0.000 
#
# Total GULP energy -144854.827541 kJ/mol
# GULP energy per Si atom -5571.339521 kJ/mol
# Density = 1.594846 g / cm^3
# Si number density = 15.984846 Si / 1000 Ang^3
#
#
#
# Elastic Constant Matrix: (Units=GPa)
#
#
# Indices 1 2 3 4 5 6 
#
# 1 92.5515 32.1845 66.3803 0.0000 0.9994 0.0000
# 2 32.1845 127.6795 28.2373 0.0000 -1.1207 0.0000
# 3 66.3803 28.2373 161.7451 0.0000 18.6374 0.0000
# 4 0.0000 0.0000 0.0000 13.4587 0.0000 -1.2023
# 5 0.9994 -1.1207 18.6374 0.0000 19.8525 0.0000
# 6 0.0000 0.0000 0.0000 -1.2023 0.0000 17.6939
#
#
#
# Elastic Compliance Matrix: (Units=1/GPa)
#
#
# Indices 1 2 3 4 5 6 
#
# 1 0.016706 -0.002602 -0.007051 0.000000 0.005631 0.000000
# 2 -0.002602 0.008624 -0.000571 0.000000 0.001154 0.000000
# 3 -0.007051 -0.000571 0.010247 0.000000 -0.009297 0.000000
# 4 0.000000 0.000000 0.000000 0.074755 0.000000 0.005079
# 5 0.005631 0.001154 -0.009297 0.000000 0.058881 0.000000
# 6 0.000000 0.000000 0.000000 0.005079 0.000000 0.056862
#
#
# Mechanical properties :
#
#
# Convention : Reuss Voigt Hill
#
# Bulk Modulus (GPa) = 66.09294 70.62002 68.35648
# Shear Modulus (GPa) = 19.87552 27.21262 23.54407
#
# Velocity S-wave (km/s) = 3.53001 4.13049 3.84200
# Velocity P-wave (km/s) = 7.61916 8.18677 7.90806
#
# Compressibility (1/GPa) = 0.01513021
#
# Stress axis : x y z
#
# Youngs Moduli (GPa) = 59.85931 115.95007 97.58918
#
# Poissons Ratio (x) = 0.30174 0.68807
# Poissons Ratio (y) = 0.15578 0.05568
# Poissons Ratio (z) = 0.42205 0.06615
#
# Static dielectric constant tensor:
#      x y z
#    x 1.512030 0.000000 0.023690 
#    y 0.000000 1.595250 0.000000 
#    z 0.023690 0.000000 1.595490 
# 
# From -- ./inp_files/67839.got.cif
#   From: 2010.05.17/outbox.cif.g08.bks.cpg/sg10_34_cif.got.tgz:67839.got - 2010.06.03 11:33:40.
