data_PCOD9147491
_publ_section_title
;
Structure prediction by ZEFSAII (Michael W. Deem and Ramdas Pophale) SiO2 
 PCOD9147491
Probable space group: P 2/M
;
_chemical_formula_sum "Si O2"
_cell_formula_units_Z 28
_cell_length_a 12.392159
_cell_length_b 15.041823
_cell_length_c 8.279943
_cell_angle_alpha 90.000000
_cell_angle_beta 102.002640
_cell_angle_gamma 90.000000
_cell_volume 1509.645366
_symmetry_space_group_name_H-M "P 2/M"
_symmetry_group_IT_number 10
_symmetry_cell_setting 'monoclinic'
loop_
_space_group_symop_operation_xyz
x,y,z
-x,y,-z
-x,-y,-z
x,-y,z
loop_
_atom_site_type_symbol
_atom_site_label
_atom_site_fract_x
_atom_site_fract_y
_atom_site_fract_z
Si Si1 0.684924 0.395903 0.153189
Si Si2 0.540553 0.729406 0.334830
Si Si3 0.898988 0.180101 0.088263
Si Si4 0.307603 0.267988 0.141567
Si Si5 0.836276 0.000000 0.604254
Si Si6 0.749583 0.194340 0.545230
Si Si7 0.100279 0.689553 0.632728
Si Si8 0.914796 0.000000 0.259339
O O1 0.663274 0.500000 0.141379
O O2 0.597059 0.344034 0.238315
O O3 0.802937 0.374929 0.275232
O O4 0.684980 0.354287 0.972080
O O5 0.500000 0.695599 0.500000
O O6 0.433063 0.764910 0.207554
O O7 0.635757 0.800115 0.408554
O O8 0.939273 0.256980 0.222585
O O9 0.872838 0.089719 0.170086
O O10 0.783747 0.209955 0.976416
O O11 0.000000 0.165704 0.000000
O O12 0.262931 0.264724 0.311513
O O13 0.774454 0.094038 0.611668
O O14 0.876509 0.000000 0.431521
O O15 0.953312 0.000000 0.730014
O O16 0.844846 0.233786 0.461897
O O17 0.000000 0.648890 0.500000
#
# Coordination Sequence:
#
# PCOD9147491 Si02
#       8
#     4   4   4   4   2   4   4   2
#     4  10  22  38  59  87 115 143 181 234 288 337
#     4   9  20  39  61  84 110 148 189 228 275 338
#     4  11  21  33  54  84 118 149 189 232 282 332
#     4  10  21  37  57  81 113 149 186 229 283 337
#     4  11  20  34  58  81 116 149 197 238 270 315
#     4  10  20  37  58  82 111 154 195 233 272 327
#     4  10  19  35  58  80 113 153 191 225 278 337
#     4  11  21  32  51  85 116 149 188 242 274 321
#
# _framework density 18.547402999999999
#
# number of rings (size 3 to 8) (size 9 to 14) (size 15 to 20)
#    0.000    1.857    1.429    3.214    0.000    2.286 
#    0.000    9.643    0.000   15.429    0.000    0.000 
#    0.000    0.000    0.000    0.000    0.000    0.000 
#
# Total GULP energy -155970.687613 kJ/mol
# GULP energy per Si atom -5570.381700 kJ/mol
# Density = 1.850519 g / cm^3
# Si number density = 18.547403 Si / 1000 Ang^3
#
#
#
# Elastic Constant Matrix: (Units=GPa)
#
#
# Indices 1 2 3 4 5 6 
#
# 1 65.8675 13.4941 34.3084 0.0000 9.8992 0.0000
# 2 13.4941 58.4334 18.1148 0.0000 -2.0698 0.0000
# 3 34.3084 18.1148 84.3763 0.0000 18.6246 0.0000
# 4 0.0000 0.0000 0.0000 27.0646 0.0000 2.5659
# 5 9.8992 -2.0698 18.6246 0.0000 46.7046 0.0000
# 6 0.0000 0.0000 0.0000 2.5659 0.0000 4.9187
#
#
#
# Elastic Compliance Matrix: (Units=1/GPa)
#
#
# Indices 1 2 3 4 5 6 
#
# 1 0.019603 -0.002359 -0.007154 0.000000 -0.001407 0.000000
# 2 -0.002359 0.018913 -0.003724 0.000000 0.002823 0.000000
# 3 -0.007154 -0.003724 0.016735 0.000000 -0.005322 0.000000
# 4 0.000000 0.000000 0.000000 0.038871 0.000000 -0.020278
# 5 -0.001407 0.002823 -0.005322 0.000000 0.023957 0.000000
# 6 0.000000 0.000000 0.000000 -0.020278 0.000000 0.213885
#
#
# Mechanical properties :
#
#
# Convention : Reuss Voigt Hill
#
# Bulk Modulus (GPa) = 34.75097 37.83464 36.29281
# Shear Modulus (GPa) = 13.58583 25.25490 19.42037
#
# Velocity S-wave (km/s) = 2.70940 3.69405 3.23935
# Velocity P-wave (km/s) = 5.34460 6.21593 5.79666
#
# Compressibility (1/GPa) = 0.02877617
#
# Stress axis : x y z
#
# Youngs Moduli (GPa) = 51.01284 52.87405 59.75537
#
# Poissons Ratio (x) = 0.12473 0.42748
# Poissons Ratio (y) = 0.12034 0.22255
# Poissons Ratio (z) = 0.36494 0.19693
#
# Static dielectric constant tensor:
#      x y z
#    x 1.654010 0.000000 0.002230 
#    y 0.000000 1.597090 0.000000 
#    z 0.002230 0.000000 1.716490 
# 
# From -- ./inp_files/25087.got.cif
#   From: 2010.05.17/outbox.cif.g08.bks.cpg/sg10_13_cif.got.tgz:25087.got - 2010.06.03 11:33:40.
