data_PCOD9147878
_publ_section_title
;
Structure prediction by ZEFSAII (Michael W. Deem and Ramdas Pophale) SiO2 
 PCOD9147878
Probable space group: P 2/M
;
_chemical_formula_sum "Si O2"
_cell_formula_units_Z 22
_cell_length_a 9.527836
_cell_length_b 8.302279
_cell_length_c 13.952469
_cell_angle_alpha 90.000000
_cell_angle_beta 115.004348
_cell_angle_gamma 90.000000
_cell_volume 1000.237206
_symmetry_space_group_name_H-M "P 2/M"
_symmetry_group_IT_number 10
_symmetry_cell_setting 'monoclinic'
loop_
_space_group_symop_operation_xyz
x,y,z
-x,y,-z
-x,-y,-z
x,-y,z
loop_
_atom_site_type_symbol
_atom_site_label
_atom_site_fract_x
_atom_site_fract_y
_atom_site_fract_z
Si Si1 0.291172 0.306976 0.146089
Si Si2 0.500000 0.253749 0.500000
Si Si3 0.120094 0.189072 0.711819
Si Si4 0.799407 0.691383 0.672949
Si Si5 0.323133 0.192600 0.950797
Si Si6 0.382399 0.318533 0.674838
O O1 0.294198 0.500000 0.136878
O O2 0.187867 0.271579 0.209829
O O3 0.466261 0.254135 0.225432
O O4 0.250043 0.233471 0.032439
O O5 0.336944 0.195924 0.408155
O O6 0.430219 0.326879 0.577834
O O7 0.221151 0.249361 0.832086
O O8 0.231178 0.216355 0.653353
O O9 0.958783 0.281119 0.665114
O O10 0.087936 0.000000 0.714344
O O11 0.753062 0.500000 0.651978
O O12 0.332782 0.000000 0.944000
O O13 0.500000 0.257226 0.000000
O O14 0.351718 0.500000 0.699361
#
# Coordination Sequence:
#
# PCOD9147878 Si02
#       6
#     4   2   4   4   4   4
#     4   9  19  34  58  88 116 147 191 241 285 332
#     4  10  21  42  69  88 109 148 197 238 287 352
#     4  11  24  39  56  85 122 154 191 236 283 340
#     4  10  21  40  62  87 116 149 191 240 289 339
#     4  10  20  36  57  81 115 161 197 226 276 342
#     4  10  19  36  62  89 113 146 191 240 287 337
#
# _framework density 21.994781
#
# number of rings (size 3 to 8) (size 9 to 14) (size 15 to 20)
#    0.000    2.000    1.818    3.273    0.000    4.000 
#    0.000   10.909    0.000    0.000    0.000    0.000 
#    0.000    0.000    0.000    0.000    0.000    0.000 
#
# Total GULP energy -122609.722092 kJ/mol
# GULP energy per Si atom -5573.169186 kJ/mol
# Density = 2.194472 g / cm^3
# Si number density = 21.994781 Si / 1000 Ang^3
#
#
#
# Elastic Constant Matrix: (Units=GPa)
#
#
# Indices 1 2 3 4 5 6 
#
# 1 109.3644 14.9239 25.7527 0.0000 -9.7139 0.0000
# 2 14.9239 21.8823 10.9881 0.0000 2.5540 0.0000
# 3 25.7527 10.9881 86.6712 0.0000 -12.6362 0.0000
# 4 0.0000 0.0000 0.0000 -90.2003 0.0000 71.1998
# 5 -9.7139 2.5540 -12.6362 0.0000 25.7868 0.0000
# 6 0.0000 0.0000 0.0000 71.1998 0.0000 -78.9494
#
#
#
# Elastic Compliance Matrix: (Units=1/GPa)
#
#
# Indices 1 2 3 4 5 6 
#
# 1 0.010860 -0.006974 -0.001772 0.000000 0.003913 0.000000
# 2 -0.006974 0.055065 -0.006555 0.000000 -0.011293 0.000000
# 3 -0.001772 -0.006555 0.013885 0.000000 0.006786 0.000000
# 4 0.000000 0.000000 0.000000 -0.038477 0.000000 -0.034701
# 5 0.003913 -0.011293 0.006786 0.000000 0.044697 0.000000
# 6 0.000000 0.000000 0.000000 -0.034701 0.000000 -0.043961
#
#
# Mechanical properties :
#
#
# Convention : Reuss Voigt Hill
#
# Bulk Modulus (GPa) = 20.32214 35.69414 28.00814
# Shear Modulus (GPa) = 56.13281 -17.58903 19.27189
#
# Velocity S-wave (km/s) = 5.05731 -2.83095 2.96328
# Velocity P-wave (km/s) = 6.58494 2.36178 4.94669
#
# Compressibility (1/GPa) = 0.04920742
#
# Stress axis : x y z
#
# Youngs Moduli (GPa) = 92.07870 18.16036 72.02090
#
# Poissons Ratio (x) = 0.12664 0.12764
# Poissons Ratio (y) = 0.64212 0.47213
# Poissons Ratio (z) = 0.16319 0.11905
#
# Static dielectric constant tensor:
#      x y z
#    x 1.797950 0.000000 0.012850 
#    y 0.000000 1.787780 0.000000 
#    z 0.012850 0.000000 1.812320 
# 
# From -- ./inp_files/60358.got.cif
#   From: 2010.05.17/outbox.cif.g08.bks.cpg/sg10_31_cif.got.tgz:60358.got - 2010.06.03 11:33:40.
