data_PCOD9147060
_publ_section_title
;
Structure prediction by ZEFSAII (Michael W. Deem and Ramdas Pophale) SiO2 
 PCOD9147060
Probable space group: P 2/M
;
_chemical_formula_sum "Si O2"
_cell_formula_units_Z 24
_cell_length_a 14.606764
_cell_length_b 7.678074
_cell_length_c 17.799473
_cell_angle_alpha 90.000000
_cell_angle_beta 144.384664
_cell_angle_gamma 90.000000
_cell_volume 1162.493437
_symmetry_space_group_name_H-M "P 2/M"
_symmetry_group_IT_number 10
_symmetry_cell_setting 'monoclinic'
loop_
_space_group_symop_operation_xyz
x,y,z
-x,y,-z
-x,-y,-z
x,-y,z
loop_
_atom_site_type_symbol
_atom_site_label
_atom_site_fract_x
_atom_site_fract_y
_atom_site_fract_z
Si Si1 0.752837 0.296650 0.513597
Si Si2 0.948326 0.789285 0.382572
Si Si3 0.410975 0.786605 0.865308
Si Si4 0.315032 0.291069 0.368502
Si Si5 0.175824 0.203379 0.116327
Si Si6 0.465883 0.205787 0.213502
O O1 0.713188 0.500000 0.493610
O O2 0.756696 0.226189 0.600881
O O3 0.615339 0.222143 0.368970
O O4 0.921029 0.274370 0.587712
O O5 0.770478 0.731957 0.250852
O O6 0.000000 0.733781 0.500000
O O7 0.951298 0.000000 0.382515
O O8 0.487722 0.725060 0.837991
O O9 0.411887 0.000000 0.863810
O O10 0.500000 0.732442 0.000000
O O11 0.500000 0.256670 0.500000
O O12 0.293080 0.500000 0.347262
O O13 0.245329 0.212767 0.246487
O O14 0.309204 0.278828 0.149263
O O15 0.158343 0.000000 0.083507
O O16 0.000000 0.280828 0.000000
O O17 0.439486 0.000000 0.185904
#
# Coordination Sequence:
#
# PCOD9147060 Si02
#       6
#     4   4   4   4   4   4
#     4  11  22  35  56  84 112 145 189 234 278 324
#     4  10  19  34  56  83 110 141 184 226 272 330
#     4   9  18  33  55  81 109 145 183 220 268 330
#     4  10  21  38  57  80 111 149 193 232 273 335
#     4  10  22  37  57  88 119 146 184 237 291 338
#     4  10  19  35  57  80 111 147 185 228 280 337
#
# _framework density 20.645278999999999
#
# number of rings (size 3 to 8) (size 9 to 14) (size 15 to 20)
#    0.000    2.000    3.333    0.500    0.000    3.667 
#    0.000    3.333    0.000    2.000    0.000    0.000 
#    0.000    0.000    0.000    0.000    0.000    0.000 
#
# Total GULP energy -133995.093166 kJ/mol
# GULP energy per Si atom -5583.128882 kJ/mol
# Density = 2.059829 g / cm^3
# Si number density = 20.645279 Si / 1000 Ang^3
#
#
#
# Elastic Constant Matrix: (Units=GPa)
#
#
# Indices 1 2 3 4 5 6 
#
# 1 172.4835 0.3172 50.2641 0.0000 17.1604 0.0000
# 2 0.3172 32.2974 -1.3256 0.0000 3.3707 0.0000
# 3 50.2641 -1.3256 115.6123 0.0000 17.7204 0.0000
# 4 0.0000 0.0000 0.0000 3.8880 0.0000 -12.5002
# 5 17.1604 3.3707 17.7204 0.0000 31.7354 0.0000
# 6 0.0000 0.0000 0.0000 -12.5002 0.0000 4.1666
#
#
#
# Elastic Compliance Matrix: (Units=1/GPa)
#
#
# Indices 1 2 3 4 5 6 
#
# 1 0.006778 0.000058 -0.002606 0.000000 -0.002216 0.000000
# 2 0.000058 0.031405 0.000931 0.000000 -0.003887 0.000000
# 3 -0.002606 0.000931 0.010490 0.000000 -0.004547 0.000000
# 4 0.000000 0.000000 0.000000 -0.029750 0.000000 -0.089252
# 5 -0.002216 -0.003887 -0.004547 0.000000 0.035660 0.000000
# 6 0.000000 0.000000 0.000000 -0.089252 0.000000 -0.027761
#
#
# Mechanical properties :
#
#
# Convention : Reuss Voigt Hill
#
# Bulk Modulus (GPa) = 22.00828 46.54499 34.27663
# Shear Modulus (GPa) = 110.60709 26.03383 68.32046
#
# Velocity S-wave (km/s) = 7.32744 3.55492 5.75885
# Velocity P-wave (km/s) = 9.07038 6.28044 7.80114
#
# Compressibility (1/GPa) = 0.04543744
#
# Stress axis : x y z
#
# Youngs Moduli (GPa) = 147.54672 31.84159 95.32541
#
# Poissons Ratio (x) = -0.00184 0.24845
# Poissons Ratio (y) = -0.00851 -0.08872
# Poissons Ratio (z) = 0.38456 -0.02964
#
# Static dielectric constant tensor:
#      x y z
#    x 1.788780 0.000000 0.025000 
#    y 0.000000 1.771950 0.000000 
#    z 0.025000 0.000000 1.690460 
# 
# From -- ./inp_files/60273.got.cif
#   From: 2010.05.17/outbox.cif.g08.bks.cpg/sg10_31_cif.got.tgz:60273.got - 2010.06.03 11:33:40.
