data_PCOD9147417
_publ_section_title
;
Structure prediction by ZEFSAII (Michael W. Deem and Ramdas Pophale) SiO2 
 PCOD9147417
Probable space group: P 2/M
;
_chemical_formula_sum "Si O2"
_cell_formula_units_Z 28
_cell_length_a 11.518674
_cell_length_b 7.496822
_cell_length_c 15.217116
_cell_angle_alpha 90.000000
_cell_angle_beta 66.778597
_cell_angle_gamma 90.000000
_cell_volume 1207.596744
_symmetry_space_group_name_H-M "P 2/M"
_symmetry_group_IT_number 10
_symmetry_cell_setting 'monoclinic'
loop_
_space_group_symop_operation_xyz
x,y,z
-x,y,-z
-x,-y,-z
x,-y,z
loop_
_atom_site_type_symbol
_atom_site_label
_atom_site_fract_x
_atom_site_fract_y
_atom_site_fract_z
Si Si1 0.527706 0.285003 0.589864
Si Si2 0.196076 0.282091 0.437150
Si Si3 0.079473 0.294347 0.647276
Si Si4 0.734045 0.792475 0.264421
Si Si5 0.357682 0.795985 0.031691
Si Si6 0.179515 0.285729 0.238381
Si Si7 0.147396 0.218224 0.953603
O O1 0.500000 0.219648 0.500000
O O2 0.529703 0.500000 0.587058
O O3 0.663977 0.224000 0.578860
O O4 0.415476 0.230718 0.687576
O O5 0.190255 0.500000 0.441657
O O6 0.105490 0.216954 0.542896
O O7 0.179350 0.234645 0.340996
O O8 0.044950 0.500000 0.641036
O O9 0.206094 0.291537 0.666244
O O10 0.964023 0.227351 0.742106
O O11 0.795241 0.724417 0.156974
O O12 0.765131 0.000000 0.261612
O O13 0.287818 0.795038 0.146452
O O14 0.378395 0.000000 0.995029
O O15 0.500000 0.717496 0.000000
O O16 0.248766 0.721384 0.998021
O O17 0.196686 0.500000 0.224393
O O18 0.145436 0.000000 0.958836
O O19 0.000000 0.275285 0.000000
#
# Coordination Sequence:
#
# PCOD9147417 Si02
#       7
#     4   4   4   4   4   4   4
#     4  10  19  35  56  78 110 151 187 220 269 334
#     4   9  18  34  56  81 111 149 185 217 268 336
#     4  10  19  36  58  82 114 149 184 219 270 339
#     4  11  22  34  56  85 112 142 184 234 279 322
#     4  10  22  40  60  80 109 151 192 231 282 344
#     4  10  21  36  59  86 110 142 186 235 276 319
#     4   9  19  37  58  79 107 146 188 228 280 341
#
# _framework density 23.186547999999998
#
# number of rings (size 3 to 8) (size 9 to 14) (size 15 to 20)
#    0.000    2.143    1.429    1.714    2.000    4.000 
#    0.000    2.143    0.000    5.571    0.000    0.000 
#    0.000    0.000    0.000    0.000    0.000    0.000 
#
# Total GULP energy -156282.887349 kJ/mol
# GULP energy per Si atom -5581.531691 kJ/mol
# Density = 2.313377 g / cm^3
# Si number density = 23.186548 Si / 1000 Ang^3
#
#
#
# Elastic Constant Matrix: (Units=GPa)
#
#
# Indices 1 2 3 4 5 6 
#
# 1 138.6858 3.1255 55.2888 0.0000 -19.5408 0.0000
# 2 3.1255 61.8313 -3.0513 0.0000 1.8543 0.0000
# 3 55.2888 -3.0513 149.9781 0.0000 -27.4824 0.0000
# 4 0.0000 0.0000 0.0000 14.6685 0.0000 -5.1601
# 5 -19.5408 1.8543 -27.4824 0.0000 45.2320 0.0000
# 6 0.0000 0.0000 0.0000 -5.1601 0.0000 -7.6246
#
#
#
# Elastic Compliance Matrix: (Units=1/GPa)
#
#
# Indices 1 2 3 4 5 6 
#
# 1 0.008638 -0.000637 -0.002823 0.000000 0.002043 0.000000
# 2 -0.000637 0.016247 0.000442 0.000000 -0.000673 0.000000
# 3 -0.002823 0.000442 0.008429 0.000000 0.003884 0.000000
# 4 0.000000 0.000000 0.000000 0.055064 0.000000 -0.037266
# 5 0.002043 -0.000673 0.003884 0.000000 0.025378 0.000000
# 6 0.000000 0.000000 0.000000 -0.037266 0.000000 -0.105934
#
#
# Mechanical properties :
#
#
# Convention : Reuss Voigt Hill
#
# Bulk Modulus (GPa) = 36.65931 51.24680 43.95305
# Shear Modulus (GPa) = 217.85372 30.13066 123.99219
#
# Velocity S-wave (km/s) = 9.70365 3.60875 7.32066
# Velocity P-wave (km/s) = 11.89087 6.28602 9.51070
#
# Compressibility (1/GPa) = 0.02727820
#
# Stress axis : x y z
#
# Youngs Moduli (GPa) = 115.76520 61.54889 118.63810
#
# Poissons Ratio (x) = 0.03922 0.33493
# Poissons Ratio (y) = 0.07377 -0.05246
# Poissons Ratio (z) = 0.32682 -0.02722
#
# Static dielectric constant tensor:
#      x y z
#    x 1.890450 0.000000 0.005600 
#    y 0.000000 1.898460 0.000000 
#    z 0.005600 0.000000 1.827350 
# 
# From -- ./inp_files/49109.got.cif
#   From: 2010.05.17/outbox.cif.g08.bks.cpg/sg10_25_cif.got.tgz:49109.got - 2010.06.03 11:33:40.
