data_PCOD9147892
_publ_section_title
;
Structure prediction by ZEFSAII (Michael W. Deem and Ramdas Pophale) SiO2 
 PCOD9147892
Probable space group: P 2/M
;
_chemical_formula_sum "Si O2"
_cell_formula_units_Z 24
_cell_length_a 15.251709
_cell_length_b 7.606489
_cell_length_c 10.158323
_cell_angle_alpha 90.000000
_cell_angle_beta 71.905223
_cell_angle_gamma 90.000000
_cell_volume 1120.203736
_symmetry_space_group_name_H-M "P 2/M"
_symmetry_group_IT_number 10
_symmetry_cell_setting 'monoclinic'
loop_
_space_group_symop_operation_xyz
x,y,z
-x,y,-z
-x,-y,-z
x,-y,z
loop_
_atom_site_type_symbol
_atom_site_label
_atom_site_fract_x
_atom_site_fract_y
_atom_site_fract_z
Si Si1 0.778436 0.200108 0.865881
Si Si2 0.895214 0.711675 0.560000
Si Si3 0.221183 0.712816 0.644370
Si Si4 0.423835 0.292937 0.137099
Si Si5 0.103771 0.295637 0.940817
Si Si6 0.416396 0.284539 0.443733
O O1 0.838834 0.208770 0.705900
O O2 0.678030 0.276082 0.877896
O O3 0.764233 0.000000 0.914043
O O4 0.839365 0.289112 0.950593
O O5 0.895007 0.500000 0.580501
O O6 0.844209 0.748249 0.448253
O O7 0.000000 0.771409 0.500000
O O8 0.230286 0.500000 0.654213
O O9 0.170259 0.781714 0.797662
O O10 0.322142 0.776519 0.556715
O O11 0.444708 0.500000 0.140895
O O12 0.423981 0.223636 0.287804
O O13 0.500000 0.218817 0.000000
O O14 0.089604 0.500000 0.909307
O O15 0.000000 0.219448 0.000000
O O16 0.500000 0.234380 0.500000
O O17 0.413862 0.500000 0.440069
#
# Coordination Sequence:
#
# PCOD9147892 Si02
#       6
#     4   4   4   4   4   4
#     4  12  25  39  57  85 127 167 195 237 298 367
#     4  10  19  36  63  89 113 147 197 251 295 344
#     4   9  17  31  55  84 113 142 182 247 303 339
#     4  10  21  38  63  89 113 150 202 255 301 351
#     4  10  21  38  61  88 116 152 203 252 293 344
#     4   9  17  30  53  87 115 135 176 241 304 349
#
# _framework density 21.424674
#
# number of rings (size 3 to 8) (size 9 to 14) (size 15 to 20)
#    0.000    2.000    1.667    2.500    2.333    3.667 
#    0.000    0.833    0.000    0.500    0.000    0.000 
#    0.000    0.000    0.000    0.000    0.000    0.000 
#
# Total GULP energy -134020.120513 kJ/mol
# GULP energy per Si atom -5584.171688 kJ/mol
# Density = 2.137591 g / cm^3
# Si number density = 21.424674 Si / 1000 Ang^3
#
#
#
# Elastic Constant Matrix: (Units=GPa)
#
#
# Indices 1 2 3 4 5 6 
#
# 1 203.7324 3.7164 106.2236 0.0000 -36.6111 0.0000
# 2 3.7164 38.7588 10.6472 0.0000 -1.1552 0.0000
# 3 106.2236 10.6472 177.0489 0.0000 -36.9601 0.0000
# 4 0.0000 0.0000 0.0000 3.8685 0.0000 -10.2814
# 5 -36.6111 -1.1552 -36.9601 0.0000 37.5546 0.0000
# 6 0.0000 0.0000 0.0000 -10.2814 0.0000 -5.5055
#
#
#
# Elastic Compliance Matrix: (Units=1/GPa)
#
#
# Indices 1 2 3 4 5 6 
#
# 1 0.007525 0.000426 -0.003783 0.000000 0.003625 0.000000
# 2 0.000426 0.026284 -0.001989 0.000000 -0.000734 0.000000
# 3 -0.003783 -0.001989 0.009131 0.000000 0.005237 0.000000
# 4 0.000000 0.000000 0.000000 0.043349 0.000000 -0.080953
# 5 0.003625 -0.000734 0.005237 0.000000 0.035293 0.000000
# 6 0.000000 0.000000 0.000000 -0.080953 0.000000 -0.030459
#
#
# Mechanical properties :
#
#
# Convention : Reuss Voigt Hill
#
# Bulk Modulus (GPa) = 31.01158 73.41272 52.21215
# Shear Modulus (GPa) = 44.41859 27.11372 35.76616
#
# Velocity S-wave (km/s) = 4.55823 3.56130 4.09025
# Velocity P-wave (km/s) = 6.49688 7.15893 6.83593
#
# Compressibility (1/GPa) = 0.03224602
#
# Stress axis : x y z
#
# Youngs Moduli (GPa) = 132.89548 38.04543 109.51785
#
# Poissons Ratio (x) = -0.01620 0.41435
# Poissons Ratio (y) = -0.05659 0.21788
# Poissons Ratio (z) = 0.50280 0.07569
#
# Static dielectric constant tensor:
#      x y z
#    x 1.738620 0.000000 -0.014870 
#    y 0.000000 1.788860 0.000000 
#    z -0.014870 0.000000 1.746090 
# 
# From -- ./inp_files/27022.got.cif
#   From: 2010.05.17/outbox.cif.g08.bks.cpg/sg10_14_cif.got.tgz:27022.got - 2010.06.03 11:33:40.
