data_PCOD9147746
_publ_section_title
;
Structure prediction by ZEFSAII (Michael W. Deem and Ramdas Pophale) SiO2 
 PCOD9147746
Probable space group: P 2/M
;
_chemical_formula_sum "Si O2"
_cell_formula_units_Z 24
_cell_length_a 12.257288
_cell_length_b 7.444209
_cell_length_c 25.275529
_cell_angle_alpha 90.000000
_cell_angle_beta 26.001522
_cell_angle_gamma 90.000000
_cell_volume 1011.064394
_symmetry_space_group_name_H-M "P 2/M"
_symmetry_group_IT_number 10
_symmetry_cell_setting 'monoclinic'
loop_
_space_group_symop_operation_xyz
x,y,z
-x,y,-z
-x,-y,-z
x,-y,z
loop_
_atom_site_type_symbol
_atom_site_label
_atom_site_fract_x
_atom_site_fract_y
_atom_site_fract_z
Si Si1 0.060482 0.782955 0.533757
Si Si2 0.231421 0.704548 0.636367
Si Si3 0.794273 0.794769 0.125752
Si Si4 0.427367 0.704937 0.198136
Si Si5 0.661654 0.279868 0.877944
Si Si6 0.623179 0.218718 0.311541
O O1 0.334980 0.731079 0.431779
O O2 0.000000 0.724039 0.500000
O O3 0.862713 0.711080 0.661457
O O4 0.046696 0.000000 0.539983
O O5 0.500000 0.785017 0.500000
O O6 0.228745 0.500000 0.616557
O O7 0.255715 0.706187 0.688983
O O8 0.952638 0.780641 0.748419
O O9 0.554051 0.799323 0.192945
O O10 0.747341 0.716340 0.203291
O O11 0.874804 0.000000 0.101094
O O12 0.000000 0.705452 0.000000
O O13 0.514471 0.500000 0.161022
O O14 0.464735 0.776216 0.122591
O O15 0.668403 0.500000 0.875610
O O16 0.500000 0.225319 0.000000
O O17 0.633654 0.000000 0.309254
#
# Coordination Sequence:
#
# PCOD9147746 Si02
#       6
#     4   4   4   4   4   4
#     4  10  19  36  58  80 115 155 185 222 286 351
#     4  10  21  38  60  84 114 152 193 238 290 343
#     4  10  22  40  59  81 117 159 190 228 289 348
#     4  11  22  36  60  89 115 144 192 244 283 338
#     4   9  20  38  57  80 115 156 189 230 293 350
#     4  10  21  37  59  86 114 149 192 235 282 341
#
# _framework density 23.737359999999999
#
# number of rings (size 3 to 8) (size 9 to 14) (size 15 to 20)
#    0.000    2.000    1.667    1.500    2.333    3.667 
#    0.000    1.667    0.000    2.500    0.000    0.000 
#    0.000    0.000    0.000    0.000    0.000    0.000 
#
# Total GULP energy -134044.375518 kJ/mol
# GULP energy per Si atom -5585.182313 kJ/mol
# Density = 2.368333 g / cm^3
# Si number density = 23.737360 Si / 1000 Ang^3
#
#
#
# Elastic Constant Matrix: (Units=GPa)
#
#
# Indices 1 2 3 4 5 6 
#
# 1 100.6468 -4.2054 14.3417 0.0000 29.3767 0.0000
# 2 -4.2054 71.6114 0.3435 0.0000 -0.9996 0.0000
# 3 14.3417 0.3435 119.0591 0.0000 23.8705 0.0000
# 4 0.0000 0.0000 0.0000 1.0067 0.0000 1.1016
# 5 29.3767 -0.9996 23.8705 0.0000 45.4977 0.0000
# 6 0.0000 0.0000 0.0000 1.1016 0.0000 -7.7800
#
#
#
# Elastic Compliance Matrix: (Units=1/GPa)
#
#
# Indices 1 2 3 4 5 6 
#
# 1 0.012271 0.000609 0.000118 0.000000 -0.007972 0.000000
# 2 0.000609 0.014000 -0.000108 0.000000 -0.000029 0.000000
# 3 0.000118 -0.000108 0.009389 0.000000 -0.005005 0.000000
# 4 0.000000 0.000000 0.000000 0.860100 0.000000 0.121787
# 5 -0.007972 -0.000029 -0.005005 0.000000 0.029751 0.000000
# 6 0.000000 0.000000 0.000000 0.121787 0.000000 -0.111290
#
#
# Mechanical properties :
#
#
# Convention : Reuss Voigt Hill
#
# Bulk Modulus (GPa) = 27.10148 34.69743 30.89945
# Shear Modulus (GPa) = 6.05853 26.46738 16.26296
#
# Velocity S-wave (km/s) = 1.59933 3.34280 2.62032
# Velocity P-wave (km/s) = 3.85389 5.43581 4.71171
#
# Compressibility (1/GPa) = 0.03689836
#
# Stress axis : x y z
#
# Youngs Moduli (GPa) = 81.49209 71.42792 106.51191
#
# Poissons Ratio (x) = -0.04348 -0.01261
# Poissons Ratio (y) = -0.04961 0.01150
# Poissons Ratio (z) = -0.00965 0.00771
#
# Static dielectric constant tensor:
#      x y z
#    x 1.930720 0.000000 -0.062590 
#    y 0.000000 1.920340 0.000000 
#    z -0.062590 0.000000 2.010280 
# 
# From -- ./inp_files/56525.got.cif
#   From: 2010.05.17/outbox.cif.g08.bks.cpg/sg10_29_cif.got.tgz:56525.got - 2010.06.03 11:33:40.
