data_PCOD9147474
_publ_section_title
;
Structure prediction by ZEFSAII (Michael W. Deem and Ramdas Pophale) SiO2 
 PCOD9147474
Probable space group: P 2/M
;
_chemical_formula_sum "Si O2"
_cell_formula_units_Z 28
_cell_length_a 14.754812
_cell_length_b 19.397090
_cell_length_c 10.270218
_cell_angle_alpha 90.000000
_cell_angle_beta 29.435718
_cell_angle_gamma 90.000000
_cell_volume 1444.529477
_symmetry_space_group_name_H-M "P 2/M"
_symmetry_group_IT_number 10
_symmetry_cell_setting 'monoclinic'
loop_
_space_group_symop_operation_xyz
x,y,z
-x,y,-z
-x,-y,-z
x,-y,z
loop_
_atom_site_type_symbol
_atom_site_label
_atom_site_fract_x
_atom_site_fract_y
_atom_site_fract_z
Si Si1 0.894452 0.922196 0.266185
Si Si2 0.151931 0.924950 0.195329
Si Si3 0.716572 0.212410 0.579681
Si Si4 0.496883 0.582084 0.351218
Si Si5 0.288198 0.220229 0.107958
Si Si6 0.116214 0.638992 0.228706
Si Si7 0.872622 0.347405 0.282927
O O1 0.748259 0.863962 0.485964
O O2 0.044393 0.921368 0.194062
O O3 0.817117 0.000000 0.356070
O O4 0.000000 0.907507 0.000000
O O5 0.262237 0.854873 0.077845
O O6 0.000000 0.924973 0.500000
O O7 0.249323 0.000000 0.080912
O O8 0.765252 0.215376 0.672332
O O9 0.837867 0.266224 0.347974
O O10 0.505186 0.235555 0.832181
O O11 0.500000 0.604758 0.500000
O O12 0.472135 0.500000 0.380658
O O13 0.324059 0.616865 0.495049
O O14 0.690827 0.601271 0.041620
O O15 0.175026 0.280999 0.180563
O O16 0.000000 0.616179 0.500000
O O17 0.982359 0.629487 0.273527
O O18 0.000000 0.360915 0.000000
#
# Coordination Sequence:
#
# PCOD9147474 Si02
#       7
#     4   4   4   4   4   4   4
#     4  10  21  38  57  84 123 166 216 275 335 393
#     4  10  19  35  57  83 118 162 218 269 322 390
#     4  11  22  37  61  93 128 169 221 279 327 392
#     4  11  26  49  73 105 142 173 223 279 327 402
#     4  11  22  37  61  92 131 168 218 281 331 382
#     4  12  24  43  72  99 141 182 218 276 338 395
#     4  12  24  42  71 102 132 177 227 268 333 401
#
# _framework density 19.383474
#
# number of rings (size 3 to 8) (size 9 to 14) (size 15 to 20)
#    0.000    1.000    5.714    1.714    0.000    2.286 
#    0.000    4.286    0.000    2.571    0.000    0.000 
#    0.000    0.000    0.000    0.000    0.000    0.000 
#
# Total GULP energy -156385.451527 kJ/mol
# GULP energy per Si atom -5585.194697 kJ/mol
# Density = 1.933936 g / cm^3
# Si number density = 19.383474 Si / 1000 Ang^3
#
#
#
# Elastic Constant Matrix: (Units=GPa)
#
#
# Indices 1 2 3 4 5 6 
#
# 1 136.3478 32.3336 62.2458 0.0000 10.5553 0.0000
# 2 32.3336 65.1977 24.4298 0.0000 -1.4936 0.0000
# 3 62.2458 24.4298 111.8367 0.0000 9.5382 0.0000
# 4 0.0000 0.0000 0.0000 26.8448 0.0000 -1.6883
# 5 10.5553 -1.4936 9.5382 0.0000 34.4759 0.0000
# 6 0.0000 0.0000 0.0000 -1.6883 0.0000 21.3982
#
#
#
# Elastic Compliance Matrix: (Units=1/GPa)
#
#
# Indices 1 2 3 4 5 6 
#
# 1 0.010568 -0.003428 -0.004961 0.000000 -0.002011 0.000000
# 2 -0.003428 0.017924 -0.002215 0.000000 0.002439 0.000000
# 3 -0.004961 -0.002215 0.012357 0.000000 -0.001996 0.000000
# 4 0.000000 0.000000 0.000000 0.037437 0.000000 0.002954
# 5 -0.002011 0.002439 -0.001996 0.000000 0.030279 0.000000
# 6 0.000000 0.000000 0.000000 0.002954 0.000000 0.046966
#
#
# Mechanical properties :
#
#
# Convention : Reuss Voigt Hill
#
# Bulk Modulus (GPa) = 50.91820 61.26672 56.09246
# Shear Modulus (GPa) = 27.27956 29.50198 28.39077
#
# Velocity S-wave (km/s) = 3.75555 3.90554 3.83128
# Velocity P-wave (km/s) = 6.71800 7.21207 6.96941
#
# Compressibility (1/GPa) = 0.01963934
#
# Stress axis : x y z
#
# Youngs Moduli (GPa) = 94.62699 55.79110 80.92448
#
# Poissons Ratio (x) = 0.19125 0.40150
# Poissons Ratio (y) = 0.32437 0.17928
# Poissons Ratio (z) = 0.46949 0.12360
#
# Static dielectric constant tensor:
#      x y z
#    x 1.682160 0.000000 0.015910 
#    y 0.000000 1.688340 0.000000 
#    z 0.015910 0.000000 1.673990 
# 
# From -- ./inp_files/30383.got.cif
#   From: 2010.05.17/outbox.cif.g08.bks.cpg/sg10_16_cif.got.tgz:30383.got - 2010.06.03 11:33:40.
