data_PCOD9147751
_publ_section_title
;
Structure prediction by ZEFSAII (Michael W. Deem and Ramdas Pophale) SiO2 
 PCOD9147751
Probable space group: P 2/M
;
_chemical_formula_sum "Si O2"
_cell_formula_units_Z 28
_cell_length_a 9.590065
_cell_length_b 7.480895
_cell_length_c 28.300201
_cell_angle_alpha 90.000000
_cell_angle_beta 143.136030
_cell_angle_gamma 90.000000
_cell_volume 1218.024338
_symmetry_space_group_name_H-M "P 2/M"
_symmetry_group_IT_number 10
_symmetry_cell_setting 'monoclinic'
loop_
_space_group_symop_operation_xyz
x,y,z
-x,y,-z
-x,-y,-z
x,-y,z
loop_
_atom_site_type_symbol
_atom_site_label
_atom_site_fract_x
_atom_site_fract_y
_atom_site_fract_z
Si Si1 0.448508 0.202588 0.253969
Si Si2 0.299872 0.282403 0.481781
Si Si3 0.871200 0.708087 0.305751
Si Si4 0.196386 0.281537 0.015990
Si Si5 0.923960 0.295656 0.120698
Si Si6 0.270418 0.719048 0.832239
Si Si7 0.273449 0.284727 0.577802
O O1 0.615801 0.281720 0.259289
O O2 0.595509 0.207154 0.342096
O O3 0.203237 0.295753 0.195854
O O4 0.396310 0.000000 0.226404
O O5 0.500000 0.235534 0.500000
O O6 0.285453 0.500000 0.481710
O O7 0.364275 0.223175 0.551682
O O8 0.056467 0.217573 0.393642
O O9 0.934677 0.500000 0.318112
O O10 0.866088 0.782661 0.251404
O O11 0.184211 0.500000 0.012228
O O12 0.151669 0.217800 0.950235
O O13 0.459292 0.232675 0.100298
O O14 0.000000 0.222029 0.000000
O O15 0.836491 0.500000 0.096560
O O16 0.829259 0.218419 0.144328
O O17 0.257899 0.500000 0.828642
O O18 0.294556 0.500000 0.588672
O O19 0.000000 0.244672 0.500000
#
# Coordination Sequence:
#
# PCOD9147751 Si02
#       7
#     4   4   4   4   4   4   4
#     4  12  25  38  54  79 114 151 191 232 276 327
#     4   9  18  31  54  85 112 137 175 229 278 329
#     4  10  19  36  58  82 110 145 188 231 279 332
#     4   9  16  29  53  88 121 145 175 225 281 331
#     4  10  20  35  58  85 114 148 186 228 278 332
#     4   9  18  31  56  90 117 141 180 235 285 329
#     4  10  19  36  60  83 107 140 185 231 278 329
#
# _framework density 22.988047000000002
#
# number of rings (size 3 to 8) (size 9 to 14) (size 15 to 20)
#    0.000    2.143    1.429    2.571    2.000    4.286 
#    0.000    0.714    0.000    6.429    0.000    0.000 
#    0.000    0.000    0.000    0.000    0.000    0.000 
#
# Total GULP energy -156427.047983 kJ/mol
# GULP energy per Si atom -5586.680285 kJ/mol
# Density = 2.293573 g / cm^3
# Si number density = 22.988047 Si / 1000 Ang^3
#
#
#
# Elastic Constant Matrix: (Units=GPa)
#
#
# Indices 1 2 3 4 5 6 
#
# 1 106.7244 -11.9472 21.0205 0.0000 -23.7210 0.0000
# 2 -11.9472 59.6536 -2.8492 0.0000 -2.8770 0.0000
# 3 21.0205 -2.8492 80.2992 0.0000 -22.1325 0.0000
# 4 0.0000 0.0000 0.0000 -50.5846 0.0000 22.4590
# 5 -23.7210 -2.8770 -22.1325 0.0000 44.8608 0.0000
# 6 0.0000 0.0000 0.0000 22.4590 0.0000 -51.0861
#
#
#
# Elastic Compliance Matrix: (Units=1/GPa)
#
#
# Indices 1 2 3 4 5 6 
#
# 1 0.011096 0.002417 -0.001341 0.000000 0.005360 0.000000
# 2 0.002417 0.017416 0.000747 0.000000 0.002763 0.000000
# 3 -0.001341 0.000747 0.014640 0.000000 0.006561 0.000000
# 4 0.000000 0.000000 0.000000 -0.024563 0.000000 -0.010799
# 5 0.005360 0.002763 0.006561 0.000000 0.028540 0.000000
# 6 0.000000 0.000000 0.000000 -0.010799 0.000000 -0.024322
#
#
# Mechanical properties :
#
#
# Convention : Reuss Voigt Hill
#
# Bulk Modulus (GPa) = 21.36912 28.79172 25.08042
# Shear Modulus (GPa) = 143.84133 4.66823 74.25478
#
# Velocity S-wave (km/s) = 7.91884 1.42658 5.68960
# Velocity P-wave (km/s) = 9.63985 3.90709 7.35500
#
# Compressibility (1/GPa) = 0.04679649
#
# Stress axis : x y z
#
# Youngs Moduli (GPa) = 90.12158 57.41712 68.30831
#
# Poissons Ratio (x) = -0.13876 0.09163
# Poissons Ratio (y) = -0.21780 -0.05102
# Poissons Ratio (z) = 0.12090 -0.04289
#
# Static dielectric constant tensor:
#      x y z
#    x 1.847440 0.000000 -0.023590 
#    y 0.000000 1.928610 0.000000 
#    z -0.023590 0.000000 1.835150 
# 
# From -- ./inp_files/36994.got.cif
#   From: 2010.05.17/outbox.cif.g08.bks.cpg/sg10_19_cif.got.tgz:36994.got - 2010.06.03 11:33:40.
