data_PCOD9147503
_publ_section_title
;
Structure prediction by ZEFSAII (Michael W. Deem and Ramdas Pophale) SiO2 
 PCOD9147503
Probable space group: P 2/M
;
_chemical_formula_sum "Si O2"
_cell_formula_units_Z 24
_cell_length_a 31.962460
_cell_length_b 7.952897
_cell_length_c 8.955839
_cell_angle_alpha 90.000000
_cell_angle_beta 33.521596
_cell_angle_gamma 90.000000
_cell_volume 1257.212079
_symmetry_space_group_name_H-M "P 2/M"
_symmetry_group_IT_number 10
_symmetry_cell_setting 'monoclinic'
loop_
_space_group_symop_operation_xyz
x,y,z
-x,y,-z
-x,-y,-z
x,-y,z
loop_
_atom_site_type_symbol
_atom_site_label
_atom_site_fract_x
_atom_site_fract_y
_atom_site_fract_z
Si Si1 0.585056 0.500000 0.061729
Si Si2 0.847507 0.197164 0.106540
Si Si3 0.997782 0.703612 0.833832
Si Si4 0.154350 0.305769 0.220933
Si Si5 0.411691 0.500000 0.584100
Si Si6 0.307004 0.804856 0.261408
Si Si7 0.308726 0.187127 0.897634
O O1 0.497847 0.500000 0.272515
O O2 0.585119 0.500000 0.243575
O O3 0.630329 0.667689 0.880410
O O4 0.772841 0.238528 0.424393
O O5 0.843558 0.000000 0.081112
O O6 0.849223 0.295520 0.946533
O O7 0.923149 0.230397 0.975036
O O8 0.995001 0.500000 0.834915
O O9 0.075131 0.758577 0.523295
O O10 0.000000 0.754138 0.000000
O O11 0.163152 0.500000 0.242947
O O12 0.227355 0.209238 0.063666
O O13 0.365001 0.334140 0.678923
O O14 0.326117 0.000000 0.240893
O O15 0.298473 0.795771 0.107144
O O16 0.338765 0.000000 0.778277
#
# Coordination Sequence:
#
# PCOD9147503 Si02
#       7
#     2   4   4   4   2   4   4
#     4   9  18  32  59  82 117 150 175 229 284 333
#     4  11  23  37  54  80 113 148 189 233 278 331
#     4  10  22  38  57  81 110 146 188 235 281 327
#     4  11  22  36  55  81 112 148 193 234 276 334
#     4   9  18  34  53  90 115 142 187 223 280 343
#     4   9  20  35  55  85 113 146 190 230 277 334
#     4  10  19  35  58  82 114 149 185 233 280 330
#
# _framework density 19.089856999999999
#
# number of rings (size 3 to 8) (size 9 to 14) (size 15 to 20)
#    0.000    2.000    0.833    2.500    2.333    4.333 
#    0.000    3.333    0.000    2.000    0.000    3.500 
#    0.000    0.000    0.000    0.000    0.000    0.000 
#
# Total GULP energy -134035.348511 kJ/mol
# GULP energy per Si atom -5584.806188 kJ/mol
# Density = 1.904641 g / cm^3
# Si number density = 19.089857 Si / 1000 Ang^3
#
#
#
# Elastic Constant Matrix: (Units=GPa)
#
#
# Indices 1 2 3 4 5 6 
#
# 1 30.7253 44.4194 78.7384 0.0000 -3.3817 0.0000
# 2 44.4194 96.0141 65.9836 0.0000 -18.4994 0.0000
# 3 78.7384 65.9836 110.5058 0.0000 -47.9870 0.0000
# 4 0.0000 0.0000 0.0000 13.9928 0.0000 3.6408
# 5 -3.3817 -18.4994 -47.9870 0.0000 19.8185 0.0000
# 6 0.0000 0.0000 0.0000 3.6408 0.0000 14.6759
#
#
#
# Elastic Compliance Matrix: (Units=1/GPa)
#
#
# Indices 1 2 3 4 5 6 
#
# 1 0.003136 -0.006049 0.016372 0.000000 0.034530 0.000000
# 2 -0.006049 0.018007 -0.007947 0.000000 -0.003466 0.000000
# 3 0.016372 -0.007947 -0.002348 0.000000 -0.010310 0.000000
# 4 0.000000 0.000000 0.000000 0.076397 0.000000 -0.018953
# 5 0.034530 -0.003466 -0.010310 0.000000 0.028150 0.000000
# 6 0.000000 0.000000 0.000000 -0.018953 0.000000 0.072841
#
#
# Mechanical properties :
#
#
# Convention : Reuss Voigt Hill
#
# Bulk Modulus (GPa) = 42.46794 68.39200 55.42997
# Shear Modulus (GPa) = 25.09027 12.90437 18.99732
#
# Velocity S-wave (km/s) = 3.62929 2.60278 3.15803
# Velocity P-wave (km/s) = 6.31324 6.70349 6.51129
#
# Compressibility (1/GPa) = 0.02354718
#
# Stress axis : x y z
#
# Youngs Moduli (GPa) = 318.82751 55.53279 -425.83695
#
# Poissons Ratio (x) = 0.33593 6.97181
# Poissons Ratio (y) = 1.92866 -3.38411
# Poissons Ratio (z) = -5.21985 0.44132
#
# Static dielectric constant tensor:
#      x y z
#    x 1.621900 0.000000 0.010200 
#    y 0.000000 1.691020 0.000000 
#    z 0.010200 0.000000 1.633550 
# 
# From -- ./inp_files/37888.got.cif
#   From: 2010.05.17/outbox.cif.g08.bks.cpg/sg10_19_cif.got.tgz:37888.got - 2010.06.03 11:33:40.
