data_PCOD9147253
_publ_section_title
;
Structure prediction by ZEFSAII (Michael W. Deem and Ramdas Pophale) SiO2 
 PCOD9147253
Probable space group: P 2/M
;
_chemical_formula_sum "Si O2"
_cell_formula_units_Z 24
_cell_length_a 8.117324
_cell_length_b 19.138280
_cell_length_c 14.396522
_cell_angle_alpha 90.000000
_cell_angle_beta 32.246641
_cell_angle_gamma 90.000000
_cell_volume 1193.330251
_symmetry_space_group_name_H-M "P 2/M"
_symmetry_group_IT_number 10
_symmetry_cell_setting 'monoclinic'
loop_
_space_group_symop_operation_xyz
x,y,z
-x,y,-z
-x,-y,-z
x,-y,z
loop_
_atom_site_type_symbol
_atom_site_label
_atom_site_fract_x
_atom_site_fract_y
_atom_site_fract_z
Si Si1 0.999563 0.831280 0.288887
Si Si2 0.680022 0.919448 0.713318
Si Si3 0.698101 0.580569 0.500000
Si Si4 0.727952 0.679277 0.810957
Si Si5 0.633777 0.168720 0.288886
Si Si6 0.660825 0.320722 0.189042
O O1 0.685570 0.831083 0.500000
O O2 0.900343 0.854418 0.233105
O O3 0.240202 0.879238 0.229656
O O4 0.121171 0.752173 0.228775
O O5 0.429168 0.879238 0.770344
O O6 0.000000 0.918257 0.500000
O O7 0.598825 0.000000 0.767451
O O8 0.500000 0.582640 0.500000
O O9 0.751522 0.500000 0.500001
O O10 0.511356 0.622467 0.666870
O O11 0.011966 0.622466 0.333130
O O12 0.539800 0.693343 0.806800
O O13 0.500000 0.654417 0.000000
O O14 0.692506 0.247826 0.228774
O O15 0.000000 0.345583 0.000000
#
# Coordination Sequence:
#
# PCOD9147253 Si02
#       6
#     4   4   4   4   4   4
#     4  10  19  34  58  88 124 164 211 267 319 379
#     4   9  18  32  54  88 124 165 212 261 323 384
#     4  11  25  45  67  95 133 170 209 263 327 387
#     4  12  24  40  65  96 127 167 222 268 317 383
#     4  10  19  34  58  88 124 164 211 267 319 379
#     4  12  24  40  65  96 127 167 222 268 317 383
#
# _framework density 20.111785000000001
#
# number of rings (size 3 to 8) (size 9 to 14) (size 15 to 20)
#    0.000    1.333    3.333    3.500    0.000    2.667 
#    0.000    3.333    0.000    1.000    0.000    0.000 
#    0.000    0.000    0.000    0.000    0.000    0.000 
#
# Total GULP energy -134237.346295 kJ/mol
# GULP energy per Si atom -5593.222762 kJ/mol
# Density = 2.006601 g / cm^3
# Si number density = 20.111785 Si / 1000 Ang^3
#
#
#
# Elastic Constant Matrix: (Units=GPa)
#
#
# Indices 1 2 3 4 5 6 
#
# 1 168.0782 61.2396 44.4040 0.0000 2.6049 0.0000
# 2 61.2396 143.2602 54.0416 0.0000 0.2301 0.0000
# 3 44.4040 54.0416 79.1611 0.0000 0.2283 0.0000
# 4 0.0000 0.0000 0.0000 -16.6622 0.0000 1.2364
# 5 2.6049 0.2301 0.2283 0.0000 21.0285 0.0000
# 6 0.0000 0.0000 0.0000 1.2364 0.0000 22.1555
#
#
#
# Elastic Compliance Matrix: (Units=1/GPa)
#
#
# Indices 1 2 3 4 5 6 
#
# 1 0.007469 -0.002171 -0.002705 0.000000 -0.000872 0.000000
# 2 -0.002171 0.010032 -0.005632 0.000000 0.000220 0.000000
# 3 -0.002705 -0.005632 0.017994 0.000000 0.000201 0.000000
# 4 0.000000 0.000000 0.000000 -0.059769 0.000000 0.003335
# 5 -0.000872 0.000220 0.000201 0.000000 0.047658 0.000000
# 6 0.000000 0.000000 0.000000 0.003335 0.000000 0.044949
#
#
# Mechanical properties :
#
#
# Convention : Reuss Voigt Hill
#
# Bulk Modulus (GPa) = 69.06195 78.87445 73.96820
# Shear Modulus (GPa) = 53.09240 20.69198 36.89219
#
# Velocity S-wave (km/s) = 5.14354 3.21105 4.28759
# Velocity P-wave (km/s) = 8.34795 7.28361 7.83387
#
# Compressibility (1/GPa) = 0.01447975
#
# Stress axis : x y z
#
# Youngs Moduli (GPa) = 133.89224 99.67685 55.57449
#
# Poissons Ratio (x) = 0.21639 0.15032
# Poissons Ratio (y) = 0.29067 0.31299
# Poissons Ratio (z) = 0.36216 0.56136
#
# Static dielectric constant tensor:
#      x y z
#    x 1.716510 0.000000 0.000340 
#    y 0.000000 1.654230 0.000000 
#    z 0.000340 0.000000 1.705870 
# 
# From -- ./inp_files/62263.got.cif
#   From: 2010.05.17/outbox.cif.g08.bks.cpg/sg10_32_cif.got.tgz:62263.got - 2010.06.03 11:33:40.
