data_PCOD9147780
_publ_section_title
;
Structure prediction by ZEFSAII (Michael W. Deem and Ramdas Pophale) SiO2 
 PCOD9147780
Probable space group: P 2/M
;
_chemical_formula_sum "Si O2"
_cell_formula_units_Z 30
_cell_length_a 9.015805
_cell_length_b 22.921788
_cell_length_c 7.661797
_cell_angle_alpha 90.000000
_cell_angle_beta 97.945733
_cell_angle_gamma 90.000000
_cell_volume 1568.173205
_symmetry_space_group_name_H-M "P 2/M"
_symmetry_group_IT_number 10
_symmetry_cell_setting 'monoclinic'
loop_
_space_group_symop_operation_xyz
x,y,z
-x,y,-z
-x,-y,-z
x,-y,z
loop_
_atom_site_type_symbol
_atom_site_label
_atom_site_fract_x
_atom_site_fract_y
_atom_site_fract_z
Si Si1 0.345262 0.366572 0.398273
Si Si2 0.899463 0.932628 0.807628
Si Si3 0.942884 0.432851 0.791035
Si Si4 0.000000 0.148584 0.500000
Si Si5 0.121647 0.329977 0.655920
Si Si6 0.785622 0.217156 0.225912
Si Si7 0.459276 0.246518 0.294044
Si Si8 0.658722 0.859829 0.928239
O O1 0.500000 0.393537 0.500000
O O2 0.222341 0.406515 0.280404
O O3 0.266224 0.340835 0.559777
O O4 0.388558 0.311135 0.283663
O O5 0.950227 0.891092 0.656479
O O6 0.733056 0.913299 0.840643
O O7 0.904827 0.000000 0.752469
O O8 0.000000 0.927658 0.000000
O O9 0.946557 0.500000 0.733185
O O10 0.060081 0.391001 0.713512
O O11 0.000000 0.431373 0.000000
O O12 0.136634 0.189077 0.591551
O O13 0.134775 0.278840 0.799693
O O14 0.000000 0.307677 0.500000
O O15 0.614597 0.238436 0.217855
O O16 0.776830 0.165764 0.086318
O O17 0.500000 0.234951 0.500000
O O18 0.358882 0.194890 0.204540
O O19 0.500000 0.871999 0.000000
#
# Coordination Sequence:
#
# PCOD9147780 Si02
#       8
#     4   4   4   2   4   4   4   4
#     4  10  20  37  62  90 119 156 199 255 306 369
#     4  11  24  43  64  91 128 169 221 270 307 369
#     4  10  24  43  59  81 118 163 209 257 307 371
#     4  12  23  40  68  92 131 170 214 260 326 388
#     4  10  20  35  58  88 118 156 195 246 309 369
#     4  11  20  35  58  96 125 159 198 252 324 379
#     4  10  19  36  59  86 128 156 193 255 310 379
#     4  10  23  39  62  93 127 169 204 255 322 380
#
# _framework density 19.130541000000001
#
# number of rings (size 3 to 8) (size 9 to 14) (size 15 to 20)
#    0.000    1.600    4.667    1.000    1.867    2.933 
#    0.000    0.667    0.000    5.200    0.000    0.000 
#    0.000    0.000    0.000    0.000    0.000    0.000 
#
# Total GULP energy -167072.921799 kJ/mol
# GULP energy per Si atom -5569.097393 kJ/mol
# Density = 1.908700 g / cm^3
# Si number density = 19.130541 Si / 1000 Ang^3
#
#
#
# Elastic Constant Matrix: (Units=GPa)
#
#
# Indices 1 2 3 4 5 6 
#
# 1 82.2844 50.2149 14.1582 0.0000 4.0371 0.0000
# 2 50.2149 119.7197 26.1656 0.0000 0.6181 0.0000
# 3 14.1582 26.1656 48.9959 0.0000 10.9461 0.0000
# 4 0.0000 0.0000 0.0000 23.6919 0.0000 3.4401
# 5 4.0371 0.6181 10.9461 0.0000 29.9592 0.0000
# 6 0.0000 0.0000 0.0000 3.4401 0.0000 21.8040
#
#
#
# Elastic Compliance Matrix: (Units=1/GPa)
#
#
# Indices 1 2 3 4 5 6 
#
# 1 0.016485 -0.006739 -0.000762 0.000000 -0.001804 0.000000
# 2 -0.006739 0.012301 -0.005192 0.000000 0.002551 0.000000
# 3 -0.000762 -0.005192 0.025432 0.000000 -0.009082 0.000000
# 4 0.000000 0.000000 0.000000 0.043198 0.000000 -0.006816
# 5 -0.001804 0.002551 -0.009082 0.000000 0.036888 0.000000
# 6 0.000000 0.000000 0.000000 -0.006816 0.000000 0.046939
#
#
# Mechanical properties :
#
#
# Convention : Reuss Voigt Hill
#
# Bulk Modulus (GPa) = 34.68274 48.00858 41.34566
# Shear Modulus (GPa) = 23.12279 25.78844 24.45561
#
# Velocity S-wave (km/s) = 3.48039 3.67553 3.57929
# Velocity P-wave (km/s) = 5.85830 6.56981 6.22423
#
# Compressibility (1/GPa) = 0.02883279
#
# Stress axis : x y z
#
# Youngs Moduli (GPa) = 60.66188 81.29586 39.32103
#
# Poissons Ratio (x) = 0.54781 0.02996
# Poissons Ratio (y) = 0.40877 0.20415
# Poissons Ratio (z) = 0.04622 0.42207
#
# Static dielectric constant tensor:
#      x y z
#    x 1.654800 0.000000 0.034080 
#    y 0.000000 1.660470 0.000000 
#    z 0.034080 0.000000 1.693200 
# 
# From -- ./inp_files/20252.got.cif
#   From: 2010.05.17/outbox.cif.g08.bks.cpg/sg10_11_cif.got.tgz:20252.got - 2010.06.03 11:33:40.
