data_PCOD9147597
_publ_section_title
;
Structure prediction by ZEFSAII (Michael W. Deem and Ramdas Pophale) SiO2 
 PCOD9147597
Probable space group: P 2/M
;
_chemical_formula_sum "Si O2"
_cell_formula_units_Z 24
_cell_length_a 7.513569
_cell_length_b 10.344983
_cell_length_c 14.605647
_cell_angle_alpha 90.000000
_cell_angle_beta 100.104024
_cell_angle_gamma 90.000000
_cell_volume 1117.657018
_symmetry_space_group_name_H-M "P 2/M"
_symmetry_group_IT_number 10
_symmetry_cell_setting 'monoclinic'
loop_
_space_group_symop_operation_xyz
x,y,z
-x,y,-z
-x,-y,-z
x,-y,z
loop_
_atom_site_type_symbol
_atom_site_label
_atom_site_fract_x
_atom_site_fract_y
_atom_site_fract_z
Si Si1 0.215977 0.653926 0.922665
Si Si2 0.374985 0.348573 0.121793
Si Si3 0.072414 0.500000 0.368899
Si Si4 0.459861 0.728579 0.685356
Si Si5 0.449740 0.000000 0.390944
Si Si6 0.971793 0.000000 0.610818
Si Si7 0.317925 0.500000 0.561452
Si Si8 0.928550 0.255755 0.267007
O O1 0.166984 0.500000 0.911816
O O2 0.423788 0.663100 0.904651
O O3 0.089821 0.739218 0.844809
O O4 0.233737 0.693387 0.030733
O O5 0.343109 0.500000 0.133811
O O6 0.387641 0.286282 0.222875
O O7 0.240559 0.500000 0.452322
O O8 0.878306 0.500000 0.404470
O O9 0.063896 0.368296 0.310885
O O10 0.435149 0.623879 0.602815
O O11 0.273032 0.704259 0.721491
O O12 0.474792 0.871765 0.648557
O O13 0.500000 0.000000 0.500000
O O14 0.235653 0.000000 0.378121
O O15 0.000000 0.000000 0.500000
O O16 0.043219 0.872367 0.669633
#
# Coordination Sequence:
#
# PCOD9147597 Si02
#       8
#     4   4   2   4   2   2   2   4
#     4   8  13  25  50  91 123 146 183 233 284 330
#     4   8  13  25  53  88 123 150 178 229 288 338
#     4   9  18  28  54  89 118 149 191 245 282 333
#     4  10  19  37  60  88 119 152 189 236 291 341
#     4  12  28  44  57  78 115 155 198 241 290 350
#     4  12  28  44  61  78 107 157 198 241 292 350
#     4   9  18  30  55  88 118 148 192 238 289 336
#     4  10  19  35  59  88 118 154 194 238 284 334
#
# _framework density 21.473493999999999
#
# number of rings (size 3 to 8) (size 9 to 14) (size 15 to 20)
#    0.000    2.500    1.667    2.500    7.000    0.000 
#    0.000    2.083    0.000    6.000    0.000    2.333 
#    0.000    0.000    0.000    0.000    0.000    0.000 
#
# Total GULP energy -133749.786266 kJ/mol
# GULP energy per Si atom -5572.907761 kJ/mol
# Density = 2.142462 g / cm^3
# Si number density = 21.473494 Si / 1000 Ang^3
#
#
#
# Elastic Constant Matrix: (Units=GPa)
#
#
# Indices 1 2 3 4 5 6 
#
# 1 50.0758 5.2280 27.6873 0.0000 -8.6791 0.0000
# 2 5.2280 126.6674 106.8784 0.0000 16.1062 0.0000
# 3 27.6873 106.8784 239.2093 0.0000 38.9456 0.0000
# 4 0.0000 0.0000 0.0000 13.4309 0.0000 13.3392
# 5 -8.6791 16.1062 38.9456 0.0000 27.2879 0.0000
# 6 0.0000 0.0000 0.0000 13.3392 0.0000 17.4128
#
#
#
# Elastic Compliance Matrix: (Units=1/GPa)
#
#
# Indices 1 2 3 4 5 6 
#
# 1 0.026479 0.002673 -0.007000 0.000000 0.016834 0.000000
# 2 0.002673 0.012955 -0.006502 0.000000 0.002483 0.000000
# 3 -0.007000 -0.006502 0.009944 0.000000 -0.012581 0.000000
# 4 0.000000 0.000000 0.000000 0.311312 0.000000 -0.238484
# 5 0.016834 0.002483 -0.012581 0.000000 0.058490 0.000000
# 6 0.000000 0.000000 0.000000 -0.238484 0.000000 0.240122
#
#
# Mechanical properties :
#
#
# Convention : Reuss Voigt Hill
#
# Bulk Modulus (GPa) = 36.07550 77.28222 56.67886
# Shear Modulus (GPa) = 7.24430 30.03690 18.64060
#
# Velocity S-wave (km/s) = 1.83873 3.74410 2.94951
# Velocity P-wave (km/s) = 4.62000 7.39991 6.16859
#
# Compressibility (1/GPa) = 0.02771964
#
# Stress axis : x y z
#
# Youngs Moduli (GPa) = 37.76639 77.19247 100.56456
#
# Poissons Ratio (x) = -0.20632 0.70392
# Poissons Ratio (y) = -0.10094 0.65385
# Poissons Ratio (z) = 0.26435 0.50189
#
# Static dielectric constant tensor:
#      x y z
#    x 1.825930 0.000000 -0.007580 
#    y 0.000000 1.777760 0.000000 
#    z -0.007580 0.000000 1.824680 
# 
# From -- ./inp_files/60812.got.cif
#   From: 2010.05.17/outbox.cif.g08.bks.cpg/sg10_31_cif.got.tgz:60812.got - 2010.06.03 11:33:40.
