data_PCOD9147373
_publ_section_title
;
Structure prediction by ZEFSAII (Michael W. Deem and Ramdas Pophale) SiO2 
 PCOD9147373
Probable space group: P 2/M
;
_chemical_formula_sum "Si O2"
_cell_formula_units_Z 32
_cell_length_a 5.555927
_cell_length_b 21.080621
_cell_length_c 17.809280
_cell_angle_alpha 90.000000
_cell_angle_beta 131.361736
_cell_angle_gamma 90.000000
_cell_volume 1565.551638
_symmetry_space_group_name_H-M "P 2/M"
_symmetry_group_IT_number 10
_symmetry_cell_setting 'monoclinic'
loop_
_space_group_symop_operation_xyz
x,y,z
-x,y,-z
-x,-y,-z
x,-y,z
loop_
_atom_site_type_symbol
_atom_site_label
_atom_site_fract_x
_atom_site_fract_y
_atom_site_fract_z
Si Si1 0.877753 0.568490 0.596987
Si Si2 0.778032 0.245791 0.244131
Si Si3 0.099350 0.365266 0.255974
Si Si4 0.751030 0.072729 0.378900
Si Si5 0.702683 0.805092 0.976204
Si Si6 0.254819 0.143163 0.379571
Si Si7 0.241211 0.692793 0.608206
Si Si8 0.138984 0.339804 0.948343
O O1 0.500000 0.570531 0.500000
O O2 0.002648 0.500000 0.595675
O O3 0.934211 0.574323 0.698300
O O4 0.050393 0.630152 0.598183
O O5 0.531636 0.210879 0.140446
O O6 0.678343 0.259378 0.308509
O O7 0.823384 0.314884 0.217614
O O8 0.109152 0.207882 0.317807
O O9 0.427605 0.334002 0.353447
O O10 0.092789 0.366081 0.164923
O O11 0.443106 0.107444 0.351639
O O12 0.000000 0.071374 0.500000
O O13 0.947676 0.106225 0.352085
O O14 0.675301 0.000000 0.343387
O O15 0.500000 0.836909 0.000000
O O16 0.836415 0.737882 0.039865
O O17 0.000000 0.839913 0.000000
O O18 0.500000 0.152897 0.500000
O O19 0.000000 0.724590 0.500000
O O20 0.500000 0.360439 0.000000
O O21 0.000000 0.360333 0.000000
#
# Coordination Sequence:
#
# PCOD9147373 Si02
#       8
#     4   4   4   4   4   4   4   4
#     4  10  22  40  57  81 111 144 197 247 282 338
#     4  11  24  34  53  83 122 150 184 235 292 362
#     4  11  22  37  58  82 109 155 186 233 295 355
#     4   9  18  36  56  76 108 158 210 244 274 321
#     4  10  19  35  54  78 106 153 188 233 279 340
#     4  10  22  33  52  83 119 158 192 237 288 334
#     4  11  23  35  55  81 112 154 190 222 291 359
#     4  10  19  35  57  82 106 144 188 233 278 342
#
# _framework density 20.440078
#
# number of rings (size 3 to 8) (size 9 to 14) (size 15 to 20)
#    0.000    1.750    3.750    1.875    5.250    2.750 
#    0.000    0.000    0.000    0.750    0.000    0.000 
#    0.000   10.000    0.000    0.000    0.000    0.000 
#
# Total GULP energy -178494.390931 kJ/mol
# GULP energy per Si atom -5577.949717 kJ/mol
# Density = 2.039356 g / cm^3
# Si number density = 20.440078 Si / 1000 Ang^3
#
#
#
# Elastic Constant Matrix: (Units=GPa)
#
#
# Indices 1 2 3 4 5 6 
#
# 1 122.5214 21.2019 16.3505 0.0000 -6.1139 0.0000
# 2 21.2019 62.4698 6.5453 0.0000 -2.2581 0.0000
# 3 16.3505 6.5453 79.0306 0.0000 -14.9586 0.0000
# 4 0.0000 0.0000 0.0000 2.6596 0.0000 8.7358
# 5 -6.1139 -2.2581 -14.9586 0.0000 31.5994 0.0000
# 6 0.0000 0.0000 0.0000 8.7358 0.0000 21.2980
#
#
#
# Elastic Compliance Matrix: (Units=1/GPa)
#
#
# Indices 1 2 3 4 5 6 
#
# 1 0.008887 -0.002835 -0.001446 0.000000 0.000832 0.000000
# 2 -0.002835 0.017061 -0.000768 0.000000 0.000307 0.000000
# 3 -0.001446 -0.000768 0.014228 0.000000 0.006400 0.000000
# 4 0.000000 0.000000 0.000000 -1.082759 0.000000 0.444112
# 5 0.000832 0.000307 0.006400 0.000000 0.034859 0.000000
# 6 0.000000 0.000000 0.000000 0.444112 0.000000 -0.135208
#
#
# Mechanical properties :
#
#
# Convention : Reuss Voigt Hill
#
# Bulk Modulus (GPa) = 33.24771 39.13523 36.19147
# Shear Modulus (GPa) = -4.45312 25.77299 10.65993
#
# Velocity S-wave (km/s) = -1.47762 3.55477 2.28616
# Velocity P-wave (km/s) = 3.65925 6.00304 4.97125
#
# Compressibility (1/GPa) = 0.03007726
#
# Stress axis : x y z
#
# Youngs Moduli (GPa) = 112.52531 58.61188 70.28569
#
# Poissons Ratio (x) = 0.16614 0.10166
# Poissons Ratio (y) = 0.31896 0.05401
# Poissons Ratio (z) = 0.16275 0.04504
#
# Static dielectric constant tensor:
#      x y z
#    x 1.825250 0.000000 -0.032310 
#    y 0.000000 1.726250 0.000000 
#    z -0.032310 0.000000 1.761860 
# 
# From -- ./inp_files/11752.got.cif
#   From: 2010.05.17/outbox.cif.g08.bks.cpg/sg10_6_cif.got.tgz:11752.got - 2010.06.03 11:33:40.
