data_PCOD9147577
_publ_section_title
;
Structure prediction by ZEFSAII (Michael W. Deem and Ramdas Pophale) SiO2 
 PCOD9147577
Probable space group: P 2/M
;
_chemical_formula_sum "Si O2"
_cell_formula_units_Z 28
_cell_length_a 27.798043
_cell_length_b 7.703047
_cell_length_c 9.466331
_cell_angle_alpha 90.000000
_cell_angle_beta 38.055351
_cell_angle_gamma 90.000000
_cell_volume 1249.501852
_symmetry_space_group_name_H-M "P 2/M"
_symmetry_group_IT_number 10
_symmetry_cell_setting 'monoclinic'
loop_
_space_group_symop_operation_xyz
x,y,z
-x,y,-z
-x,-y,-z
x,-y,z
loop_
_atom_site_type_symbol
_atom_site_label
_atom_site_fract_x
_atom_site_fract_y
_atom_site_fract_z
Si Si1 0.740083 0.800319 0.486278
Si Si2 0.974804 0.702613 0.210900
Si Si3 0.836919 0.710325 0.726946
Si Si4 0.125404 0.792618 0.036180
Si Si5 0.520648 0.293238 0.290310
Si Si6 0.306594 0.700073 0.106426
Si Si7 0.421462 0.294303 0.273546
O O1 0.736883 0.703798 0.642810
O O2 0.654331 0.791713 0.616086
O O3 0.759390 0.000000 0.473490
O O4 0.802697 0.732847 0.228664
O O5 0.956507 0.500000 0.226524
O O6 0.046947 0.715037 0.152019
O O7 0.900405 0.776666 0.466499
O O8 0.000000 0.778334 0.000000
O O9 0.835738 0.500000 0.719913
O O10 0.859914 0.752541 0.833775
O O11 0.751493 0.774902 0.876419
O O12 0.119370 0.000000 0.037588
O O13 0.500000 0.276018 0.500000
O O14 0.523892 0.500000 0.245176
O O15 0.450328 0.225055 0.357485
O O16 0.607679 0.220560 0.067675
O O17 0.321482 0.500000 0.029979
O O18 0.402481 0.500000 0.322030
O O19 0.500000 0.274257 0.000000
#
# Coordination Sequence:
#
# PCOD9147577 Si02
#       7
#     4   4   4   4   4   4   4
#     4  11  24  39  56  82 118 156 197 240 286 343
#     4  10  21  40  65  93 120 147 189 242 291 342
#     4  10  22  38  62  92 119 150 190 240 294 343
#     4  11  25  41  58  85 121 160 197 233 282 348
#     4   9  18  32  54  85 115 142 184 239 288 341
#     4  10  20  38  61  86 115 150 194 241 291 345
#     4  10  19  35  59  85 111 146 194 243 289 341
#
# _framework density 22.408930000000002
#
# number of rings (size 3 to 8) (size 9 to 14) (size 15 to 20)
#    0.000    1.857    1.429    2.143    2.000    6.857 
#    0.000    0.000    0.000    0.857    0.000    0.000 
#    0.000    0.000    0.000    0.000    0.000    0.000 
#
# Total GULP energy -156406.822592 kJ/mol
# GULP energy per Si atom -5585.957950 kJ/mol
# Density = 2.235793 g / cm^3
# Si number density = 22.408930 Si / 1000 Ang^3
#
#
#
# Elastic Constant Matrix: (Units=GPa)
#
#
# Indices 1 2 3 4 5 6 
#
# 1 105.2750 -17.7737 1.1371 0.0000 5.2952 0.0000
# 2 -17.7737 37.9278 -3.8475 0.0000 -0.9886 0.0000
# 3 1.1371 -3.8475 57.1050 0.0000 -5.7403 0.0000
# 4 0.0000 0.0000 0.0000 1.1627 0.0000 46.0134
# 5 5.2952 -0.9886 -5.7403 0.0000 30.9228 0.0000
# 6 0.0000 0.0000 0.0000 46.0134 0.0000 -397.8783
#
#
#
# Elastic Compliance Matrix: (Units=1/GPa)
#
#
# Indices 1 2 3 4 5 6 
#
# 1 0.010396 0.004825 -0.000046 0.000000 -0.001635 0.000000
# 2 0.004825 0.028830 0.001891 0.000000 0.000447 0.000000
# 3 -0.000046 0.001891 0.017982 0.000000 0.003407 0.000000
# 4 0.000000 0.000000 0.000000 0.154225 0.000000 0.017836
# 5 -0.001635 0.000447 0.003407 0.000000 0.033265 0.000000
# 6 0.000000 0.000000 0.000000 0.017836 0.000000 -0.000451
#
#
# Mechanical properties :
#
#
# Convention : Reuss Voigt Hill
#
# Bulk Modulus (GPa) = 14.17475 17.70440 15.93958
# Shear Modulus (GPa) = 19.65216 -58.43910 -19.39347
#
# Velocity S-wave (km/s) = 2.96460 -5.11225 -2.94502
# Velocity P-wave (km/s) = 4.24943 5.18932 2.10611
#
# Compressibility (1/GPa) = 0.07054797
#
# Stress axis : x y z
#
# Youngs Moduli (GPa) = 96.18915 34.68576 55.60998
#
# Poissons Ratio (x) = -0.16734 0.00257
# Poissons Ratio (y) = -0.46407 -0.10517
# Poissons Ratio (z) = 0.00445 -0.06560
#
# Static dielectric constant tensor:
#      x y z
#    x 1.833230 0.000000 -0.003410 
#    y 0.000000 1.866640 0.000000 
#    z -0.003410 0.000000 1.826520 
# 
# From -- ./inp_files/37111.got.cif
#   From: 2010.05.17/outbox.cif.g08.bks.cpg/sg10_19_cif.got.tgz:37111.got - 2010.06.03 11:33:40.
