data_PCOD9147372
_publ_section_title
;
Structure prediction by ZEFSAII (Michael W. Deem and Ramdas Pophale) SiO2 
 PCOD9147372
Probable space group: P 2/M
;
_chemical_formula_sum "Si O2"
_cell_formula_units_Z 20
_cell_length_a 14.363196
_cell_length_b 8.502146
_cell_length_c 22.430861
_cell_angle_alpha 90.000000
_cell_angle_beta 164.674842
_cell_angle_gamma 90.000000
_cell_volume 723.964193
_symmetry_space_group_name_H-M "P 2/M"
_symmetry_group_IT_number 10
_symmetry_cell_setting 'monoclinic'
loop_
_space_group_symop_operation_xyz
x,y,z
-x,y,-z
-x,-y,-z
x,-y,z
loop_
_atom_site_type_symbol
_atom_site_label
_atom_site_fract_x
_atom_site_fract_y
_atom_site_fract_z
Si Si1 0.014038 0.832468 0.750310
Si Si2 0.416846 0.818736 0.802867
Si Si3 0.868724 0.500000 0.801329
Si Si4 0.723469 0.825497 0.756264
Si Si5 0.018543 0.500000 0.265758
Si Si6 0.719832 0.686502 0.411434
O O1 0.590188 0.833192 0.486619
O O2 0.107855 0.661151 0.783535
O O3 0.119450 0.000000 0.787145
O O4 0.201801 0.827211 0.930397
O O5 0.379061 0.730161 0.717308
O O6 0.129436 0.737176 0.667841
O O7 0.314709 0.000000 0.731637
O O8 0.932916 0.663642 0.875116
O O9 0.443452 0.500000 0.532120
O O10 0.046417 0.500000 0.845899
O O11 0.509363 0.790985 0.684944
O O12 0.892416 0.000000 0.862103
O O13 0.675931 0.500000 0.395397
#
# Coordination Sequence:
#
# PCOD9147372 Si02
#       6
#     4   4   2   4   2   4
#     4   9  20  34  54  80 104 136 173 210 258 307
#     4  10  20  35  52  75 105 140 177 209 252 305
#     4   9  18  34  50  83 100 138 169 209 260 317
#     4  10  19  35  54  77 108 136 170 215 256 301
#     4   9  18  32  56  73 112 130 167 215 262 303
#     4  11  21  33  51  78 105 139 180 208 251 307
#
# _framework density 27.625677
#
# number of rings (size 3 to 8) (size 9 to 14) (size 15 to 20)
#    0.000    2.200    1.000    3.600    2.800    1.600 
#    0.000    8.000    0.000    2.400    0.000    4.200 
#    0.000    0.000    0.000    0.000    0.000    0.000 
#
# Total GULP energy -111908.050883 kJ/mol
# GULP energy per Si atom -5595.402544 kJ/mol
# Density = 2.756280 g / cm^3
# Si number density = 27.625677 Si / 1000 Ang^3
#
#
#
# Elastic Constant Matrix: (Units=GPa)
#
#
# Indices 1 2 3 4 5 6 
#
# 1 142.9975 43.6811 38.7939 0.0000 6.3662 0.0000
# 2 43.6811 320.6546 37.1274 0.0000 22.0622 0.0000
# 3 38.7939 37.1274 87.4078 0.0000 -21.1660 0.0000
# 4 0.0000 0.0000 0.0000 21.2579 0.0000 -8.9303
# 5 6.3662 22.0622 -21.1660 0.0000 32.3084 0.0000
# 6 0.0000 0.0000 0.0000 -8.9303 0.0000 32.9015
#
#
#
# Elastic Compliance Matrix: (Units=1/GPa)
#
#
# Indices 1 2 3 4 5 6 
#
# 1 0.008596 -0.000294 -0.004816 0.000000 -0.004649 0.000000
# 2 -0.000294 0.003722 -0.002439 0.000000 -0.004081 0.000000
# 3 -0.004816 -0.002439 0.018122 0.000000 0.014487 0.000000
# 4 0.000000 0.000000 0.000000 0.053096 0.000000 0.014411
# 5 -0.004649 -0.004081 0.014487 0.000000 0.044145 0.000000
# 6 0.000000 0.000000 0.000000 0.014411 0.000000 0.034305
#
#
# Mechanical properties :
#
#
# Convention : Reuss Voigt Hill
#
# Bulk Modulus (GPa) = 65.17699 87.80719 76.49209
# Shear Modulus (GPa) = 27.44258 46.05738 36.74998
#
# Velocity S-wave (km/s) = 3.15520 4.08756 3.65126
# Velocity P-wave (km/s) = 6.07601 7.35739 6.74718
#
# Compressibility (1/GPa) = 0.01534284
#
# Stress axis : x y z
#
# Youngs Moduli (GPa) = 116.32819 268.68555 55.18087
#
# Poissons Ratio (x) = 0.07887 0.26577
# Poissons Ratio (y) = 0.03415 0.13458
# Poissons Ratio (z) = 0.56027 0.65531
#
# Static dielectric constant tensor:
#      x y z
#    x 2.093700 0.000000 -0.045620 
#    y 0.000000 2.136620 0.000000 
#    z -0.045620 0.000000 2.209590 
# 
# From -- ./inp_files/89432.got.cif
#   From: 2010.05.17/outbox.cif.g08.bks.cpg/sg10_45_cif.got.tgz:89432.got - 2010.06.03 11:33:40.
