data_PCOD9147683
_publ_section_title
;
Structure prediction by ZEFSAII (Michael W. Deem and Ramdas Pophale) SiO2 
 PCOD9147683
Probable space group: P 2/M
;
_chemical_formula_sum "Si O2"
_cell_formula_units_Z 32
_cell_length_a 9.090543
_cell_length_b 19.147821
_cell_length_c 14.736608
_cell_angle_alpha 90.000000
_cell_angle_beta 41.367431
_cell_angle_gamma 90.000000
_cell_volume 1695.246484
_symmetry_space_group_name_H-M "P 2/M"
_symmetry_group_IT_number 10
_symmetry_cell_setting 'monoclinic'
loop_
_space_group_symop_operation_xyz
x,y,z
-x,y,-z
-x,-y,-z
x,-y,z
loop_
_atom_site_type_symbol
_atom_site_label
_atom_site_fract_x
_atom_site_fract_y
_atom_site_fract_z
Si Si1 0.508351 0.214545 0.893367
Si Si2 0.268750 0.307612 0.559236
Si Si3 0.044645 0.668313 0.844494
Si Si4 0.239905 0.082791 0.633366
Si Si5 0.628403 0.353348 0.139851
Si Si6 0.743883 0.579309 0.589875
Si Si7 0.998715 0.174630 0.608766
Si Si8 0.038623 0.165762 0.087351
O O1 0.463418 0.276347 0.842226
O O2 0.747982 0.183096 0.761316
O O3 0.500000 0.243650 0.000000
O O4 0.302921 0.160509 0.983605
O O5 0.500000 0.286177 0.500000
O O6 0.121973 0.341832 0.706762
O O7 0.307477 0.364032 0.463304
O O8 0.139856 0.241544 0.577868
O O9 0.228642 0.647528 0.833469
O O10 0.012054 0.751901 0.873195
O O11 0.812598 0.631993 0.977852
O O12 0.500000 0.101349 0.500000
O O13 0.112024 0.108135 0.602780
O O14 0.118603 0.122568 0.772626
O O15 0.224498 0.000000 0.654028
O O16 0.421477 0.403682 0.250561
O O17 0.708911 0.500000 0.574942
O O18 0.000000 0.587687 0.500000
O O19 0.000000 0.172240 0.500000
O O20 0.000000 0.149144 0.000000
#
# Coordination Sequence:
#
# PCOD9147683 Si02
#       8
#     4   4   4   4   4   4   4   4
#     4  11  20  37  61  97 124 157 201 265 314 367
#     4  12  22  38  65  95 124 160 215 266 306 367
#     4  10  19  35  62  96 120 155 198 270 309 356
#     4  11  26  46  64  89 129 171 213 261 314 376
#     4  10  19  37  59  89 124 154 200 254 322 362
#     4  11  25  43  60  86 128 169 208 259 316 377
#     4  12  25  37  64  97 126 165 210 256 321 375
#     4  11  21  39  66  92 129 159 208 261 316 372
#
# _framework density 18.876311999999999
#
# number of rings (size 3 to 8) (size 9 to 14) (size 15 to 20)
#    0.000    1.000    6.250    3.000    1.750    0.750 
#    0.000    3.125    0.000    1.875    0.000    0.000 
#    0.000    0.000    0.000    0.000    0.000    0.000 
#
# Total GULP energy -178716.592738 kJ/mol
# GULP energy per Si atom -5584.893523 kJ/mol
# Density = 1.883335 g / cm^3
# Si number density = 18.876312 Si / 1000 Ang^3
#
#
#
# Elastic Constant Matrix: (Units=GPa)
#
#
# Indices 1 2 3 4 5 6 
#
# 1 77.9973 11.1997 47.7531 0.0000 -9.7315 0.0000
# 2 11.1997 40.9964 33.2400 0.0000 -14.9697 0.0000
# 3 47.7531 33.2400 144.5737 0.0000 -14.4489 0.0000
# 4 0.0000 0.0000 0.0000 1.3206 0.0000 -12.4422
# 5 -9.7315 -14.9697 -14.4489 0.0000 44.7199 0.0000
# 6 0.0000 0.0000 0.0000 -12.4422 0.0000 -14.4205
#
#
#
# Elastic Compliance Matrix: (Units=1/GPa)
#
#
# Indices 1 2 3 4 5 6 
#
# 1 0.016230 0.000598 -0.005296 0.000000 0.002021 0.000000
# 2 0.000598 0.033114 -0.006914 0.000000 0.008981 0.000000
# 3 -0.005296 -0.006914 0.010240 0.000000 -0.000158 0.000000
# 4 0.000000 0.000000 0.000000 0.082947 0.000000 -0.071568
# 5 0.002021 0.008981 -0.000158 0.000000 0.025756 0.000000
# 6 0.000000 0.000000 0.000000 -0.071568 0.000000 -0.007596
#
#
# Mechanical properties :
#
#
# Convention : Reuss Voigt Hill
#
# Bulk Modulus (GPa) = 27.50217 49.77257 38.63737
# Shear Modulus (GPa) = 25.50581 17.74899 21.62740
#
# Velocity S-wave (km/s) = 3.67986 3.06972 3.38855
# Velocity P-wave (km/s) = 5.71459 6.24414 5.98522
#
# Compressibility (1/GPa) = 0.03636077
#
# Stress axis : x y z
#
# Youngs Moduli (GPa) = 61.61496 30.19886 97.65598
#
# Poissons Ratio (x) = -0.01807 0.51722
# Poissons Ratio (y) = -0.03688 0.67515
# Poissons Ratio (z) = 0.32634 0.20878
#
# Static dielectric constant tensor:
#      x y z
#    x 1.678870 0.000000 -0.010290 
#    y 0.000000 1.617080 0.000000 
#    z -0.010290 0.000000 1.683220 
# 
# From -- ./inp_files/62481.got.cif
#   From: 2010.05.17/outbox.cif.g08.bks.cpg/sg10_32_cif.got.tgz:62481.got - 2010.06.03 11:33:40.
