data_PCOD9147583
_publ_section_title
;
Structure prediction by ZEFSAII (Michael W. Deem and Ramdas Pophale) SiO2 
 PCOD9147583
Probable space group: P 2/M
;
_chemical_formula_sum "Si O2"
_cell_formula_units_Z 26
_cell_length_a 5.482659
_cell_length_b 24.087646
_cell_length_c 9.508828
_cell_angle_alpha 90.000000
_cell_angle_beta 124.095821
_cell_angle_gamma 90.000000
_cell_volume 1039.910620
_symmetry_space_group_name_H-M "P 2/M"
_symmetry_group_IT_number 10
_symmetry_cell_setting 'monoclinic'
loop_
_space_group_symop_operation_xyz
x,y,z
-x,y,-z
-x,-y,-z
x,-y,z
loop_
_atom_site_type_symbol
_atom_site_label
_atom_site_fract_x
_atom_site_fract_y
_atom_site_fract_z
Si Si1 0.414412 0.563919 0.308913
Si Si2 0.269171 0.886939 0.020195
Si Si3 0.799986 0.219548 0.553091
Si Si4 0.331731 0.093151 0.582800
Si Si5 0.152331 0.000000 0.899868
Si Si6 0.148727 0.264758 0.894313
Si Si7 0.204205 0.614461 0.812047
O O1 0.500000 0.567622 0.500000
O O2 0.433428 0.500000 0.267079
O O3 0.658938 0.597015 0.295206
O O4 0.069345 0.581730 0.205332
O O5 0.461404 0.911681 0.213085
O O6 0.118615 0.933249 0.866809
O O7 0.500000 0.856221 0.000000
O O8 0.000000 0.855473 0.000000
O O9 0.500000 0.248863 0.500000
O O10 0.711854 0.158904 0.462973
O O11 0.000000 0.246771 0.500000
O O12 0.991465 0.216636 0.754375
O O13 0.500000 0.069058 0.500000
O O14 0.000000 0.069860 0.500000
O O15 0.500000 0.000000 0.000000
O O16 0.000000 0.000000 0.000000
O O17 0.097220 0.321965 0.791896
O O18 0.500000 0.259197 0.000000
O O19 0.000000 0.270317 0.000000
O O20 0.500000 0.608723 0.000000
#
# Coordination Sequence:
#
# PCOD9147583 Si02
#       7
#     4   4   4   4   2   4   4
#     4  11  24  41  61  90 126 162 199 236 281 346
#     4  10  19  35  59  85 114 157 203 246 293 348
#     4  10  22  41  61  86 118 152 190 243 300 356
#     4  10  21  39  56  82 121 153 190 242 297 357
#     4   8  16  30  52  82 114 148 198 248 290 344
#     4  11  23  42  64  88 117 151 196 246 293 351
#     4  11  23  40  62  90 120 154 199 246 291 341
#
# _framework density 25.002148999999999
#
# number of rings (size 3 to 8) (size 9 to 14) (size 15 to 20)
#    0.000    1.692    0.000    5.077    0.000    4.923 
#    0.000   19.231    0.000    0.000    0.000    0.000 
#    0.000    0.000    0.000    0.000    0.000    0.000 
#
# Total GULP energy -144857.369161 kJ/mol
# GULP energy per Si atom -5571.437275 kJ/mol
# Density = 2.494524 g / cm^3
# Si number density = 25.002149 Si / 1000 Ang^3
#
#
#
# Elastic Constant Matrix: (Units=GPa)
#
#
# Indices 1 2 3 4 5 6 
#
# 1 290.7473 18.9272 60.1003 0.0000 -19.9356 0.0000
# 2 18.9272 92.5588 23.4551 0.0000 -13.7736 0.0000
# 3 60.1003 23.4551 91.9317 0.0000 -5.6990 0.0000
# 4 0.0000 0.0000 0.0000 -33.1216 0.0000 27.4491
# 5 -19.9356 -13.7736 -5.6990 0.0000 52.4008 0.0000
# 6 0.0000 0.0000 0.0000 27.4491 0.0000 20.9138
#
#
#
# Elastic Compliance Matrix: (Units=1/GPa)
#
#
# Indices 1 2 3 4 5 6 
#
# 1 0.004058 0.000012 -0.002578 0.000000 0.001267 0.000000
# 2 0.000012 0.011953 -0.002882 0.000000 0.002833 0.000000
# 3 -0.002578 -0.002882 0.013280 0.000000 -0.000294 0.000000
# 4 0.000000 0.000000 0.000000 -0.014462 0.000000 0.018981
# 5 0.001267 0.002833 -0.000294 0.000000 0.020278 0.000000
# 6 0.000000 0.000000 0.000000 0.018981 0.000000 0.022903
#
#
# Mechanical properties :
#
#
# Convention : Reuss Voigt Hill
#
# Bulk Modulus (GPa) = 54.35901 75.57813 64.96857
# Shear Modulus (GPa) = 66.63224 32.88894 49.76059
#
# Velocity S-wave (km/s) = 5.16802 3.63084 4.46606
# Velocity P-wave (km/s) = 7.57629 6.91893 7.25506
#
# Compressibility (1/GPa) = 0.01839621
#
# Stress axis : x y z
#
# Youngs Moduli (GPa) = 246.40760 83.65835 75.30241
#
# Poissons Ratio (x) = -0.00099 0.19410
# Poissons Ratio (y) = -0.00291 0.21701
# Poissons Ratio (z) = 0.63514 0.24109
#
# Static dielectric constant tensor:
#      x y z
#    x 2.090490 0.000000 -0.005530 
#    y 0.000000 2.041260 0.000000 
#    z -0.005530 0.000000 2.097430 
# 
# From -- ./inp_files/15850.got.cif
#   From: 2010.05.17/outbox.cif.g08.bks.cpg/sg10_8_cif.got.tgz:15850.got - 2010.06.03 11:33:40.
