data_PCOD9147512
_publ_section_title
;
Structure prediction by ZEFSAII (Michael W. Deem and Ramdas Pophale) SiO2 
 PCOD9147512
Probable space group: P 2/M
;
_chemical_formula_sum "Si O2"
_cell_formula_units_Z 32
_cell_length_a 19.384585
_cell_length_b 7.464215
_cell_length_c 24.340306
_cell_angle_alpha 90.000000
_cell_angle_beta 156.837232
_cell_angle_gamma 90.000000
_cell_volume 1385.287203
_symmetry_space_group_name_H-M "P 2/M"
_symmetry_group_IT_number 10
_symmetry_cell_setting 'monoclinic'
loop_
_space_group_symop_operation_xyz
x,y,z
-x,y,-z
-x,-y,-z
x,-y,z
loop_
_atom_site_type_symbol
_atom_site_label
_atom_site_fract_x
_atom_site_fract_y
_atom_site_fract_z
Si Si1 0.683609 0.219187 0.160035
Si Si2 0.801070 0.216180 0.363867
Si Si3 0.348301 0.201066 0.536221
Si Si4 0.786320 0.293161 0.041259
Si Si5 0.034260 0.216424 0.937493
Si Si6 0.283672 0.780976 0.220403
Si Si7 0.544128 0.705747 0.267080
Si Si8 0.029239 0.204507 0.714220
O O1 0.696266 0.271044 0.232707
O O2 0.851544 0.280915 0.247406
O O3 0.687481 0.000000 0.160666
O O4 0.500000 0.277511 0.000000
O O5 0.717952 0.290054 0.357994
O O6 0.000000 0.270373 0.500000
O O7 0.796175 0.000000 0.364448
O O8 0.515941 0.282415 0.627743
O O9 0.423851 0.193074 0.653371
O O10 0.156991 0.288010 0.403944
O O11 0.319057 0.000000 0.492203
O O12 0.753954 0.500000 0.031930
O O13 0.927153 0.282541 0.095187
O O14 0.610153 0.218766 0.884244
O O15 0.851080 0.201743 0.143836
O O16 0.186695 0.272210 0.092360
O O17 0.037062 0.000000 0.938077
O O18 0.849812 0.271855 0.829165
O O19 0.289616 0.000000 0.224069
O O20 0.499277 0.500000 0.247741
O O21 0.985431 0.000000 0.665128
#
# Coordination Sequence:
#
# PCOD9147512 Si02
#       8
#     4   4   4   4   4   4   4   4
#     4   9  17  31  51  75 100 129 171 219 263 309
#     4  10  20  35  56  80 105 135 175 226 276 320
#     4  10  19  35  58  83 109 139 180 229 277 325
#     4  11  23  37  52  78 113 148 185 222 262 317
#     4   9  16  31  56  82 107 138 178 224 274 319
#     4   8  15  29  54  85 109 133 173 227 277 320
#     4  11  23  36  53  80 112 146 183 220 266 325
#     4  10  21  36  57  81 105 139 181 224 275 326
#
# _framework density 23.099903000000001
#
# number of rings (size 3 to 8) (size 9 to 14) (size 15 to 20)
#    0.000    2.250    1.250    3.000    0.000    5.250 
#    0.000    3.125    0.000    6.000    0.000    0.000 
#    0.000    0.000    0.000    0.000    0.000    0.000 
#
# Total GULP energy -178781.572729 kJ/mol
# GULP energy per Si atom -5586.924148 kJ/mol
# Density = 2.304733 g / cm^3
# Si number density = 23.099903 Si / 1000 Ang^3
#
#
#
# Elastic Constant Matrix: (Units=GPa)
#
#
# Indices 1 2 3 4 5 6 
#
# 1 55.1193 -8.2892 -20.3299 0.0000 20.6661 0.0000
# 2 -8.2892 72.7945 1.5010 0.0000 1.7726 0.0000
# 3 -20.3299 1.5010 68.3800 0.0000 22.3944 0.0000
# 4 0.0000 0.0000 0.0000 0.0521 0.0000 1.9156
# 5 20.6661 1.7726 22.3944 0.0000 41.4249 0.0000
# 6 0.0000 0.0000 0.0000 1.9156 0.0000 65.6401
#
#
#
# Elastic Compliance Matrix: (Units=1/GPa)
#
#
# Indices 1 2 3 4 5 6 
#
# 1 0.038325 0.004675 0.021409 0.000000 -0.030894 0.000000
# 2 0.004675 0.014323 0.002479 0.000000 -0.004285 0.000000
# 3 0.021409 0.002479 0.029732 0.000000 -0.026860 0.000000
# 4 0.000000 0.000000 0.000000********** 0.000000 7.735939
# 5 -0.030894 -0.004285 -0.026860 0.000000 0.054256 0.000000
# 6 0.000000 0.000000 0.000000 7.735939 0.000000 -0.210521
#
#
# Mechanical properties :
#
#
# Convention : Reuss Voigt Hill
#
# Bulk Modulus (GPa) = 7.16813 15.78418 11.47615
# Shear Modulus (GPa) = -0.01886 36.31758 18.14936
#
# Velocity S-wave (km/s) = -0.09045 3.96939 2.80606
# Velocity P-wave (km/s) = 1.76038 5.27787 3.93414
#
# Compressibility (1/GPa) = 0.13950649
#
# Stress axis : x y z
#
# Youngs Moduli (GPa) = 26.09247 69.81834 33.63435
#
# Poissons Ratio (x) = -0.32640 -0.72009
# Poissons Ratio (y) = -0.12198 -0.08338
# Poissons Ratio (z) = -0.55863 -0.17308
#
# Static dielectric constant tensor:
#      x y z
#    x 1.837000 0.000000 0.046570 
#    y 0.000000 1.899700 0.000000 
#    z 0.046570 0.000000 1.877240 
# 
# From -- ./inp_files/93752.got.cif
#   From: 2010.05.17/outbox.cif.g08.bks.cpg/sg10_47_cif.got.tgz:93752.got - 2010.06.03 11:33:40.
