data_PCOD9147202
_publ_section_title
;
Structure prediction by ZEFSAII (Michael W. Deem and Ramdas Pophale) SiO2 
 PCOD9147202
Probable space group: P 2/M
;
_chemical_formula_sum "Si O2"
_cell_formula_units_Z 32
_cell_length_a 22.119952
_cell_length_b 7.557937
_cell_length_c 28.277939
_cell_angle_alpha 90.000000
_cell_angle_beta 18.808953
_cell_angle_gamma 90.000000
_cell_volume 1524.223218
_symmetry_space_group_name_H-M "P 2/M"
_symmetry_group_IT_number 10
_symmetry_cell_setting 'monoclinic'
loop_
_space_group_symop_operation_xyz
x,y,z
-x,y,-z
-x,-y,-z
x,-y,z
loop_
_atom_site_type_symbol
_atom_site_label
_atom_site_fract_x
_atom_site_fract_y
_atom_site_fract_z
Si Si1 0.505618 0.205384 0.943476
Si Si2 0.786623 0.216470 0.654835
Si Si3 0.866776 0.292938 0.284680
Si Si4 0.930578 0.796843 0.131386
Si Si5 0.540983 0.785652 0.378327
Si Si6 0.811424 0.295679 0.891151
Si Si7 0.654863 0.216447 0.191512
Si Si8 0.479760 0.785432 0.810803
O O1 0.658610 0.279829 0.793475
O O2 0.559031 0.000000 0.909721
O O3 0.500000 0.284869 0.000000
O O4 0.306200 0.211274 0.064240
O O5 0.676850 0.267169 0.688344
O O6 0.000000 0.275825 0.500000
O O7 0.786781 0.000000 0.655664
O O8 0.913225 0.500000 0.245262
O O9 0.924903 0.205419 0.192409
O O10 0.647009 0.274918 0.456956
O O11 0.989518 0.223364 0.237992
O O12 0.734624 0.719660 0.258322
O O13 0.930654 0.000000 0.114394
O O14 0.128793 0.720764 0.967803
O O15 0.548459 0.732645 0.317879
O O16 0.538966 0.000000 0.382836
O O17 0.834674 0.500000 0.860729
O O18 0.679511 0.279845 0.035198
O O19 0.560012 0.274090 0.212869
O O20 0.659986 0.000000 0.186755
O O21 0.469772 0.000000 0.818914
#
# Coordination Sequence:
#
# PCOD9147202 Si02
#       8
#     4   4   4   4   4   4   4   4
#     4   9  18  33  53  79 104 130 167 210 254 299
#     4   8  14  26  46  73 103 127 153 195 243 293
#     4  11  23  37  52  74 106 142 180 218 258 308
#     4  10  19  34  58  79 100 133 174 220 268 318
#     4  10  21  35  52  79 108 135 169 217 275 322
#     4  10  20  34  53  75 101 138 179 212 250 300
#     4   9  17  32  54  80 104 129 170 219 266 317
#     4   9  16  30  54  77  99 132 171 210 255 303
#
# _framework density 20.994299000000002
#
# number of rings (size 3 to 8) (size 9 to 14) (size 15 to 20)
#    0.000    2.500    1.250    2.250    0.000    5.250 
#    2.250    1.250    0.000    7.500    0.000    0.000 
#    0.000    0.000    0.000    0.000    0.000    0.000 
#
# Total GULP energy -178575.348163 kJ/mol
# GULP energy per Si atom -5580.479630 kJ/mol
# Density = 2.094651 g / cm^3
# Si number density = 20.994299 Si / 1000 Ang^3
#
#
#
# Elastic Constant Matrix: (Units=GPa)
#
#
# Indices 1 2 3 4 5 6 
#
# 1 78.3962 -2.9326 -3.1541 0.0000 -11.8176 0.0000
# 2 -2.9326 49.1844 -2.3699 0.0000 -1.4483 0.0000
# 3 -3.1541 -2.3699 48.0674 0.0000 -15.9533 0.0000
# 4 0.0000 0.0000 0.0000 43.0368 0.0000 -21.7110
# 5 -11.8176 -1.4483 -15.9533 0.0000 34.1308 0.0000
# 6 0.0000 0.0000 0.0000 -21.7110 0.0000 -18.5550
#
#
#
# Elastic Compliance Matrix: (Units=1/GPa)
#
#
# Indices 1 2 3 4 5 6 
#
# 1 0.013868 0.001159 0.003050 0.000000 0.006277 0.000000
# 2 0.001159 0.020549 0.001789 0.000000 0.002109 0.000000
# 3 0.003050 0.001789 0.025410 0.000000 0.013009 0.000000
# 4 0.000000 0.000000 0.000000 0.014611 0.000000 -0.017096
# 5 0.006277 0.002109 0.013009 0.000000 0.037642 0.000000
# 6 0.000000 0.000000 0.000000 -0.017096 0.000000 -0.033889
#
#
# Mechanical properties :
#
#
# Convention : Reuss Voigt Hill
#
# Bulk Modulus (GPa) = 13.92299 17.63720 15.78009
# Shear Modulus (GPa) = 55.47165 23.99615 39.73390
#
# Velocity S-wave (km/s) = 5.14583 3.38447 4.35513
# Velocity P-wave (km/s) = 6.47706 4.86745 5.72907
#
# Compressibility (1/GPa) = 0.07182366
#
# Stress axis : x y z
#
# Youngs Moduli (GPa) = 72.10883 48.66400 39.35430
#
# Poissons Ratio (x) = -0.05638 -0.12004
# Poissons Ratio (y) = -0.08355 -0.07042
# Poissons Ratio (z) = -0.21995 -0.08707
#
# Static dielectric constant tensor:
#      x y z
#    x 1.758590 0.000000 -0.027250 
#    y 0.000000 1.850630 0.000000 
#    z -0.027250 0.000000 1.724530 
# 
# From -- ./inp_files/86882.got.cif
#   From: 2010.05.17/outbox.cif.g08.bks.cpg/sg10_44_cif.got.tgz:86882.got - 2010.06.03 11:33:40.
