data_PCOD9147855
_publ_section_title
;
Structure prediction by ZEFSAII (Michael W. Deem and Ramdas Pophale) SiO2 
 PCOD9147855
Probable space group: P 2/M
;
_chemical_formula_sum "Si O2"
_cell_formula_units_Z 30
_cell_length_a 16.954090
_cell_length_b 7.652473
_cell_length_c 15.796275
_cell_angle_alpha 90.000000
_cell_angle_beta 34.480760
_cell_angle_gamma 90.000000
_cell_volume 1160.237059
_symmetry_space_group_name_H-M "P 2/M"
_symmetry_group_IT_number 10
_symmetry_cell_setting 'monoclinic'
loop_
_space_group_symop_operation_xyz
x,y,z
-x,y,-z
-x,-y,-z
x,-y,z
loop_
_atom_site_type_symbol
_atom_site_label
_atom_site_fract_x
_atom_site_fract_y
_atom_site_fract_z
Si Si1 0.161232 0.212344 0.350300
Si Si2 0.602072 0.705615 0.981723
Si Si3 0.314827 0.811211 0.917518
Si Si4 0.745280 0.799666 0.557857
Si Si5 0.391187 0.794743 0.499185
Si Si6 0.023164 0.698673 0.227812
Si Si7 0.394457 0.500000 0.722728
Si Si8 0.116267 0.697353 0.833261
O O1 0.243969 0.269140 0.193998
O O2 0.250671 0.280232 0.352242
O O3 0.000000 0.269165 0.500000
O O4 0.160933 0.000000 0.353268
O O5 0.576694 0.500000 0.014073
O O6 0.500000 0.779103 0.000000
O O7 0.585548 0.785797 0.089378
O O8 0.322295 0.653257 0.846412
O O9 0.337332 0.000000 0.858188
O O10 0.163002 0.803372 0.093031
O O11 0.665058 0.733864 0.545514
O O12 0.907635 0.788675 0.387350
O O13 0.702790 0.000000 0.602883
O O14 0.511940 0.656238 0.404150
O O15 0.262840 0.781456 0.679057
O O16 0.427643 0.000000 0.465122
O O17 0.047690 0.500000 0.235104
O O18 0.958898 0.687313 0.190378
O O19 0.152750 0.500000 0.834091
O O20 0.000000 0.772349 0.000000
#
# Coordination Sequence:
#
# PCOD9147855 Si02
#       8
#     4   4   4   4   4   4   2   4
#     4  10  21  36  55  80 113 153 198 251 312 373
#     4  11  25  42  60  86 120 158 211 268 319 379
#     4  12  25  42  64  85 118 165 211 262 310 364
#     4   9  19  33  55  86 117 151 195 246 310 373
#     4  10  21  37  61  92 124 157 196 251 303 360
#     4  10  19  36  61  92 126 158 203 254 305 370
#     4  12  24  42  60  87 119 162 212 257 294 371
#     4   9  18  36  66 102 135 165 195 243 310 372
#
# _framework density 25.856786
#
# number of rings (size 3 to 8) (size 9 to 14) (size 15 to 20)
#    0.000    1.733    2.000    2.000    2.800    3.733 
#    0.000    0.000    0.000    1.600    0.000    1.867 
#    0.000    0.000    0.000    0.000    0.000    0.000 
#
# Total GULP energy -167428.083704 kJ/mol
# GULP energy per Si atom -5580.936123 kJ/mol
# Density = 2.579793 g / cm^3
# Si number density = 25.856786 Si / 1000 Ang^3
#
#
#
# Elastic Constant Matrix: (Units=GPa)
#
#
# Indices 1 2 3 4 5 6 
#
# 1 62.8211 4.6057 -0.6243 0.0000 10.0726 0.0000
# 2 4.6057 141.1955 14.5088 0.0000 0.9312 0.0000
# 3 -0.6243 14.5088 119.1737 0.0000 16.2660 0.0000
# 4 0.0000 0.0000 0.0000 39.8342 0.0000 -10.3088
# 5 10.0726 0.9312 16.2660 0.0000 34.7762 0.0000
# 6 0.0000 0.0000 0.0000 -10.3088 0.0000 9.1764
#
#
#
# Elastic Compliance Matrix: (Units=1/GPa)
#
#
# Indices 1 2 3 4 5 6 
#
# 1 0.016816 -0.000604 0.000880 0.000000 -0.005266 0.000000
# 2 -0.000604 0.007196 -0.000937 0.000000 0.000420 0.000000
# 3 0.000880 -0.000937 0.009124 0.000000 -0.004497 0.000000
# 4 0.000000 0.000000 0.000000 0.035394 0.000000 0.039762
# 5 -0.005266 0.000420 -0.004497 0.000000 0.032373 0.000000
# 6 0.000000 0.000000 0.000000 0.039762 0.000000 0.153645
#
#
# Mechanical properties :
#
#
# Convention : Reuss Voigt Hill
#
# Bulk Modulus (GPa) = 31.43272 40.01898 35.72585
# Shear Modulus (GPa) = 18.76370 37.07069 27.91719
#
# Velocity S-wave (km/s) = 2.69676 3.79052 3.28942
# Velocity P-wave (km/s) = 4.67756 5.88797 5.31732
#
# Compressibility (1/GPa) = 0.03181398
#
# Stress axis : x y z
#
# Youngs Moduli (GPa) = 59.46844 138.97469 109.60601
#
# Poissons Ratio (x) = 0.08398 -0.09650
# Poissons Ratio (y) = 0.03593 0.10265
# Poissons Ratio (z) = -0.05236 0.13016
#
# Static dielectric constant tensor:
#      x y z
#    x 2.320380 0.000000 -0.006740 
#    y 0.000000 1.944860 0.000000 
#    z -0.006740 0.000000 2.017290 
# 
# From -- ./inp_files/79372.got.cif
#   From: 2010.05.17/outbox.cif.g08.bks.cpg/sg10_40_cif.got.tgz:79372.got - 2010.06.03 11:33:40.
