data_PCOD9147349
_publ_section_title
;
Structure prediction by ZEFSAII (Michael W. Deem and Ramdas Pophale) SiO2 
 PCOD9147349
Probable space group: P 2/M
;
_chemical_formula_sum "Si O2"
_cell_formula_units_Z 24
_cell_length_a 14.525922
_cell_length_b 16.164911
_cell_length_c 5.898715
_cell_angle_alpha 90.000000
_cell_angle_beta 92.661772
_cell_angle_gamma 90.000000
_cell_volume 1383.584277
_symmetry_space_group_name_H-M "P 2/M"
_symmetry_group_IT_number 10
_symmetry_cell_setting 'monoclinic'
loop_
_space_group_symop_operation_xyz
x,y,z
-x,y,-z
-x,-y,-z
x,-y,z
loop_
_atom_site_type_symbol
_atom_site_label
_atom_site_fract_x
_atom_site_fract_y
_atom_site_fract_z
Si Si1 0.948617 0.500000 0.747707
Si Si2 0.102643 0.163763 0.049737
Si Si3 0.269445 0.906281 0.314735
Si Si4 0.549357 0.000000 0.259661
Si Si5 0.098031 0.322887 0.380365
Si Si6 0.604309 0.835849 0.060440
Si Si7 0.231440 0.231101 0.683407
O O1 0.896519 0.412305 0.735322
O O2 0.000000 0.500000 0.500000
O O3 0.000000 0.500000 0.000000
O O4 0.173536 0.099058 0.164799
O O5 0.097993 0.246133 0.206049
O O6 0.149954 0.192830 0.824224
O O7 0.000000 0.132265 0.000000
O O8 0.255930 0.835854 0.497059
O O9 0.284194 0.000000 0.394433
O O10 0.350867 0.877538 0.156791
O O11 0.500000 0.000000 0.500000
O O12 0.599028 0.088598 0.240525
O O13 0.500000 0.000000 0.000000
O O14 0.184793 0.309271 0.557671
O O15 0.000000 0.318664 0.500000
O O16 0.676248 0.766336 0.153657
O O17 0.500000 0.807600 0.000000
#
# Coordination Sequence:
#
# PCOD9147349 Si02
#       7
#     2   4   4   2   4   4   4
#     4  10  22  34  60  96 119 149 183 228 278 349
#     4  10  19  35  53  70 104 148 190 228 283 333
#     4  10  22  35  48  76 103 141 198 240 292 340
#     4  10  22  34  56  80 104 143 188 245 306 346
#     4  10  19  35  57  81 113 145 180 224 283 345
#     4  10  22  35  53  77 106 145 193 243 297 346
#     4  10  22  33  54  76 108 151 185 239 286 343
#
# _framework density 17.346249
#
# number of rings (size 3 to 8) (size 9 to 14) (size 15 to 20)
#    0.000    2.000    2.500    0.500    8.167    1.000 
#    0.000    0.833    0.000    0.000    0.000    0.583 
#    0.000   12.000    0.000    0.333    0.000    0.000 
#
# Total GULP energy -133630.894896 kJ/mol
# GULP energy per Si atom -5567.953954 kJ/mol
# Density = 1.730677 g / cm^3
# Si number density = 17.346249 Si / 1000 Ang^3
#
#
#
# Elastic Constant Matrix: (Units=GPa)
#
#
# Indices 1 2 3 4 5 6 
#
# 1 129.6468 23.2935 28.5618 0.0000 10.2326 0.0000
# 2 23.2935 74.6512 20.0320 0.0000 6.1299 0.0000
# 3 28.5618 20.0320 70.7879 0.0000 -13.0967 0.0000
# 4 0.0000 0.0000 0.0000 26.1502 0.0000 8.6221
# 5 10.2326 6.1299 -13.0967 0.0000 41.1317 0.0000
# 6 0.0000 0.0000 0.0000 8.6221 0.0000 14.6298
#
#
#
# Elastic Compliance Matrix: (Units=1/GPa)
#
#
# Indices 1 2 3 4 5 6 
#
# 1 0.009092 -0.001541 -0.003834 0.000000 -0.003253 0.000000
# 2 -0.001541 0.015303 -0.004314 0.000000 -0.003271 0.000000
# 3 -0.003834 -0.004314 0.018266 0.000000 0.007413 0.000000
# 4 0.000000 0.000000 0.000000 0.047464 0.000000 -0.027973
# 5 -0.003253 -0.003271 0.007413 0.000000 0.027969 0.000000
# 6 0.000000 0.000000 0.000000 -0.027973 0.000000 0.084839
#
#
# Mechanical properties :
#
#
# Convention : Reuss Voigt Hill
#
# Bulk Modulus (GPa) = 42.95084 46.54007 44.74546
# Shear Modulus (GPa) = 21.73248 29.92893 25.83071
#
# Velocity S-wave (km/s) = 3.54342 4.15828 3.86310
# Velocity P-wave (km/s) = 6.44637 7.06706 6.76384
#
# Compressibility (1/GPa) = 0.02328243
#
# Stress axis : x y z
#
# Youngs Moduli (GPa) = 109.99260 65.34839 54.74674
#
# Poissons Ratio (x) = 0.10069 0.20990
# Poissons Ratio (y) = 0.16949 0.23617
# Poissons Ratio (z) = 0.42172 0.28190
#
# Static dielectric constant tensor:
#      x y z
#    x 1.653570 0.000000 0.046770 
#    y 0.000000 1.568280 0.000000 
#    z 0.046770 0.000000 1.686380 
# 
# From -- ./inp_files/9269.got.cif
#   From: 2010.05.17/outbox.cif.g08.bks.cpg/sg10_5_cif.got.tgz:9269.got - 2010.06.03 11:33:40.
