data_PCOD9147360
_publ_section_title
;
Structure prediction by ZEFSAII (Michael W. Deem and Ramdas Pophale) SiO2 
 PCOD9147360
Probable space group: P 2/M
;
_chemical_formula_sum "Si O2"
_cell_formula_units_Z 32
_cell_length_a 23.200055
_cell_length_b 12.769148
_cell_length_c 17.784451
_cell_angle_alpha 90.000000
_cell_angle_beta 21.041797
_cell_angle_gamma 90.000000
_cell_volume 1891.668338
_symmetry_space_group_name_H-M "P 2/M"
_symmetry_group_IT_number 10
_symmetry_cell_setting 'monoclinic'
loop_
_space_group_symop_operation_xyz
x,y,z
-x,y,-z
-x,-y,-z
x,-y,z
loop_
_atom_site_type_symbol
_atom_site_label
_atom_site_fract_x
_atom_site_fract_y
_atom_site_fract_z
Si Si1 0.321478 0.882178 0.010780
Si Si2 0.331268 0.122125 0.750452
Si Si3 0.104165 0.379104 0.152463
Si Si4 0.771893 0.623710 0.308553
Si Si5 0.081793 0.290647 0.012822
Si Si6 0.334654 0.119595 0.173462
Si Si7 0.566055 0.273488 0.239144
Si Si8 0.008044 0.762377 0.579644
O O1 0.435948 0.796734 0.833352
O O2 0.342905 0.000000 0.954799
O O3 0.344922 0.884837 0.071168
O O4 0.138599 0.841902 0.223895
O O5 0.500000 0.126604 0.500000
O O6 0.371191 0.190126 0.775493
O O7 0.295014 0.000000 0.808816
O O8 0.180046 0.180581 0.894795
O O9 0.067598 0.500000 0.190236
O O10 0.067823 0.326107 0.116227
O O11 0.014297 0.329527 0.333255
O O12 0.292941 0.358729 0.937855
O O13 0.785365 0.500000 0.311539
O O14 0.599350 0.671892 0.537855
O O15 0.907541 0.692788 0.186599
O O16 0.807630 0.636872 0.175939
O O17 0.176609 0.181614 0.387171
O O18 0.323039 0.000000 0.216411
O O19 0.500000 0.167927 0.000000
O O20 0.000000 0.734441 0.500000
#
# Coordination Sequence:
#
# PCOD9147360 Si02
#       8
#     4   4   4   4   4   4   4   4
#     4   9  17  31  50  73 101 131 166 206 252 306
#     4  10  19  35  54  74 102 134 168 210 258 309
#     4  10  20  34  53  76 101 132 175 219 258 304
#     4  11  21  36  55  75 106 141 177 225 267 303
#     4  10  21  37  54  77 102 137 179 216 261 312
#     4   9  17  30  50  75 100 128 163 203 248 301
#     4  10  20  33  52  79 102 134 174 216 261 310
#     4   9  18  32  51  74 100 131 164 204 255 309
#
# _framework density 16.916284000000001
#
# number of rings (size 3 to 8) (size 9 to 14) (size 15 to 20)
#    0.000    2.250    1.250    2.625    0.000    2.750 
#    0.000    5.000    0.000    0.375    0.000    0.000 
#    0.000    0.000    0.000    0.000    0.000    0.000 
#
# Total GULP energy -178179.871770 kJ/mol
# GULP energy per Si atom -5568.120993 kJ/mol
# Density = 1.687778 g / cm^3
# Si number density = 16.916284 Si / 1000 Ang^3
#
#
#
# Elastic Constant Matrix: (Units=GPa)
#
#
# Indices 1 2 3 4 5 6 
#
# 1 38.0071 30.1592 33.5845 0.0000 -4.6645 0.0000
# 2 30.1592 79.1547 28.0734 0.0000 -4.1783 0.0000
# 3 33.5845 28.0734 88.6328 0.0000 0.8350 0.0000
# 4 0.0000 0.0000 0.0000 15.6387 0.0000 1.4675
# 5 -4.6645 -4.1783 0.8350 0.0000 25.5823 0.0000
# 6 0.0000 0.0000 0.0000 1.4675 0.0000 19.3254
#
#
#
# Elastic Compliance Matrix: (Units=1/GPa)
#
#
# Indices 1 2 3 4 5 6 
#
# 1 0.051807 -0.013909 -0.015297 0.000000 0.007674 0.000000
# 2 -0.013909 0.018124 -0.000475 0.000000 0.000440 0.000000
# 3 -0.015297 -0.000475 0.017262 0.000000 -0.003430 0.000000
# 4 0.000000 0.000000 0.000000 0.064403 0.000000 -0.004891
# 5 0.007674 0.000440 -0.003430 0.000000 0.040672 0.000000
# 6 0.000000 0.000000 0.000000 -0.004891 0.000000 0.052117
#
#
# Mechanical properties :
#
#
# Convention : Reuss Voigt Hill
#
# Bulk Modulus (GPa) = 35.93052 43.26986 39.60019
# Shear Modulus (GPa) = 15.97326 19.70780 17.84053
#
# Velocity S-wave (km/s) = 3.07620 3.41694 3.25104
# Velocity P-wave (km/s) = 5.82269 6.41885 6.12802
#
# Compressibility (1/GPa) = 0.02783149
#
# Stress axis : x y z
#
# Youngs Moduli (GPa) = 19.30249 55.17405 57.93212
#
# Poissons Ratio (x) = 0.76740 0.88621
# Poissons Ratio (y) = 0.26847 0.02749
# Poissons Ratio (z) = 0.29528 0.02619
#
# Static dielectric constant tensor:
#      x y z
#    x 1.597610 0.000000 0.013630 
#    y 0.000000 1.569350 0.000000 
#    z 0.013630 0.000000 1.566370 
# 
# From -- ./inp_files/28592.got.cif
#   From: 2010.05.17/outbox.cif.g08.bks.cpg/sg10_15_cif.got.tgz:28592.got - 2010.06.03 11:33:40.
