data_PCOD9147788
_publ_section_title
;
Structure prediction by ZEFSAII (Michael W. Deem and Ramdas Pophale) SiO2 
 PCOD9147788
Probable space group: P 2/M
;
_chemical_formula_sum "Si O2"
_cell_formula_units_Z 30
_cell_length_a 16.027157
_cell_length_b 20.319863
_cell_length_c 15.647163
_cell_angle_alpha 90.000000
_cell_angle_beta 161.578095
_cell_angle_gamma 90.000000
_cell_volume 1610.334693
_symmetry_space_group_name_H-M "P 2/M"
_symmetry_group_IT_number 10
_symmetry_cell_setting 'monoclinic'
loop_
_space_group_symop_operation_xyz
x,y,z
-x,y,-z
-x,-y,-z
x,-y,z
loop_
_atom_site_type_symbol
_atom_site_label
_atom_site_fract_x
_atom_site_fract_y
_atom_site_fract_z
Si Si1 0.323777 0.706953 0.113300
Si Si2 0.842778 0.106916 0.540261
Si Si3 0.735602 0.192266 0.794693
Si Si4 0.264768 0.000000 0.704272
Si Si5 0.974599 0.612255 0.573580
Si Si6 0.314374 0.923404 0.123622
Si Si7 0.850728 0.257130 0.533723
Si Si8 0.556206 0.425397 0.845067
O O1 0.338347 0.747280 0.214672
O O2 0.546433 0.734918 0.265172
O O3 0.389090 0.629304 0.174501
O O4 0.037078 0.720888 0.793979
O O5 0.601413 0.102338 0.372862
O O6 0.897077 0.180831 0.562742
O O7 0.745329 0.062351 0.367924
O O8 0.105962 0.081236 0.843004
O O9 0.500000 0.179908 0.500000
O O10 0.779418 0.127263 0.895081
O O11 0.000000 0.207608 0.000000
O O12 0.000000 0.000000 0.500000
O O13 0.500000 0.000000 0.000000
O O14 0.926172 0.690963 0.534002
O O15 0.000000 0.591959 0.500000
O O16 0.235846 0.592107 0.878311
O O17 0.729722 0.582695 0.388892
O O18 0.333087 0.000000 0.167858
O O19 0.592187 0.500000 0.850951
#
# Coordination Sequence:
#
# PCOD9147788 Si02
#       8
#     4   4   4   2   4   4   4   4
#     4  10  20  38  59  84 116 147 195 237 272 355
#     4  12  21  40  64  80 112 161 198 244 292 352
#     4  12  24  38  62  92 121 147 187 243 302 347
#     4  12  26  40  56  88 116 146 204 256 294 332
#     4  10  21  34  53  85 122 149 191 247 294 337
#     4  12  23  40  63  88 115 158 197 230 293 374
#     4  10  19  36  60  81 105 155 203 235 281 341
#     4  10  21  36  58  84 113 159 199 232 281 346
#
# _framework density 18.629669
#
# number of rings (size 3 to 8) (size 9 to 14) (size 15 to 20)
#    0.000    1.067    4.000    3.200    0.000    2.667 
#    0.000    2.667    0.000    0.800    0.000    0.000 
#    0.000    0.000    0.000    0.000    0.000    0.000 
#
# Total GULP energy -167539.610784 kJ/mol
# GULP energy per Si atom -5584.653693 kJ/mol
# Density = 1.858727 g / cm^3
# Si number density = 18.629669 Si / 1000 Ang^3
#
#
#
# Elastic Constant Matrix: (Units=GPa)
#
#
# Indices 1 2 3 4 5 6 
#
# 1 51.9429 23.1488 0.6037 0.0000 -6.3066 0.0000
# 2 23.1488 157.4243 -9.8384 0.0000 -12.1776 0.0000
# 3 0.6037 -9.8384 74.7210 0.0000 -2.3247 0.0000
# 4 0.0000 0.0000 0.0000 19.6799 0.0000 8.1692
# 5 -6.3066 -12.1776 -2.3247 0.0000 27.7971 0.0000
# 6 0.0000 0.0000 0.0000 8.1692 0.0000 5.2742
#
#
#
# Elastic Compliance Matrix: (Units=1/GPa)
#
#
# Indices 1 2 3 4 5 6 
#
# 1 0.020943 -0.002838 -0.000435 0.000000 0.003472 0.000000
# 2 -0.002838 0.007029 0.001027 0.000000 0.002521 0.000000
# 3 -0.000435 0.001027 0.013568 0.000000 0.001486 0.000000
# 4 0.000000 0.000000 0.000000 0.142319 0.000000 -0.220439
# 5 0.003472 0.002521 0.001486 0.000000 0.037991 0.000000
# 6 0.000000 0.000000 0.000000 -0.220439 0.000000 0.531043
#
#
# Mechanical properties :
#
#
# Convention : Reuss Voigt Hill
#
# Bulk Modulus (GPa) = 26.99230 34.65737 30.82483
# Shear Modulus (GPa) = 6.49574 28.56185 17.52879
#
# Velocity S-wave (km/s) = 1.86932 3.91978 3.07075
# Velocity P-wave (km/s) = 4.37943 6.25539 5.39951
#
# Compressibility (1/GPa) = 0.03704761
#
# Stress axis : x y z
#
# Youngs Moduli (GPa) = 47.74775 142.27145 73.70246
#
# Poissons Ratio (x) = 0.40381 0.03205
# Poissons Ratio (y) = 0.13552 -0.07568
# Poissons Ratio (z) = 0.02077 -0.14609
#
# Static dielectric constant tensor:
#      x y z
#    x 1.611370 0.000000 0.016480 
#    y 0.000000 1.667910 0.000000 
#    z 0.016480 0.000000 1.627910 
# 
# From -- ./inp_files/67866.got.cif
#   From: 2010.05.17/outbox.cif.g08.bks.cpg/sg10_34_cif.got.tgz:67866.got - 2010.06.03 11:33:40.
