data_PCOD9147315
_publ_section_title
;
Structure prediction by ZEFSAII (Michael W. Deem and Ramdas Pophale) SiO2 
 PCOD9147315
Probable space group: P 2/M
;
_chemical_formula_sum "Si O2"
_cell_formula_units_Z 28
_cell_length_a 20.674720
_cell_length_b 8.691504
_cell_length_c 15.147021
_cell_angle_alpha 90.000000
_cell_angle_beta 147.156930
_cell_angle_gamma 90.000000
_cell_volume 1476.159796
_symmetry_space_group_name_H-M "P 2/M"
_symmetry_group_IT_number 10
_symmetry_cell_setting 'monoclinic'
loop_
_space_group_symop_operation_xyz
x,y,z
-x,y,-z
-x,-y,-z
x,-y,z
loop_
_atom_site_type_symbol
_atom_site_label
_atom_site_fract_x
_atom_site_fract_y
_atom_site_fract_z
Si Si1 0.801090 0.313892 0.506754
Si Si2 0.700971 0.316318 0.582614
Si Si3 0.278304 0.315294 0.939347
Si Si4 0.637104 0.312441 0.156076
Si Si5 0.438613 0.184134 0.274805
Si Si6 0.063732 0.184453 0.805847
Si Si7 0.780625 0.815557 0.849993
O O1 0.806071 0.500000 0.510774
O O2 0.753614 0.266751 0.548613
O O3 0.711044 0.262727 0.326437
O O4 0.932551 0.249178 0.642278
O O5 0.689765 0.500000 0.569439
O O6 0.570270 0.243673 0.444444
O O7 0.782041 0.263763 0.757209
O O8 0.274446 0.500000 0.938565
O O9 0.301290 0.266809 0.865098
O O10 0.157581 0.248254 0.842319
O O11 0.385651 0.257230 0.124795
O O12 0.635196 0.500000 0.155267
O O13 0.500000 0.260426 0.000000
O O14 0.343874 0.223539 0.243145
O O15 0.438765 0.000000 0.266800
O O16 0.064339 0.000000 0.802221
O O17 0.116318 0.228802 0.962640
O O18 0.783947 0.000000 0.842291
#
# Coordination Sequence:
#
# PCOD9147315 Si02
#       7
#     4   4   4   4   4   4   4
#     4  10  22  39  57  80 111 145 185 230 273 324
#     4  11  22  34  54  83 111 143 185 234 279 318
#     4  10  19  34  60  86 109 143 185 230 274 317
#     4   9  18  35  59  85 113 144 178 219 272 330
#     4  10  20  35  55  81 115 150 182 221 274 334
#     4  10  22  40  58  79 110 147 185 225 275 331
#     4   9  20  37  55  76 107 147 184 222 274 335
#
# _framework density 18.968135
#
# number of rings (size 3 to 8) (size 9 to 14) (size 15 to 20)
#    0.000    2.143    0.000    3.857    0.000    9.714 
#    0.000    7.143    0.000    3.000    0.000    0.000 
#    0.000    0.000    0.000    0.000    0.000    0.000 
#
# Total GULP energy -156404.058615 kJ/mol
# GULP energy per Si atom -5585.859236 kJ/mol
# Density = 1.892496 g / cm^3
# Si number density = 18.968135 Si / 1000 Ang^3
#
#
#
# Elastic Constant Matrix: (Units=GPa)
#
#
# Indices 1 2 3 4 5 6 
#
# 1 98.8740 27.5365 91.7450 0.0000 -35.8154 0.0000
# 2 27.5365 25.7629 30.0110 0.0000 -8.4009 0.0000
# 3 91.7450 30.0110 152.6744 0.0000 -5.0336 0.0000
# 4 0.0000 0.0000 0.0000 25.9317 0.0000 -8.7157
# 5 -35.8154 -8.4009 -5.0336 0.0000 30.8419 0.0000
# 6 0.0000 0.0000 0.0000 -8.7157 0.0000 -79.7518
#
#
#
# Elastic Compliance Matrix: (Units=1/GPa)
#
#
# Indices 1 2 3 4 5 6 
#
# 1 0.116912 -0.010221 -0.064207 0.000000 0.122502 0.000000
# 2 -0.010221 0.056225 -0.004822 0.000000 0.002659 0.000000
# 3 -0.064207 -0.004822 0.043815 0.000000 -0.068723 0.000000
# 4 0.000000 0.000000 0.000000 0.037197 0.000000 -0.004065
# 5 0.122502 0.002659 -0.068723 0.000000 0.164188 0.000000
# 6 0.000000 0.000000 0.000000 -0.004065 0.000000 -0.012095
#
#
# Mechanical properties :
#
#
# Convention : Reuss Voigt Hill
#
# Bulk Modulus (GPa) = 17.10815 63.98845 40.54830
# Shear Modulus (GPa) = 8.55835 3.93895 6.24865
#
# Velocity S-wave (km/s) = 2.12644 1.44261 1.81699
# Velocity P-wave (km/s) = 3.88175 6.04837 5.08187
#
# Compressibility (1/GPa) = 0.05845167
#
# Stress axis : x y z
#
# Youngs Moduli (GPa) = 8.55346 17.78583 22.82321
#
# Poissons Ratio (x) = 0.18178 1.46540
# Poissons Ratio (y) = 0.08742 0.11006
# Poissons Ratio (z) = 0.54919 0.08577
#
# Static dielectric constant tensor:
#      x y z
#    x 1.647240 0.000000 -0.014300 
#    y 0.000000 1.638920 0.000000 
#    z -0.014300 0.000000 1.637120 
# 
# From -- ./inp_files/49553.got.cif
#   From: 2010.05.17/outbox.cif.g08.bks.cpg/sg10_25_cif.got.tgz:49553.got - 2010.06.03 11:33:40.
