data_PCOD9147187
_publ_section_title
;
Structure prediction by ZEFSAII (Michael W. Deem and Ramdas Pophale) SiO2 
 PCOD9147187
Probable space group: P 2/M
;
_chemical_formula_sum "Si O2"
_cell_formula_units_Z 24
_cell_length_a 18.056036
_cell_length_b 10.775756
_cell_length_c 11.758547
_cell_angle_alpha 90.000000
_cell_angle_beta 32.925298
_cell_angle_gamma 90.000000
_cell_volume 1243.539025
_symmetry_space_group_name_H-M "P 2/M"
_symmetry_group_IT_number 10
_symmetry_cell_setting 'monoclinic'
loop_
_space_group_symop_operation_xyz
x,y,z
-x,y,-z
-x,-y,-z
x,-y,z
loop_
_atom_site_type_symbol
_atom_site_label
_atom_site_fract_x
_atom_site_fract_y
_atom_site_fract_z
Si Si1 0.869951 0.860860 0.397721
Si Si2 0.183909 0.865134 0.027429
Si Si3 0.703145 0.643897 0.490322
Si Si4 0.662637 0.361006 0.279064
Si Si5 0.434755 0.352890 0.966710
Si Si6 0.150378 0.779881 0.318792
O O1 0.794185 0.747287 0.434267
O O2 0.847440 0.847487 0.562499
O O3 0.032577 0.850859 0.170512
O O4 0.826154 0.000000 0.418217
O O5 0.164141 0.862984 0.188879
O O6 0.239553 0.000000 0.921170
O O7 0.274808 0.749521 0.873941
O O8 0.729839 0.500000 0.493727
O O9 0.720013 0.647677 0.333372
O O10 0.545690 0.672192 0.725915
O O11 0.500000 0.351040 0.500000
O O12 0.692945 0.500000 0.194272
O O13 0.425591 0.500000 0.989375
O O14 0.500000 0.302426 0.000000
O O15 0.283512 0.304805 0.144577
O O16 0.000000 0.718455 0.500000
#
# Coordination Sequence:
#
# PCOD9147187 Si02
#       6
#     4   4   4   4   4   4
#     4  10  21  38  59  86 119 154 192 239 297 353
#     4  10  22  39  60  85 117 156 197 243 292 344
#     4  10  21  38  60  85 117 153 191 240 296 350
#     4  10  22  41  62  83 113 154 197 241 292 351
#     4  10  19  34  57  85 119 154 190 239 296 349
#     4  10  20  36  59  86 118 157 198 241 292 351
#
# _framework density 19.299757
#
# number of rings (size 3 to 8) (size 9 to 14) (size 15 to 20)
#    0.000    2.000    1.667    1.500    0.000    6.667 
#    0.000   10.833    0.000    0.000    0.000    0.000 
#    0.000    0.000    0.000    0.000    0.000    0.000 
#
# Total GULP energy -133847.838868 kJ/mol
# GULP energy per Si atom -5576.993286 kJ/mol
# Density = 1.925583 g / cm^3
# Si number density = 19.299757 Si / 1000 Ang^3
#
#
#
# Elastic Constant Matrix: (Units=GPa)
#
#
# Indices 1 2 3 4 5 6 
#
# 1 77.9470 55.0569 21.6615 0.0000 -14.8278 0.0000
# 2 55.0569 145.5488 62.2919 0.0000 -12.1407 0.0000
# 3 21.6615 62.2919 59.8049 0.0000 -9.0493 0.0000
# 4 0.0000 0.0000 0.0000 21.9495 0.0000 -8.3962
# 5 -14.8278 -12.1407 -9.0493 0.0000 30.7138 0.0000
# 6 0.0000 0.0000 0.0000 -8.3962 0.0000 11.3895
#
#
#
# Elastic Compliance Matrix: (Units=1/GPa)
#
#
# Indices 1 2 3 4 5 6 
#
# 1 0.018771 -0.007336 0.001857 0.000000 0.006710 0.000000
# 2 -0.007336 0.015302 -0.013504 0.000000 -0.001472 0.000000
# 3 0.001857 -0.013504 0.030816 0.000000 0.004638 0.000000
# 4 0.000000 0.000000 0.000000 0.063452 0.000000 0.046776
# 5 0.006710 -0.001472 0.004638 0.000000 0.036583 0.000000
# 6 0.000000 0.000000 0.000000 0.046776 0.000000 0.122283
#
#
# Mechanical properties :
#
#
# Convention : Reuss Voigt Hill
#
# Bulk Modulus (GPa) = 37.14219 62.36904 49.75561
# Shear Modulus (GPa) = 14.96348 22.42993 18.69671
#
# Velocity S-wave (km/s) = 2.78748 3.41278 3.11586
# Velocity P-wave (km/s) = 5.44488 6.92211 6.22745
#
# Compressibility (1/GPa) = 0.02692356
#
# Stress axis : x y z
#
# Youngs Moduli (GPa) = 53.27379 65.35020 32.45067
#
# Poissons Ratio (x) = 0.47938 -0.06026
# Poissons Ratio (y) = 0.39080 0.43822
# Poissons Ratio (z) = -0.09893 0.88250
#
# Static dielectric constant tensor:
#      x y z
#    x 1.705580 0.000000 0.016910 
#    y 0.000000 1.661390 0.000000 
#    z 0.016910 0.000000 1.668460 
# 
# From -- ./inp_files/53587.got.cif
#   From: 2010.05.17/outbox.cif.g08.bks.cpg/sg10_27_cif.got.tgz:53587.got - 2010.06.03 11:33:40.
