data_PCOD9147906
_publ_section_title
;
Structure prediction by ZEFSAII (Michael W. Deem and Ramdas Pophale) SiO2 
 PCOD9147906
Probable space group: P 2/M
;
_chemical_formula_sum "Si O2"
_cell_formula_units_Z 32
_cell_length_a 9.352649
_cell_length_b 13.340714
_cell_length_c 24.802652
_cell_angle_alpha 90.000000
_cell_angle_beta 146.954580
_cell_angle_gamma 90.000000
_cell_volume 1687.525233
_symmetry_space_group_name_H-M "P 2/M"
_symmetry_group_IT_number 10
_symmetry_cell_setting 'monoclinic'
loop_
_space_group_symop_operation_xyz
x,y,z
-x,y,-z
-x,-y,-z
x,-y,z
loop_
_atom_site_type_symbol
_atom_site_label
_atom_site_fract_x
_atom_site_fract_y
_atom_site_fract_z
Si Si1 0.005945 0.115679 0.262462
Si Si2 0.685234 0.616904 0.907535
Si Si3 0.923666 0.887553 0.365898
Si Si4 0.005796 0.116035 0.067120
Si Si5 0.537949 0.265004 0.756238
Si Si6 0.689826 0.381478 0.414909
Si Si7 0.499799 0.227617 0.938507
Si Si8 0.453438 0.217057 0.549074
O O1 0.780117 0.180660 0.164028
O O2 0.947210 0.114978 0.308245
O O3 0.288127 0.166695 0.344473
O O4 0.005789 0.000000 0.244067
O O5 0.626082 0.500000 0.896357
O O6 0.555719 0.660456 0.812607
O O7 0.582739 0.683943 0.924316
O O8 0.000000 0.627174 0.000000
O O9 0.205980 0.856300 0.477783
O O10 0.708584 0.808399 0.315541
O O11 0.852216 0.000000 0.359492
O O12 0.207695 0.193402 0.158253
O O13 0.076987 0.000000 0.099181
O O14 0.000000 0.130967 0.000000
O O15 0.718308 0.141715 0.998148
O O16 0.488019 0.330244 0.687458
O O17 0.641984 0.500000 0.403162
O O18 0.618780 0.321713 0.446440
O O19 0.000000 0.367113 0.500000
O O20 0.500000 0.261902 0.000000
O O21 0.500000 0.228910 0.500000
#
# Coordination Sequence:
#
# PCOD9147906 Si02
#       8
#     4   4   4   4   4   4   4   4
#     4  10  21  38  63  89 125 171 207 244 306 372
#     4  11  23  43  68  90 117 165 218 266 317 366
#     4  10  19  36  64  94 124 159 202 251 312 375
#     4  11  22  40  66  94 128 167 211 258 315 381
#     4  12  20  40  66  94 122 162 208 264 315 374
#     4  11  25  44  66  92 122 164 212 267 321 363
#     4  12  24  40  59  91 133 166 207 259 306 374
#     4  10  22  42  64  91 127 163 204 255 305 374
#
# _framework density 18.962679999999999
#
# number of rings (size 3 to 8) (size 9 to 14) (size 15 to 20)
#    0.000    1.125    5.000    1.500    1.750    5.000 
#    0.000    3.125    0.000    0.000    0.000    0.000 
#    0.000    0.000    0.000    0.000    0.000    0.000 
#
# Total GULP energy -178858.857416 kJ/mol
# GULP energy per Si atom -5589.339294 kJ/mol
# Density = 1.891952 g / cm^3
# Si number density = 18.962680 Si / 1000 Ang^3
#
#
#
# Elastic Constant Matrix: (Units=GPa)
#
#
# Indices 1 2 3 4 5 6 
#
# 1 34.7204 26.3202 28.7714 0.0000 -0.3879 0.0000
# 2 26.3202 150.3577 56.3892 0.0000 -0.5875 0.0000
# 3 28.7714 56.3892 123.4499 0.0000 12.8373 0.0000
# 4 0.0000 0.0000 0.0000 24.5498 0.0000 -0.6471
# 5 -0.3879 -0.5875 12.8373 0.0000 25.2093 0.0000
# 6 0.0000 0.0000 0.0000 -0.6471 0.0000 18.5069
#
#
#
# Elastic Compliance Matrix: (Units=1/GPa)
#
#
# Indices 1 2 3 4 5 6 
#
# 1 0.038005 -0.003794 -0.007577 0.000000 0.004355 0.000000
# 2 -0.003794 0.008518 -0.003190 0.000000 0.001765 0.000000
# 3 -0.007577 -0.003190 0.011978 0.000000 -0.006290 0.000000
# 4 0.000000 0.000000 0.000000 0.040771 0.000000 0.001426
# 5 0.004355 0.001765 -0.006290 0.000000 0.042979 0.000000
# 6 0.000000 0.000000 0.000000 0.001426 0.000000 0.054084
#
#
# Mechanical properties :
#
#
# Convention : Reuss Voigt Hill
#
# Bulk Modulus (GPa) = 34.03893 59.05439 46.54666
# Shear Modulus (GPa) = 21.25380 26.78966 24.02173
#
# Velocity S-wave (km/s) = 3.35150 3.76274 3.56306
# Velocity P-wave (km/s) = 5.74162 7.07727 6.44414
#
# Compressibility (1/GPa) = 0.02937813
#
# Stress axis : x y z
#
# Youngs Moduli (GPa) = 26.31201 117.39428 83.48764
#
# Poissons Ratio (x) = 0.44540 0.63262
# Poissons Ratio (y) = 0.09983 0.26635
# Poissons Ratio (z) = 0.19938 0.37452
#
# Static dielectric constant tensor:
#      x y z
#    x 1.656100 0.000000 0.005880 
#    y 0.000000 1.625710 0.000000 
#    z 0.005880 0.000000 1.702480 
# 
# From -- ./inp_files/88264.got.cif
#   From: 2010.05.17/outbox.cif.g08.bks.cpg/sg10_45_cif.got.tgz:88264.got - 2010.06.03 11:33:40.
