data_PCOD9147208
_publ_section_title
;
Structure prediction by ZEFSAII (Michael W. Deem and Ramdas Pophale) SiO2 
 PCOD9147208
Probable space group: P 2/M
;
_chemical_formula_sum "Si O2"
_cell_formula_units_Z 32
_cell_length_a 22.990405
_cell_length_b 9.475224
_cell_length_c 27.586840
_cell_angle_alpha 90.000000
_cell_angle_beta 163.093266
_cell_angle_gamma 90.000000
_cell_volume 1747.649507
_symmetry_space_group_name_H-M "P 2/M"
_symmetry_group_IT_number 10
_symmetry_cell_setting 'monoclinic'
loop_
_space_group_symop_operation_xyz
x,y,z
-x,y,-z
-x,-y,-z
x,-y,z
loop_
_atom_site_type_symbol
_atom_site_label
_atom_site_fract_x
_atom_site_fract_y
_atom_site_fract_z
Si Si1 0.442410 0.338866 0.253706
Si Si2 0.450219 0.666598 0.016892
Si Si3 0.799491 0.164013 0.866353
Si Si4 0.069538 0.165775 0.753196
Si Si5 0.230723 0.163534 0.669459
Si Si6 0.177742 0.336763 0.369001
Si Si7 0.573119 0.835731 0.505023
Si Si8 0.314243 0.161532 0.623180
O O1 0.386333 0.500000 0.200654
O O2 0.268363 0.253305 0.141623
O O3 0.632166 0.336066 0.442254
O O4 0.522073 0.264525 0.268931
O O5 0.419040 0.500000 0.000531
O O6 0.635281 0.728020 0.194378
O O7 0.500000 0.686994 0.000000
O O8 0.257947 0.754733 0.880682
O O9 0.618287 0.169438 0.683277
O O10 0.829237 0.000000 0.903742
O O11 0.000000 0.215254 0.000000
O O12 0.991867 0.245579 0.739341
O O13 0.887539 0.174155 0.569493
O O14 0.110087 0.000000 0.794638
O O15 0.263055 0.186842 0.638141
O O16 0.000000 0.178957 0.500000
O O17 0.288399 0.000000 0.726243
O O18 0.120574 0.500000 0.316025
O O19 0.257955 0.261222 0.384529
O O20 0.500000 0.792347 0.500000
O O21 0.639174 0.000000 0.560044
O O22 0.384724 0.000000 0.673883
#
# Coordination Sequence:
#
# PCOD9147208 Si02
#       8
#     4   4   4   4   4   4   4   4
#     4   9  17  29  48  73 100 132 168 206 249 303
#     4  11  24  39  55  79 111 143 174 211 258 310
#     4   9  17  30  48  69  94 126 164 207 253 299
#     4  10  19  34  58  82 104 135 175 217 260 307
#     4  10  21  38  59  82 107 137 176 218 258 304
#     4   9  17  30  49  74 103 133 168 210 256 308
#     4   9  17  30  48  70  96 128 169 212 253 302
#     4   9  18  33  55  81 105 132 170 216 261 306
#
# _framework density 18.310307999999999
#
# number of rings (size 3 to 8) (size 9 to 14) (size 15 to 20)
#    0.000    2.500    0.000    2.250    0.000    6.750 
#    0.000    1.250    0.000    6.000    0.000    0.000 
#    0.000    0.000    0.000    0.000    0.000    0.000 
#
# Total GULP energy -178565.773432 kJ/mol
# GULP energy per Si atom -5580.180420 kJ/mol
# Density = 1.826863 g / cm^3
# Si number density = 18.310308 Si / 1000 Ang^3
#
#
#
# Elastic Constant Matrix: (Units=GPa)
#
#
# Indices 1 2 3 4 5 6 
#
# 1 131.0212 101.7626 35.2589 0.0000 31.7360 0.0000
# 2 101.7626 147.9632 55.3987 0.0000 34.4089 0.0000
# 3 35.2589 55.3987 41.0140 0.0000 30.3213 0.0000
# 4 0.0000 0.0000 0.0000 17.1059 0.0000 -4.3345
# 5 31.7360 34.4089 30.3213 0.0000 33.5011 0.0000
# 6 0.0000 0.0000 0.0000 -4.3345 0.0000 6.5501
#
#
#
# Elastic Compliance Matrix: (Units=1/GPa)
#
#
# Indices 1 2 3 4 5 6 
#
# 1 0.019959 -0.016564 0.019995 0.000000 -0.019991 0.000000
# 2 -0.016564 0.028184 -0.042398 0.000000 0.025118 0.000000
# 3 0.019995 -0.042398 0.139840 0.000000 -0.101961 0.000000
# 4 0.000000 0.000000 0.000000 0.070237 0.000000 0.046479
# 5 -0.019991 0.025118 -0.101961 0.000000 0.115273 0.000000
# 6 0.000000 0.000000 0.000000 0.046479 0.000000 0.183427
#
#
# Mechanical properties :
#
#
# Convention : Reuss Voigt Hill
#
# Bulk Modulus (GPa) = 9.08692 78.31542 43.70117
# Shear Modulus (GPa) = 7.44561 19.93662 13.69112
#
# Velocity S-wave (km/s) = 2.01871 3.30331 2.73743
# Velocity P-wave (km/s) = 3.22600 7.57715 5.82324
#
# Compressibility (1/GPa) = 0.11004826
#
# Stress axis : x y z
#
# Youngs Moduli (GPa) = 50.10226 35.48166 7.15104
#
# Poissons Ratio (x) = 0.58773 -0.14298
# Poissons Ratio (y) = 0.82991 0.30319
# Poissons Ratio (z) = -1.00179 1.50434
#
# Static dielectric constant tensor:
#      x y z
#    x 1.609020 0.000000 -0.007740 
#    y 0.000000 1.619250 0.000000 
#    z -0.007740 0.000000 1.617820 
# 
# From -- ./inp_files/93816.got.cif
#   From: 2010.05.17/outbox.cif.g08.bks.cpg/sg10_47_cif.got.tgz:93816.got - 2010.06.03 11:33:40.
