data_PCOD9147188
_publ_section_title
;
Structure prediction by ZEFSAII (Michael W. Deem and Ramdas Pophale) SiO2 
 PCOD9147188
Probable space group: P 2/M
;
_chemical_formula_sum "Si O2"
_cell_formula_units_Z 28
_cell_length_a 12.898406
_cell_length_b 13.668510
_cell_length_c 7.431321
_cell_angle_alpha 90.000000
_cell_angle_beta 113.632706
_cell_angle_gamma 90.000000
_cell_volume 1200.279156
_symmetry_space_group_name_H-M "P 2/M"
_symmetry_group_IT_number 10
_symmetry_cell_setting 'monoclinic'
loop_
_space_group_symop_operation_xyz
x,y,z
-x,y,-z
-x,-y,-z
x,-y,z
loop_
_atom_site_type_symbol
_atom_site_label
_atom_site_fract_x
_atom_site_fract_y
_atom_site_fract_z
Si Si1 0.320835 0.223172 0.617564
Si Si2 0.933948 0.106819 0.141504
Si Si3 0.894457 0.304316 0.318418
Si Si4 0.260028 0.186181 0.196904
Si Si5 0.518645 0.109265 0.732783
Si Si6 0.231315 0.605331 0.096899
Si Si7 0.501324 0.611331 0.215646
O O1 0.214566 0.265317 0.647552
O O2 0.274713 0.162086 0.414638
O O3 0.408756 0.146030 0.762369
O O4 0.408895 0.312754 0.633340
O O5 0.946975 0.205031 0.265429
O O6 0.957072 0.000000 0.240472
O O7 0.807690 0.114299 0.976505
O O8 0.000000 0.114531 0.000000
O O9 0.000000 0.348300 0.500000
O O10 0.836934 0.378121 0.136312
O O11 0.381319 0.187276 0.185134
O O12 0.203556 0.292889 0.173160
O O13 0.500000 0.107781 0.500000
O O14 0.550568 0.000000 0.805123
O O15 0.200446 0.500000 0.154602
O O16 0.368252 0.608002 0.174936
O O17 0.544211 0.500000 0.276422
O O18 0.500000 0.630464 0.000000
#
# Coordination Sequence:
#
# PCOD9147188 Si02
#       7
#     4   4   4   4   4   4   4
#     4  11  21  35  59  89 123 156 195 248 303 353
#     4  10  22  42  65  86 115 158 204 248 299 357
#     4  11  24  40  61  89 119 154 202 254 302 358
#     4  10  20  36  59  88 124 158 197 243 298 356
#     4   9  18  32  51  80 117 153 185 227 289 353
#     4  10  21  38  60  85 120 163 202 246 296 355
#     4  10  19  34  57  85 120 159 200 243 297 355
#
# _framework density 23.327905999999999
#
# number of rings (size 3 to 8) (size 9 to 14) (size 15 to 20)
#    0.000    1.857    2.857    1.286    0.000    2.286 
#    0.000    1.429    0.000   17.571    0.000    0.000 
#    0.000    0.000    0.000    0.000    0.000    0.000 
#
# Total GULP energy -155954.886754 kJ/mol
# GULP energy per Si atom -5569.817384 kJ/mol
# Density = 2.327481 g / cm^3
# Si number density = 23.327906 Si / 1000 Ang^3
#
#
#
# Elastic Constant Matrix: (Units=GPa)
#
#
# Indices 1 2 3 4 5 6 
#
# 1 59.6482 -3.4760 8.4174 0.0000 19.0607 0.0000
# 2 -3.4760 103.2554 -10.6851 0.0000 4.9090 0.0000
# 3 8.4174 -10.6851 44.0584 0.0000 10.6809 0.0000
# 4 0.0000 0.0000 0.0000 16.2915 0.0000 -9.3122
# 5 19.0607 4.9090 10.6809 0.0000 21.3193 0.0000
# 6 0.0000 0.0000 0.0000 -9.3122 0.0000 19.7477
#
#
#
# Elastic Compliance Matrix: (Units=1/GPa)
#
#
# Indices 1 2 3 4 5 6 
#
# 1 0.023879 0.002017 0.001383 0.000000 -0.022507 0.000000
# 2 0.002017 0.010410 0.003594 0.000000 -0.006001 0.000000
# 3 0.001383 0.003594 0.027096 0.000000 -0.015639 0.000000
# 4 0.000000 0.000000 0.000000 0.084032 0.000000 0.039626
# 5 -0.022507 -0.006001 -0.015639 0.000000 0.076245 0.000000
# 6 0.000000 0.000000 0.000000 0.039626 0.000000 0.069325
#
#
# Mechanical properties :
#
#
# Convention : Reuss Voigt Hill
#
# Bulk Modulus (GPa) = 13.26720 21.71942 17.49331
# Shear Modulus (GPa) = 16.54951 25.65208 21.10079
#
# Velocity S-wave (km/s) = 2.66640 3.31967 3.01080
# Velocity P-wave (km/s) = 3.89605 4.90146 4.42739
#
# Compressibility (1/GPa) = 0.07537386
#
# Stress axis : x y z
#
# Youngs Moduli (GPa) = 41.87698 96.06300 36.90601
#
# Poissons Ratio (x) = -0.19376 -0.05105
# Poissons Ratio (y) = -0.08447 -0.13264
# Poissons Ratio (z) = -0.05793 -0.34525
#
# Static dielectric constant tensor:
#      x y z
#    x 2.119060 0.000000 0.070210 
#    y 0.000000 1.883860 0.000000 
#    z 0.070210 0.000000 1.971780 
# 
# From -- ./inp_files/25408.got.cif
#   From: 2010.05.17/outbox.cif.g08.bks.cpg/sg10_13_cif.got.tgz:25408.got - 2010.06.03 11:33:40.
