data_PCOD9147110
_publ_section_title
;
Structure prediction by ZEFSAII (Michael W. Deem and Ramdas Pophale) SiO2 
 PCOD9147110
Probable space group: P 2/M
;
_chemical_formula_sum "Si O2"
_cell_formula_units_Z 24
_cell_length_a 8.153809
_cell_length_b 7.545124
_cell_length_c 24.533592
_cell_angle_alpha 90.000000
_cell_angle_beta 136.075339
_cell_angle_gamma 90.000000
_cell_volume 1047.049464
_symmetry_space_group_name_H-M "P 2/M"
_symmetry_group_IT_number 10
_symmetry_cell_setting 'monoclinic'
loop_
_space_group_symop_operation_xyz
x,y,z
-x,y,-z
-x,-y,-z
x,-y,z
loop_
_atom_site_type_symbol
_atom_site_label
_atom_site_fract_x
_atom_site_fract_y
_atom_site_fract_z
Si Si1 0.174368 0.216383 0.691923
Si Si2 0.917461 0.297698 0.821009
Si Si3 0.836681 0.713972 0.010775
Si Si4 0.559645 0.201148 0.346634
Si Si5 0.668880 0.207753 0.157198
Si Si6 0.361537 0.216482 0.412403
O O1 0.256607 0.282422 0.652455
O O2 0.345756 0.267144 0.783246
O O3 0.911206 0.270533 0.646430
O O4 0.178892 0.000000 0.689258
O O5 0.843556 0.500000 0.814709
O O6 0.113771 0.298092 0.820964
O O7 0.686972 0.197591 0.745551
O O8 0.048462 0.222566 0.905548
O O9 0.836374 0.500000 0.013020
O O10 0.570025 0.767037 0.933657
O O11 0.000000 0.772214 0.000000
O O12 0.490803 0.281927 0.388528
O O13 0.640926 0.000000 0.377466
O O14 0.726653 0.000000 0.171994
O O15 0.500000 0.266057 0.500000
O O16 0.358130 0.000000 0.408167
#
# Coordination Sequence:
#
# PCOD9147110 Si02
#       6
#     4   4   4   4   4   4
#     4   9  18  32  52  82 113 142 180 223 270 322
#     4  11  22  36  55  78 107 144 186 226 271 326
#     4  10  22  38  53  75 109 145 186 232 273 321
#     4  10  19  34  57  81 111 145 180 226 272 321
#     4  11  21  35  55  79 110 144 184 230 274 322
#     4   9  17  31  53  83 116 143 173 220 275 328
#
# _framework density 22.921552999999999
#
# number of rings (size 3 to 8) (size 9 to 14) (size 15 to 20)
#    0.000    2.000    1.667    2.500    0.000    4.333 
#    0.000    4.167    0.000    0.500    0.000    1.167 
#    0.000    0.000    0.000    0.000    0.000    0.000 
#
# Total GULP energy -134111.645448 kJ/mol
# GULP energy per Si atom -5587.985227 kJ/mol
# Density = 2.286938 g / cm^3
# Si number density = 22.921553 Si / 1000 Ang^3
#
#
#
# Elastic Constant Matrix: (Units=GPa)
#
#
# Indices 1 2 3 4 5 6 
#
# 1 98.3775 -2.5750 31.1224 0.0000 -52.9258 0.0000
# 2 -2.5750 63.4109 -1.7964 0.0000 -5.1707 0.0000
# 3 31.1224 -1.7964 123.7306 0.0000 -39.3630 0.0000
# 4 0.0000 0.0000 0.0000 22.8152 0.0000 7.2967
# 5 -52.9258 -5.1707 -39.3630 0.0000 39.1764 0.0000
# 6 0.0000 0.0000 0.0000 7.2967 0.0000 10.4450
#
#
#
# Elastic Compliance Matrix: (Units=1/GPa)
#
#
# Indices 1 2 3 4 5 6 
#
# 1 0.052604 0.009643 0.014583 0.000000 0.086992 0.000000
# 2 0.009643 0.017858 0.004010 0.000000 0.019413 0.000000
# 3 0.014583 0.004010 0.016033 0.000000 0.036341 0.000000
# 4 0.000000 0.000000 0.000000 0.056440 0.000000 -0.039428
# 5 0.086992 0.019413 0.036341 0.000000 0.182125 0.000000
# 6 0.000000 0.000000 0.000000 -0.039428 0.000000 0.123283
#
#
# Mechanical properties :
#
#
# Convention : Reuss Voigt Hill
#
# Bulk Modulus (GPa) = 6.99457 37.66900 22.33179
# Shear Modulus (GPa) = 11.37584 31.73850 21.55717
#
# Velocity S-wave (km/s) = 2.23018 3.72514 3.07005
# Velocity P-wave (km/s) = 3.11284 5.91369 4.72554
#
# Compressibility (1/GPa) = 0.14296800
#
# Stress axis : x y z
#
# Youngs Moduli (GPa) = 19.00983 55.99628 62.37042
#
# Poissons Ratio (x) = -0.53997 -0.90958
# Poissons Ratio (y) = -0.18331 -0.25009
# Poissons Ratio (z) = -0.27723 -0.22453
#
# Static dielectric constant tensor:
#      x y z
#    x 1.833350 0.000000 -0.034820 
#    y 0.000000 1.895470 0.000000 
#    z -0.034820 0.000000 1.834620 
# 
# From -- ./inp_files/27024.got.cif
#   From: 2010.05.17/outbox.cif.g08.bks.cpg/sg10_14_cif.got.tgz:27024.got - 2010.06.03 11:33:40.
