data_PCOD9147126
_publ_section_title
;
Structure prediction by ZEFSAII (Michael W. Deem and Ramdas Pophale) SiO2 
 PCOD9147126
Probable space group: P 2/M
;
_chemical_formula_sum "Si O2"
_cell_formula_units_Z 30
_cell_length_a 16.686261
_cell_length_b 7.631124
_cell_length_c 11.266998
_cell_angle_alpha 90.000000
_cell_angle_beta 67.210475
_cell_angle_gamma 90.000000
_cell_volume 1322.682428
_symmetry_space_group_name_H-M "P 2/M"
_symmetry_group_IT_number 10
_symmetry_cell_setting 'monoclinic'
loop_
_space_group_symop_operation_xyz
x,y,z
-x,y,-z
-x,-y,-z
x,-y,z
loop_
_atom_site_type_symbol
_atom_site_label
_atom_site_fract_x
_atom_site_fract_y
_atom_site_fract_z
Si Si1 0.440636 0.715057 0.147205
Si Si2 0.133457 0.803149 0.716081
Si Si3 0.911172 0.299405 0.504965
Si Si4 0.757716 0.291500 0.744226
Si Si5 0.000000 0.744679 0.000000
Si Si6 0.290088 0.788900 0.775798
Si Si7 0.844632 0.209667 0.941861
Si Si8 0.513498 0.299332 0.359838
O O1 0.444554 0.500000 0.145086
O O2 0.340766 0.775654 0.189496
O O3 0.473002 0.773515 0.260140
O O4 0.500000 0.770129 0.000000
O O5 0.090098 0.700329 0.635383
O O6 0.225150 0.729780 0.708597
O O7 0.147203 0.000000 0.664349
O O8 0.070804 0.815944 0.865710
O O9 0.912005 0.500000 0.549530
O O10 0.819696 0.223991 0.603341
O O11 0.000000 0.213996 0.500000
O O12 0.746070 0.500000 0.736395
O O13 0.814226 0.254694 0.828528
O O14 0.072329 0.686602 0.055628
O O15 0.383383 0.704362 0.719150
O O16 0.299439 0.000000 0.760645
O O17 0.237566 0.754271 0.926414
O O18 0.866020 0.000000 0.936747
O O19 0.500000 0.219457 0.500000
O O20 0.480598 0.500000 0.386971
#
# Coordination Sequence:
#
# PCOD9147126 Si02
#       8
#     4   4   4   4   2   4   4   4
#     4   9  18  34  55  79 107 142 184 230 280 333
#     4  10  20  35  57  80 106 143 188 225 269 332
#     4  10  22  37  52  77 113 148 181 225 280 331
#     4  10  21  36  56  78 110 149 181 224 284 332
#     4  10  19  36  59  82 109 146 185 232 279 318
#     4   9  20  36  53  79 112 142 172 221 285 334
#     4  10  19  34  57  82 109 141 184 229 271 325
#     4  10  21  35  57  84 106 138 193 238 269 333
#
# _framework density 22.681180999999999
#
# number of rings (size 3 to 8) (size 9 to 14) (size 15 to 20)
#    0.000    2.267    0.000    3.600    1.867    3.200 
#    0.000    3.333    0.000    2.400    0.000    0.000 
#    0.000    0.000    0.000    0.000    0.000    0.000 
#
# Total GULP energy -167143.106896 kJ/mol
# GULP energy per Si atom -5571.436897 kJ/mol
# Density = 2.262956 g / cm^3
# Si number density = 22.681181 Si / 1000 Ang^3
#
#
#
# Elastic Constant Matrix: (Units=GPa)
#
#
# Indices 1 2 3 4 5 6 
#
# 1 157.9903 7.6049 67.9168 0.0000 1.9914 0.0000
# 2 7.6049 44.4443 8.9006 0.0000 -5.0188 0.0000
# 3 67.9168 8.9006 127.2117 0.0000 10.5405 0.0000
# 4 0.0000 0.0000 0.0000 -10.3555 0.0000 41.4666
# 5 1.9914 -5.0188 10.5405 0.0000 41.6688 0.0000
# 6 0.0000 0.0000 0.0000 41.4666 0.0000 -49.0954
#
#
#
# Elastic Compliance Matrix: (Units=1/GPa)
#
#
# Indices 1 2 3 4 5 6 
#
# 1 0.008245 -0.000449 -0.004426 0.000000 0.000672 0.000000
# 2 -0.000449 0.023275 -0.001658 0.000000 0.003244 0.000000
# 3 -0.004426 -0.001658 0.010560 0.000000 -0.002659 0.000000
# 4 0.000000 0.000000 0.000000 0.040539 0.000000 0.034240
# 5 0.000672 0.003244 -0.002659 0.000000 0.025030 0.000000
# 6 0.000000 0.000000 0.000000 0.034240 0.000000 0.008551
#
#
# Mechanical properties :
#
#
# Convention : Reuss Voigt Hill
#
# Bulk Modulus (GPa) = 34.46437 55.38789 44.92613
# Shear Modulus (GPa) = 35.98721 12.79184 24.38953
#
# Velocity S-wave (km/s) = 3.98761 2.37741 3.28276
# Velocity P-wave (km/s) = 6.03568 5.65768 5.84973
#
# Compressibility (1/GPa) = 0.02901547
#
# Stress axis : x y z
#
# Youngs Moduli (GPa) = 121.27892 42.96427 94.69274
#
# Poissons Ratio (x) = 0.01927 0.41915
# Poissons Ratio (y) = 0.05440 0.15698
# Poissons Ratio (z) = 0.53683 0.07123
#
# Static dielectric constant tensor:
#      x y z
#    x 1.819140 0.000000 0.003350 
#    y 0.000000 1.882400 0.000000 
#    z 0.003350 0.000000 1.820930 
# 
# From -- ./inp_files/49741.got.cif
#   From: 2010.05.17/outbox.cif.g08.bks.cpg/sg10_25_cif.got.tgz:49741.got - 2010.06.03 11:33:40.
