data_PCOD9147858
_publ_section_title
;
Structure prediction by ZEFSAII (Michael W. Deem and Ramdas Pophale) SiO2 
 PCOD9147858
Probable space group: P 2/M
;
_chemical_formula_sum "Si O2"
_cell_formula_units_Z 18
_cell_length_a 8.048490
_cell_length_b 8.297545
_cell_length_c 11.776744
_cell_angle_alpha 90.000000
_cell_angle_beta 96.619852
_cell_angle_gamma 90.000000
_cell_volume 781.239281
_symmetry_space_group_name_H-M "P 2/M"
_symmetry_group_IT_number 10
_symmetry_cell_setting 'monoclinic'
loop_
_space_group_symop_operation_xyz
x,y,z
-x,y,-z
-x,-y,-z
x,-y,z
loop_
_atom_site_type_symbol
_atom_site_label
_atom_site_fract_x
_atom_site_fract_y
_atom_site_fract_z
Si Si1 0.681776 0.817182 0.680339
Si Si2 0.370288 0.687052 0.768549
Si Si3 0.194335 0.685058 0.539889
Si Si4 0.146710 0.316254 0.096422
Si Si5 0.500000 0.254356 0.000000
O O1 0.533685 0.697348 0.702806
O O2 0.726025 0.788671 0.553518
O O3 0.826079 0.780336 0.784626
O O4 0.625603 0.000000 0.692065
O O5 0.348582 0.500000 0.807342
O O6 0.225834 0.736981 0.671650
O O7 0.407571 0.801970 0.878045
O O8 0.256585 0.500000 0.537091
O O9 0.000000 0.683588 0.500000
O O10 0.101199 0.500000 0.122910
O O11 0.329424 0.320797 0.048556
O O12 0.000000 0.256822 0.000000
#
# Coordination Sequence:
#
# PCOD9147858 Si02
#       5
#     4   4   4   4   2
#     4  11  23  39  58  84 122 161 199 243 301 368
#     4  10  20  37  62  87 117 153 198 254 301 357
#     4  10  22  38  61  89 117 152 201 256 304 355
#     4  10  21  37  64  91 120 160 205 256 304 357
#     4  10  19  36  61  94 121 148 197 252 309 360
#
# _framework density 23.040317999999999
#
# number of rings (size 3 to 8) (size 9 to 14) (size 15 to 20)
#    0.000    1.778    0.000    6.000    3.111    4.444 
#    0.000    8.889    0.000    0.000    0.000    0.000 
#    0.000    0.000    0.000    0.000    0.000    0.000 
#
# Total GULP energy -100231.621315 kJ/mol
# GULP energy per Si atom -5568.423406 kJ/mol
# Density = 2.298788 g / cm^3
# Si number density = 23.040318 Si / 1000 Ang^3
#
#
#
# Elastic Constant Matrix: (Units=GPa)
#
#
# Indices 1 2 3 4 5 6 
#
# 1 60.5363 5.1255 39.7784 0.0000 25.9945 0.0000
# 2 5.1255 50.7953 32.3908 0.0000 1.2029 0.0000
# 3 39.7784 32.3908 179.5003 0.0000 38.0183 0.0000
# 4 0.0000 0.0000 0.0000 34.0680 0.0000 -14.9407
# 5 25.9945 1.2029 38.0183 0.0000 52.0049 0.0000
# 6 0.0000 0.0000 0.0000 -14.9407 0.0000 -2.8804
#
#
#
# Elastic Compliance Matrix: (Units=1/GPa)
#
#
# Indices 1 2 3 4 5 6 
#
# 1 0.022373 -0.000106 -0.003042 0.000000 -0.008957 0.000000
# 2 -0.000106 0.022614 -0.004683 0.000000 0.002953 0.000000
# 3 -0.003042 -0.004683 0.007981 0.000000 -0.004206 0.000000
# 4 0.000000 0.000000 0.000000 0.008963 0.000000 -0.046493
# 5 -0.008957 0.002953 -0.004206 0.000000 0.026712 0.000000
# 6 0.000000 0.000000 0.000000 -0.046493 0.000000 -0.106013
#
#
# Mechanical properties :
#
#
# Convention : Reuss Voigt Hill
#
# Bulk Modulus (GPa) = 26.80469 49.49124 38.14797
# Shear Modulus (GPa) = 466.16264 30.87429 248.51846
#
# Velocity S-wave (km/s) = 14.23952 3.66459 10.39695
# Velocity P-wave (km/s) = 16.79318 6.27953 12.67761
#
# Compressibility (1/GPa) = 0.03730690
#
# Stress axis : x y z
#
# Youngs Moduli (GPa) = 44.69703 44.22117 125.29987
#
# Poissons Ratio (x) = 0.00468 0.38114
# Poissons Ratio (y) = 0.00473 0.58674
# Poissons Ratio (z) = 0.13596 0.20707
#
# Static dielectric constant tensor:
#      x y z
#    x 1.881150 0.000000 0.053410 
#    y 0.000000 1.837210 0.000000 
#    z 0.053410 0.000000 1.911960 
# 
# From -- ./inp_files/40884.got.cif
#   From: 2010.05.17/outbox.cif.g08.bks.cpg/sg10_21_cif.got.tgz:40884.got - 2010.06.03 11:33:40.
