data_PCOD9147521
_publ_section_title
;
Structure prediction by ZEFSAII (Michael W. Deem and Ramdas Pophale) SiO2 
 PCOD9147521
Probable space group: P 2/M
;
_chemical_formula_sum "Si O2"
_cell_formula_units_Z 32
_cell_length_a 29.583342
_cell_length_b 8.849900
_cell_length_c 12.808154
_cell_angle_alpha 90.000000
_cell_angle_beta 30.189706
_cell_angle_gamma 90.000000
_cell_volume 1686.255011
_symmetry_space_group_name_H-M "P 2/M"
_symmetry_group_IT_number 10
_symmetry_cell_setting 'monoclinic'
loop_
_space_group_symop_operation_xyz
x,y,z
-x,y,-z
-x,-y,-z
x,-y,z
loop_
_atom_site_type_symbol
_atom_site_label
_atom_site_fract_x
_atom_site_fract_y
_atom_site_fract_z
Si Si1 0.813432 0.181772 0.263167
Si Si2 0.351726 0.818219 0.001956
Si Si3 0.207638 0.815958 0.463247
Si Si4 0.950736 0.328055 0.487972
Si Si5 0.725814 0.319792 0.232110
Si Si6 0.005527 0.818335 0.802105
Si Si7 0.218104 0.177459 0.087637
Si Si8 0.475918 0.317768 0.429287
O O1 0.775467 0.230881 0.451103
O O2 0.763518 0.250521 0.263320
O O3 0.806254 0.000000 0.271197
O O4 0.920347 0.217639 0.044547
O O5 0.449062 0.744483 0.799477
O O6 0.359566 0.000000 0.993962
O O7 0.284117 0.766470 0.228889
O O8 0.303636 0.782927 0.987690
O O9 0.105405 0.770187 0.638323
O O10 0.207384 0.000000 0.460628
O O11 0.923208 0.500000 0.519010
O O12 0.865872 0.219869 0.672602
O O13 0.000000 0.328098 0.500000
O O14 0.010469 0.261603 0.276504
O O15 0.728033 0.500000 0.235270
O O16 0.623675 0.270801 0.408204
O O17 0.782784 0.268075 0.017844
O O18 0.007221 0.000000 0.786649
O O19 0.218382 0.000000 0.064572
O O20 0.500000 0.267457 0.500000
O O21 0.478593 0.500000 0.424116
#
# Coordination Sequence:
#
# PCOD9147521 Si02
#       8
#     4   4   4   4   4   4   4   4
#     4  10  21  37  61  86 113 152 194 236 284 337
#     4  10  20  35  59  88 114 141 181 238 287 331
#     4   9  18  37  60  86 116 148 191 239 285 331
#     4  11  23  35  49  76 116 158 192 229 281 337
#     4  11  23  39  58  82 118 153 186 235 288 343
#     4  10  19  35  58  84 112 148 195 240 280 331
#     4  11  21  35  57  84 113 146 186 232 285 341
#     4  10  21  38  59  83 112 151 190 227 282 347
#
# _framework density 18.976963999999999
#
# number of rings (size 3 to 8) (size 9 to 14) (size 15 to 20)
#    0.000    1.750    2.500    2.250    0.000    6.750 
#    0.000    1.875    0.000    5.250    0.000    0.000 
#    0.000    0.000    0.000    0.000    0.000    0.000 
#
# Total GULP energy -178622.652290 kJ/mol
# GULP energy per Si atom -5581.957884 kJ/mol
# Density = 1.893377 g / cm^3
# Si number density = 18.976964 Si / 1000 Ang^3
#
#
#
# Elastic Constant Matrix: (Units=GPa)
#
#
# Indices 1 2 3 4 5 6 
#
# 1 78.2571 20.8016 50.3833 0.0000 15.5680 0.0000
# 2 20.8016 -2.5465 14.2642 0.0000 5.1891 0.0000
# 3 50.3833 14.2642 111.3344 0.0000 14.7461 0.0000
# 4 0.0000 0.0000 0.0000 -76.4480 0.0000 -36.9348
# 5 15.5680 5.1891 14.7461 0.0000 31.1113 0.0000
# 6 0.0000 0.0000 0.0000 -36.9348 0.0000 8.0760
#
#
#
# Elastic Compliance Matrix: (Units=1/GPa)
#
#
# Indices 1 2 3 4 5 6 
#
# 1 0.011083 0.031143 -0.008091 0.000000 -0.006905 0.000000
# 2 0.031143 -0.123132 0.001095 0.000000 0.004435 0.000000
# 3 -0.008091 0.001095 0.012794 0.000000 -0.002198 0.000000
# 4 0.000000 0.000000 0.000000 -0.004076 0.000000 -0.018639
# 5 -0.006905 0.004435 -0.002198 0.000000 0.035900 0.000000
# 6 0.000000 0.000000 0.000000 -0.018639 0.000000 0.038579
#
#
# Mechanical properties :
#
#
# Convention : Reuss Voigt Hill
#
# Bulk Modulus (GPa) = -19.62271 39.77146 10.07438
# Shear Modulus (GPa) = -53.11727 -0.67906 -26.89817
#
# Velocity S-wave (km/s) = -5.29633 -0.59884 -3.76894
# Velocity P-wave (km/s) = 6.91117 4.53046 3.69047
#
# Compressibility (1/GPa) = -0.05096136
#
# Stress axis : x y z
#
# Youngs Moduli (GPa) = 90.22689 -8.12134 78.15986
#
# Poissons Ratio (x) = 0.25292 0.63239
# Poissons Ratio (y) = -2.80991 -0.08559
# Poissons Ratio (z) = 0.73002 0.00889
#
# Static dielectric constant tensor:
#      x y z
#    x 1.665470 0.000000 -0.013300 
#    y 0.000000 1.638480 0.000000 
#    z -0.013300 0.000000 1.659720 
# 
# From -- ./inp_files/49863.got.cif
#   From: 2010.05.17/outbox.cif.g08.bks.cpg/sg10_25_cif.got.tgz:49863.got - 2010.06.03 11:33:40.
