data_PCOD9147709
_publ_section_title
;
Structure prediction by ZEFSAII (Michael W. Deem and Ramdas Pophale) SiO2 
 PCOD9147709
Probable space group: P 2/M
;
_chemical_formula_sum "Si O2"
_cell_formula_units_Z 32
_cell_length_a 28.602356
_cell_length_b 7.948997
_cell_length_c 14.678200
_cell_angle_alpha 90.000000
_cell_angle_beta 150.138491
_cell_angle_gamma 90.000000
_cell_volume 1661.627411
_symmetry_space_group_name_H-M "P 2/M"
_symmetry_group_IT_number 10
_symmetry_cell_setting 'monoclinic'
loop_
_space_group_symop_operation_xyz
x,y,z
-x,y,-z
-x,-y,-z
x,-y,z
loop_
_atom_site_type_symbol
_atom_site_label
_atom_site_fract_x
_atom_site_fract_y
_atom_site_fract_z
Si Si1 0.417214 0.800130 0.743315
Si Si2 0.893006 0.805047 0.803894
Si Si3 0.941079 0.695898 0.700182
Si Si4 0.857325 0.293350 0.020296
Si Si5 0.727274 0.692482 0.647661
Si Si6 0.627819 0.205635 0.133579
Si Si7 0.806810 0.201106 0.321006
Si Si8 0.103181 0.702829 0.707512
O O1 0.358398 0.768574 0.553287
O O2 0.366818 0.738369 0.751361
O O3 0.423188 0.000000 0.764734
O O4 0.524717 0.738870 0.925151
O O5 0.881600 0.791033 0.676008
O O6 0.816232 0.704257 0.729659
O O7 0.885566 0.000000 0.818720
O O8 0.000000 0.746105 0.000000
O O9 0.942671 0.500000 0.727799
O O10 0.892825 0.717442 0.521386
O O11 0.047565 0.759298 0.871333
O O12 0.857136 0.500000 0.018770
O O13 0.767603 0.234700 0.810576
O O14 0.868337 0.238873 0.143280
O O15 0.702734 0.500000 0.623319
O O16 0.712018 0.261382 0.210721
O O17 0.630335 0.000000 0.136448
O O18 0.820980 0.246639 0.239993
O O19 0.812905 0.000000 0.340972
O O20 0.098002 0.500000 0.702349
O O21 0.000000 0.764093 0.500000
#
# Coordination Sequence:
#
# PCOD9147709 Si02
#       8
#     4   4   4   4   4   4   4   4
#     4   9  17  35  59  79 102 140 178 211 258 321
#     4  11  22  33  46  71 105 140 175 214 252 302
#     4  11  20  34  52  72 101 144 181 211 254 311
#     4   9  19  34  51  70 100 139 178 214 256 311
#     4  11  21  34  52  76 105 141 176 216 266 316
#     4   8  17  34  56  78 106 139 171 210 267 325
#     4  11  21  33  52  82 111 134 169 225 277 318
#     4  10  19  36  56  73  98 141 189 222 259 317
#
# _framework density 19.258230000000001
#
# number of rings (size 3 to 8) (size 9 to 14) (size 15 to 20)
#    0.000    2.000    2.500    3.000    0.000    1.750 
#    0.000    4.375    0.000    0.750    0.000    5.250 
#    0.000    0.000    0.000    0.000    0.000    0.000 
#
# Total GULP energy -178577.736126 kJ/mol
# GULP energy per Si atom -5580.554254 kJ/mol
# Density = 1.921440 g / cm^3
# Si number density = 19.258230 Si / 1000 Ang^3
#
#
#
# Elastic Constant Matrix: (Units=GPa)
#
#
# Indices 1 2 3 4 5 6 
#
# 1 96.0426 1.5512 45.4638 0.0000 -15.2884 0.0000
# 2 1.5512 22.5229 4.6423 0.0000 -0.6660 0.0000
# 3 45.4638 4.6423 112.7645 0.0000 -16.4119 0.0000
# 4 0.0000 0.0000 0.0000 11.1415 0.0000 -11.2467
# 5 -15.2884 -0.6660 -16.4119 0.0000 30.6001 0.0000
# 6 0.0000 0.0000 0.0000 -11.2467 0.0000 10.2961
#
#
#
# Elastic Compliance Matrix: (Units=1/GPa)
#
#
# Indices 1 2 3 4 5 6 
#
# 1 0.013326 0.000189 -0.004784 0.000000 0.004096 0.000000
# 2 0.000189 0.044782 -0.001914 0.000000 0.000043 0.000000
# 3 -0.004784 -0.001914 0.011413 0.000000 0.003689 0.000000
# 4 0.000000 0.000000 0.000000 -0.874311 0.000000 -0.955041
# 5 0.004096 0.000043 0.003689 0.000000 0.036706 0.000000
# 6 0.000000 0.000000 0.000000 -0.955041 0.000000 -0.946099
#
#
# Mechanical properties :
#
#
# Convention : Reuss Voigt Hill
#
# Bulk Modulus (GPa) = 17.69814 37.18274 27.44044
# Shear Modulus (GPa) = -2.97206 22.38571 9.70682
#
# Velocity S-wave (km/s) = -1.24363 3.41309 2.24751
# Velocity P-wave (km/s) = 2.67352 5.90607 4.58418
#
# Compressibility (1/GPa) = 0.05650313
#
# Stress axis : x y z
#
# Youngs Moduli (GPa) = 75.04282 22.33049 87.62232
#
# Poissons Ratio (x) = -0.00423 0.41921
# Poissons Ratio (y) = -0.01422 0.16768
# Poissons Ratio (z) = 0.35902 0.04273
#
# Static dielectric constant tensor:
#      x y z
#    x 1.672670 0.000000 -0.030060 
#    y 0.000000 1.692640 0.000000 
#    z -0.030060 0.000000 1.701540 
# 
# From -- ./inp_files/72219.got.cif
#   From: 2010.05.17/outbox.cif.g08.bks.cpg/sg10_37_cif.got.tgz:72219.got - 2010.06.03 11:33:40.
