data_PCOD9147055
_publ_section_title
;
Structure prediction by ZEFSAII (Michael W. Deem and Ramdas Pophale) SiO2 
 PCOD9147055
Probable space group: P 2/M
;
_chemical_formula_sum "Si O2"
_cell_formula_units_Z 32
_cell_length_a 30.510985
_cell_length_b 7.898379
_cell_length_c 12.750947
_cell_angle_alpha 90.000000
_cell_angle_beta 151.412688
_cell_angle_gamma 90.000000
_cell_volume 1470.334806
_symmetry_space_group_name_H-M "P 2/M"
_symmetry_group_IT_number 10
_symmetry_cell_setting 'monoclinic'
loop_
_space_group_symop_operation_xyz
x,y,z
-x,y,-z
-x,-y,-z
x,-y,z
loop_
_atom_site_type_symbol
_atom_site_label
_atom_site_fract_x
_atom_site_fract_y
_atom_site_fract_z
Si Si1 0.600482 0.699858 0.204585
Si Si2 0.087225 0.803350 0.618549
Si Si3 0.380037 0.801612 0.986756
Si Si4 0.766779 0.707272 0.686384
Si Si5 0.186994 0.301089 0.624758
Si Si6 0.246049 0.701546 0.105184
Si Si7 0.458116 0.205087 0.523932
Si Si8 0.104039 0.292898 0.230699
O O1 0.593487 0.500000 0.212656
O O2 0.634670 0.718209 0.157512
O O3 0.670402 0.768908 0.436818
O O4 0.500000 0.777007 0.000000
O O5 0.113527 0.723777 0.562319
O O6 0.000000 0.732011 0.500000
O O7 0.067437 0.000000 0.557039
O O8 0.178574 0.785589 0.880345
O O9 0.286687 0.778243 0.856475
O O10 0.393374 0.000000 0.996478
O O11 0.470371 0.735666 0.236224
O O12 0.766115 0.500000 0.686359
O O13 0.780508 0.761578 0.833880
O O14 0.840626 0.759984 0.755768
O O15 0.203941 0.500000 0.649167
O O16 0.148797 0.234178 0.433606
O O17 0.231294 0.500000 0.066228
O O18 0.354039 0.734983 0.317256
O O19 0.500000 0.257252 0.500000
O O20 0.457359 0.000000 0.525046
O O21 0.105654 0.500000 0.237186
O O22 0.000000 0.238580 0.000000
#
# Coordination Sequence:
#
# PCOD9147055 Si02
#       8
#     4   4   4   4   4   4   4   4
#     4  10  19  34  56  82 117 160 204 250 301 354
#     4  11  26  46  65  87 125 169 203 247 312 371
#     4  11  22  36  58  88 124 163 202 248 307 374
#     4   9  18  34  55  86 124 157 193 244 306 359
#     4  11  22  39  67  95 121 157 209 263 306 362
#     4  11  23  39  65  96 123 156 206 262 306 358
#     4  10  22  40  60  82 117 166 206 246 308 372
#     4   9  18  33  58  90 121 155 192 244 310 360
#
# _framework density 21.763750000000002
#
# number of rings (size 3 to 8) (size 9 to 14) (size 15 to 20)
#    0.000    1.750    1.250    3.000    1.750    4.500 
#    0.000    1.250    0.000    1.500    0.000    0.000 
#    0.000    0.000    0.000    0.000    0.000    0.000 
#
# Total GULP energy -178834.326999 kJ/mol
# GULP energy per Si atom -5588.572719 kJ/mol
# Density = 2.171421 g / cm^3
# Si number density = 21.763750 Si / 1000 Ang^3
#
#
#
# Elastic Constant Matrix: (Units=GPa)
#
#
# Indices 1 2 3 4 5 6 
#
# 1 123.2655 -8.3513 27.6793 0.0000 5.6187 0.0000
# 2 -8.3513 22.3468 -3.1519 0.0000 -0.1115 0.0000
# 3 27.6793 -3.1519 79.7463 0.0000 10.4037 0.0000
# 4 0.0000 0.0000 0.0000 -1.7997 0.0000 7.0317
# 5 5.6187 -0.1115 10.4037 0.0000 40.7096 0.0000
# 6 0.0000 0.0000 0.0000 7.0317 0.0000 56.2024
#
#
#
# Elastic Compliance Matrix: (Units=1/GPa)
#
#
# Indices 1 2 3 4 5 6 
#
# 1 0.008995 0.002944 -0.002943 0.000000 -0.000481 0.000000
# 2 0.002944 0.045968 0.000860 0.000000 -0.000500 0.000000
# 3 -0.002943 0.000860 0.014009 0.000000 -0.003172 0.000000
# 4 0.000000 0.000000 0.000000 -0.373210 0.000000 0.046694
# 5 -0.000481 -0.000500 -0.003172 0.000000 0.025440 0.000000
# 6 0.000000 0.000000 0.000000 0.046694 0.000000 0.011951
#
#
# Mechanical properties :
#
#
# Convention : Reuss Voigt Hill
#
# Bulk Modulus (GPa) = 14.14533 28.63454 21.38994
# Shear Modulus (GPa) = -20.40772 32.96796 6.28012
#
# Velocity S-wave (km/s) = -3.06550 3.89628 1.70054
# Velocity P-wave (km/s) = 2.45278 5.78160 3.70208
#
# Compressibility (1/GPa) = 0.07069470
#
# Stress axis : x y z
#
# Youngs Moduli (GPa) = 111.17551 21.75419 71.38275
#
# Poissons Ratio (x) = -0.06404 0.21007
# Poissons Ratio (y) = -0.32730 -0.06141
# Poissons Ratio (z) = 0.32718 -0.01871
#
# Static dielectric constant tensor:
#      x y z
#    x 1.800040 0.000000 0.009090 
#    y 0.000000 1.781580 0.000000 
#    z 0.009090 0.000000 1.769610 
# 
# From -- ./inp_files/58227.got.cif
#   From: 2010.05.17/outbox.cif.g08.bks.cpg/sg10_30_cif.got.tgz:58227.got - 2010.06.03 11:33:40.
