data_PCOD9147497
_publ_section_title
;
Structure prediction by ZEFSAII (Michael W. Deem and Ramdas Pophale) SiO2 
 PCOD9147497
Probable space group: P 2/M
;
_chemical_formula_sum "Si O2"
_cell_formula_units_Z 32
_cell_length_a 21.014332
_cell_length_b 7.571769
_cell_length_c 27.020751
_cell_angle_alpha 90.000000
_cell_angle_beta 20.766523
_cell_angle_gamma 90.000000
_cell_volume 1524.407071
_symmetry_space_group_name_H-M "P 2/M"
_symmetry_group_IT_number 10
_symmetry_cell_setting 'monoclinic'
loop_
_space_group_symop_operation_xyz
x,y,z
-x,y,-z
-x,-y,-z
x,-y,z
loop_
_atom_site_type_symbol
_atom_site_label
_atom_site_fract_x
_atom_site_fract_y
_atom_site_fract_z
Si Si1 0.701618 0.785940 0.340637
Si Si2 0.497860 0.714981 0.301640
Si Si3 0.644382 0.704844 0.088866
Si Si4 0.711064 0.786645 0.705489
Si Si5 0.085869 0.206390 0.621906
Si Si6 0.803035 0.708177 0.154854
Si Si7 0.026485 0.784114 0.401350
Si Si8 0.970911 0.795910 0.228304
O O1 0.500000 0.729499 0.500000
O O2 0.758557 0.728484 0.244674
O O3 0.838634 0.719900 0.282967
O O4 0.705234 0.000000 0.337573
O O5 0.487722 0.500000 0.309228
O O6 0.566410 0.772836 0.197706
O O7 0.298792 0.781385 0.457710
O O8 0.641623 0.776695 0.237969
O O9 0.688809 0.500000 0.064220
O O10 0.485652 0.721260 0.164470
O O11 0.826875 0.792412 0.938395
O O12 0.801512 0.730495 0.691353
O O13 0.850246 0.731449 0.561020
O O14 0.705807 0.000000 0.709019
O O15 0.990100 0.281005 0.642561
O O16 0.042607 0.284920 0.707094
O O17 0.032879 0.000000 0.662050
O O18 0.811552 0.500000 0.136695
O O19 0.000000 0.783863 0.000000
O O20 0.024868 0.000000 0.401980
O O21 0.912731 0.000000 0.276238
#
# Coordination Sequence:
#
# PCOD9147497 Si02
#       8
#     4   4   4   4   4   4   4   4
#     4  10  21  38  57  80 108 137 175 224 272 319
#     4  10  21  35  53  79 107 136 176 222 268 316
#     4  11  22  36  54  79 111 147 182 217 264 318
#     4   9  16  31  55  82 110 139 175 221 267 313
#     4  10  19  35  58  82 105 137 179 221 266 314
#     4  10  21  37  55  76 105 140 177 219 265 317
#     4   8  15  29  54  84 109 136 174 221 267 312
#     4  10  22  37  55  79 109 143 178 218 267 321
#
# _framework density 20.991768
#
# number of rings (size 3 to 8) (size 9 to 14) (size 15 to 20)
#    0.000    2.250    1.250    2.625    0.000    4.500 
#    0.000    2.500    0.000    3.750    0.000    0.000 
#    0.000    0.000    0.000    0.000    0.000    0.000 
#
# Total GULP energy -178713.166252 kJ/mol
# GULP energy per Si atom -5584.786445 kJ/mol
# Density = 2.094399 g / cm^3
# Si number density = 20.991768 Si / 1000 Ang^3
#
#
#
# Elastic Constant Matrix: (Units=GPa)
#
#
# Indices 1 2 3 4 5 6 
#
# 1 170.6617 -12.2457 56.7012 0.0000 -11.5628 0.0000
# 2 -12.2457 43.6678 -18.8523 0.0000 -1.6009 0.0000
# 3 56.7012 -18.8523 87.2170 0.0000 1.4667 0.0000
# 4 0.0000 0.0000 0.0000 6.8754 0.0000 -2.8076
# 5 -11.5628 -1.6009 1.4667 0.0000 31.1814 0.0000
# 6 0.0000 0.0000 0.0000 -2.8076 0.0000 18.6038
#
#
#
# Elastic Compliance Matrix: (Units=1/GPa)
#
#
# Indices 1 2 3 4 5 6 
#
# 1 0.007766 0.000099 -0.005080 0.000000 0.003124 0.000000
# 2 0.000099 0.025292 0.005384 0.000000 0.001082 0.000000
# 3 -0.005080 0.005384 0.015972 0.000000 -0.002359 0.000000
# 4 0.000000 0.000000 0.000000 0.154999 0.000000 0.023392
# 5 0.003124 0.001082 -0.002359 0.000000 0.033395 0.000000
# 6 0.000000 0.000000 0.000000 0.023392 0.000000 0.057283
#
#
# Mechanical properties :
#
#
# Convention : Reuss Voigt Hill
#
# Bulk Modulus (GPa) = 20.06536 39.19476 29.63006
# Shear Modulus (GPa) = 16.10243 29.72833 22.91538
#
# Velocity S-wave (km/s) = 2.77263 3.76731 3.30758
# Velocity P-wave (km/s) = 4.45302 6.13478 5.36027
#
# Compressibility (1/GPa) = 0.04983714
#
# Stress axis : x y z
#
# Youngs Moduli (GPa) = 128.76487 39.53792 62.61072
#
# Poissons Ratio (x) = -0.00392 0.31806
# Poissons Ratio (y) = -0.01278 -0.33711
# Poissons Ratio (z) = 0.65412 -0.21288
#
# Static dielectric constant tensor:
#      x y z
#    x 1.765200 0.000000 -0.005150 
#    y 0.000000 1.795220 0.000000 
#    z -0.005150 0.000000 1.688200 
# 
# From -- ./inp_files/86983.got.cif
#   From: 2010.05.17/outbox.cif.g08.bks.cpg/sg10_44_cif.got.tgz:86983.got - 2010.06.03 11:33:40.
