data_PCOD9147021
_publ_section_title
;
Structure prediction by ZEFSAII (Michael W. Deem and Ramdas Pophale) SiO2 
 PCOD9147021
Probable space group: P 2/M
;
_chemical_formula_sum "Si O2"
_cell_formula_units_Z 32
_cell_length_a 14.135699
_cell_length_b 7.596737
_cell_length_c 24.233177
_cell_angle_alpha 90.000000
_cell_angle_beta 33.348262
_cell_angle_gamma 90.000000
_cell_volume 1430.545006
_symmetry_space_group_name_H-M "P 2/M"
_symmetry_group_IT_number 10
_symmetry_cell_setting 'monoclinic'
loop_
_space_group_symop_operation_xyz
x,y,z
-x,y,-z
-x,-y,-z
x,-y,z
loop_
_atom_site_type_symbol
_atom_site_label
_atom_site_fract_x
_atom_site_fract_y
_atom_site_fract_z
Si Si1 0.096587 0.295252 0.743675
Si Si2 0.824371 0.786741 0.057535
Si Si3 0.528170 0.203907 0.425527
Si Si4 0.244514 0.296098 0.036161
Si Si5 0.989996 0.212937 0.676770
Si Si6 0.729552 0.785000 0.542832
Si Si7 0.379517 0.207856 0.170552
Si Si8 0.447073 0.215213 0.261646
O O1 0.253846 0.500000 0.046504
O O2 0.268269 0.210482 0.684158
O O3 0.093234 0.279157 0.679358
O O4 0.915320 0.216626 0.852595
O O5 0.804010 0.725134 0.004553
O O6 0.646891 0.736081 0.174404
O O7 0.829369 0.000000 0.053611
O O8 0.000000 0.724307 0.000000
O O9 0.500000 0.285419 0.500000
O O10 0.415293 0.275412 0.430479
O O11 0.472471 0.000000 0.457201
O O12 0.897228 0.500000 0.243500
O O13 0.438245 0.227774 0.948538
O O14 0.793327 0.277644 0.773226
O O15 0.088228 0.264125 0.572787
O O16 0.994442 0.000000 0.678143
O O17 0.677603 0.724374 0.628969
O O18 0.726607 0.000000 0.546611
O O19 0.399776 0.277731 0.223206
O O20 0.351025 0.000000 0.190143
O O21 0.442374 0.000000 0.262748
#
# Coordination Sequence:
#
# PCOD9147021 Si02
#       8
#     4   4   4   4   4   4   4   4
#     4  11  24  38  53  78 110 146 183 222 270 323
#     4   9  18  32  53  81 109 138 178 225 267 312
#     4  10  19  34  56  80 109 144 179 221 266 314
#     4  10  22  38  54  75 108 146 182 221 270 325
#     4  10  20  36  57  81 107 139 181 228 274 321
#     4   9  17  30  52  82 112 140 173 213 266 324
#     4   9  19  36  58  81 107 138 178 230 277 317
#     4   8  15  29  49  79 112 137 168 212 266 320
#
# _framework density 22.369095999999999
#
# number of rings (size 3 to 8) (size 9 to 14) (size 15 to 20)
#    0.000    2.500    1.250    1.500    1.750    4.000 
#    0.000    5.000    0.000    3.000    0.000    4.375 
#    0.000    0.000    0.000    0.000    0.000    0.000 
#
# Total GULP energy -178605.300564 kJ/mol
# GULP energy per Si atom -5581.415643 kJ/mol
# Density = 2.231818 g / cm^3
# Si number density = 22.369096 Si / 1000 Ang^3
#
#
#
# Elastic Constant Matrix: (Units=GPa)
#
#
# Indices 1 2 3 4 5 6 
#
# 1 28.8989 -2.2807 -2.4880 0.0000 -27.4834 0.0000
# 2 -2.2807 43.2625 -8.0020 0.0000 -1.4223 0.0000
# 3 -2.4880 -8.0020 96.0823 0.0000 -7.0844 0.0000
# 4 0.0000 0.0000 0.0000 112.4003 0.0000 -138.9232
# 5 -27.4834 -1.4223 -7.0844 0.0000 38.2760 0.0000
# 6 0.0000 0.0000 0.0000 -138.9232 0.0000 265.8738
#
#
#
# Elastic Compliance Matrix: (Units=1/GPa)
#
#
# Indices 1 2 3 4 5 6 
#
# 1 0.122099 0.011387 0.010752 0.000000 0.090084 0.000000
# 2 0.011387 0.024598 0.003055 0.000000 0.009656 0.000000
# 3 0.010752 0.003055 0.011678 0.000000 0.009995 0.000000
# 4 0.000000 0.000000 0.000000 0.025119 0.000000 0.013125
# 5 0.090084 0.009656 0.009995 0.000000 0.093018 0.000000
# 6 0.000000 0.000000 0.000000 0.013125 0.000000 0.010619
#
#
# Mechanical properties :
#
#
# Convention : Reuss Voigt Hill
#
# Bulk Modulus (GPa) = 4.79010 15.85582 10.32296
# Shear Modulus (GPa) = 16.32232 95.37765 55.84998
#
# Velocity S-wave (km/s) = 2.70419 6.53687 5.00217
# Velocity P-wave (km/s) = 3.44909 8.00487 6.16337
#
# Compressibility (1/GPa) = 0.20876400
#
# Stress axis : x y z
#
# Youngs Moduli (GPa) = 8.19006 40.65435 85.63408
#
# Poissons Ratio (x) = -0.46294 -0.92075
# Poissons Ratio (y) = -0.09326 -0.26164
# Poissons Ratio (z) = -0.08806 -0.12421
#
# Static dielectric constant tensor:
#      x y z
#    x 1.789360 0.000000 -0.014600 
#    y 0.000000 1.862750 0.000000 
#    z -0.014600 0.000000 1.859220 
# 
# From -- ./inp_files/66555.got.cif
#   From: 2010.05.17/outbox.cif.g08.bks.cpg/sg10_34_cif.got.tgz:66555.got - 2010.06.03 11:33:40.
