data_PCOD9147702
_publ_section_title
;
Structure prediction by ZEFSAII (Michael W. Deem and Ramdas Pophale) SiO2 
 PCOD9147702
Probable space group: P 2/M
;
_chemical_formula_sum "Si O2"
_cell_formula_units_Z 24
_cell_length_a 11.532516
_cell_length_b 17.736620
_cell_length_c 12.796352
_cell_angle_alpha 90.000000
_cell_angle_beta 34.679784
_cell_angle_gamma 90.000000
_cell_volume 1489.310618
_symmetry_space_group_name_H-M "P 2/M"
_symmetry_group_IT_number 10
_symmetry_cell_setting 'monoclinic'
loop_
_space_group_symop_operation_xyz
x,y,z
-x,y,-z
-x,-y,-z
x,-y,z
loop_
_atom_site_type_symbol
_atom_site_label
_atom_site_fract_x
_atom_site_fract_y
_atom_site_fract_z
Si Si1 0.616144 0.674357 0.117743
Si Si2 0.791779 0.588396 0.593812
Si Si3 0.410785 0.824003 0.964109
Si Si4 0.004616 0.586960 0.218923
Si Si5 0.683034 0.587251 0.281158
Si Si6 0.197611 0.910160 0.286489
O O1 0.400715 0.640331 0.240557
O O2 0.651871 0.642699 0.207918
O O3 0.622251 0.764254 0.101048
O O4 0.802727 0.640422 0.913473
O O5 0.744980 0.500000 0.649646
O O6 0.000000 0.607429 0.500000
O O7 0.847227 0.595930 0.430371
O O8 0.222049 0.868832 0.155782
O O9 0.500000 0.779249 0.000000
O O10 0.594453 0.883205 0.809732
O O11 0.073379 0.500000 0.170539
O O12 0.886764 0.599885 0.197660
O O13 0.500000 0.593703 0.500000
O O14 0.683400 0.500000 0.242724
O O15 0.000000 0.888309 0.500000
O O16 0.198155 0.000000 0.272861
#
# Coordination Sequence:
#
# PCOD9147702 Si02
#       6
#     4   4   4   4   4   4
#     4  12  21  32  51  70 101 135 160 212 278 307
#     4  10  22  34  46  66  93 131 177 216 255 311
#     4   8  20  30  43  78 109 130 154 190 244 307
#     4  10  21  35  52  69  88 129 187 235 262 295
#     4  10  19  36  55  69  87 128 192 241 265 289
#     4   8  15  33  57  74 101 138 164 189 224 288
#
# _framework density 16.114837999999999
#
# number of rings (size 3 to 8) (size 9 to 14) (size 15 to 20)
#    1.000    1.167    1.667    3.000    2.333    3.333 
#    0.000    2.500    0.000    0.000    0.000    0.000 
#    0.000   13.333    0.000    0.000    0.000    0.000 
#
# Total GULP energy -133614.793767 kJ/mol
# GULP energy per Si atom -5567.283074 kJ/mol
# Density = 1.607816 g / cm^3
# Si number density = 16.114838 Si / 1000 Ang^3
#
#
#
# Elastic Constant Matrix: (Units=GPa)
#
#
# Indices 1 2 3 4 5 6 
#
# 1 47.7593 29.2587 6.7839 0.0000 1.5719 0.0000
# 2 29.2587 73.0804 45.0953 0.0000 2.5763 0.0000
# 3 6.7839 45.0953 99.1915 0.0000 -4.6930 0.0000
# 4 0.0000 0.0000 0.0000 -261.2330 0.0000 -105.1671
# 5 1.5719 2.5763 -4.6930 0.0000 17.2173 0.0000
# 6 0.0000 0.0000 0.0000 -105.1671 0.0000 -28.7831
#
#
#
# Elastic Compliance Matrix: (Units=1/GPa)
#
#
# Indices 1 2 3 4 5 6 
#
# 1 0.029195 -0.014605 0.004681 0.000000 0.000796 0.000000
# 2 -0.014605 0.026809 -0.011464 0.000000 -0.005803 0.000000
# 3 0.004681 -0.011464 0.015231 0.000000 0.005440 0.000000
# 4 0.000000 0.000000 0.000000 0.008129 0.000000 -0.029700
# 5 0.000796 -0.005803 0.005440 0.000000 0.060359 0.000000
# 6 0.000000 0.000000 0.000000 -0.029700 0.000000 0.073774
#
#
# Mechanical properties :
#
#
# Convention : Reuss Voigt Hill
#
# Bulk Modulus (GPa) = 35.13900 42.47856 38.80878
# Shear Modulus (GPa) = 18.81409 -45.30021 -13.24306
#
# Velocity S-wave (km/s) = 3.42058 -5.30772 -2.86980
# Velocity P-wave (km/s) = 6.11990 3.33847 3.62683
#
# Compressibility (1/GPa) = 0.02845841
#
# Stress axis : x y z
#
# Youngs Moduli (GPa) = 34.25294 37.30038 65.65730
#
# Poissons Ratio (x) = 0.54476 -0.30732
# Poissons Ratio (y) = 0.50026 0.75270
# Poissons Ratio (z) = -0.16033 0.42761
#
# Static dielectric constant tensor:
#      x y z
#    x 1.567760 0.000000 0.005240 
#    y 0.000000 1.519040 0.000000 
#    z 0.005240 0.000000 1.582440 
# 
# From -- ./inp_files/65014.got.cif
#   From: 2010.05.17/outbox.cif.g08.bks.cpg/sg10_33_cif.got.tgz:65014.got - 2010.06.03 11:33:40.
