data_PCOD9147419
_publ_section_title
;
Structure prediction by ZEFSAII (Michael W. Deem and Ramdas Pophale) SiO2 
 PCOD9147419
Probable space group: P 2/M
;
_chemical_formula_sum "Si O2"
_cell_formula_units_Z 32
_cell_length_a 14.724850
_cell_length_b 7.648969
_cell_length_c 14.610614
_cell_angle_alpha 90.000000
_cell_angle_beta 119.619276
_cell_angle_gamma 90.000000
_cell_volume 1430.560624
_symmetry_space_group_name_H-M "P 2/M"
_symmetry_group_IT_number 10
_symmetry_cell_setting 'monoclinic'
loop_
_space_group_symop_operation_xyz
x,y,z
-x,y,-z
-x,-y,-z
x,-y,z
loop_
_atom_site_type_symbol
_atom_site_label
_atom_site_fract_x
_atom_site_fract_y
_atom_site_fract_z
Si Si1 0.951874 0.798760 0.271746
Si Si2 0.793491 0.788237 0.045846
Si Si3 0.175936 0.295333 0.329001
Si Si4 0.661170 0.710777 0.325257
Si Si5 0.611402 0.209909 0.090374
Si Si6 0.115698 0.787760 0.091797
Si Si7 0.889056 0.302414 0.426839
Si Si8 0.402145 0.713931 0.511582
O O1 0.903577 0.749158 0.150169
O O2 0.892535 0.690536 0.318880
O O3 0.076191 0.781339 0.332663
O O4 0.923146 0.000000 0.273914
O O5 0.702529 0.724061 0.067880
O O6 0.784753 0.000000 0.037436
O O7 0.802885 0.728808 0.946220
O O8 0.175367 0.500000 0.349845
O O9 0.150961 0.271143 0.209384
O O10 0.290143 0.228563 0.414600
O O11 0.667821 0.500000 0.330971
O O12 0.626884 0.755946 0.205767
O O13 0.779627 0.777656 0.400167
O O14 0.593573 0.766043 0.379182
O O15 0.612139 0.000000 0.081292
O O16 0.500000 0.276498 0.000000
O O17 0.113172 0.000000 0.093778
O O18 0.000000 0.732788 0.000000
O O19 0.894510 0.500000 0.468188
O O20 0.000000 0.211940 0.500000
O O21 0.500000 0.773927 0.500000
O O22 0.402983 0.500000 0.509362
#
# Coordination Sequence:
#
# PCOD9147419 Si02
#       8
#     4   4   4   4   4   4   4   4
#     4  11  20  34  56  80 111 151 191 230 279 344
#     4   9  18  34  54  76 107 148 187 225 278 338
#     4  11  22  36  57  87 118 148 191 244 290 338
#     4  10  20  36  60  86 112 147 190 237 284 333
#     4  10  21  38  59  83 114 152 191 233 283 339
#     4  10  19  35  56  78 111 155 194 229 280 346
#     4  10  20  34  53  82 118 151 185 232 291 342
#     4   9  20  40  62  82 112 155 194 231 283 342
#
# _framework density 22.368853000000001
#
# number of rings (size 3 to 8) (size 9 to 14) (size 15 to 20)
#    0.000    2.000    2.500    1.500    0.000    3.750 
#    0.000    3.125    0.000    2.625    0.000    0.000 
#    0.000    0.000    0.000    0.000    0.000    0.000 
#
# Total GULP energy -178655.867684 kJ/mol
# GULP energy per Si atom -5582.995865 kJ/mol
# Density = 2.231794 g / cm^3
# Si number density = 22.368853 Si / 1000 Ang^3
#
#
#
# Elastic Constant Matrix: (Units=GPa)
#
#
# Indices 1 2 3 4 5 6 
#
# 1 178.8079 4.4237 67.2991 0.0000 -13.4071 0.0000
# 2 4.4237 47.6251 -2.7804 0.0000 0.0733 0.0000
# 3 67.2991 -2.7804 100.1273 0.0000 -9.7072 0.0000
# 4 0.0000 0.0000 0.0000 21.8254 0.0000 -7.7339
# 5 -13.4071 0.0733 -9.7072 0.0000 43.2753 0.0000
# 6 0.0000 0.0000 0.0000 -7.7339 0.0000 13.3138
#
#
#
# Elastic Compliance Matrix: (Units=1/GPa)
#
#
# Indices 1 2 3 4 5 6 
#
# 1 0.007597 -0.001000 -0.005015 0.000000 0.001230 0.000000
# 2 -0.001000 0.021164 0.001254 0.000000 -0.000065 0.000000
# 3 -0.005015 0.001254 0.013536 0.000000 0.001481 0.000000
# 4 0.000000 0.000000 0.000000 0.057694 0.000000 0.033514
# 5 0.001230 -0.000065 0.001481 0.000000 0.023821 0.000000
# 6 0.000000 0.000000 0.000000 0.033514 0.000000 0.094578
#
#
# Mechanical properties :
#
#
# Convention : Reuss Voigt Hill
#
# Bulk Modulus (GPa) = 30.51172 51.60499 41.05836
# Shear Modulus (GPa) = 20.93478 32.85744 26.89611
#
# Velocity S-wave (km/s) = 3.06255 3.83677 3.47131
# Velocity P-wave (km/s) = 5.11620 6.53818 5.87041
#
# Compressibility (1/GPa) = 0.03277429
#
# Stress axis : x y z
#
# Youngs Moduli (GPa) = 131.63055 47.25103 73.87595
#
# Poissons Ratio (x) = 0.04727 0.37047
# Poissons Ratio (y) = 0.13167 -0.09262
# Poissons Ratio (z) = 0.66009 -0.05924
#
# Static dielectric constant tensor:
#      x y z
#    x 1.831090 0.000000 -0.006730 
#    y 0.000000 1.845050 0.000000 
#    z -0.006730 0.000000 1.848130 
# 
# From -- ./inp_files/66606.got.cif
#   From: 2010.05.17/outbox.cif.g08.bks.cpg/sg10_34_cif.got.tgz:66606.got - 2010.06.03 11:33:40.
