data_PCOD9147670
_publ_section_title
;
Structure prediction by ZEFSAII (Michael W. Deem and Ramdas Pophale) SiO2 
 PCOD9147670
Probable space group: P 2/M
;
_chemical_formula_sum "Si O2"
_cell_formula_units_Z 28
_cell_length_a 11.781281
_cell_length_b 12.135671
_cell_length_c 19.675846
_cell_angle_alpha 90.000000
_cell_angle_beta 30.288674
_cell_angle_gamma 90.000000
_cell_volume 1418.821386
_symmetry_space_group_name_H-M "P 2/M"
_symmetry_group_IT_number 10
_symmetry_cell_setting 'monoclinic'
loop_
_space_group_symop_operation_xyz
x,y,z
-x,y,-z
-x,-y,-z
x,-y,z
loop_
_atom_site_type_symbol
_atom_site_label
_atom_site_fract_x
_atom_site_fract_y
_atom_site_fract_z
Si Si1 0.230731 0.620613 0.641889
Si Si2 0.543848 0.753892 0.896637
Si Si3 0.231985 0.371271 0.961000
Si Si4 0.187624 0.760740 0.786879
Si Si5 0.017496 0.625013 0.374120
Si Si6 0.559694 0.370330 0.664864
Si Si7 0.970939 0.000000 0.098571
Si Si8 0.434088 0.000000 0.951264
O O1 0.500000 0.624164 0.500000
O O2 0.169202 0.500000 0.704232
O O3 0.148332 0.721454 0.730092
O O4 0.124983 0.623156 0.622293
O O5 0.348209 0.678160 0.967227
O O6 0.775251 0.703213 0.749150
O O7 0.528225 0.880897 0.881171
O O8 0.500000 0.751365 0.000000
O O9 0.179691 0.500000 0.991132
O O10 0.422147 0.356449 0.805280
O O11 0.003167 0.303251 0.071698
O O12 0.427551 0.710050 0.682800
O O13 0.161421 0.888748 0.814368
O O14 0.099641 0.500000 0.346062
O O15 0.825097 0.654419 0.528491
O O16 0.539470 0.500000 0.655253
O O17 0.000000 0.000000 0.000000
O O18 0.189513 0.000000 0.037399
O O19 0.500000 0.000000 0.000000
#
# Coordination Sequence:
#
# PCOD9147670 Si02
#       8
#     4   4   4   4   4   4   2   2
#     4  10  19  35  61  92 129 167 203 255 328 393
#     4  11  23  41  63  87 118 162 214 266 315 382
#     4  11  22  35  60  92 122 159 209 263 317 386
#     4  12  22  38  62  92 125 168 213 268 318 383
#     4  10  21  37  60  91 128 166 202 254 323 391
#     4  10  21  38  60  91 130 166 203 256 330 396
#     4  12  26  44  68  96 130 176 222 278 336 378
#     4  10  24  46  65  89 125 173 218 265 325 379
#
# _framework density 19.734687999999998
#
# number of rings (size 3 to 8) (size 9 to 14) (size 15 to 20)
#    0.000    1.286    2.857    3.857    2.000    4.000 
#    0.000    3.214    0.000    0.857    0.000    0.000 
#    0.000    0.000    0.000    0.000    0.000    0.000 
#
# Total GULP energy -156177.122279 kJ/mol
# GULP energy per Si atom -5577.754367 kJ/mol
# Density = 1.968977 g / cm^3
# Si number density = 19.734688 Si / 1000 Ang^3
#
#
#
# Elastic Constant Matrix: (Units=GPa)
#
#
# Indices 1 2 3 4 5 6 
#
# 1 55.2013 11.3822 7.5955 0.0000 -8.0952 0.0000
# 2 11.3822 129.6861 52.6854 0.0000 -3.4130 0.0000
# 3 7.5955 52.6854 115.4521 0.0000 -10.5937 0.0000
# 4 0.0000 0.0000 0.0000 222.4662 0.0000 41.2377
# 5 -8.0952 -3.4130 -10.5937 0.0000 35.5278 0.0000
# 6 0.0000 0.0000 0.0000 41.2377 0.0000 72.8662
#
#
#
# Elastic Compliance Matrix: (Units=1/GPa)
#
#
# Indices 1 2 3 4 5 6 
#
# 1 0.019056 -0.001484 -0.000197 0.000000 0.004141 0.000000
# 2 -0.001484 0.009587 -0.004342 0.000000 -0.000712 0.000000
# 3 -0.000197 -0.004342 0.010912 0.000000 0.002792 0.000000
# 4 0.000000 0.000000 0.000000 0.005022 0.000000 -0.002842
# 5 0.004141 -0.000712 0.002792 0.000000 0.029855 0.000000
# 6 0.000000 0.000000 0.000000 -0.002842 0.000000 0.015332
#
#
# Mechanical properties :
#
#
# Convention : Reuss Voigt Hill
#
# Bulk Modulus (GPa) = 36.35151 49.29620 42.82385
# Shear Modulus (GPa) = 45.05380 81.41714 63.23547
#
# Velocity S-wave (km/s) = 4.78323 6.43004 5.66678
# Velocity P-wave (km/s) = 6.99756 8.95326 8.03513
#
# Compressibility (1/GPa) = 0.02750918
#
# Stress axis : x y z
#
# Youngs Moduli (GPa) = 52.47766 104.31298 91.63923
#
# Poissons Ratio (x) = 0.15476 0.01802
# Poissons Ratio (y) = 0.07786 0.39794
# Poissons Ratio (z) = 0.01032 0.45297
#
# Static dielectric constant tensor:
#      x y z
#    x 1.823440 0.000000 0.027040 
#    y 0.000000 1.652820 0.000000 
#    z 0.027040 0.000000 1.720800 
# 
# From -- ./inp_files/83981.got.cif
#   From: 2010.05.17/outbox.cif.g08.bks.cpg/sg10_42_cif.got.tgz:83981.got - 2010.06.03 11:33:40.
