data_PCOD9147787
_publ_section_title
;
Structure prediction by ZEFSAII (Michael W. Deem and Ramdas Pophale) SiO2 
 PCOD9147787
Probable space group: P 2/M
;
_chemical_formula_sum "Si O2"
_cell_formula_units_Z 28
_cell_length_a 10.007401
_cell_length_b 8.896539
_cell_length_c 27.873906
_cell_angle_alpha 90.000000
_cell_angle_beta 142.340164
_cell_angle_gamma 90.000000
_cell_volume 1516.218194
_symmetry_space_group_name_H-M "P 2/M"
_symmetry_group_IT_number 10
_symmetry_cell_setting 'monoclinic'
loop_
_space_group_symop_operation_xyz
x,y,z
-x,y,-z
-x,-y,-z
x,-y,z
loop_
_atom_site_type_symbol
_atom_site_label
_atom_site_fract_x
_atom_site_fract_y
_atom_site_fract_z
Si Si1 0.503925 0.178692 0.266780
Si Si2 0.309985 0.316798 0.481602
Si Si3 0.862935 0.681167 0.303660
Si Si4 0.378539 0.172039 0.017244
Si Si5 0.029771 0.320030 0.143932
Si Si6 0.205087 0.680109 0.823842
Si Si7 0.262642 0.321550 0.575624
O O1 0.648068 0.243887 0.264303
O O2 0.626728 0.232575 0.350030
O O3 0.261364 0.246466 0.198714
O O4 0.495317 0.000000 0.262061
O O5 0.500000 0.266049 0.500000
O O6 0.309518 0.500000 0.481392
O O7 0.344617 0.272542 0.546469
O O8 0.073985 0.270479 0.394324
O O9 0.843535 0.500000 0.302731
O O10 0.891947 0.716543 0.255748
O O11 0.157296 0.264021 0.945772
O O12 0.331825 0.000000 0.017147
O O13 0.500000 0.172383 0.000000
O O14 0.556884 0.245859 0.102634
O O15 0.046810 0.500000 0.147358
O O16 0.946010 0.275847 0.173816
O O17 0.231288 0.500000 0.834295
O O18 0.308524 0.500000 0.595425
O O19 0.000000 0.305095 0.500000
#
# Coordination Sequence:
#
# PCOD9147787 Si02
#       7
#     4   4   4   4   4   4   4
#     4  12  25  38  54  80 116 153 189 229 279 334
#     4   9  18  32  57  86 110 137 180 235 281 324
#     4  10  20  38  58  82 113 147 187 232 281 331
#     4   9  17  32  55  83 118 152 181 219 276 338
#     4  10  20  36  60  87 112 143 189 236 276 325
#     4   9  19  34  59  88 113 143 186 236 281 328
#     4  10  19  36  60  81 105 144 190 230 274 326
#
# _framework density 18.466999000000001
#
# number of rings (size 3 to 8) (size 9 to 14) (size 15 to 20)
#    0.000    2.143    1.429    2.143    2.000    3.143 
#    0.000    0.714    0.000    5.143    0.000    0.000 
#    0.000    0.000    0.000    0.000    0.000    0.000 
#
# Total GULP energy -156288.201672 kJ/mol
# GULP energy per Si atom -5581.721488 kJ/mol
# Density = 1.842497 g / cm^3
# Si number density = 18.466999 Si / 1000 Ang^3
#
#
#
# Elastic Constant Matrix: (Units=GPa)
#
#
# Indices 1 2 3 4 5 6 
#
# 1 71.6322 16.1309 -0.4840 0.0000 17.3794 0.0000
# 2 16.1309 37.6894 14.0419 0.0000 12.2018 0.0000
# 3 -0.4840 14.0419 36.0632 0.0000 17.7837 0.0000
# 4 0.0000 0.0000 0.0000 3.4240 0.0000 1.8766
# 5 17.3794 12.2018 17.7837 0.0000 30.9878 0.0000
# 6 0.0000 0.0000 0.0000 1.8766 0.0000 11.0322
#
#
#
# Elastic Compliance Matrix: (Units=1/GPa)
#
#
# Indices 1 2 3 4 5 6 
#
# 1 0.018903 -0.007407 0.009662 0.000000 -0.013230 0.000000
# 2 -0.007407 0.035193 -0.012577 0.000000 -0.002486 0.000000
# 3 0.009662 -0.012577 0.046005 0.000000 -0.026869 0.000000
# 4 0.000000 0.000000 0.000000 0.322083 0.000000 -0.054787
# 5 -0.013230 -0.002486 -0.026869 0.000000 0.056090 0.000000
# 6 0.000000 0.000000 0.000000 -0.054787 0.000000 0.099963
#
#
# Mechanical properties :
#
#
# Convention : Reuss Voigt Hill
#
# Bulk Modulus (GPa) = 12.58522 22.75138 17.66830
# Shear Modulus (GPa) = 7.99530 16.80187 12.39859
#
# Velocity S-wave (km/s) = 2.08300 3.01961 2.59393
# Velocity P-wave (km/s) = 3.55176 4.95017 4.30808
#
# Compressibility (1/GPa) = 0.07945827
#
# Stress axis : x y z
#
# Youngs Moduli (GPa) = 52.90061 28.41444 21.73662
#
# Poissons Ratio (x) = 0.21047 -0.21002
# Poissons Ratio (y) = 0.39184 0.27338
# Poissons Ratio (z) = -0.51112 0.35736
#
# Static dielectric constant tensor:
#      x y z
#    x 1.636080 0.000000 -0.008090 
#    y 0.000000 1.620620 0.000000 
#    z -0.008090 0.000000 1.614960 
# 
# From -- ./inp_files/92073.got.cif
#   From: 2010.05.17/outbox.cif.g08.bks.cpg/sg10_47_cif.got.tgz:92073.got - 2010.06.03 11:33:40.
