data_PCOD9147587
_publ_section_title
;
Structure prediction by ZEFSAII (Michael W. Deem and Ramdas Pophale) SiO2 
 PCOD9147587
Probable space group: P 2/M
;
_chemical_formula_sum "Si O2"
_cell_formula_units_Z 28
_cell_length_a 15.753571
_cell_length_b 8.038415
_cell_length_c 12.344248
_cell_angle_alpha 90.000000
_cell_angle_beta 114.517778
_cell_angle_gamma 90.000000
_cell_volume 1422.248710
_symmetry_space_group_name_H-M "P 2/M"
_symmetry_group_IT_number 10
_symmetry_cell_setting 'monoclinic'
loop_
_space_group_symop_operation_xyz
x,y,z
-x,y,-z
-x,-y,-z
x,-y,z
loop_
_atom_site_type_symbol
_atom_site_label
_atom_site_fract_x
_atom_site_fract_y
_atom_site_fract_z
Si Si1 0.654535 0.500000 0.039212
Si Si2 0.165965 0.202446 0.355007
Si Si3 0.525492 0.188909 0.335547
Si Si4 0.108273 0.799497 0.560404
Si Si5 0.529292 0.500000 0.186552
Si Si6 0.366030 0.302727 0.394245
Si Si7 0.832252 0.313281 0.173453
Si Si8 0.994632 0.804173 0.118067
O O1 0.593620 0.500000 0.115330
O O2 0.725528 0.343311 0.080630
O O3 0.579942 0.500000 0.904269
O O4 0.158833 0.256849 0.476921
O O5 0.256691 0.270683 0.343340
O O6 0.073551 0.258800 0.242357
O O7 0.170362 0.000000 0.357570
O O8 0.548686 0.333070 0.263646
O O9 0.420362 0.220142 0.323178
O O10 0.589714 0.221349 0.474638
O O11 0.537379 0.000000 0.303523
O O12 0.156853 0.749820 0.698299
O O13 0.000000 0.742690 0.500000
O O14 0.105925 0.000000 0.556519
O O15 0.386140 0.500000 0.404108
O O16 0.872947 0.500000 0.194586
O O17 0.894630 0.214064 0.121917
O O18 0.014816 0.000000 0.118623
O O19 0.000000 0.730876 0.000000
#
# Coordination Sequence:
#
# PCOD9147587 Si02
#       8
#     2   4   4   4   2   4   4   4
#     4   9  26  44  64  88 126 162 199 281 313 374
#     4  10  21  35  56  91 129 166 212 263 313 374
#     4  11  22  40  68  95 127 169 209 264 324 387
#     4  10  19  35  59  85 123 163 202 258 313 366
#     4  11  22  49  68  88 132 163 212 264 322 391
#     4  11  21  38  58  96 136 166 206 265 326 378
#     4  10  22  39  58  88 118 157 209 253 312 371
#     4  10  21  40  62  86 124 170 215 261 302 363
#
# _framework density 19.687132999999999
#
# number of rings (size 3 to 8) (size 9 to 14) (size 15 to 20)
#    0.429    1.286    2.857    2.571    2.000    2.857 
#    0.000    5.000    0.000    0.000    0.000    0.000 
#    0.000    0.000    0.000    0.000    0.000    0.000 
#
# Total GULP energy -156215.562596 kJ/mol
# GULP energy per Si atom -5579.127236 kJ/mol
# Density = 1.964232 g / cm^3
# Si number density = 19.687133 Si / 1000 Ang^3
#
#
#
# Elastic Constant Matrix: (Units=GPa)
#
#
# Indices 1 2 3 4 5 6 
#
# 1 59.7692 -7.7423 3.0774 0.0000 11.8018 0.0000
# 2 -7.7423 71.8644 8.4745 0.0000 -3.2955 0.0000
# 3 3.0774 8.4745 60.4087 0.0000 -10.4535 0.0000
# 4 0.0000 0.0000 0.0000 -19.2483 0.0000 3.6153
# 5 11.8018 -3.2955 -10.4535 0.0000 28.1495 0.0000
# 6 0.0000 0.0000 0.0000 3.6153 0.0000 27.1277
#
#
#
# Elastic Compliance Matrix: (Units=1/GPa)
#
#
# Indices 1 2 3 4 5 6 
#
# 1 0.018840 0.001954 -0.002737 0.000000 -0.008687 0.000000
# 2 0.001954 0.014377 -0.002102 0.000000 0.000083 0.000000
# 3 -0.002737 -0.002102 0.018322 0.000000 0.007705 0.000000
# 4 0.000000 0.000000 0.000000 -0.050684 0.000000 0.006755
# 5 -0.008687 0.000083 0.007705 0.000000 0.042038 0.000000
# 6 0.000000 0.000000 0.000000 0.006755 0.000000 0.035963
#
#
# Mechanical properties :
#
#
# Convention : Reuss Voigt Hill
#
# Bulk Modulus (GPa) = 21.84872 22.18459 22.01666
# Shear Modulus (GPa) = 50.05917 19.75463 34.90690
#
# Velocity S-wave (km/s) = 5.04802 3.17113 4.21537
# Velocity P-wave (km/s) = 6.71556 4.97002 5.90762
#
# Compressibility (1/GPa) = 0.04576928
#
# Stress axis : x y z
#
# Youngs Moduli (GPa) = 53.07768 69.55393 54.58038
#
# Poissons Ratio (x) = -0.13592 0.14939
# Poissons Ratio (y) = -0.10372 0.11473
# Poissons Ratio (z) = 0.14528 0.14621
#
# Static dielectric constant tensor:
#      x y z
#    x 1.687980 0.000000 -0.000570 
#    y 0.000000 1.700910 0.000000 
#    z -0.000570 0.000000 1.684390 
# 
# From -- ./inp_files/49444.got.cif
#   From: 2010.05.17/outbox.cif.g08.bks.cpg/sg10_25_cif.got.tgz:49444.got - 2010.06.03 11:33:40.
