data_PCOD9147535
_publ_section_title
;
Structure prediction by ZEFSAII (Michael W. Deem and Ramdas Pophale) SiO2 
 PCOD9147535
Probable space group: P 2/M
;
_chemical_formula_sum "Si O2"
_cell_formula_units_Z 32
_cell_length_a 11.911093
_cell_length_b 13.954250
_cell_length_c 18.483073
_cell_angle_alpha 90.000000
_cell_angle_beta 146.178497
_cell_angle_gamma 90.000000
_cell_volume 1709.941700
_symmetry_space_group_name_H-M "P 2/M"
_symmetry_group_IT_number 10
_symmetry_cell_setting 'monoclinic'
loop_
_space_group_symop_operation_xyz
x,y,z
-x,y,-z
-x,-y,-z
x,-y,z
loop_
_atom_site_type_symbol
_atom_site_label
_atom_site_fract_x
_atom_site_fract_y
_atom_site_fract_z
Si Si1 0.866078 0.612592 0.998684
Si Si2 0.395704 0.389287 0.740367
Si Si3 0.749302 0.270952 0.212822
Si Si4 0.503402 0.112519 0.687530
Si Si5 0.106404 0.230852 0.864133
Si Si6 0.287124 0.113815 0.345153
Si Si7 0.864749 0.238974 0.490899
Si Si8 0.454846 0.887224 0.119860
O O1 0.889600 0.500000 0.031455
O O2 0.920711 0.684127 0.092702
O O3 0.631555 0.627200 0.852329
O O4 0.000000 0.631407 0.000000
O O5 0.346913 0.500000 0.703646
O O6 0.360500 0.357212 0.804475
O O7 0.255145 0.323607 0.614545
O O8 0.769043 0.269735 0.137898
O O9 0.631660 0.176490 0.178771
O O10 0.975759 0.272865 0.365232
O O11 0.671410 0.134996 0.717796
O O12 0.300104 0.169992 0.563798
O O13 0.553604 0.131113 0.798322
O O14 0.462895 0.000000 0.658173
O O15 0.896752 0.180877 0.729506
O O16 0.246253 0.149409 0.974911
O O17 0.500000 0.130720 0.500000
O O18 0.240322 0.000000 0.328553
O O19 0.000000 0.190165 0.500000
O O20 0.486684 0.000000 0.125056
#
# Coordination Sequence:
#
# PCOD9147535 Si02
#       8
#     4   4   4   4   4   4   4   4
#     4  10  23  42  65  92 118 153 198 247 305 360
#     4  10  21  40  65  90 119 154 195 248 303 355
#     4  11  23  38  55  91 123 157 203 241 296 358
#     4  10  20  36  59  86 117 156 205 248 291 349
#     4  12  24  38  63  87 119 162 200 248 300 355
#     4  10  23  41  60  87 123 162 204 246 297 356
#     4  10  19  35  58  86 122 152 196 241 294 357
#     4  11  23  38  58  88 124 160 201 246 294 350
#
# _framework density 18.714086999999999
#
# number of rings (size 3 to 8) (size 9 to 14) (size 15 to 20)
#    0.000    1.500    3.750    1.500    3.500    5.000 
#    0.000    3.125    0.000    0.375    0.000    0.000 
#    0.000    0.000    0.000    0.000    0.000    0.000 
#
# Total GULP energy -178646.786886 kJ/mol
# GULP energy per Si atom -5582.712090 kJ/mol
# Density = 1.867149 g / cm^3
# Si number density = 18.714087 Si / 1000 Ang^3
#
#
#
# Elastic Constant Matrix: (Units=GPa)
#
#
# Indices 1 2 3 4 5 6 
#
# 1 103.5975 36.8478 25.7237 0.0000 1.9386 0.0000
# 2 36.8478 64.9473 26.8589 0.0000 1.1073 0.0000
# 3 25.7237 26.8589 79.0322 0.0000 6.9023 0.0000
# 4 0.0000 0.0000 0.0000 128.9947 0.0000 121.3946
# 5 1.9386 1.1073 6.9023 0.0000 25.1383 0.0000
# 6 0.0000 0.0000 0.0000 121.3946 0.0000 146.1169
#
#
#
# Elastic Compliance Matrix: (Units=1/GPa)
#
#
# Indices 1 2 3 4 5 6 
#
# 1 0.012335 -0.006214 -0.001889 0.000000 -0.000159 0.000000
# 2 -0.006214 0.021066 -0.005223 0.000000 0.000985 0.000000
# 3 -0.001889 -0.005223 0.015379 0.000000 -0.003847 0.000000
# 4 0.000000 0.000000 0.000000 0.035537 0.000000 -0.029524
# 5 -0.000159 0.000985 -0.003847 0.000000 0.040805 0.000000
# 6 0.000000 0.000000 0.000000 -0.029524 0.000000 0.031373
#
#
# Mechanical properties :
#
#
# Convention : Reuss Voigt Hill
#
# Bulk Modulus (GPa) = 45.19217 47.38198 46.28708
# Shear Modulus (GPa) = 26.24361 70.59309 48.41835
#
# Velocity S-wave (km/s) = 3.74885 6.14848 5.09204
# Velocity P-wave (km/s) = 6.55284 8.70511 7.70450
#
# Compressibility (1/GPa) = 0.02212772
#
# Stress axis : x y z
#
# Youngs Moduli (GPa) = 81.06933 47.47037 65.02480
#
# Poissons Ratio (x) = 0.29500 0.12284
# Poissons Ratio (y) = 0.50380 0.33959
# Poissons Ratio (z) = 0.15315 0.24791
#
# Static dielectric constant tensor:
#      x y z
#    x 1.657250 0.000000 -0.016100 
#    y 0.000000 1.631880 0.000000 
#    z -0.016100 0.000000 1.658910 
# 
# From -- ./inp_files/77053.got.cif
#   From: 2010.05.17/outbox.cif.g08.bks.cpg/sg10_39_cif.got.tgz:77053.got - 2010.06.03 11:33:40.
