data_PCOD9147427
_publ_section_title
;
Structure prediction by ZEFSAII (Michael W. Deem and Ramdas Pophale) SiO2 
 PCOD9147427
Probable space group: P 2/M
;
_chemical_formula_sum "Si O2"
_cell_formula_units_Z 32
_cell_length_a 22.551564
_cell_length_b 13.744618
_cell_length_c 9.476835
_cell_angle_alpha 90.000000
_cell_angle_beta 38.194459
_cell_angle_gamma 90.000000
_cell_volume 1816.329593
_symmetry_space_group_name_H-M "P 2/M"
_symmetry_group_IT_number 10
_symmetry_cell_setting 'monoclinic'
loop_
_space_group_symop_operation_xyz
x,y,z
-x,y,-z
-x,-y,-z
x,-y,z
loop_
_atom_site_type_symbol
_atom_site_label
_atom_site_fract_x
_atom_site_fract_y
_atom_site_fract_z
Si Si1 0.105789 0.817651 0.235679
Si Si2 0.406100 0.887953 0.271357
Si Si3 0.927043 0.110810 0.018151
Si Si4 0.752980 0.112789 0.804462
Si Si5 0.901082 0.605660 0.775751
Si Si6 0.895316 0.610186 0.126934
Si Si7 0.465590 0.881853 0.714931
Si Si8 0.219588 0.793102 0.532408
O O1 0.181515 0.882618 0.178405
O O2 0.144910 0.707635 0.180936
O O3 0.000000 0.826675 0.500000
O O4 0.088143 0.840147 0.104270
O O5 0.449711 0.854854 0.337540
O O6 0.331315 0.811346 0.350122
O O7 0.369321 0.000000 0.348191
O O8 0.500000 0.892965 0.000000
O O9 0.828107 0.122145 0.284655
O O10 0.956770 0.000000 0.936264
O O11 0.000000 0.152976 0.000000
O O12 0.798167 0.181095 0.598243
O O13 0.750457 0.000000 0.759128
O O14 0.643335 0.144628 0.040285
O O15 0.854644 0.500000 0.835422
O O16 0.000000 0.604340 0.500000
O O17 0.910866 0.614619 0.927830
O O18 0.860358 0.500000 0.223682
O O19 0.826089 0.693441 0.321359
O O20 0.000000 0.620733 0.000000
O O21 0.500000 0.845990 0.500000
O O22 0.463557 0.000000 0.717744
#
# Coordination Sequence:
#
# PCOD9147427 Si02
#       8
#     4   4   4   4   4   4   4   4
#     4  11  23  36  53  77 110 151 189 230 283 336
#     4  10  19  35  56  81 111 147 191 233 279 339
#     4  11  23  36  51  76 112 152 190 225 271 344
#     4  11  23  37  53  80 118 155 191 232 277 336
#     4   9  19  36  57  79 105 141 185 235 288 334
#     4  10  22  39  60  87 115 144 187 245 298 343
#     4   9  19  34  53  77 108 144 185 235 282 326
#     4  12  22  35  58  83 109 149 195 234 285 337
#
# _framework density 17.617947000000001
#
# number of rings (size 3 to 8) (size 9 to 14) (size 15 to 20)
#    0.000    1.625    2.500    2.625    5.250    2.000 
#    0.000    0.000    0.000    0.375    0.000    0.000 
#    0.000    3.500    0.000    0.000    0.000    0.000 
#
# Total GULP energy -178178.254838 kJ/mol
# GULP energy per Si atom -5568.070464 kJ/mol
# Density = 1.757785 g / cm^3
# Si number density = 17.617947 Si / 1000 Ang^3
#
#
#
# Elastic Constant Matrix: (Units=GPa)
#
#
# Indices 1 2 3 4 5 6 
#
# 1 86.1874 28.2835 31.9884 0.0000 9.8928 0.0000
# 2 28.2835 93.9996 26.8200 0.0000 0.3567 0.0000
# 3 31.9884 26.8200 74.9959 0.0000 11.8061 0.0000
# 4 0.0000 0.0000 0.0000 12.3362 0.0000 2.3694
# 5 9.8928 0.3567 11.8061 0.0000 30.9835 0.0000
# 6 0.0000 0.0000 0.0000 2.3694 0.0000 18.4198
#
#
#
# Elastic Compliance Matrix: (Units=1/GPa)
#
#
# Indices 1 2 3 4 5 6 
#
# 1 0.014687 -0.003062 -0.004720 0.000000 -0.002856 0.000000
# 2 -0.003062 0.012558 -0.003528 0.000000 0.002177 0.000000
# 3 -0.004720 -0.003528 0.017410 0.000000 -0.005086 0.000000
# 4 0.000000 0.000000 0.000000 0.083116 0.000000 -0.010691
# 5 -0.002856 0.002177 -0.005086 0.000000 0.035100 0.000000
# 6 0.000000 0.000000 0.000000 -0.010691 0.000000 0.055665
#
#
# Mechanical properties :
#
#
# Convention : Reuss Voigt Hill
#
# Bulk Modulus (GPa) = 45.38133 47.70742 46.54437
# Shear Modulus (GPa) = 20.12083 23.55397 21.83740
#
# Velocity S-wave (km/s) = 3.38311 3.66037 3.52447
# Velocity P-wave (km/s) = 6.40898 6.70836 6.56038
#
# Compressibility (1/GPa) = 0.02203549
#
# Stress axis : x y z
#
# Youngs Moduli (GPa) = 68.08760 79.63160 57.43951
#
# Poissons Ratio (x) = 0.24380 0.27112
# Poissons Ratio (y) = 0.20846 0.20263
# Poissons Ratio (z) = 0.32138 0.28092
#
# Static dielectric constant tensor:
#      x y z
#    x 1.619850 0.000000 0.049010 
#    y 0.000000 1.629440 0.000000 
#    z 0.049010 0.000000 1.682620 
# 
# From -- ./inp_files/35135.got.cif
#   From: 2010.05.17/outbox.cif.g08.bks.cpg/sg10_18_cif.got.tgz:35135.got - 2010.06.03 11:33:40.
