data_PCOD9147313
_publ_section_title
;
Structure prediction by ZEFSAII (Michael W. Deem and Ramdas Pophale) SiO2 
 PCOD9147313
Probable space group: P 2/M
;
_chemical_formula_sum "Si O2"
_cell_formula_units_Z 28
_cell_length_a 9.977629
_cell_length_b 7.779836
_cell_length_c 31.730396
_cell_angle_alpha 90.000000
_cell_angle_beta 36.388774
_cell_angle_gamma 90.000000
_cell_volume 1461.232123
_symmetry_space_group_name_H-M "P 2/M"
_symmetry_group_IT_number 10
_symmetry_cell_setting 'monoclinic'
loop_
_space_group_symop_operation_xyz
x,y,z
-x,y,-z
-x,-y,-z
x,-y,z
loop_
_atom_site_type_symbol
_atom_site_label
_atom_site_fract_x
_atom_site_fract_y
_atom_site_fract_z
Si Si1 0.909940 0.206599 0.786063
Si Si2 0.148167 0.296406 0.501420
Si Si3 0.034836 0.293225 0.623837
Si Si4 0.666120 0.205890 0.371780
Si Si5 0.401098 0.199083 0.214872
Si Si6 0.742508 0.500000 0.122550
Si Si7 0.453903 0.199435 0.061024
Si Si8 0.758024 0.500000 0.017492
O O1 0.724465 0.249326 0.797146
O O2 0.796349 0.251945 0.859222
O O3 0.150054 0.273611 0.708849
O O4 0.933555 0.000000 0.779400
O O5 0.100550 0.500000 0.515258
O O6 0.415758 0.273727 0.427780
O O7 0.000000 0.225408 0.500000
O O8 0.088588 0.229057 0.563230
O O9 0.015110 0.500000 0.628620
O O10 0.799551 0.217720 0.700400
O O11 0.229273 0.249279 0.608763
O O12 0.655054 0.000000 0.371930
O O13 0.602295 0.331985 0.171646
O O14 0.472918 0.000000 0.194110
O O15 0.762255 0.500000 0.066858
O O16 0.005070 0.500000 0.067363
O O17 0.625609 0.329099 0.038630
O O18 0.487423 0.000000 0.065496
O O19 0.500000 0.209682 0.000000
#
# Coordination Sequence:
#
# PCOD9147313 Si02
#       8
#     4   4   4   4   4   2   4   2
#     4   8  16  32  54  81 110 141 185 238 286 330
#     4  10  22  39  55  78 117 157 190 230 285 347
#     4  10  19  34  60  85 112 148 193 243 290 335
#     4  10  20  34  56  85 113 143 190 245 288 338
#     4  10  19  35  58  85 116 150 191 239 285 335
#     4  11  22  36  56  86 117 155 184 234 290 345
#     4  10  20  37  60  82 113 153 193 242 291 337
#     4  11  23  36  56  84 118 149 195 231 285 354
#
# _framework density 19.161909999999999
#
# number of rings (size 3 to 8) (size 9 to 14) (size 15 to 20)
#    0.000    2.143    2.143    2.357    0.000    3.714 
#    1.286    2.857    0.000    1.714    0.000    0.000 
#    0.000    0.000    0.000    0.000    0.000    0.000 
#
# Total GULP energy -156122.800279 kJ/mol
# GULP energy per Si atom -5575.814296 kJ/mol
# Density = 1.911830 g / cm^3
# Si number density = 19.161910 Si / 1000 Ang^3
#
#
#
# Elastic Constant Matrix: (Units=GPa)
#
#
# Indices 1 2 3 4 5 6 
#
# 1 65.1387 4.6036 62.7001 0.0000 -3.8499 0.0000
# 2 4.6036 35.4815 4.9672 0.0000 -2.8721 0.0000
# 3 62.7001 4.9672 154.4614 0.0000 -2.1161 0.0000
# 4 0.0000 0.0000 0.0000 22.7976 0.0000 3.1773
# 5 -3.8499 -2.8721 -2.1161 0.0000 26.3999 0.0000
# 6 0.0000 0.0000 0.0000 3.1773 0.0000 -10.0213
#
#
#
# Elastic Compliance Matrix: (Units=1/GPa)
#
#
# Indices 1 2 3 4 5 6 
#
# 1 0.025510 -0.001653 -0.010265 0.000000 0.002718 0.000000
# 2 -0.001653 0.028659 -0.000212 0.000000 0.002860 0.000000
# 3 -0.010265 -0.000212 0.010638 0.000000 -0.000667 0.000000
# 4 0.000000 0.000000 0.000000 0.042008 0.000000 0.013319
# 5 0.002718 0.002860 -0.000667 0.000000 0.038533 0.000000
# 6 0.000000 0.000000 0.000000 0.013319 0.000000 -0.095565
#
#
# Mechanical properties :
#
#
# Convention : Reuss Voigt Hill
#
# Bulk Modulus (GPa) = 24.66128 44.40259 34.53194
# Shear Modulus (GPa) = 57.10496 20.02263 38.56379
#
# Velocity S-wave (km/s) = 5.46498 3.23603 4.49098
# Velocity P-wave (km/s) = 7.26080 6.09796 6.70464
#
# Compressibility (1/GPa) = 0.04054939
#
# Stress axis : x y z
#
# Youngs Moduli (GPa) = 39.20074 34.89272 93.99830
#
# Poissons Ratio (x) = 0.05767 0.96486
# Poissons Ratio (y) = 0.06479 0.01988
# Poissons Ratio (z) = 0.40238 0.00738
#
# Static dielectric constant tensor:
#      x y z
#    x 1.653260 0.000000 0.016970 
#    y 0.000000 1.678610 0.000000 
#    z 0.016970 0.000000 1.708920 
# 
# From -- ./inp_files/92026.got.cif
#   From: 2010.05.17/outbox.cif.g08.bks.cpg/sg10_47_cif.got.tgz:92026.got - 2010.06.03 11:33:40.
