data_PCOD9147574
_publ_section_title
;
Structure prediction by ZEFSAII (Michael W. Deem and Ramdas Pophale) SiO2 
 PCOD9147574
Probable space group: P 2/M
;
_chemical_formula_sum "Si O2"
_cell_formula_units_Z 16
_cell_length_a 9.024887
_cell_length_b 13.411302
_cell_length_c 6.673552
_cell_angle_alpha 90.000000
_cell_angle_beta 75.079990
_cell_angle_gamma 90.000000
_cell_volume 780.504749
_symmetry_space_group_name_H-M "P 2/M"
_symmetry_group_IT_number 10
_symmetry_cell_setting 'monoclinic'
loop_
_space_group_symop_operation_xyz
x,y,z
-x,y,-z
-x,-y,-z
x,-y,z
loop_
_atom_site_type_symbol
_atom_site_label
_atom_site_fract_x
_atom_site_fract_y
_atom_site_fract_z
Si Si1 0.847873 0.611403 0.417655
Si Si2 0.829952 0.785429 0.094079
Si Si3 0.524428 0.109193 0.230208
Si Si4 0.636367 0.700343 0.800404
O O1 0.850352 0.500000 0.328911
O O2 0.838548 0.695846 0.251662
O O3 0.707111 0.622946 0.621849
O O4 0.000000 0.624429 0.500000
O O5 0.702224 0.865596 0.205071
O O6 0.766393 0.740826 0.906613
O O7 0.000000 0.826361 0.000000
O O8 0.425844 0.207062 0.312575
O O9 0.475443 0.000000 0.315808
O O10 0.500000 0.106810 0.000000
O O11 0.500000 0.667586 0.000000
#
# Coordination Sequence:
#
# PCOD9147574 Si02
#       4
#     4   4   4   4
#     4  11  23  37  57  83 113 150 190 231 279 332
#     4  10  19  35  59  84 113 147 187 232 273 325
#     4   8  17  35  59  83 111 149 182 220 283 337
#     4   9  20  38  58  83 115 148 179 234 279 327
#
# _framework density 20.499554
#
# number of rings (size 3 to 8) (size 9 to 14) (size 15 to 20)
#    0.000    3.000    2.500    0.000    0.000    6.500 
#    0.000   11.250    0.000    2.250    0.000    0.000 
#    0.000    0.000    0.000    0.000    0.000    0.000 
#
# Total GULP energy -89149.779983 kJ/mol
# GULP energy per Si atom -5571.861249 kJ/mol
# Density = 2.045290 g / cm^3
# Si number density = 20.499554 Si / 1000 Ang^3
#
#
#
# Elastic Constant Matrix: (Units=GPa)
#
#
# Indices 1 2 3 4 5 6 
#
# 1 113.4313 21.5424 17.9389 0.0000 -7.2782 0.0000
# 2 21.5424 88.7494 12.5807 0.0000 -1.7671 0.0000
# 3 17.9389 12.5807 65.1249 0.0000 1.3271 0.0000
# 4 0.0000 0.0000 0.0000 34.4023 0.0000 1.9215
# 5 -7.2782 -1.7671 1.3271 0.0000 28.4116 0.0000
# 6 0.0000 0.0000 0.0000 1.9215 0.0000 15.4535
#
#
#
# Elastic Compliance Matrix: (Units=1/GPa)
#
#
# Indices 1 2 3 4 5 6 
#
# 1 0.009722 -0.001978 -0.002346 0.000000 0.002477 0.000000
# 2 -0.001978 0.012007 -0.001781 0.000000 0.000323 0.000000
# 3 -0.002346 -0.001781 0.016376 0.000000 -0.001477 0.000000
# 4 0.000000 0.000000 0.000000 0.029271 0.000000 -0.003640
# 5 0.002477 0.000323 -0.001477 0.000000 0.035921 0.000000
# 6 0.000000 0.000000 0.000000 -0.003640 0.000000 0.065163
#
#
# Mechanical properties :
#
#
# Convention : Reuss Voigt Hill
#
# Bulk Modulus (GPa) = 38.62013 41.26997 39.94505
# Shear Modulus (GPa) = 26.41310 30.00304 28.20807
#
# Velocity S-wave (km/s) = 3.59342 3.82985 3.71352
# Velocity P-wave (km/s) = 6.00810 6.30340 6.15752
#
# Compressibility (1/GPa) = 0.02589323
#
# Stress axis : x y z
#
# Youngs Moduli (GPa) = 102.86465 83.28682 61.06656
#
# Poissons Ratio (x) = 0.16473 0.14328
# Poissons Ratio (y) = 0.20345 0.10877
# Poissons Ratio (z) = 0.24134 0.14835
#
# Static dielectric constant tensor:
#      x y z
#    x 1.736410 0.000000 -0.011220 
#    y 0.000000 1.719240 0.000000 
#    z -0.011220 0.000000 1.752220 
# 
# From -- ./inp_files/18219.got.cif
#   From: 2010.05.17/outbox.cif.g08.bks.cpg/sg10_10_cif.got.tgz:18219.got - 2010.06.03 11:33:40.
