data_PCOD9147944
_publ_section_title
;
Structure prediction by ZEFSAII (Michael W. Deem and Ramdas Pophale) SiO2 
 PCOD9147944
Probable space group: P 2/M
;
_chemical_formula_sum "Si O2"
_cell_formula_units_Z 20
_cell_length_a 10.078722
_cell_length_b 7.884201
_cell_length_c 24.502042
_cell_angle_alpha 90.000000
_cell_angle_beta 147.720414
_cell_angle_gamma 90.000000
_cell_volume 1039.796361
_symmetry_space_group_name_H-M "P 2/M"
_symmetry_group_IT_number 10
_symmetry_cell_setting 'monoclinic'
loop_
_space_group_symop_operation_xyz
x,y,z
-x,y,-z
-x,-y,-z
x,-y,z
loop_
_atom_site_type_symbol
_atom_site_label
_atom_site_fract_x
_atom_site_fract_y
_atom_site_fract_z
Si Si1 0.879928 0.800329 0.582073
Si Si2 0.089767 0.685552 0.284389
Si Si3 0.393731 0.500000 0.902441
Si Si4 0.545720 0.201700 0.251941
Si Si5 0.492372 0.806772 0.637982
Si Si6 0.294537 0.500000 0.096609
O O1 0.858860 0.721668 0.634619
O O2 0.695044 0.729584 0.471796
O O3 0.162138 0.784693 0.660051
O O4 0.821603 0.000000 0.568934
O O5 0.194608 0.500000 0.306731
O O6 0.237351 0.806970 0.295744
O O7 0.795078 0.659345 0.172801
O O8 0.605471 0.500000 0.930615
O O9 0.500000 0.500000 0.000000
O O10 0.503426 0.261970 0.299527
O O11 0.402414 0.330862 0.162914
O O12 0.477390 0.000000 0.222490
O O13 0.401479 0.000000 0.614228
O O14 0.000000 0.500000 0.000000
#
# Coordination Sequence:
#
# PCOD9147944 Si02
#       6
#     4   4   2   4   4   2
#     4  10  19  37  60  84 125 166 195 239 296 357
#     4  10  21  36  57  85 121 152 202 248 295 356
#     4  10  24  44  61  85 114 156 201 255 319 360
#     4  10  22  42  63  92 127 158 202 251 299 363
#     4  10  21  35  58  91 124 164 198 232 294 362
#     4  12  26  44  71  89 114 158 205 259 321 354
#
# _framework density 19.234535999999999
#
# number of rings (size 3 to 8) (size 9 to 14) (size 15 to 20)
#    0.600    1.200    2.000    1.800    4.200    6.000 
#    0.000    1.000    0.000    3.000    0.000    0.000 
#    0.000    0.000    0.000    0.000    0.000    0.000 
#
# Total GULP energy -111477.791281 kJ/mol
# GULP energy per Si atom -5573.889564 kJ/mol
# Density = 1.919076 g / cm^3
# Si number density = 19.234536 Si / 1000 Ang^3
#
#
#
# Elastic Constant Matrix: (Units=GPa)
#
#
# Indices 1 2 3 4 5 6 
#
# 1 92.2953 13.5129 42.3154 0.0000 -19.9442 0.0000
# 2 13.5129 59.7121 31.0797 0.0000 -2.0202 0.0000
# 3 42.3154 31.0797 100.2524 0.0000 -10.8702 0.0000
# 4 0.0000 0.0000 0.0000 23.4123 0.0000 5.1909
# 5 -19.9442 -2.0202 -10.8702 0.0000 40.3357 0.0000
# 6 0.0000 0.0000 0.0000 5.1909 0.0000 29.1564
#
#
#
# Elastic Compliance Matrix: (Units=1/GPa)
#
#
# Indices 1 2 3 4 5 6 
#
# 1 0.014621 -0.000270 -0.005465 0.000000 0.005743 0.000000
# 2 -0.000270 0.019993 -0.006170 0.000000 -0.000795 0.000000
# 3 -0.005465 -0.006170 0.014285 0.000000 0.000839 0.000000
# 4 0.000000 0.000000 0.000000 0.044468 0.000000 -0.007917
# 5 0.005743 -0.000795 0.000839 0.000000 0.027818 0.000000
# 6 0.000000 0.000000 0.000000 -0.007917 0.000000 0.035707
#
#
# Mechanical properties :
#
#
# Convention : Reuss Voigt Hill
#
# Bulk Modulus (GPa) = 39.85867 47.34176 43.60021
# Shear Modulus (GPa) = 26.44591 29.60434 28.02512
#
# Velocity S-wave (km/s) = 3.71201 3.92742 3.82124
# Velocity P-wave (km/s) = 6.25615 6.72551 6.49508
#
# Compressibility (1/GPa) = 0.02508865
#
# Stress axis : x y z
#
# Youngs Moduli (GPa) = 68.39528 50.01794 70.00204
#
# Poissons Ratio (x) = 0.01350 0.38255
# Poissons Ratio (y) = 0.01847 0.43193
# Poissons Ratio (z) = 0.37377 0.30863
#
# Static dielectric constant tensor:
#      x y z
#    x 1.653250 0.000000 0.002350 
#    y 0.000000 1.704820 0.000000 
#    z 0.002350 0.000000 1.658840 
# 
# From -- ./inp_files/71234.got.cif
#   From: 2010.05.17/outbox.cif.g08.bks.cpg/sg10_36_cif.got.tgz:71234.got - 2010.06.03 11:33:40.
