data_PCOD9147660
_publ_section_title
;
Structure prediction by ZEFSAII (Michael W. Deem and Ramdas Pophale) SiO2 
 PCOD9147660
Probable space group: P 2/M
;
_chemical_formula_sum "Si O2"
_cell_formula_units_Z 20
_cell_length_a 19.089285
_cell_length_b 8.754281
_cell_length_c 8.052007
_cell_angle_alpha 90.000000
_cell_angle_beta 50.076370
_cell_angle_gamma 90.000000
_cell_volume 1031.937350
_symmetry_space_group_name_H-M "P 2/M"
_symmetry_group_IT_number 10
_symmetry_cell_setting 'monoclinic'
loop_
_space_group_symop_operation_xyz
x,y,z
-x,y,-z
-x,-y,-z
x,-y,z
loop_
_atom_site_type_symbol
_atom_site_label
_atom_site_fract_x
_atom_site_fract_y
_atom_site_fract_z
Si Si1 0.901200 0.685559 0.090100
Si Si2 0.102597 0.316215 0.290067
Si Si3 0.393092 0.683838 0.658168
Si Si4 0.290606 0.684537 0.475704
Si Si5 0.286494 0.819012 0.134635
O O1 0.903498 0.500000 0.095701
O O2 0.814013 0.734387 0.329141
O O3 0.885806 0.723666 0.921139
O O4 0.000000 0.741342 0.000000
O O5 0.112157 0.500000 0.293861
O O6 0.182197 0.237723 0.272007
O O7 0.000000 0.276088 0.500000
O O8 0.500000 0.721622 0.500000
O O9 0.383062 0.500000 0.686648
O O10 0.348834 0.728926 0.549177
O O11 0.341020 0.755993 0.892909
O O12 0.292218 0.500000 0.461440
O O13 0.322954 0.752838 0.252938
O O14 0.290218 0.000000 0.130990
#
# Coordination Sequence:
#
# PCOD9147660 Si02
#       5
#     4   4   4   4   4
#     4   9  16  29  54  88 117 148 195 250 303 349
#     4  10  19  35  61  89 120 160 210 260 301 353
#     4  10  22  43  70  94 116 152 208 267 313 356
#     4  10  20  38  63  88 120 157 204 259 302 358
#     4  12  25  39  59  89 131 169 199 244 307 379
#
# _framework density 19.381024
#
# number of rings (size 3 to 8) (size 9 to 14) (size 15 to 20)
#    0.000    1.800    2.000    3.000    0.000    5.600 
#    0.000    4.000    0.000    2.400    0.000    0.000 
#    0.000    0.000    0.000    0.000    0.000    0.000 
#
# Total GULP energy -111739.443370 kJ/mol
# GULP energy per Si atom -5586.972168 kJ/mol
# Density = 1.933691 g / cm^3
# Si number density = 19.381024 Si / 1000 Ang^3
#
#
#
# Elastic Constant Matrix: (Units=GPa)
#
#
# Indices 1 2 3 4 5 6 
#
# 1 152.8591 46.6067 85.0374 0.0000 13.4918 0.0000
# 2 46.6067 28.6391 46.9735 0.0000 1.5895 0.0000
# 3 85.0374 46.9735 119.9442 0.0000 17.2682 0.0000
# 4 0.0000 0.0000 0.0000 3.4776 0.0000 0.7778
# 5 13.4918 1.5895 17.2682 0.0000 34.9169 0.0000
# 6 0.0000 0.0000 0.0000 0.7778 0.0000 -11.3674
#
#
#
# Elastic Compliance Matrix: (Units=1/GPa)
#
#
# Indices 1 2 3 4 5 6 
#
# 1 0.013668 -0.019597 -0.001490 0.000000 -0.003653 0.000000
# 2 -0.019597 0.134281 -0.041887 0.000000 0.022175 0.000000
# 3 -0.001490 -0.041887 0.027390 0.000000 -0.011063 0.000000
# 4 0.000000 0.000000 0.000000 0.283221 0.000000 0.019378
# 5 -0.003653 0.022175 -0.011063 0.000000 0.034513 0.000000
# 6 0.000000 0.000000 0.000000 0.019378 0.000000 -0.086645
#
#
# Mechanical properties :
#
#
# Convention : Reuss Voigt Hill
#
# Bulk Modulus (GPa) = 20.24624 73.18642 46.71633
# Shear Modulus (GPa) = 9.11012 13.59374 11.35193
#
# Velocity S-wave (km/s) = 2.17042 2.65126 2.42280
# Velocity P-wave (km/s) = 4.09269 6.87140 5.65536
#
# Compressibility (1/GPa) = 0.04939190
#
# Stress axis : x y z
#
# Youngs Moduli (GPa) = 73.16147 7.44707 36.50940
#
# Poissons Ratio (x) = 0.14594 0.05439
# Poissons Ratio (y) = 1.43378 1.52926
# Poissons Ratio (z) = 0.10899 0.31193
#
# Static dielectric constant tensor:
#      x y z
#    x 1.679850 0.000000 -0.002430 
#    y 0.000000 1.648040 0.000000 
#    z -0.002430 0.000000 1.668870 
# 
# From -- ./inp_files/31426.got.cif
#   From: 2010.05.17/outbox.cif.g08.bks.cpg/sg10_16_cif.got.tgz:31426.got - 2010.06.03 11:33:40.
