data_PCOD9147166
_publ_section_title
;
Structure prediction by ZEFSAII (Michael W. Deem and Ramdas Pophale) SiO2 
 PCOD9147166
Probable space group: P 2/M
;
_chemical_formula_sum "Si O2"
_cell_formula_units_Z 24
_cell_length_a 12.250022
_cell_length_b 9.918292
_cell_length_c 10.632768
_cell_angle_alpha 90.000000
_cell_angle_beta 99.845589
_cell_angle_gamma 90.000000
_cell_volume 1272.847300
_symmetry_space_group_name_H-M "P 2/M"
_symmetry_group_IT_number 10
_symmetry_cell_setting 'monoclinic'
loop_
_space_group_symop_operation_xyz
x,y,z
-x,y,-z
-x,-y,-z
x,-y,z
loop_
_atom_site_type_symbol
_atom_site_label
_atom_site_fract_x
_atom_site_fract_y
_atom_site_fract_z
Si Si1 0.778580 0.150358 0.733579
Si Si2 0.572707 0.338653 0.137376
Si Si3 0.815644 0.660535 0.241871
Si Si4 0.869154 0.152879 0.468643
Si Si5 0.960941 0.651704 0.849911
Si Si6 0.517244 0.840611 0.651733
O O1 0.819409 0.155364 0.597516
O O2 0.852598 0.258857 0.818003
O O3 0.647765 0.171717 0.707235
O O4 0.801748 0.000000 0.787314
O O5 0.556678 0.500000 0.157025
O O6 0.704133 0.316410 0.140343
O O7 0.541384 0.252914 0.255491
O O8 0.500000 0.302315 0.000000
O O9 0.823099 0.500000 0.263769
O O10 0.807631 0.741252 0.369380
O O11 0.931770 0.705379 0.203613
O O12 0.000000 0.184361 0.500000
O O13 0.857844 0.000000 0.416410
O O14 0.936873 0.500000 0.798947
O O15 0.000000 0.643951 0.000000
O O16 0.500000 0.805344 0.500000
O O17 0.485257 0.000000 0.658217
#
# Coordination Sequence:
#
# PCOD9147166 Si02
#       6
#     4   4   4   4   4   4
#     4  10  21  37  58  86 116 146 186 234 283 339
#     4  10  23  41  62  87 118 156 199 247 294 346
#     4  10  21  37  57  84 115 147 188 235 283 338
#     4  10  19  34  57  84 113 147 184 224 281 343
#     4  10  22  37  56  82 113 151 189 228 282 342
#     4  10  22  41  63  87 119 157 198 245 294 347
#
# _framework density 18.855364999999999
#
# number of rings (size 3 to 8) (size 9 to 14) (size 15 to 20)
#    0.000    2.000    1.667    1.000    2.333    4.667 
#    0.000    0.000    0.000    0.000    0.000    0.000 
#    0.000    0.000    0.000    0.000    0.000    0.000 
#
# Total GULP energy -133866.105124 kJ/mol
# GULP energy per Si atom -5577.754380 kJ/mol
# Density = 1.881245 g / cm^3
# Si number density = 18.855365 Si / 1000 Ang^3
#
#
#
# Elastic Constant Matrix: (Units=GPa)
#
#
# Indices 1 2 3 4 5 6 
#
# 1 57.4312 30.8199 4.9605 0.0000 10.0603 0.0000
# 2 30.8199 45.0103 34.2814 0.0000 15.2806 0.0000
# 3 4.9605 34.2814 64.2566 0.0000 10.6697 0.0000
# 4 0.0000 0.0000 0.0000 40.7387 0.0000 3.1174
# 5 10.0603 15.2806 10.6697 0.0000 30.1789 0.0000
# 6 0.0000 0.0000 0.0000 3.1174 0.0000 24.4798
#
#
#
# Elastic Compliance Matrix: (Units=1/GPa)
#
#
# Indices 1 2 3 4 5 6 
#
# 1 0.036613 -0.039062 0.017801 0.000000 0.001280 0.000000
# 2 -0.039062 0.084257 -0.039323 0.000000 -0.015738 0.000000
# 3 0.017801 -0.039323 0.034895 0.000000 0.001639 0.000000
# 4 0.000000 0.000000 0.000000 0.024788 0.000000 -0.003157
# 5 0.001280 -0.015738 0.001639 0.000000 0.040098 0.000000
# 6 0.000000 0.000000 0.000000 -0.003157 0.000000 0.041252
#
#
# Mechanical properties :
#
#
# Convention : Reuss Voigt Hill
#
# Bulk Modulus (GPa) = 28.90456 34.09130 31.49793
# Shear Modulus (GPa) = 12.67096 25.52190 19.09643
#
# Velocity S-wave (km/s) = 2.59512 3.68307 3.18588
# Velocity P-wave (km/s) = 4.93381 6.01717 5.50222
#
# Compressibility (1/GPa) = 0.03459662
#
# Stress axis : x y z
#
# Youngs Moduli (GPa) = 27.31289 11.86851 28.65722
#
# Poissons Ratio (x) = 0.46361 -0.51013
# Poissons Ratio (y) = 1.06690 1.12688
# Poissons Ratio (z) = -0.48620 0.46670
#
# Static dielectric constant tensor:
#      x y z
#    x 1.682780 0.000000 -0.006520 
#    y 0.000000 1.664440 0.000000 
#    z -0.006520 0.000000 1.641980 
# 
# From -- ./inp_files/45295.got.cif
#   From: 2010.05.17/outbox.cif.g08.bks.cpg/sg10_23_cif.got.tgz:45295.got - 2010.06.03 11:33:40.
