data_PCOD9147778
_publ_section_title
;
Structure prediction by ZEFSAII (Michael W. Deem and Ramdas Pophale) SiO2 
 PCOD9147778
Probable space group: P 2/M
;
_chemical_formula_sum "Si O2"
_cell_formula_units_Z 24
_cell_length_a 18.327800
_cell_length_b 11.280923
_cell_length_c 12.074075
_cell_angle_alpha 90.000000
_cell_angle_beta 150.844632
_cell_angle_gamma 90.000000
_cell_volume 1216.180036
_symmetry_space_group_name_H-M "P 2/M"
_symmetry_group_IT_number 10
_symmetry_cell_setting 'monoclinic'
loop_
_space_group_symop_operation_xyz
x,y,z
-x,y,-z
-x,-y,-z
x,-y,z
loop_
_atom_site_type_symbol
_atom_site_label
_atom_site_fract_x
_atom_site_fract_y
_atom_site_fract_z
Si Si1 0.934483 0.000000 0.285388
Si Si2 0.670953 0.642562 0.991123
Si Si3 0.338347 0.641953 0.533772
Si Si4 0.728821 0.361867 0.308878
Si Si5 0.680085 0.000000 0.767867
Si Si6 0.134300 0.794426 0.105351
Si Si7 0.958997 0.262516 0.249228
O O1 0.995250 0.875927 0.318120
O O2 0.000000 0.000000 0.500000
O O3 0.759680 0.000000 0.999383
O O4 0.697013 0.500000 0.026127
O O5 0.660414 0.685324 0.104593
O O6 0.807033 0.705363 0.110838
O O7 0.509368 0.664062 0.724281
O O8 0.313424 0.500000 0.499381
O O9 0.316067 0.686016 0.630743
O O10 0.226938 0.708935 0.306727
O O11 0.688364 0.500000 0.258762
O O12 0.905780 0.342754 0.530211
O O13 0.500000 0.000000 0.500000
O O14 0.755522 0.887635 0.806937
O O15 0.062560 0.720845 0.909602
O O16 0.000000 0.849468 0.000000
#
# Coordination Sequence:
#
# PCOD9147778 Si02
#       7
#     2   4   4   4   2   4   4
#     4  10  22  39  60  89 124 155 191 248 310 360
#     4  10  21  36  57  86 120 157 200 253 304 355
#     4  10  22  37  58  87 122 159 197 247 305 362
#     4  10  19  36  59  85 118 158 201 245 300 366
#     4  10  25  43  70  95 120 160 207 256 303 357
#     4  11  23  42  62  86 121 162 200 244 298 366
#     4  11  22  37  60  88 116 154 204 249 303 359
#
# _framework density 19.733919
#
# number of rings (size 3 to 8) (size 9 to 14) (size 15 to 20)
#    0.000    1.667    1.667    2.750    4.667    5.000 
#    0.000    1.667    0.000    0.000    0.000    7.000 
#    0.000    0.000    0.000    0.000    0.000    0.000 
#
# Total GULP energy -133752.973050 kJ/mol
# GULP energy per Si atom -5573.040544 kJ/mol
# Density = 1.968900 g / cm^3
# Si number density = 19.733919 Si / 1000 Ang^3
#
#
#
# Elastic Constant Matrix: (Units=GPa)
#
#
# Indices 1 2 3 4 5 6 
#
# 1 72.5479 18.1627 51.9741 0.0000 -12.2334 0.0000
# 2 18.1627 30.8943 23.8792 0.0000 1.7226 0.0000
# 3 51.9741 23.8792 129.5240 0.0000 -6.9828 0.0000
# 4 0.0000 0.0000 0.0000 23.6388 0.0000 -1.7540
# 5 -12.2334 1.7226 -6.9828 0.0000 33.9040 0.0000
# 6 0.0000 0.0000 0.0000 -1.7540 0.0000 21.7515
#
#
#
# Elastic Compliance Matrix: (Units=1/GPa)
#
#
# Indices 1 2 3 4 5 6 
#
# 1 0.021906 -0.007876 -0.006968 0.000000 0.006869 0.000000
# 2 -0.007876 0.040968 -0.004710 0.000000 -0.005893 0.000000
# 3 -0.006968 -0.004710 0.011389 0.000000 0.000071 0.000000
# 4 0.000000 0.000000 0.000000 0.042558 0.000000 0.003432
# 5 0.006869 -0.005893 0.000071 0.000000 0.032288 0.000000
# 6 0.000000 0.000000 0.000000 0.003432 0.000000 0.046251
#
#
# Mechanical properties :
#
#
# Convention : Reuss Voigt Hill
#
# Bulk Modulus (GPa) = 28.44566 46.77759 37.61162
# Shear Modulus (GPa) = 20.30992 25.12220 22.71606
#
# Velocity S-wave (km/s) = 3.21158 3.57185 3.39649
# Velocity P-wave (km/s) = 5.31020 6.38486 5.87216
#
# Compressibility (1/GPa) = 0.03515475
#
# Stress axis : x y z
#
# Youngs Moduli (GPa) = 45.64976 24.40931 87.80563
#
# Poissons Ratio (x) = 0.19224 0.61182
# Poissons Ratio (y) = 0.35953 0.41359
# Poissons Ratio (z) = 0.31808 0.11498
#
# Static dielectric constant tensor:
#      x y z
#    x 1.718430 0.000000 -0.005220 
#    y 0.000000 1.677260 0.000000 
#    z -0.005220 0.000000 1.733970 
# 
# From -- ./inp_files/46526.got.cif
#   From: 2010.05.17/outbox.cif.g08.bks.cpg/sg10_24_cif.got.tgz:46526.got - 2010.06.03 11:33:40.
