data_PCOD9147718
_publ_section_title
;
Structure prediction by ZEFSAII (Michael W. Deem and Ramdas Pophale) SiO2 
 PCOD9147718
Probable space group: P 2/M
;
_chemical_formula_sum "Si O2"
_cell_formula_units_Z 28
_cell_length_a 9.912086
_cell_length_b 7.678036
_cell_length_c 27.017511
_cell_angle_alpha 90.000000
_cell_angle_beta 141.806211
_cell_angle_gamma 90.000000
_cell_volume 1271.382082
_symmetry_space_group_name_H-M "P 2/M"
_symmetry_group_IT_number 10
_symmetry_cell_setting 'monoclinic'
loop_
_space_group_symop_operation_xyz
x,y,z
-x,y,-z
-x,-y,-z
x,-y,z
loop_
_atom_site_type_symbol
_atom_site_label
_atom_site_fract_x
_atom_site_fract_y
_atom_site_fract_z
Si Si1 0.523924 0.202256 0.253914
Si Si2 0.331913 0.287601 0.493644
Si Si3 0.938684 0.699853 0.316784
Si Si4 0.411439 0.199584 0.031250
Si Si5 0.042604 0.214517 0.135375
Si Si6 0.135798 0.795534 0.811773
Si Si7 0.256248 0.288913 0.579378
O O1 0.692960 0.287467 0.265081
O O2 0.627205 0.217535 0.338514
O O3 0.278163 0.272874 0.184826
O O4 0.513851 0.000000 0.236938
O O5 0.500000 0.232147 0.500000
O O6 0.336785 0.500000 0.497432
O O7 0.368086 0.230802 0.560285
O O8 0.095877 0.230564 0.405178
O O9 0.000310 0.500000 0.328033
O O10 0.970186 0.780563 0.272174
O O11 0.168113 0.273778 0.956905
O O12 0.383333 0.000000 0.040873
O O13 0.500000 0.194768 0.000000
O O14 0.617710 0.281388 0.118820
O O15 0.998064 0.270910 0.179505
O O16 0.044536 0.000000 0.135254
O O17 0.167010 0.000000 0.831118
O O18 0.264306 0.500000 0.585860
O O19 0.000000 0.243176 0.500000
#
# Coordination Sequence:
#
# PCOD9147718 Si02
#       7
#     4   4   4   4   4   4   4
#     4  11  22  35  53  78 108 138 172 214 258 303
#     4   9  19  35  54  74  97 131 174 213 248 301
#     4  11  22  37  53  74 106 141 174 209 258 312
#     4   7  11  25  51  78 102 132 168 207 253 305
#     4   8  16  31  53  81 108 133 169 214 257 307
#     4   9  17  32  56  82 105 131 169 217 263 303
#     4  10  19  36  57  74  98 135 176 211 250 303
#
# _framework density 22.023275999999999
#
# number of rings (size 3 to 8) (size 9 to 14) (size 15 to 20)
#    0.000    2.714    1.429    2.571    2.000    0.286 
#    0.000    1.429    0.000   12.000    0.000    0.000 
#    0.000    0.000    0.000    0.000    0.000    0.000 
#
# Total GULP energy -156153.066383 kJ/mol
# GULP energy per Si atom -5576.895228 kJ/mol
# Density = 2.197315 g / cm^3
# Si number density = 22.023276 Si / 1000 Ang^3
#
#
#
# Elastic Constant Matrix: (Units=GPa)
#
#
# Indices 1 2 3 4 5 6 
#
# 1 59.5998 -2.6698 -10.4267 0.0000 10.7880 0.0000
# 2 -2.6698 31.4650 -0.4317 0.0000 0.4946 0.0000
# 3 -10.4267 -0.4317 20.6886 0.0000 15.7761 0.0000
# 4 0.0000 0.0000 0.0000 810.8702 0.0000 157.0242
# 5 10.7880 0.4946 15.7761 0.0000 39.9663 0.0000
# 6 0.0000 0.0000 0.0000 157.0242 0.0000 56.1356
#
#
#
# Elastic Compliance Matrix: (Units=1/GPa)
#
#
# Indices 1 2 3 4 5 6 
#
# 1 0.024155 0.002644 0.024644 0.000000 -0.016281 0.000000
# 2 0.002644 0.032104 0.004076 0.000000 -0.002720 0.000000
# 3 0.024644 0.004076 0.094353 0.000000 -0.043947 0.000000
# 4 0.000000 0.000000 0.000000 0.002691 0.000000 -0.007527
# 5 -0.016281 -0.002720 -0.043947 0.000000 0.046797 0.000000
# 6 0.000000 0.000000 0.000000 -0.007527 0.000000 0.038868
#
#
# Mechanical properties :
#
#
# Convention : Reuss Voigt Hill
#
# Bulk Modulus (GPa) = 4.68735 9.41077 7.04906
# Shear Modulus (GPa) = 20.21396 189.74653 104.98024
#
# Velocity S-wave (km/s) = 3.03288 9.29216 6.91168
# Velocity P-wave (km/s) = 3.79440 10.92740 8.17941
#
# Compressibility (1/GPa) = 0.21334031
#
# Stress axis : x y z
#
# Youngs Moduli (GPa) = 41.39882 31.14839 10.59852
#
# Poissons Ratio (x) = -0.08234 -0.26119
# Poissons Ratio (y) = -0.10944 -0.04320
# Poissons Ratio (z) = -1.02023 -0.12697
#
# Static dielectric constant tensor:
#      x y z
#    x 1.781510 0.000000 0.034980 
#    y 0.000000 1.831560 0.000000 
#    z 0.034980 0.000000 1.844250 
# 
# From -- ./inp_files/37312.got.cif
#   From: 2010.05.17/outbox.cif.g08.bks.cpg/sg10_19_cif.got.tgz:37312.got - 2010.06.03 11:33:40.
