data_PCOD9147300
_publ_section_title
;
Structure prediction by ZEFSAII (Michael W. Deem and Ramdas Pophale) SiO2 
 PCOD9147300
Probable space group: P 2/M
;
_chemical_formula_sum "Si O2"
_cell_formula_units_Z 32
_cell_length_a 18.024746
_cell_length_b 13.788689
_cell_length_c 11.975813
_cell_angle_alpha 90.000000
_cell_angle_beta 30.846491
_cell_angle_gamma 90.000000
_cell_volume 1526.138888
_symmetry_space_group_name_H-M "P 2/M"
_symmetry_group_IT_number 10
_symmetry_cell_setting 'monoclinic'
loop_
_space_group_symop_operation_xyz
x,y,z
-x,y,-z
-x,-y,-z
x,-y,z
loop_
_atom_site_type_symbol
_atom_site_label
_atom_site_fract_x
_atom_site_fract_y
_atom_site_fract_z
Si Si1 0.637058 0.807789 0.012541
Si Si2 0.075477 0.807897 0.233512
Si Si3 0.941262 0.393905 0.407489
Si Si4 0.373342 0.391149 0.072799
Si Si5 0.143686 0.611519 0.742227
Si Si6 0.677275 0.195694 0.501038
Si Si7 0.124582 0.888185 0.931416
Si Si8 0.234795 0.113472 0.374357
O O1 0.779842 0.840485 0.892291
O O2 0.625958 0.691535 0.019227
O O3 0.658387 0.844971 0.858168
O O4 0.488552 0.832628 0.264136
O O5 0.040391 0.696582 0.309589
O O6 0.929933 0.866123 0.450642
O O7 0.101093 0.821163 0.068406
O O8 0.003227 0.500000 0.355651
O O9 0.783584 0.385558 0.666938
O O10 0.908900 0.389366 0.317758
O O11 0.396619 0.500000 0.000595
O O12 0.500000 0.372374 0.000000
O O13 0.188909 0.500000 0.711397
O O14 0.268470 0.693273 0.590485
O O15 0.000000 0.635210 0.000000
O O16 0.734200 0.136315 0.321745
O O17 0.748704 0.165737 0.527579
O O18 0.119717 0.000000 0.975486
O O19 0.000000 0.874563 0.000000
O O20 0.259755 0.000000 0.356944
#
# Coordination Sequence:
#
# PCOD9147300 Si02
#       8
#     4   4   4   4   4   4   4   4
#     4  12  27  40  61  97 140 172 202 261 339 391
#     4  12  24  43  64  94 132 168 214 267 324 389
#     4  10  19  34  59  88 122 164 208 253 304 368
#     4  10  20  37  63  94 130 174 219 260 309 379
#     4  10  19  34  62  97 126 160 210 265 314 370
#     4  12  23  42  68  97 128 166 216 272 320 384
#     4  11  23  43  71  94 116 162 225 277 318 377
#     4  12  25  44  68  91 123 171 223 269 322 390
#
# _framework density 20.967949000000001
#
# number of rings (size 3 to 8) (size 9 to 14) (size 15 to 20)
#    0.000    0.875    3.750    4.125    0.000    5.500 
#    0.000    1.875    0.000    0.000    0.000    5.250 
#    0.000    0.000    0.000    0.000    0.000    0.000 
#
# Total GULP energy -178923.391591 kJ/mol
# GULP energy per Si atom -5591.355987 kJ/mol
# Density = 2.092022 g / cm^3
# Si number density = 20.967949 Si / 1000 Ang^3
#
#
#
# Elastic Constant Matrix: (Units=GPa)
#
#
# Indices 1 2 3 4 5 6 
#
# 1 44.0112 10.9434 25.1755 0.0000 -6.2005 0.0000
# 2 10.9434 99.0712 22.2013 0.0000 0.0157 0.0000
# 3 25.1755 22.2013 132.5126 0.0000 0.5519 0.0000
# 4 0.0000 0.0000 0.0000 -341.2084 0.0000 -194.3738
# 5 -6.2005 0.0157 0.5519 0.0000 32.1431 0.0000
# 6 0.0000 0.0000 0.0000 -194.3738 0.0000 -110.7837
#
#
#
# Elastic Compliance Matrix: (Units=1/GPa)
#
#
# Indices 1 2 3 4 5 6 
#
# 1 0.026653 -0.001876 -0.004771 0.000000 0.005224 0.000000
# 2 -0.001876 0.010620 -0.001421 0.000000 -0.000343 0.000000
# 3 -0.004771 -0.001421 0.008696 0.000000 -0.001069 0.000000
# 4 0.000000 0.000000 0.000000 -5.776757 0.000000 10.135515
# 5 0.005224 -0.000343 -0.001069 0.000000 0.032137 0.000000
# 6 0.000000 0.000000 0.000000 10.135515 0.000000-17.792131
#
#
# Mechanical properties :
#
#
# Convention : Reuss Voigt Hill
#
# Bulk Modulus (GPa) = 33.52165 43.58171 38.55168
# Shear Modulus (GPa) = -0.21309 -69.48482 -34.84895
#
# Velocity S-wave (km/s) = -0.31913 -5.76286 -4.08120
# Velocity P-wave (km/s) = 3.98572 4.84259 1.94482
#
# Compressibility (1/GPa) = 0.02983147
#
# Stress axis : x y z
#
# Youngs Moduli (GPa) = 37.51898 94.16609 115.00185
#
# Poissons Ratio (x) = 0.17663 0.54870
# Poissons Ratio (y) = 0.07038 0.16347
# Poissons Ratio (z) = 0.17901 0.13385
#
# Static dielectric constant tensor:
#      x y z
#    x 1.754040 0.000000 -0.030470 
#    y 0.000000 1.792390 0.000000 
#    z -0.030470 0.000000 1.769830 
# 
# From -- ./inp_files/53992.got.cif
#   From: 2010.05.17/outbox.cif.g08.bks.cpg/sg10_27_cif.got.tgz:53992.got - 2010.06.03 11:33:40.
