data_PCOD9147147
_publ_section_title
;
Structure prediction by ZEFSAII (Michael W. Deem and Ramdas Pophale) SiO2 
 PCOD9147147
Probable space group: P 2/M
;
_chemical_formula_sum "Si O2"
_cell_formula_units_Z 28
_cell_length_a 9.910388
_cell_length_b 9.089353
_cell_length_c 28.264630
_cell_angle_alpha 90.000000
_cell_angle_beta 37.828613
_cell_angle_gamma 90.000000
_cell_volume 1561.496488
_symmetry_space_group_name_H-M "P 2/M"
_symmetry_group_IT_number 10
_symmetry_cell_setting 'monoclinic'
loop_
_space_group_symop_operation_xyz
x,y,z
-x,y,-z
-x,-y,-z
x,-y,z
loop_
_atom_site_type_symbol
_atom_site_label
_atom_site_fract_x
_atom_site_fract_y
_atom_site_fract_z
Si Si1 0.436823 0.174588 0.311180
Si Si2 0.423259 0.324398 0.872879
Si Si3 0.748896 0.829325 0.448733
Si Si4 0.752457 0.329025 0.548302
Si Si5 0.840603 0.324593 0.694570
Si Si6 0.324921 0.322682 0.008281
Si Si7 0.142008 0.174188 0.869670
O O1 0.403434 0.244882 0.371629
O O2 0.268485 0.254963 0.322168
O O3 0.676260 0.197598 0.221683
O O4 0.392761 0.000000 0.324558
O O5 0.384985 0.500000 0.878806
O O6 0.665530 0.293818 0.784604
O O7 0.404296 0.285146 0.933107
O O8 0.247123 0.242946 0.888294
O O9 0.500000 0.821968 0.500000
O O10 0.755743 0.748103 0.496924
O O11 0.922290 0.749375 0.366362
O O12 0.812625 0.000000 0.436189
O O13 0.689872 0.500000 0.561677
O O14 0.000000 0.322020 0.500000
O O15 0.861025 0.500000 0.683347
O O16 0.302516 0.500000 0.016951
O O17 0.500000 0.278105 0.000000
O O18 0.087059 0.249614 0.079803
O O19 0.113088 0.000000 0.884208
#
# Coordination Sequence:
#
# PCOD9147147 Si02
#       7
#     4   4   4   4   4   4   4
#     4  10  20  35  57  84 115 147 184 231 283 334
#     4   9  19  36  59  84 110 144 186 232 278 328
#     4  11  24  40  57  80 114 154 191 228 280 339
#     4  11  22  36  59  88 113 144 190 236 279 327
#     4  10  19  34  57  83 112 143 188 239 281 327
#     4  10  21  38  58  81 114 151 187 225 276 335
#     4  10  21  36  57  86 115 144 185 231 276 330
#
# _framework density 17.931515000000001
#
# number of rings (size 3 to 8) (size 9 to 14) (size 15 to 20)
#    0.000    1.857    1.429    2.571    0.000    6.571 
#    2.571    0.000    0.000    0.000    0.000    0.000 
#    0.000    0.000    0.000    0.000    0.000    0.000 
#
# Total GULP energy -156362.171137 kJ/mol
# GULP energy per Si atom -5584.363255 kJ/mol
# Density = 1.789070 g / cm^3
# Si number density = 17.931515 Si / 1000 Ang^3
#
#
#
# Elastic Constant Matrix: (Units=GPa)
#
#
# Indices 1 2 3 4 5 6 
#
# 1 84.3592 50.3022 59.5362 0.0000 -7.5269 0.0000
# 2 50.3022 90.1607 64.1286 0.0000 -4.5826 0.0000
# 3 59.5362 64.1286 111.1899 0.0000 -8.3103 0.0000
# 4 0.0000 0.0000 0.0000 30.4872 0.0000 -6.2058
# 5 -7.5269 -4.5826 -8.3103 0.0000 24.1981 0.0000
# 6 0.0000 0.0000 0.0000 -6.2058 0.0000 17.1500
#
#
#
# Elastic Compliance Matrix: (Units=1/GPa)
#
#
# Indices 1 2 3 4 5 6 
#
# 1 0.021155 -0.006363 -0.007447 0.000000 0.002818 0.000000
# 2 -0.006363 0.020720 -0.008619 0.000000 -0.001015 0.000000
# 3 -0.007447 -0.008619 0.018123 0.000000 0.002275 0.000000
# 4 0.000000 0.000000 0.000000 0.035409 0.000000 0.012813
# 5 0.002818 -0.001015 0.002275 0.000000 0.042791 0.000000
# 6 0.000000 0.000000 0.000000 0.012813 0.000000 0.062945
#
#
# Mechanical properties :
#
#
# Convention : Reuss Voigt Hill
#
# Bulk Modulus (GPa) = 66.05281 70.40487 68.22884
# Shear Modulus (GPa) = 19.91646 21.81657 20.86652
#
# Velocity S-wave (km/s) = 3.33633 3.49185 3.41497
# Velocity P-wave (km/s) = 7.19427 7.45693 7.32678
#
# Compressibility (1/GPa) = 0.01513940
#
# Stress axis : x y z
#
# Youngs Moduli (GPa) = 47.26937 48.26179 55.18002
#
# Poissons Ratio (x) = 0.30708 0.41094
# Poissons Ratio (y) = 0.30076 0.47562
# Poissons Ratio (z) = 0.35203 0.41599
#
# Static dielectric constant tensor:
#      x y z
#    x 1.580650 0.000000 -0.003210 
#    y 0.000000 1.599920 0.000000 
#    z -0.003210 0.000000 1.626620 
# 
# From -- ./inp_files/91992.got.cif
#   From: 2010.05.17/outbox.cif.g08.bks.cpg/sg10_46_cif.got.tgz:91992.got - 2010.06.03 11:33:40.
