data_PCOD9147437
_publ_section_title
;
Structure prediction by ZEFSAII (Michael W. Deem and Ramdas Pophale) SiO2 
 PCOD9147437
Probable space group: P 2/M
;
_chemical_formula_sum "Si O2"
_cell_formula_units_Z 29
_cell_length_a 5.200327
_cell_length_b 36.390488
_cell_length_c 8.823118
_cell_angle_alpha 90.000000
_cell_angle_beta 123.176745
_cell_angle_gamma 90.000000
_cell_volume 1397.523331
_symmetry_space_group_name_H-M "P 2/M"
_symmetry_group_IT_number 10
_symmetry_cell_setting 'monoclinic'
loop_
_space_group_symop_operation_xyz
x,y,z
-x,y,-z
-x,-y,-z
x,-y,z
loop_
_atom_site_type_symbol
_atom_site_label
_atom_site_fract_x
_atom_site_fract_y
_atom_site_fract_z
Si Si1 0.311406 0.306561 0.278291
Si Si2 0.000000 0.500000 0.500000
Si Si3 0.865659 0.808745 0.126406
Si Si4 0.823547 0.266336 0.284779
Si Si5 0.223725 0.436585 0.803390
Si Si6 0.644007 0.390885 0.715241
Si Si7 0.133120 0.040185 0.374369
Si Si8 0.868270 0.888869 0.125929
O O1 0.500000 0.305512 0.500000
O O2 0.478958 0.278315 0.217661
O O3 0.311929 0.348494 0.225944
O O4 0.971590 0.294215 0.213110
O O5 0.071849 0.468042 0.652128
O O6 0.905364 0.773676 0.245896
O O7 0.970307 0.848707 0.221806
O O8 0.500000 0.811938 0.000000
O O9 0.000000 0.803375 0.000000
O O10 0.000000 0.270012 0.500000
O O11 0.398544 0.408837 0.747552
O O12 0.957312 0.414523 0.806412
O O13 0.500000 0.450862 0.000000
O O14 0.500000 0.391614 0.500000
O O15 0.500000 0.043251 0.500000
O O16 0.000000 0.039772 0.500000
O O17 0.995720 0.075600 0.250033
O O18 0.058614 0.000000 0.279584
O O19 0.500000 0.890922 0.000000
O O20 0.000000 0.889453 0.000000
#
# Coordination Sequence:
#
# PCOD9147437 Si02
#       8
#     4   1   4   4   4   4   4   4
#     4   9  19  34  61  87 118 156 202 244 297 358
#     4  12  26  50  72 100 132 182 214 250 336 372
#     4  10  21  37  54  77 115 154 193 244 305 355
#     4  10  19  35  56  87 113 152 203 248 290 358
#     4  12  26  44  70 101 134 166 218 266 304 375
#     4  11  21  44  68  94 128 174 207 252 319 373
#     4  10  21  37  57  84 117 148 188 246 309 365
#     4  10  21  37  57  81 111 154 201 243 295 367
#
# _framework density 20.750997000000002
#
# number of rings (size 3 to 8) (size 9 to 14) (size 15 to 20)
#    0.000    1.655    1.379    3.103    0.000    4.414 
#    0.000   10.345    0.000    0.000    0.000    0.000 
#    0.000    0.000    0.000    0.000    0.000    0.000 
#
# Total GULP energy -161639.564315 kJ/mol
# GULP energy per Si atom -5573.778080 kJ/mol
# Density = 2.070377 g / cm^3
# Si number density = 20.750997 Si / 1000 Ang^3
#
#
#
# Elastic Constant Matrix: (Units=GPa)
#
#
# Indices 1 2 3 4 5 6 
#
# 1 147.5514 51.4377 13.6068 0.0000 -16.5231 0.0000
# 2 51.4377 180.6318 25.4381 0.0000 -19.5906 0.0000
# 3 13.6068 25.4381 44.9081 0.0000 -2.7863 0.0000
# 4 0.0000 0.0000 0.0000 38.5917 0.0000 -7.9266
# 5 -16.5231 -19.5906 -2.7863 0.0000 20.6104 0.0000
# 6 0.0000 0.0000 0.0000 -7.9266 0.0000 28.7596
#
#
#
# Elastic Compliance Matrix: (Units=1/GPa)
#
#
# Indices 1 2 3 4 5 6 
#
# 1 0.007971 -0.001586 -0.001224 0.000000 0.004718 0.000000
# 2 -0.001586 0.006967 -0.003160 0.000000 0.004923 0.000000
# 3 -0.001224 -0.003160 0.024386 0.000000 -0.000689 0.000000
# 4 0.000000 0.000000 0.000000 0.027467 0.000000 0.007570
# 5 0.004718 0.004923 -0.000689 0.000000 0.056888 0.000000
# 6 0.000000 0.000000 0.000000 0.007570 0.000000 0.036858
#
#
# Mechanical properties :
#
#
# Convention : Reuss Voigt Hill
#
# Bulk Modulus (GPa) = 36.51864 61.56182 49.04023
# Shear Modulus (GPa) = 27.53217 36.43290 31.98254
#
# Velocity S-wave (km/s) = 3.64646 4.19467 3.93014
# Velocity P-wave (km/s) = 5.94690 7.29327 6.65422
#
# Compressibility (1/GPa) = 0.02738328
#
# Stress axis : x y z
#
# Youngs Moduli (GPa) = 125.44943 143.53850 41.00699
#
# Poissons Ratio (x) = 0.22764 0.05020
# Poissons Ratio (y) = 0.19895 0.12960
# Poissons Ratio (z) = 0.15358 0.45363
#
# Static dielectric constant tensor:
#      x y z
#    x 1.710890 0.000000 0.013990 
#    y 0.000000 1.777210 0.000000 
#    z 0.013990 0.000000 1.760390 
# 
# From -- ./inp_files/15920.got.cif
#   From: 2010.05.17/outbox.cif.g08.bks.cpg/sg10_8_cif.got.tgz:15920.got - 2010.06.03 11:33:40.
