data_PCOD9147149
_publ_section_title
;
Structure prediction by ZEFSAII (Michael W. Deem and Ramdas Pophale) SiO2 
 PCOD9147149
Probable space group: P 2/M
;
_chemical_formula_sum "Si O2"
_cell_formula_units_Z 24
_cell_length_a 22.677836
_cell_length_b 8.607013
_cell_length_c 9.871201
_cell_angle_alpha 90.000000
_cell_angle_beta 136.234408
_cell_angle_gamma 90.000000
_cell_volume 1332.747488
_symmetry_space_group_name_H-M "P 2/M"
_symmetry_group_IT_number 10
_symmetry_cell_setting 'monoclinic'
loop_
_space_group_symop_operation_xyz
x,y,z
-x,y,-z
-x,-y,-z
x,-y,z
loop_
_atom_site_type_symbol
_atom_site_label
_atom_site_fract_x
_atom_site_fract_y
_atom_site_fract_z
Si Si1 0.904184 0.811340 0.360583
Si Si2 0.721505 0.315526 0.564966
Si Si3 0.466679 0.814592 0.792847
Si Si4 0.247350 0.813466 0.089617
Si Si5 0.630811 0.685420 0.931123
Si Si6 0.774408 0.186829 0.371619
O O1 0.858507 0.768805 0.425926
O O2 0.000000 0.752856 0.500000
O O3 0.907381 0.000000 0.363475
O O4 0.838295 0.765215 0.133112
O O5 0.728920 0.500000 0.581288
O O6 0.622944 0.267278 0.381326
O O7 0.752617 0.243047 0.757170
O O8 0.771267 0.248872 0.517938
O O9 0.538952 0.757926 0.809315
O O10 0.455158 0.000000 0.763795
O O11 0.500000 0.779197 0.000000
O O12 0.326430 0.742436 0.137239
O O13 0.253679 0.000000 0.093919
O O14 0.626039 0.500000 0.926340
O O15 0.694609 0.745071 0.155055
O O16 0.766379 0.000000 0.357903
#
# Coordination Sequence:
#
# PCOD9147149 Si02
#       6
#     4   4   4   4   4   4
#     4   8  16  34  62  90 110 136 182 233 274 326
#     4  12  24  37  55  81 115 150 188 233 282 328
#     4  11  22  36  57  81 110 147 194 237 273 322
#     4  10  21  38  59  82 114 149 185 229 282 334
#     4  11  21  35  56  82 113 148 190 232 276 327
#     4  10  19  34  57  83 112 148 188 227 276 332
#
# _framework density 18.007911
#
# number of rings (size 3 to 8) (size 9 to 14) (size 15 to 20)
#    0.000    1.667    1.667    5.500    0.000    1.333 
#    0.000    4.167    0.000   23.000    0.000    0.000 
#    0.000    0.000    0.000    0.000    0.000    0.000 
#
# Total GULP energy -134081.403389 kJ/mol
# GULP energy per Si atom -5586.725141 kJ/mol
# Density = 1.796692 g / cm^3
# Si number density = 18.007911 Si / 1000 Ang^3
#
#
#
# Elastic Constant Matrix: (Units=GPa)
#
#
# Indices 1 2 3 4 5 6 
#
# 1 130.0927 9.8964 59.7333 0.0000 -5.4412 0.0000
# 2 9.8964 56.1218 10.8640 0.0000 -5.4024 0.0000
# 3 59.7333 10.8640 63.7450 0.0000 -15.4762 0.0000
# 4 0.0000 0.0000 0.0000 -43.9466 0.0000 -59.3040
# 5 -5.4412 -5.4024 -15.4762 0.0000 36.9022 0.0000
# 6 0.0000 0.0000 0.0000 -59.3040 0.0000 -29.0468
#
#
#
# Elastic Compliance Matrix: (Units=1/GPa)
#
#
# Indices 1 2 3 4 5 6 
#
# 1 0.013959 -0.000122 -0.013989 0.000000 -0.003826 0.000000
# 2 -0.000122 0.018506 -0.002657 0.000000 0.001577 0.000000
# 3 -0.013989 -0.002657 0.031902 0.000000 0.010927 0.000000
# 4 0.000000 0.000000 0.000000 0.012965 0.000000 -0.026470
# 5 -0.003826 0.001577 0.010927 0.000000 0.031348 0.000000
# 6 0.000000 0.000000 0.000000 -0.026470 0.000000 0.019615
#
#
# Mechanical properties :
#
#
# Convention : Reuss Voigt Hill
#
# Bulk Modulus (GPa) = 32.43411 45.66075 39.04743
# Shear Modulus (GPa) = 29.05163 4.07946 16.56555
#
# Velocity S-wave (km/s) = 4.02091 1.50675 3.03628
# Velocity P-wave (km/s) = 6.29342 5.33273 5.83289
#
# Compressibility (1/GPa) = 0.03083174
#
# Stress axis : x y z
#
# Youngs Moduli (GPa) = 71.63746 54.03649 31.34618
#
# Poissons Ratio (x) = 0.00659 0.43850
# Poissons Ratio (y) = 0.00873 0.08328
# Poissons Ratio (z) = 1.00213 0.14357
#
# Static dielectric constant tensor:
#      x y z
#    x 1.615590 0.000000 -0.004970 
#    y 0.000000 1.598210 0.000000 
#    z -0.004970 0.000000 1.597360 
# 
# From -- ./inp_files/27315.got.cif
#   From: 2010.05.17/outbox.cif.g08.bks.cpg/sg10_14_cif.got.tgz:27315.got - 2010.06.03 11:33:40.
