data_PCOD9147267
_publ_section_title
;
Structure prediction by ZEFSAII (Michael W. Deem and Ramdas Pophale) SiO2 
 PCOD9147267
Probable space group: P 2/M
;
_chemical_formula_sum "Si O2"
_cell_formula_units_Z 32
_cell_length_a 20.922075
_cell_length_b 8.973821
_cell_length_c 14.524722
_cell_angle_alpha 90.000000
_cell_angle_beta 43.633640
_cell_angle_gamma 90.000000
_cell_volume 1881.772649
_symmetry_space_group_name_H-M "P 2/M"
_symmetry_group_IT_number 10
_symmetry_cell_setting 'monoclinic'
loop_
_space_group_symop_operation_xyz
x,y,z
-x,y,-z
-x,-y,-z
x,-y,z
loop_
_atom_site_type_symbol
_atom_site_label
_atom_site_fract_x
_atom_site_fract_y
_atom_site_fract_z
Si Si1 0.844530 0.822954 0.845506
Si Si2 0.395113 0.178073 0.576619
Si Si3 0.780193 0.178866 0.574465
Si Si4 0.312607 0.821455 0.855527
Si Si5 0.683513 0.177624 0.863375
Si Si6 0.976071 0.322354 0.418827
Si Si7 0.353056 0.321757 0.425201
Si Si8 0.550197 0.322120 0.139323
O O1 0.770650 0.792241 0.840620
O O2 0.937212 0.732261 0.731774
O O3 0.864595 0.000000 0.822420
O O4 0.788009 0.787429 0.997436
O O5 0.500000 0.210935 0.500000
O O6 0.329707 0.215033 0.731558
O O7 0.369899 0.264682 0.510841
O O8 0.390115 0.000000 0.564419
O O9 0.715045 0.223315 0.729066
O O10 0.881909 0.242433 0.487325
O O11 0.734532 0.245193 0.530875
O O12 0.783361 0.000000 0.568081
O O13 0.387850 0.741300 0.841399
O O14 0.326814 0.000000 0.851700
O O15 0.667885 0.000000 0.881271
O O16 0.595007 0.256887 0.999901
O O17 0.964886 0.500000 0.424538
O O18 0.000000 0.283597 0.500000
O O19 0.343956 0.500000 0.433463
O O20 0.444603 0.280034 0.270600
O O21 0.557069 0.500000 0.130719
#
# Coordination Sequence:
#
# PCOD9147267 Si02
#       8
#     4   4   4   4   4   4   4   4
#     4   9  17  32  54  80 110 140 178 224 269 317
#     4  10  19  34  59  84 108 143 187 230 270 318
#     4  11  23  39  58  78 105 146 190 229 272 322
#     4   9  18  33  54  82 111 140 180 229 270 312
#     4   9  19  34  53  77 106 142 185 228 264 313
#     4  11  22  35  55  83 113 143 177 222 274 326
#     4  11  24  38  52  78 115 149 183 226 277 329
#     4  10  20  32  50  76 110 149 182 218 268 325
#
# _framework density 17.005241999999999
#
# number of rings (size 3 to 8) (size 9 to 14) (size 15 to 20)
#    0.000    2.000    2.500    2.250    0.000    6.250 
#    0.000    2.500    0.000    0.750    0.000    5.250 
#    0.000    0.000    0.000    0.000    0.000    0.000 
#
# Total GULP energy -178641.909634 kJ/mol
# GULP energy per Si atom -5582.559676 kJ/mol
# Density = 1.696654 g / cm^3
# Si number density = 17.005242 Si / 1000 Ang^3
#
#
#
# Elastic Constant Matrix: (Units=GPa)
#
#
# Indices 1 2 3 4 5 6 
#
# 1 97.2017 44.2783 54.2473 0.0000 -3.3468 0.0000
# 2 44.2783 39.8109 40.2794 0.0000 -5.0133 0.0000
# 3 54.2473 40.2794 107.8671 0.0000 0.9263 0.0000
# 4 0.0000 0.0000 0.0000 24.5832 0.0000 -5.9319
# 5 -3.3468 -5.0133 0.9263 0.0000 19.5453 0.0000
# 6 0.0000 0.0000 0.0000 -5.9319 0.0000 16.4817
#
#
#
# Elastic Compliance Matrix: (Units=1/GPa)
#
#
# Indices 1 2 3 4 5 6 
#
# 1 0.021496 -0.021197 -0.002881 0.000000 -0.001620 0.000000
# 2 -0.021197 0.063821 -0.013287 0.000000 0.013370 0.000000
# 3 -0.002881 -0.013287 0.015721 0.000000 -0.004646 0.000000
# 4 0.000000 0.000000 0.000000 0.044547 0.000000 0.016033
# 5 -0.001620 0.013370 -0.004646 0.000000 0.054536 0.000000
# 6 0.000000 0.000000 0.000000 0.016033 0.000000 0.066444
#
#
# Mechanical properties :
#
#
# Convention : Reuss Voigt Hill
#
# Bulk Modulus (GPa) = 38.01068 58.05442 48.03255
# Shear Modulus (GPa) = 14.28314 19.19367 16.73840
#
# Velocity S-wave (km/s) = 2.90129 3.36325 3.14077
# Velocity P-wave (km/s) = 5.79864 7.02105 6.43892
#
# Compressibility (1/GPa) = 0.02630839
#
# Stress axis : x y z
#
# Youngs Moduli (GPa) = 46.52032 15.66886 63.60914
#
# Poissons Ratio (x) = 0.33213 0.18328
# Poissons Ratio (y) = 0.98609 0.84514
# Poissons Ratio (z) = 0.13404 0.20818
#
# Static dielectric constant tensor:
#      x y z
#    x 1.550170 0.000000 0.008850 
#    y 0.000000 1.564010 0.000000 
#    z 0.008850 0.000000 1.584480 
# 
# From -- ./inp_files/66133.got.cif
#   From: 2010.05.17/outbox.cif.g08.bks.cpg/sg10_34_cif.got.tgz:66133.got - 2010.06.03 11:33:40.
