data_PCOD9147625
_publ_section_title
;
Structure prediction by ZEFSAII (Michael W. Deem and Ramdas Pophale) SiO2 
 PCOD9147625
Probable space group: P 2/M
;
_chemical_formula_sum "Si O2"
_cell_formula_units_Z 32
_cell_length_a 15.015117
_cell_length_b 7.842683
_cell_length_c 23.245239
_cell_angle_alpha 90.000000
_cell_angle_beta 151.716187
_cell_angle_gamma 90.000000
_cell_volume 1297.055635
_symmetry_space_group_name_H-M "P 2/M"
_symmetry_group_IT_number 10
_symmetry_cell_setting 'monoclinic'
loop_
_space_group_symop_operation_xyz
x,y,z
-x,y,-z
-x,-y,-z
x,-y,z
loop_
_atom_site_type_symbol
_atom_site_label
_atom_site_fract_x
_atom_site_fract_y
_atom_site_fract_z
Si Si1 0.475824 0.204690 0.292273
Si Si2 0.325660 0.698117 0.793164
Si Si3 0.201299 0.207446 0.035114
Si Si4 0.208798 0.294727 0.606546
Si Si5 0.300819 0.302434 0.407004
Si Si6 0.707418 0.198584 0.040775
Si Si7 0.799086 0.205681 0.771557
Si Si8 0.967938 0.200690 0.291270
O O1 0.335874 0.270137 0.162278
O O2 0.684897 0.247522 0.391121
O O3 0.389534 0.265312 0.303432
O O4 0.462160 0.000000 0.286270
O O5 0.374616 0.500000 0.820371
O O6 0.326797 0.768461 0.728993
O O7 0.483569 0.788063 0.921151
O O8 0.116496 0.715495 0.699768
O O9 0.257026 0.269476 0.002996
O O10 0.217250 0.000000 0.045028
O O11 0.979877 0.245948 0.913508
O O12 0.203824 0.500000 0.606731
O O13 0.000000 0.230365 0.500000
O O14 0.500000 0.223645 0.500000
O O15 0.330989 0.500000 0.437653
O O16 0.181803 0.283271 0.280548
O O17 0.179743 0.225728 0.389854
O O18 0.762505 0.000000 0.069474
O O19 0.832989 0.271749 0.163300
O O20 0.795539 0.000000 0.762393
O O21 0.936638 0.000000 0.280872
#
# Coordination Sequence:
#
# PCOD9147625 Si02
#       8
#     4   4   4   4   4   4   4   4
#     4  10  20  35  61  91 118 148 188 237 285 341
#     4  11  23  38  59  88 119 154 194 239 291 347
#     4   9  16  32  58  87 120 152 183 228 286 344
#     4  10  23  42  59  77 111 157 198 238 287 341
#     4  11  25  43  61  83 115 156 198 241 290 342
#     4  10  19  35  60  87 117 155 191 231 289 349
#     4  10  20  37  61  91 120 151 190 232 287 346
#     4  11  23  40  63  89 117 152 193 239 290 347
#
# _framework density 24.671264000000001
#
# number of rings (size 3 to 8) (size 9 to 14) (size 15 to 20)
#    0.000    1.750    2.500    1.875    0.000    7.250 
#    0.000    4.375    0.000    1.500    0.000    0.000 
#    0.000    0.000    0.000    0.000    0.000    0.000 
#
# Total GULP energy -178905.475152 kJ/mol
# GULP energy per Si atom -5590.796098 kJ/mol
# Density = 2.461511 g / cm^3
# Si number density = 24.671264 Si / 1000 Ang^3
#
#
#
# Elastic Constant Matrix: (Units=GPa)
#
#
# Indices 1 2 3 4 5 6 
#
# 1 132.7190 -3.1181 5.6500 0.0000 25.8885 0.0000
# 2 -3.1181 37.1729 -4.4802 0.0000 -1.5127 0.0000
# 3 5.6500 -4.4802 58.6025 0.0000 20.3499 0.0000
# 4 0.0000 0.0000 0.0000 17.8394 0.0000 16.9031
# 5 25.8885 -1.5127 20.3499 0.0000 41.0183 0.0000
# 6 0.0000 0.0000 0.0000 16.9031 0.0000 29.7046
#
#
#
# Elastic Compliance Matrix: (Units=1/GPa)
#
#
# Indices 1 2 3 4 5 6 
#
# 1 0.008687 0.000641 0.001338 0.000000 -0.006123 0.000000
# 2 0.000641 0.027199 0.002186 0.000000 -0.000486 0.000000
# 3 0.001338 0.002186 0.020982 0.000000 -0.011173 0.000000
# 4 0.000000 0.000000 0.000000 0.121642 0.000000 -0.069219
# 5 -0.006123 -0.000486 -0.011173 0.000000 0.033769 0.000000
# 6 0.000000 0.000000 0.000000 -0.069219 0.000000 0.073053
#
#
# Mechanical properties :
#
#
# Convention : Reuss Voigt Hill
#
# Bulk Modulus (GPa) = 15.33798 24.95530 20.14664
# Shear Modulus (GPa) = 16.73722 33.07532 24.90627
#
# Velocity S-wave (km/s) = 2.60746 3.66545 3.18075
# Velocity P-wave (km/s) = 3.91095 5.29633 4.65546
#
# Compressibility (1/GPa) = 0.06519764
#
# Stress axis : x y z
#
# Youngs Moduli (GPa) = 115.11236 36.76636 47.65938
#
# Poissons Ratio (x) = -0.02356 -0.06375
# Poissons Ratio (y) = -0.07376 -0.10420
# Poissons Ratio (z) = -0.15398 -0.08039
#
# Static dielectric constant tensor:
#      x y z
#    x 1.963610 0.000000 0.030270 
#    y 0.000000 1.890360 0.000000 
#    z 0.030270 0.000000 2.023590 
# 
# From -- ./inp_files/71410.got.cif
#   From: 2010.05.17/outbox.cif.g08.bks.cpg/sg10_36_cif.got.tgz:71410.got - 2010.06.03 11:33:40.
