data_PCOD9147335
_publ_section_title
;
Structure prediction by ZEFSAII (Michael W. Deem and Ramdas Pophale) SiO2 
 PCOD9147335
Probable space group: P 2/M
;
_chemical_formula_sum "Si O2"
_cell_formula_units_Z 18
_cell_length_a 15.922628
_cell_length_b 8.648984
_cell_length_c 6.377842
_cell_angle_alpha 90.000000
_cell_angle_beta 62.490851
_cell_angle_gamma 90.000000
_cell_volume 779.016067
_symmetry_space_group_name_H-M "P 2/M"
_symmetry_group_IT_number 10
_symmetry_cell_setting 'monoclinic'
loop_
_space_group_symop_operation_xyz
x,y,z
-x,y,-z
-x,-y,-z
x,-y,z
loop_
_atom_site_type_symbol
_atom_site_label
_atom_site_fract_x
_atom_site_fract_y
_atom_site_fract_z
Si Si1 0.035154 0.500000 0.208675
Si Si2 0.570958 0.674639 0.093005
Si Si3 0.679902 0.831372 0.307437
Si Si4 0.761252 0.330355 0.604886
Si Si5 0.131321 0.829250 0.189135
O O1 0.083508 0.672073 0.160987
O O2 0.000000 0.500000 0.500000
O O3 0.000000 0.500000 0.000000
O O4 0.537929 0.500000 0.182596
O O5 0.591996 0.774036 0.272351
O O6 0.500000 0.740028 0.000000
O O7 0.673751 0.661664 0.866246
O O8 0.711857 0.713945 0.447321
O O9 0.661311 0.000000 0.422796
O O10 0.771206 0.842378 0.052672
O O11 0.806143 0.500000 0.537245
O O12 0.836706 0.209406 0.608350
O O13 0.084704 0.000000 0.227815
#
# Coordination Sequence:
#
# PCOD9147335 Si02
#       5
#     2   4   4   4   4
#     4  12  30  50  74 108 141 178 219 266 336 412
#     4   9  19  35  52  79 118 161 213 271 330 391
#     4  10  21  35  58  88 118 164 215 267 327 389
#     4  10  19  34  62  89 118 167 219 271 324 387
#     4  10  23  43  67  96 132 171 216 270 323 393
#
# _framework density 23.106071
#
# number of rings (size 3 to 8) (size 9 to 14) (size 15 to 20)
#    0.000    2.000    1.111    1.333    6.222    3.111 
#    0.000    4.444    0.000    0.000    0.000    0.000 
#    0.000    0.000    0.000    0.000    0.000    0.000 
#
# Total GULP energy -100252.475915 kJ/mol
# GULP energy per Si atom -5569.581995 kJ/mol
# Density = 2.305348 g / cm^3
# Si number density = 23.106071 Si / 1000 Ang^3
#
#
#
# Elastic Constant Matrix: (Units=GPa)
#
#
# Indices 1 2 3 4 5 6 
#
# 1 80.8089 61.4360 31.7063 0.0000 36.0814 0.0000
# 2 61.4360 171.6771 32.2323 0.0000 19.5600 0.0000
# 3 31.7063 32.2323 73.2555 0.0000 13.0936 0.0000
# 4 0.0000 0.0000 0.0000 18.8080 0.0000 0.1031
# 5 36.0814 19.5600 13.0936 0.0000 37.6815 0.0000
# 6 0.0000 0.0000 0.0000 0.1031 0.0000 -29.7256
#
#
#
# Elastic Compliance Matrix: (Units=1/GPa)
#
#
# Indices 1 2 3 4 5 6 
#
# 1 0.030699 -0.007187 -0.005904 0.000000 -0.023613 0.000000
# 2 -0.007187 0.008257 -0.001052 0.000000 0.002961 0.000000
# 3 -0.005904 -0.001052 0.016591 0.000000 0.000434 0.000000
# 4 0.000000 0.000000 0.000000 0.053168 0.000000 0.000184
# 5 -0.023613 0.002961 0.000434 0.000000 0.047460 0.000000
# 6 0.000000 0.000000 0.000000 0.000184 0.000000 -0.033640
#
#
# Mechanical properties :
#
#
# Convention : Reuss Voigt Hill
#
# Bulk Modulus (GPa) = 36.68190 64.05454 50.36822
# Shear Modulus (GPa) = 31.26816 18.71058 24.98937
#
# Velocity S-wave (km/s) = 3.68264 2.84873 3.29219
# Velocity P-wave (km/s) = 5.83029 6.21309 6.02473
#
# Compressibility (1/GPa) = 0.02726140
#
# Stress axis : x y z
#
# Youngs Moduli (GPa) = 32.57482 121.11156 60.27223
#
# Poissons Ratio (x) = 0.87042 0.35586
# Poissons Ratio (y) = 0.23411 0.06338
# Poissons Ratio (z) = 0.19233 0.12737
#
# Static dielectric constant tensor:
#      x y z
#    x 1.874670 0.000000 -0.038330 
#    y 0.000000 1.908360 0.000000 
#    z -0.038330 0.000000 1.906540 
# 
# From -- ./inp_files/10379.got.cif
#   From: 2010.05.17/outbox.cif.g08.bks.cpg/sg10_6_cif.got.tgz:10379.got - 2010.06.03 11:33:40.
