data_PCOD9147923
_publ_section_title
;
Structure prediction by ZEFSAII (Michael W. Deem and Ramdas Pophale) SiO2 
 PCOD9147923
Probable space group: P 2/M
;
_chemical_formula_sum "Si O2"
_cell_formula_units_Z 28
_cell_length_a 9.142434
_cell_length_b 14.254922
_cell_length_c 12.373620
_cell_angle_alpha 90.000000
_cell_angle_beta 106.887231
_cell_angle_gamma 90.000000
_cell_volume 1543.050645
_symmetry_space_group_name_H-M "P 2/M"
_symmetry_group_IT_number 10
_symmetry_cell_setting 'monoclinic'
loop_
_space_group_symop_operation_xyz
x,y,z
-x,y,-z
-x,-y,-z
x,-y,z
loop_
_atom_site_type_symbol
_atom_site_label
_atom_site_fract_x
_atom_site_fract_y
_atom_site_fract_z
Si Si1 0.524426 0.605753 0.347749
Si Si2 0.853392 0.887515 0.034624
Si Si3 0.639554 0.789502 0.606167
Si Si4 0.828961 0.716048 0.462292
Si Si5 0.418730 0.887257 0.183464
Si Si6 0.613238 0.605603 0.123677
Si Si7 0.749817 0.792959 0.218895
O O1 0.491378 0.500000 0.375477
O O2 0.412956 0.685347 0.367935
O O3 0.695342 0.638649 0.418368
O O4 0.521983 0.608181 0.217295
O O5 0.846036 0.852400 0.155102
O O6 0.858701 0.000000 0.036513
O O7 0.699745 0.860937 0.936666
O O8 0.000000 0.852559 0.000000
O O9 0.500000 0.824861 0.500000
O O10 0.784530 0.774743 0.559863
O O11 0.646350 0.851649 0.715159
O O12 0.813974 0.780800 0.352753
O O13 0.000000 0.677564 0.500000
O O14 0.581173 0.838235 0.196069
O O15 0.436355 0.000000 0.188253
O O16 0.678277 0.500000 0.127450
O O17 0.731924 0.689629 0.162506
O O18 0.500000 0.621802 0.000000
#
# Coordination Sequence:
#
# PCOD9147923 Si02
#       7
#     4   4   4   4   4   4   4
#     4   9  18  34  57  83 111 148 190 233 277 328
#     4  10  23  39  57  85 114 143 184 231 281 337
#     4  10  19  37  54  82 113 144 185 236 273 331
#     4  10  22  36  53  80 116 151 186 229 276 339
#     4  11  21  36  60  85 108 141 186 234 278 330
#     4   9  16  28  51  83 113 138 176 225 274 327
#     4  11  20  37  58  83 109 149 187 232 277 331
#
# _framework density 18.145873999999999
#
# number of rings (size 3 to 8) (size 9 to 14) (size 15 to 20)
#    0.000    2.000    4.286    1.714    2.000    4.286 
#    0.000    0.000    0.000    2.571    0.000    0.000 
#    0.000    0.000    0.000    0.000    0.000    0.000 
#
# Total GULP energy -156130.128622 kJ/mol
# GULP energy per Si atom -5576.076022 kJ/mol
# Density = 1.810457 g / cm^3
# Si number density = 18.145874 Si / 1000 Ang^3
#
#
#
# Elastic Constant Matrix: (Units=GPa)
#
#
# Indices 1 2 3 4 5 6 
#
# 1 66.5533 16.7994 21.4965 0.0000 -6.9094 0.0000
# 2 16.7994 48.7654 19.9599 0.0000 0.9912 0.0000
# 3 21.4965 19.9599 63.1876 0.0000 -14.5738 0.0000
# 4 0.0000 0.0000 0.0000 10.8560 0.0000 -6.9875
# 5 -6.9094 0.9912 -14.5738 0.0000 19.3044 0.0000
# 6 0.0000 0.0000 0.0000 -6.9875 0.0000 17.5708
#
#
#
# Elastic Compliance Matrix: (Units=1/GPa)
#
#
# Indices 1 2 3 4 5 6 
#
# 1 0.017801 -0.004701 -0.003688 0.000000 0.003828 0.000000
# 2 -0.004701 0.025934 -0.008825 0.000000 -0.009676 0.000000
# 3 -0.003688 -0.008825 0.023815 0.000000 0.017112 0.000000
# 4 0.000000 0.000000 0.000000 0.123804 0.000000 0.049234
# 5 0.003828 -0.009676 0.017112 0.000000 0.066588 0.000000
# 6 0.000000 0.000000 0.000000 0.049234 0.000000 0.076492
#
#
# Mechanical properties :
#
#
# Convention : Reuss Voigt Hill
#
# Bulk Modulus (GPa) = 30.19033 32.77978 31.48505
# Shear Modulus (GPa) = 13.16130 17.56295 15.36212
#
# Velocity S-wave (km/s) = 2.69607 3.11444 2.91278
# Velocity P-wave (km/s) = 5.13473 5.57107 5.35734
#
# Compressibility (1/GPa) = 0.03312318
#
# Stress axis : x y z
#
# Youngs Moduli (GPa) = 56.17750 38.55891 41.99032
#
# Poissons Ratio (x) = 0.18125 0.15486
# Poissons Ratio (y) = 0.26406 0.37056
# Poissons Ratio (z) = 0.20719 0.34028
#
# Static dielectric constant tensor:
#      x y z
#    x 1.619730 0.000000 -0.011900 
#    y 0.000000 1.629380 0.000000 
#    z -0.011900 0.000000 1.636490 
# 
# From -- ./inp_files/24878.got.cif
#   From: 2010.05.17/outbox.cif.g08.bks.cpg/sg10_13_cif.got.tgz:24878.got - 2010.06.03 11:33:40.
