data_PCOD9147321
_publ_section_title
;
Structure prediction by ZEFSAII (Michael W. Deem and Ramdas Pophale) SiO2 
 PCOD9147321
Probable space group: P 2/M
;
_chemical_formula_sum "Si O2"
_cell_formula_units_Z 24
_cell_length_a 15.320863
_cell_length_b 7.649976
_cell_length_c 15.529317
_cell_angle_alpha 90.000000
_cell_angle_beta 39.452702
_cell_angle_gamma 90.000000
_cell_volume 1156.567291
_symmetry_space_group_name_H-M "P 2/M"
_symmetry_group_IT_number 10
_symmetry_cell_setting 'monoclinic'
loop_
_space_group_symop_operation_xyz
x,y,z
-x,y,-z
-x,-y,-z
x,-y,z
loop_
_atom_site_type_symbol
_atom_site_label
_atom_site_fract_x
_atom_site_fract_y
_atom_site_fract_z
Si Si1 0.638974 0.288200 0.182431
Si Si2 0.348564 0.286666 0.148886
Si Si3 0.335114 0.288172 0.355446
Si Si4 0.817209 0.704509 0.886682
Si Si5 0.130838 0.204446 0.661066
Si Si6 0.347380 0.206575 0.633391
O O1 0.640529 0.500000 0.182462
O O2 0.482405 0.232676 0.282060
O O3 0.683881 0.228101 0.242424
O O4 0.736782 0.223746 0.030981
O O5 0.345358 0.500000 0.155253
O O6 0.324370 0.227544 0.264919
O O7 0.239836 0.224529 0.160411
O O8 0.500000 0.238414 0.000000
O O9 0.333638 0.500000 0.356953
O O10 0.213365 0.226343 0.509398
O O11 0.779309 0.500000 0.913949
O O12 0.979726 0.717368 0.771711
O O13 0.230410 0.279604 0.659648
O O14 0.109735 0.000000 0.694499
O O15 0.500000 0.281082 0.500000
O O16 0.355074 0.000000 0.607166
#
# Coordination Sequence:
#
# PCOD9147321 Si02
#       6
#     4   4   4   4   4   4
#     4  10  20  34  59  90 113 139 182 237 285 326
#     4   9  16  32  60  88 113 144 184 227 274 334
#     4  10  19  34  60  89 112 142 186 232 279 329
#     4  10  21  38  59  86 118 147 181 230 283 333
#     4  11  24  40  56  79 115 154 189 230 279 332
#     4  10  21  38  58  79 108 151 195 229 272 334
#
# _framework density 20.751062000000001
#
# number of rings (size 3 to 8) (size 9 to 14) (size 15 to 20)
#    0.000    2.000    3.333    0.500    0.000    3.667 
#    0.000    7.500    0.000    1.000    0.000    0.000 
#    0.000    0.000    0.000    0.000    0.000    0.000 
#
# Total GULP energy -134047.284003 kJ/mol
# GULP energy per Si atom -5585.303500 kJ/mol
# Density = 2.070383 g / cm^3
# Si number density = 20.751062 Si / 1000 Ang^3
#
#
#
# Elastic Constant Matrix: (Units=GPa)
#
#
# Indices 1 2 3 4 5 6 
#
# 1 140.6702 -9.3297 43.3569 0.0000 8.5960 0.0000
# 2 -9.3297 31.1404 -21.9800 0.0000 -1.6205 0.0000
# 3 43.3569 -21.9800 91.9846 0.0000 3.1069 0.0000
# 4 0.0000 0.0000 0.0000 20.0059 0.0000 22.2484
# 5 8.5960 -1.6205 3.1069 0.0000 38.4838 0.0000
# 6 0.0000 0.0000 0.0000 22.2484 0.0000 8.0305
#
#
#
# Elastic Compliance Matrix: (Units=1/GPa)
#
#
# Indices 1 2 3 4 5 6 
#
# 1 0.008414 -0.000388 -0.004005 0.000000 -0.001572 0.000000
# 2 -0.000388 0.038676 0.009392 0.000000 0.000957 0.000000
# 3 -0.004005 0.009392 0.015001 0.000000 0.000079 0.000000
# 4 0.000000 0.000000 0.000000 -0.024019 0.000000 0.066545
# 5 -0.001572 0.000957 0.000079 0.000000 0.026370 0.000000
# 6 0.000000 0.000000 0.000000 0.066545 0.000000 -0.059838
#
#
# Mechanical properties :
#
#
# Convention : Reuss Voigt Hill
#
# Bulk Modulus (GPa) = 13.87201 31.98771 22.92986
# Shear Modulus (GPa) = 268.31183 30.08723 149.19953
#
# Velocity S-wave (km/s) = 11.38336 3.81190 8.48857
# Velocity P-wave (km/s) = 13.39680 5.90107 10.35125
#
# Compressibility (1/GPa) = 0.07208763
#
# Stress axis : x y z
#
# Youngs Moduli (GPa) = 118.85368 25.85607 66.66211
#
# Poissons Ratio (x) = 0.01004 0.26701
# Poissons Ratio (y) = 0.04615 -0.62611
# Poissons Ratio (z) = 0.47606 -0.24285
#
# Static dielectric constant tensor:
#      x y z
#    x 1.739390 0.000000 0.012520 
#    y 0.000000 1.784900 0.000000 
#    z 0.012520 0.000000 1.694510 
# 
# From -- ./inp_files/27319.got.cif
#   From: 2010.05.17/outbox.cif.g08.bks.cpg/sg10_14_cif.got.tgz:27319.got - 2010.06.03 11:33:40.
