data_PCOD9147086
_publ_section_title
;
Structure prediction by ZEFSAII (Michael W. Deem and Ramdas Pophale) SiO2 
 PCOD9147086
Probable space group: P 2/M
;
_chemical_formula_sum "Si O2"
_cell_formula_units_Z 32
_cell_length_a 22.347820
_cell_length_b 7.513134
_cell_length_c 28.478064
_cell_angle_alpha 90.000000
_cell_angle_beta 18.336419
_cell_angle_gamma 90.000000
_cell_volume 1504.249196
_symmetry_space_group_name_H-M "P 2/M"
_symmetry_group_IT_number 10
_symmetry_cell_setting 'monoclinic'
loop_
_space_group_symop_operation_xyz
x,y,z
-x,y,-z
-x,-y,-z
x,-y,z
loop_
_atom_site_type_symbol
_atom_site_label
_atom_site_fract_x
_atom_site_fract_y
_atom_site_fract_z
Si Si1 0.024361 0.787352 0.534375
Si Si2 0.320174 0.783594 0.389853
Si Si3 0.752744 0.717912 0.394200
Si Si4 0.739863 0.795087 0.099977
Si Si5 0.842883 0.702708 0.225561
Si Si6 0.008563 0.291792 0.700112
Si Si7 0.667519 0.715482 0.260181
Si Si8 0.284630 0.285487 0.156654
O O1 0.208122 0.723235 0.426740
O O2 0.000000 0.715754 0.500000
O O3 0.842122 0.754036 0.703134
O O4 0.046815 0.000000 0.513984
O O5 0.536943 0.722822 0.233511
O O6 0.190480 0.722448 0.529990
O O7 0.321221 0.000000 0.390443
O O8 0.761906 0.500000 0.386190
O O9 0.764416 0.782909 0.332120
O O10 0.551754 0.762773 0.567220
O O11 0.922969 0.781977 0.301033
O O12 0.734962 0.786797 0.160164
O O13 0.754151 0.000000 0.074411
O O14 0.929641 0.701584 0.941163
O O15 0.768477 0.500000 0.279701
O O16 0.781831 0.779723 0.220872
O O17 0.967159 0.500000 0.738351
O O18 0.833051 0.216030 0.800880
O O19 0.685138 0.500000 0.243635
O O20 0.291480 0.500000 0.147523
O O21 0.500000 0.219606 0.000000
#
# Coordination Sequence:
#
# PCOD9147086 Si02
#       8
#     4   4   4   4   4   4   4   4
#     4   9  18  34  55  76  99 130 171 211 245 288
#     4   9  18  33  52  73  99 131 168 208 246 288
#     4   9  17  32  54  77  98 124 166 211 249 290
#     4  11  22  35  51  73 104 136 166 203 251 301
#     4  10  21  35  51  75 104 131 163 209 257 296
#     4   9  16  30  54  76  97 130 168 203 242 294
#     4  10  19  34  57  77  95 127 171 213 250 294
#     4   9  18  32  50  76 109 135 159 198 248 299
#
# _framework density 21.273071999999999
#
# number of rings (size 3 to 8) (size 9 to 14) (size 15 to 20)
#    0.000    2.500    1.250    1.125    0.000    4.500 
#    2.250    1.250    0.000    1.500    0.000    0.000 
#    0.000    0.000    0.000    0.000    0.000    0.000 
#
# Total GULP energy -178610.312867 kJ/mol
# GULP energy per Si atom -5581.572277 kJ/mol
# Density = 2.122465 g / cm^3
# Si number density = 21.273072 Si / 1000 Ang^3
#
#
#
# Elastic Constant Matrix: (Units=GPa)
#
#
# Indices 1 2 3 4 5 6 
#
# 1 98.8215 -0.0334 11.6396 0.0000 -17.2292 0.0000
# 2 -0.0334 55.4050 -10.3837 0.0000 -0.7742 0.0000
# 3 11.6396 -10.3837 40.8455 0.0000 -14.7788 0.0000
# 4 0.0000 0.0000 0.0000 19.8387 0.0000 3.9690
# 5 -17.2292 -0.7742 -14.7788 0.0000 33.8736 0.0000
# 6 0.0000 0.0000 0.0000 3.9690 0.0000 15.5381
#
#
#
# Elastic Compliance Matrix: (Units=1/GPa)
#
#
# Indices 1 2 3 4 5 6 
#
# 1 0.011167 -0.000184 -0.001396 0.000000 0.005067 0.000000
# 2 -0.000184 0.019217 0.006012 0.000000 0.002969 0.000000
# 3 -0.001396 0.006012 0.031113 0.000000 0.013002 0.000000
# 4 0.000000 0.000000 0.000000 0.053121 0.000000 -0.013569
# 5 0.005067 0.002969 0.013002 0.000000 0.037839 0.000000
# 6 0.000000 0.000000 0.000000 -0.013569 0.000000 0.067824
#
#
# Mechanical properties :
#
#
# Convention : Reuss Voigt Hill
#
# Bulk Modulus (GPa) = 14.21243 21.94633 18.07938
# Shear Modulus (GPa) = 21.28834 26.77341 24.03087
#
# Velocity S-wave (km/s) = 3.16684 3.55147 3.36466
# Velocity P-wave (km/s) = 4.47966 5.21115 4.85919
#
# Compressibility (1/GPa) = 0.07036095
#
# Stress axis : x y z
#
# Youngs Moduli (GPa) = 89.54991 52.03730 32.14104
#
# Poissons Ratio (x) = 0.00958 0.04486
# Poissons Ratio (y) = 0.01648 -0.19323
# Poissons Ratio (z) = 0.12499 -0.31284
#
# Static dielectric constant tensor:
#      x y z
#    x 1.791360 0.000000 -0.035450 
#    y 0.000000 1.841630 0.000000 
#    z -0.035450 0.000000 1.722130 
# 
# From -- ./inp_files/86748.got.cif
#   From: 2010.05.17/outbox.cif.g08.bks.cpg/sg10_44_cif.got.tgz:86748.got - 2010.06.03 11:33:40.
