data_PCOD9147168
_publ_section_title
;
Structure prediction by ZEFSAII (Michael W. Deem and Ramdas Pophale) SiO2 
 PCOD9147168
Probable space group: P 2/M
;
_chemical_formula_sum "Si O2"
_cell_formula_units_Z 24
_cell_length_a 9.499653
_cell_length_b 11.117899
_cell_length_c 13.050714
_cell_angle_alpha 90.000000
_cell_angle_beta 130.046586
_cell_angle_gamma 90.000000
_cell_volume 1055.169334
_symmetry_space_group_name_H-M "P 2/M"
_symmetry_group_IT_number 10
_symmetry_cell_setting 'monoclinic'
loop_
_space_group_symop_operation_xyz
x,y,z
-x,y,-z
-x,-y,-z
x,-y,z
loop_
_atom_site_type_symbol
_atom_site_label
_atom_site_fract_x
_atom_site_fract_y
_atom_site_fract_z
Si Si1 0.952178 0.766012 0.857929
Si Si2 0.348293 0.145189 0.016664
Si Si3 0.787710 0.139694 0.600564
Si Si4 0.706078 0.500000 0.139509
Si Si5 0.030012 0.500000 0.133987
Si Si6 0.423096 0.143154 0.687428
Si Si7 0.891594 0.709293 0.354341
O O1 0.153593 0.794281 0.905123
O O2 0.884385 0.629929 0.804584
O O3 0.803619 0.848532 0.730890
O O4 0.000000 0.785084 0.000000
O O5 0.418737 0.188507 0.161546
O O6 0.322623 0.000000 0.005077
O O7 0.500000 0.171220 0.000000
O O8 0.948770 0.226512 0.635587
O O9 0.611362 0.173689 0.448217
O O10 0.825997 0.000000 0.594273
O O11 0.765861 0.614811 0.235266
O O12 0.500000 0.500000 0.000000
O O13 0.838475 0.500000 0.103535
O O14 0.000000 0.500000 0.000000
O O15 0.238671 0.188751 0.658031
O O16 0.436422 0.000000 0.699737
O O17 0.000000 0.648828 0.500000
#
# Coordination Sequence:
#
# PCOD9147168 Si02
#       7
#     4   4   4   2   2   4   4
#     4  11  23  40  62  85 113 154 204 248 290 348
#     4  10  21  36  58  90 125 154 187 238 295 348
#     4  10  19  34  57  84 115 155 196 233 283 353
#     4  12  25  37  60  93 118 147 195 252 296 342
#     4  10  24  43  60  81 116 159 198 244 302 350
#     4   9  19  34  54  84 121 156 188 230 292 354
#     4  10  20  35  55  84 120 155 189 237 291 347
#
# _framework density 22.745162000000001
#
# number of rings (size 3 to 8) (size 9 to 14) (size 15 to 20)
#    0.000    1.833    1.667    2.250    2.333    4.667 
#    0.000    0.833    0.000    3.500    0.000    5.833 
#    0.000    0.000    0.000    0.000    0.000    0.000 
#
# Total GULP energy -133896.734810 kJ/mol
# GULP energy per Si atom -5579.030617 kJ/mol
# Density = 2.269339 g / cm^3
# Si number density = 22.745162 Si / 1000 Ang^3
#
#
#
# Elastic Constant Matrix: (Units=GPa)
#
#
# Indices 1 2 3 4 5 6 
#
# 1 44.3355 1.7404 39.4418 0.0000 -2.8171 0.0000
# 2 1.7404 60.9729 46.8514 0.0000 3.1337 0.0000
# 3 39.4418 46.8514 223.9747 0.0000 10.5952 0.0000
# 4 0.0000 0.0000 0.0000 32.5234 0.0000 -6.2586
# 5 -2.8171 3.1337 10.5952 0.0000 40.0158 0.0000
# 6 0.0000 0.0000 0.0000 -6.2586 0.0000 12.0095
#
#
#
# Elastic Compliance Matrix: (Units=1/GPa)
#
#
# Indices 1 2 3 4 5 6 
#
# 1 0.027752 0.003473 -0.005765 0.000000 0.003208 0.000000
# 2 0.003473 0.019985 -0.004790 0.000000 -0.000052 0.000000
# 3 -0.005765 -0.004790 0.006566 0.000000 -0.001769 0.000000
# 4 0.000000 0.000000 0.000000 0.034174 0.000000 0.017809
# 5 0.003208 -0.000052 -0.001769 0.000000 0.025689 0.000000
# 6 0.000000 0.000000 0.000000 0.017809 0.000000 0.092548
#
#
# Mechanical properties :
#
#
# Convention : Reuss Voigt Hill
#
# Bulk Modulus (GPa) = 24.91382 56.15002 40.53192
# Shear Modulus (GPa) = 21.34416 32.99306 27.16861
#
# Velocity S-wave (km/s) = 3.06666 3.81274 3.45987
# Velocity P-wave (km/s) = 4.84938 6.64250 5.81547
#
# Compressibility (1/GPa) = 0.04013837
#
# Stress axis : x y z
#
# Youngs Moduli (GPa) = 36.03368 50.03870 152.30808
#
# Poissons Ratio (x) = -0.17379 0.87811
# Poissons Ratio (y) = -0.12515 0.72948
# Poissons Ratio (z) = 0.20775 0.23966
#
# Static dielectric constant tensor:
#      x y z
#    x 1.864960 0.000000 -0.060300 
#    y 0.000000 1.837300 0.000000 
#    z -0.060300 0.000000 1.905560 
# 
# From -- ./inp_files/46824.got.cif
#   From: 2010.05.17/outbox.cif.g08.bks.cpg/sg10_24_cif.got.tgz:46824.got - 2010.06.03 11:33:40.
