data_PCOD9147661
_publ_section_title
;
Structure prediction by ZEFSAII (Michael W. Deem and Ramdas Pophale) SiO2 
 PCOD9147661
Probable space group: P 2/M
;
_chemical_formula_sum "Si O2"
_cell_formula_units_Z 20
_cell_length_a 12.281024
_cell_length_b 12.177578
_cell_length_c 9.854688
_cell_angle_alpha 90.000000
_cell_angle_beta 144.362602
_cell_angle_gamma 90.000000
_cell_volume 858.714492
_symmetry_space_group_name_H-M "P 2/M"
_symmetry_group_IT_number 10
_symmetry_cell_setting 'monoclinic'
loop_
_space_group_symop_operation_xyz
x,y,z
-x,y,-z
-x,-y,-z
x,-y,z
loop_
_atom_site_type_symbol
_atom_site_label
_atom_site_fract_x
_atom_site_fract_y
_atom_site_fract_z
Si Si1 0.923908 0.695120 0.786548
Si Si2 0.830165 0.500000 0.510137
Si Si3 0.314528 0.266295 0.041829
Si Si4 0.280240 0.500000 0.906749
Si Si5 0.777332 0.120777 0.293224
Si Si6 0.645647 0.872814 0.471789
O O1 0.808475 0.609998 0.577278
O O2 0.798455 0.798743 0.701496
O O3 0.000000 0.639151 0.000000
O O4 0.104294 0.735082 0.886119
O O5 0.715702 0.500000 0.253598
O O6 0.054517 0.500000 0.704765
O O7 0.452920 0.194471 0.273240
O O8 0.361465 0.392808 0.061607
O O9 0.311682 0.211278 0.891175
O O10 0.720374 0.128542 0.391432
O O11 0.000000 0.129067 0.500000
O O12 0.719962 0.000000 0.183451
O O13 0.630181 0.000000 0.497583
#
# Coordination Sequence:
#
# PCOD9147661 Si02
#       6
#     4   2   4   2   4   4
#     4  11  24  42  63  87 122 168 214 256 299 352
#     4   9  19  39  66  93 122 158 201 253 311 372
#     4  11  22  39  62  92 129 160 198 257 307 368
#     4   9  20  35  64  98 125 156 195 246 320 381
#     4  10  19  35  61  89 121 157 192 246 315 372
#     4  11  24  40  63  94 123 161 208 251 310 371
#
# _framework density 23.290628999999999
#
# number of rings (size 3 to 8) (size 9 to 14) (size 15 to 20)
#    0.000    1.600    2.000    2.700    2.800    4.400 
#    0.000    4.000    0.000    4.800    0.000    0.000 
#    0.000    0.000    0.000    0.000    0.000    0.000 
#
# Total GULP energy -111916.744362 kJ/mol
# GULP energy per Si atom -5595.837218 kJ/mol
# Density = 2.323762 g / cm^3
# Si number density = 23.290629 Si / 1000 Ang^3
#
#
#
# Elastic Constant Matrix: (Units=GPa)
#
#
# Indices 1 2 3 4 5 6 
#
# 1 77.2522 14.2769 15.5528 0.0000 7.3548 0.0000
# 2 14.2769 181.4414 53.0384 0.0000 9.7429 0.0000
# 3 15.5528 53.0384 89.2909 0.0000 17.5551 0.0000
# 4 0.0000 0.0000 0.0000 198.0526 0.0000 -121.2380
# 5 7.3548 9.7429 17.5551 0.0000 34.8249 0.0000
# 6 0.0000 0.0000 0.0000 -121.2380 0.0000 99.2658
#
#
#
# Elastic Compliance Matrix: (Units=1/GPa)
#
#
# Indices 1 2 3 4 5 6 
#
# 1 0.013554 -0.000464 -0.001718 0.000000 -0.001867 0.000000
# 2 -0.000464 0.006686 -0.003932 0.000000 0.000209 0.000000
# 3 -0.001718 -0.003932 0.015037 0.000000 -0.006117 0.000000
# 4 0.000000 0.000000 0.000000 0.020008 0.000000 0.024437
# 5 -0.001867 0.000209 -0.006117 0.000000 0.032134 0.000000
# 6 0.000000 0.000000 0.000000 0.024437 0.000000 0.039920
#
#
# Mechanical properties :
#
#
# Convention : Reuss Voigt Hill
#
# Bulk Modulus (GPa) = 43.38656 57.08007 50.23331
# Shear Modulus (GPa) = 33.95564 84.10310 59.02937
#
# Velocity S-wave (km/s) = 3.82240 6.01570 5.03981
# Velocity P-wave (km/s) = 6.17655 8.53302 7.44857
#
# Compressibility (1/GPa) = 0.02304861
#
# Stress axis : x y z
#
# Youngs Moduli (GPa) = 73.77901 149.56572 66.50352
#
# Poissons Ratio (x) = 0.06940 0.11427
# Poissons Ratio (y) = 0.03423 0.26148
# Poissons Ratio (z) = 0.12677 0.58807
#
# Static dielectric constant tensor:
#      x y z
#    x 1.885550 0.000000 0.035350 
#    y 0.000000 1.867420 0.000000 
#    z 0.035350 0.000000 1.872440 
# 
# From -- ./inp_files/51140.got.cif
#   From: 2010.05.17/outbox.cif.g08.bks.cpg/sg10_26_cif.got.tgz:51140.got - 2010.06.03 11:33:40.
