data_PCOD9147194
_publ_section_title
;
Structure prediction by ZEFSAII (Michael W. Deem and Ramdas Pophale) SiO2 
 PCOD9147194
Probable space group: P 2/M
;
_chemical_formula_sum "Si O2"
_cell_formula_units_Z 21
_cell_length_a 8.762305
_cell_length_b 24.509587
_cell_length_c 8.953882
_cell_angle_alpha 90.000000
_cell_angle_beta 34.540798
_cell_angle_gamma 90.000000
_cell_volume 1090.293347
_symmetry_space_group_name_H-M "P 2/M"
_symmetry_group_IT_number 10
_symmetry_cell_setting 'monoclinic'
loop_
_space_group_symop_operation_xyz
x,y,z
-x,y,-z
-x,-y,-z
x,-y,z
loop_
_atom_site_type_symbol
_atom_site_label
_atom_site_fract_x
_atom_site_fract_y
_atom_site_fract_z
Si Si1 0.812478 0.000000 0.794441
Si Si2 0.500000 0.000000 0.500000
Si Si3 0.756027 0.911955 0.082759
Si Si4 0.188132 0.619411 0.701588
Si Si5 0.603184 0.795566 0.087543
Si Si6 0.811726 0.500000 0.297992
Si Si7 0.103834 0.271809 0.586638
O O1 0.000000 0.000000 0.500000
O O2 0.500000 0.000000 0.000000
O O3 0.864278 0.946902 0.854821
O O4 0.444302 0.047447 0.671198
O O5 0.630148 0.855391 0.134065
O O6 0.000000 0.902430 0.000000
O O7 0.500000 0.622462 0.500000
O O8 0.141144 0.559221 0.667244
O O9 0.126794 0.669314 0.642661
O O10 0.000000 0.623416 0.000000
O O11 0.388831 0.758905 0.348638
O O12 0.500000 0.800802 0.000000
O O13 0.888848 0.765125 0.848174
O O14 0.500000 0.500000 0.500000
O O15 0.000000 0.500000 0.000000
O O16 0.000000 0.276957 0.500000
#
# Coordination Sequence:
#
# PCOD9147194 Si02
#       7
#     2   1   4   4   4   2   4
#     4  11  26  43  68  90 117 155 194 232 289 360
#     4  10  24  44  60  88 122 148 176 240 312 332
#     4  11  26  43  66  90 124 152 195 248 299 352
#     4  10  19  34  57  86 118 156 203 245 292 348
#     4  10  23  42  63  87 116 160 196 237 294 362
#     4   8  16  30  51  80 117 156 194 244 292 342
#     4  10  22  40  59  85 122 155 197 245 297 344
#
# _framework density 19.260871999999999
#
# number of rings (size 3 to 8) (size 9 to 14) (size 15 to 20)
#    0.000    1.905    0.000    2.857    8.000    4.571 
#    0.000    0.476    0.000    0.000    0.000   12.000 
#    0.000    0.000    0.000    0.000    0.000    0.000 
#
# Total GULP energy -117040.855171 kJ/mol
# GULP energy per Si atom -5573.374056 kJ/mol
# Density = 1.921703 g / cm^3
# Si number density = 19.260872 Si / 1000 Ang^3
#
#
#
# Elastic Constant Matrix: (Units=GPa)
#
#
# Indices 1 2 3 4 5 6 
#
# 1 29.6580 34.0317 33.9943 0.0000 1.4061 0.0000
# 2 34.0317 222.1612 74.4877 0.0000 17.4092 0.0000
# 3 33.9943 74.4877 156.4086 0.0000 -2.2611 0.0000
# 4 0.0000 0.0000 0.0000 90.0316 0.0000 56.2677
# 5 1.4061 17.4092 -2.2611 0.0000 21.9168 0.0000
# 6 0.0000 0.0000 0.0000 56.2677 0.0000 15.1942
#
#
#
# Elastic Compliance Matrix: (Units=1/GPa)
#
#
# Indices 1 2 3 4 5 6 
#
# 1 0.048630 -0.004616 -0.008376 0.000000 -0.000317 0.000000
# 2 -0.004616 0.006284 -0.002060 0.000000 -0.004908 0.000000
# 3 -0.008376 -0.002060 0.009240 0.000000 0.003127 0.000000
# 4 0.000000 0.000000 0.000000 -0.008450 0.000000 0.031293
# 5 -0.000317 -0.004908 0.003127 0.000000 0.049868 0.000000
# 6 0.000000 0.000000 0.000000 0.031293 0.000000 -0.050070
#
#
# Mechanical properties :
#
#
# Convention : Reuss Voigt Hill
#
# Bulk Modulus (GPa) = 29.36867 77.02836 53.19851
# Shear Modulus (GPa) = 51.57009 43.14281 47.35645
#
# Velocity S-wave (km/s) = 5.18002 4.73791 4.96389
# Velocity P-wave (km/s) = 7.14548 8.36716 7.78033
#
# Compressibility (1/GPa) = 0.03404990
#
# Stress axis : x y z
#
# Youngs Moduli (GPa) = 20.56346 159.14166 108.22274
#
# Poissons Ratio (x) = 0.73465 0.90642
# Poissons Ratio (y) = 0.09493 0.22296
# Poissons Ratio (z) = 0.17223 0.32786
#
# Static dielectric constant tensor:
#      x y z
#    x 1.645250 0.000000 -0.005240 
#    y 0.000000 1.652030 0.000000 
#    z -0.005240 0.000000 1.673210 
# 
# From -- ./inp_files/15191.got.cif
#   From: 2010.05.17/outbox.cif.g08.bks.cpg/sg10_8_cif.got.tgz:15191.got - 2010.06.03 11:33:40.
