data_PCOD9147744
_publ_section_title
;
Structure prediction by ZEFSAII (Michael W. Deem and Ramdas Pophale) SiO2 
 PCOD9147744
Probable space group: P 2/M
;
_chemical_formula_sum "Si O2"
_cell_formula_units_Z 24
_cell_length_a 14.943862
_cell_length_b 7.673156
_cell_length_c 9.782550
_cell_angle_alpha 90.000000
_cell_angle_beta 80.668232
_cell_angle_gamma 90.000000
_cell_volume 1106.886557
_symmetry_space_group_name_H-M "P 2/M"
_symmetry_group_IT_number 10
_symmetry_cell_setting 'monoclinic'
loop_
_space_group_symop_operation_xyz
x,y,z
-x,y,-z
-x,-y,-z
x,-y,z
loop_
_atom_site_type_symbol
_atom_site_label
_atom_site_fract_x
_atom_site_fract_y
_atom_site_fract_z
Si Si1 0.423368 0.296779 0.917441
Si Si2 0.042070 0.212515 0.135431
Si Si3 0.267049 0.300935 0.429955
Si Si4 0.078994 0.799708 0.591661
Si Si5 0.247750 0.798308 0.126077
Si Si6 0.411379 0.711979 0.610310
O O1 0.448471 0.500000 0.892933
O O2 0.417246 0.222850 0.764927
O O3 0.500000 0.219679 0.000000
O O4 0.326613 0.286938 0.016943
O O5 0.145546 0.273410 0.130505
O O6 0.970186 0.277040 0.264379
O O7 0.045238 0.000000 0.151198
O O8 0.000000 0.252572 0.000000
O O9 0.296779 0.500000 0.397699
O O10 0.164777 0.296399 0.509546
O O11 0.270779 0.212104 0.281318
O O12 0.328190 0.226362 0.536946
O O13 0.000000 0.806002 0.500000
O O14 0.108106 0.000000 0.612104
O O15 0.245823 0.000000 0.084527
O O16 0.500000 0.752510 0.500000
O O17 0.403182 0.500000 0.621062
#
# Coordination Sequence:
#
# PCOD9147744 Si02
#       6
#     4   4   4   4   4   4
#     4  10  21  39  63  87 114 149 187 230 286 343
#     4   9  19  35  55  79 110 152 192 229 278 337
#     4  11  22  36  58  86 116 150 191 236 283 334
#     4  10  19  36  58  80 111 151 193 232 278 332
#     4  11  22  38  59  85 116 151 192 235 282 335
#     4   9  19  37  60  85 113 147 187 229 279 342
#
# _framework density 21.682438999999999
#
# number of rings (size 3 to 8) (size 9 to 14) (size 15 to 20)
#    0.000    2.000    1.667    2.000    2.333    3.333 
#    0.000    0.833    0.000    6.000    0.000    0.000 
#    0.000    0.000    0.000    0.000    0.000    0.000 
#
# Total GULP energy -134011.038775 kJ/mol
# GULP energy per Si atom -5583.793282 kJ/mol
# Density = 2.163309 g / cm^3
# Si number density = 21.682439 Si / 1000 Ang^3
#
#
#
# Elastic Constant Matrix: (Units=GPa)
#
#
# Indices 1 2 3 4 5 6 
#
# 1 107.8115 -5.8117 66.2142 0.0000 13.0317 0.0000
# 2 -5.8117 37.9219 -8.2411 0.0000 6.6164 0.0000
# 3 66.2142 -8.2411 180.4538 0.0000 3.8095 0.0000
# 4 0.0000 0.0000 0.0000 17.2134 0.0000 -9.8684
# 5 13.0317 6.6164 3.8095 0.0000 32.1311 0.0000
# 6 0.0000 0.0000 0.0000 -9.8684 0.0000 41.4958
#
#
#
# Elastic Compliance Matrix: (Units=1/GPa)
#
#
# Indices 1 2 3 4 5 6 
#
# 1 0.012734 0.001852 -0.004482 0.000000 -0.005015 0.000000
# 2 0.001852 0.027965 0.000737 0.000000 -0.006597 0.000000
# 3 -0.004482 0.000737 0.007203 0.000000 0.000812 0.000000
# 4 0.000000 0.000000 0.000000 0.067265 0.000000 0.015997
# 5 -0.005015 -0.006597 0.000812 0.000000 0.034419 0.000000
# 6 0.000000 0.000000 0.000000 0.015997 0.000000 0.027903
#
#
# Mechanical properties :
#
#
# Convention : Reuss Voigt Hill
#
# Bulk Modulus (GPa) = 22.66753 47.83446 35.25099
# Shear Modulus (GPa) = 25.51279 36.43644 30.97462
#
# Velocity S-wave (km/s) = 3.43396 4.10379 3.78373
# Velocity P-wave (km/s) = 5.11858 6.67563 5.94827
#
# Compressibility (1/GPa) = 0.04411597
#
# Stress axis : x y z
#
# Youngs Moduli (GPa) = 78.52835 35.75898 138.83643
#
# Poissons Ratio (x) = -0.06624 0.62228
# Poissons Ratio (y) = -0.14547 -0.10228
# Poissons Ratio (z) = 0.35197 -0.02634
#
# Static dielectric constant tensor:
#      x y z
#    x 1.766880 0.000000 0.039580 
#    y 0.000000 1.853540 0.000000 
#    z 0.039580 0.000000 1.747830 
# 
# From -- ./inp_files/27052.got.cif
#   From: 2010.05.17/outbox.cif.g08.bks.cpg/sg10_14_cif.got.tgz:27052.got - 2010.06.03 11:33:40.
