data_PCOD9147016
_publ_section_title
;
Structure prediction by ZEFSAII (Michael W. Deem and Ramdas Pophale) SiO2 
 PCOD9147016
Probable space group: P 2/M
;
_chemical_formula_sum "Si O2"
_cell_formula_units_Z 32
_cell_length_a 16.687754
_cell_length_b 19.020938
_cell_length_c 10.355120
_cell_angle_alpha 90.000000
_cell_angle_beta 36.314822
_cell_angle_gamma 90.000000
_cell_volume 1946.566445
_symmetry_space_group_name_H-M "P 2/M"
_symmetry_group_IT_number 10
_symmetry_cell_setting 'monoclinic'
loop_
_space_group_symop_operation_xyz
x,y,z
-x,y,-z
-x,-y,-z
x,-y,z
loop_
_atom_site_type_symbol
_atom_site_label
_atom_site_fract_x
_atom_site_fract_y
_atom_site_fract_z
Si Si1 0.635686 0.666232 0.995750
Si Si2 0.368562 0.833770 0.995754
Si Si3 0.683929 0.833558 0.646732
Si Si4 0.354929 0.084126 0.751968
Si Si5 0.669340 0.333555 0.646730
Si Si6 0.106896 0.415874 0.248032
Si Si7 0.931283 0.416054 0.224303
Si Si8 0.155584 0.083947 0.775700
O O1 0.649261 0.750001 0.999998
O O2 0.477215 0.650034 0.225196
O O3 0.658952 0.650961 0.813335
O O4 0.751189 0.623908 0.920077
O O5 0.527712 0.849041 0.813340
O O6 0.328734 0.876094 0.920078
O O7 0.297587 0.849968 0.225199
O O8 0.697042 0.750001 0.605916
O O9 0.781251 0.876320 0.427675
O O10 0.500000 0.103540 0.500000
O O11 0.242547 0.100233 0.790485
O O12 0.357208 0.000000 0.771984
O O13 0.791075 0.376316 0.427671
O O14 0.129194 0.500000 0.228012
O O15 0.000000 0.396461 0.500000
O O16 0.033029 0.399767 0.209518
O O17 0.907203 0.500000 0.257978
O O18 0.000000 0.397420 0.000000
O O19 0.165171 0.000000 0.742042
O O20 0.000000 0.102586 0.000000
#
# Coordination Sequence:
#
# PCOD9147016 Si02
#       8
#     4   4   4   4   4   4   4   4
#     4   9  18  34  54  80 109 136 175 228 267 309
#     4   9  18  34  54  80 109 136 175 228 267 309
#     4   9  18  34  55  77 106 141 177 219 268 316
#     4  10  19  34  56  80 106 139 180 221 261 313
#     4   9  18  34  55  77 106 141 177 219 268 316
#     4  10  19  34  56  80 106 139 180 221 261 313
#     4  10  21  37  54  76 109 142 175 221 269 316
#     4  10  21  37  54  76 109 142 175 221 269 316
#
# _framework density 16.439202999999999
#
# number of rings (size 3 to 8) (size 9 to 14) (size 15 to 20)
#    0.000    2.500    2.500    1.500    0.000    1.500 
#    4.500    3.750    0.000    4.500    0.000    0.000 
#    0.000    0.000    0.000    0.000    0.000    0.000 
#
# Total GULP energy -178381.254314 kJ/mol
# GULP energy per Si atom -5574.414197 kJ/mol
# Density = 1.640179 g / cm^3
# Si number density = 16.439203 Si / 1000 Ang^3
#
#
#
# Elastic Constant Matrix: (Units=GPa)
#
#
# Indices 1 2 3 4 5 6 
#
# 1 127.2567 57.9343 97.1957 0.0000 -1.2599 0.0000
# 2 57.9343 40.7962 71.5327 0.0000 -0.7298 0.0000
# 3 97.1957 71.5327 149.4852 0.0000 0.0690 0.0000
# 4 0.0000 0.0000 0.0000 27.0496 0.0000 -0.4430
# 5 -1.2599 -0.7298 0.0690 0.0000 26.6969 0.0000
# 6 0.0000 0.0000 0.0000 -0.4430 0.0000 18.8044
#
#
#
# Elastic Compliance Matrix: (Units=1/GPa)
#
#
# Indices 1 2 3 4 5 6 
#
# 1 0.022632 -0.039378 0.004128 0.000000 -0.000019 0.000000
# 2 -0.039378 0.221323 -0.080308 0.000000 0.004399 0.000000
# 3 0.004128 -0.080308 0.042436 0.000000 -0.002110 0.000000
# 4 0.000000 0.000000 0.000000 0.036983 0.000000 0.000871
# 5 -0.000019 0.004399 -0.002110 0.000000 0.037582 0.000000
# 6 0.000000 0.000000 0.000000 0.000871 0.000000 0.053200
#
#
# Mechanical properties :
#
#
# Convention : Reuss Voigt Hill
#
# Bulk Modulus (GPa) = 18.09096 85.65149 51.87123
# Shear Modulus (GPa) = 7.53356 20.56853 14.05104
#
# Velocity S-wave (km/s) = 2.14304 3.54105 2.92674
# Velocity P-wave (km/s) = 4.14152 8.30264 6.56072
#
# Compressibility (1/GPa) = 0.05527621
#
# Stress axis : x y z
#
# Youngs Moduli (GPa) = 44.18495 4.51828 23.56495
#
# Poissons Ratio (x) = 0.17792 -0.09727
# Poissons Ratio (y) = 1.73991 1.89244
# Poissons Ratio (z) = -0.18239 0.36285
#
# Static dielectric constant tensor:
#      x y z
#    x 1.546880 0.000000 0.000820 
#    y 0.000000 1.540190 0.000000 
#    z 0.000820 0.000000 1.531600 
# 
# From -- ./inp_files/30297.got.cif
#   From: 2010.05.17/outbox.cif.g08.bks.cpg/sg10_16_cif.got.tgz:30297.got - 2010.06.03 11:33:40.
