data_PCOD9147563
_publ_section_title
;
Structure prediction by ZEFSAII (Michael W. Deem and Ramdas Pophale) SiO2 
 PCOD9147563
Probable space group: P 2/M
;
_chemical_formula_sum "Si O2"
_cell_formula_units_Z 24
_cell_length_a 7.864315
_cell_length_b 14.576401
_cell_length_c 9.687032
_cell_angle_alpha 90.000000
_cell_angle_beta 108.760740
_cell_angle_gamma 90.000000
_cell_volume 1051.458739
_symmetry_space_group_name_H-M "P 2/M"
_symmetry_group_IT_number 10
_symmetry_cell_setting 'monoclinic'
loop_
_space_group_symop_operation_xyz
x,y,z
-x,y,-z
-x,-y,-z
x,-y,z
loop_
_atom_site_type_symbol
_atom_site_label
_atom_site_fract_x
_atom_site_fract_y
_atom_site_fract_z
Si Si1 0.683739 0.897396 0.638385
Si Si2 0.284054 0.697426 0.414433
Si Si3 0.808298 0.394970 0.330733
Si Si4 0.687630 0.896295 0.968861
Si Si5 0.618303 0.396523 0.838482
Si Si6 0.141926 0.715614 0.919089
O O1 0.500000 0.900394 0.500000
O O2 0.779632 0.802939 0.618471
O O3 0.653877 0.883520 0.795578
O O4 0.766005 0.000000 0.642920
O O5 0.500000 0.704128 0.500000
O O6 0.285574 0.638923 0.275066
O O7 0.323080 0.671098 0.026307
O O8 0.871891 0.500000 0.336819
O O9 0.593882 0.396413 0.242428
O O10 0.892024 0.328526 0.237616
O O11 0.189522 0.354912 0.514658
O O12 0.826889 0.823939 0.066971
O O13 0.752400 0.000000 0.005337
O O14 0.500000 0.885841 0.000000
O O15 0.674645 0.500000 0.888107
O O16 0.000000 0.691262 0.000000
#
# Coordination Sequence:
#
# PCOD9147563 Si02
#       6
#     4   4   4   4   4   4
#     4   9  17  30  54  90 119 137 169 230 295 340
#     4   9  17  31  55  86 112 142 178 239 296 339
#     4  10  21  37  59  85 112 146 193 245 288 335
#     4  10  21  38  63  90 114 145 190 237 282 334
#     4  10  19  35  59  83 109 143 192 242 290 337
#     4  12  25  38  54  80 117 160 192 229 282 339
#
# _framework density 22.825430000000001
#
# number of rings (size 3 to 8) (size 9 to 14) (size 15 to 20)
#    0.000    2.000    1.667    2.500    4.667    5.000 
#    0.000    0.833    0.000    2.000    0.000    2.333 
#    0.000    0.000    0.000    0.000    0.000    0.000 
#
# Total GULP energy -134177.994434 kJ/mol
# GULP energy per Si atom -5590.749768 kJ/mol
# Density = 2.277348 g / cm^3
# Si number density = 22.825430 Si / 1000 Ang^3
#
#
#
# Elastic Constant Matrix: (Units=GPa)
#
#
# Indices 1 2 3 4 5 6 
#
# 1 75.4004 35.6619 32.8181 0.0000 -19.4481 0.0000
# 2 35.6619 171.4656 57.8378 0.0000 -24.3349 0.0000
# 3 32.8181 57.8378 126.3892 0.0000 -26.8953 0.0000
# 4 0.0000 0.0000 0.0000 68.0027 0.0000 -25.5468
# 5 -19.4481 -24.3349 -26.8953 0.0000 40.0827 0.0000
# 6 0.0000 0.0000 0.0000 -25.5468 0.0000 19.2146
#
#
#
# Elastic Compliance Matrix: (Units=1/GPa)
#
#
# Indices 1 2 3 4 5 6 
#
# 1 0.016536 -0.001912 -0.002285 0.000000 0.005329 0.000000
# 2 -0.001912 0.007324 -0.002457 0.000000 0.001870 0.000000
# 3 -0.002285 -0.002457 0.010588 0.000000 0.004504 0.000000
# 4 0.000000 0.000000 0.000000 0.029380 0.000000 0.039062
# 5 0.005329 0.001870 0.004504 0.000000 0.031692 0.000000
# 6 0.000000 0.000000 0.000000 0.039062 0.000000 0.103978
#
#
# Mechanical properties :
#
#
# Convention : Reuss Voigt Hill
#
# Bulk Modulus (GPa) = 47.30297 69.54342 58.42319
# Shear Modulus (GPa) = 22.74249 41.92250 32.33249
#
# Velocity S-wave (km/s) = 3.15995 4.29027 3.76774
# Velocity P-wave (km/s) = 5.83802 7.42129 6.67675
#
# Compressibility (1/GPa) = 0.02114032
#
# Stress axis : x y z
#
# Youngs Moduli (GPa) = 60.47441 136.53740 94.44454
#
# Poissons Ratio (x) = 0.26109 0.21577
# Poissons Ratio (y) = 0.11564 0.23206
# Poissons Ratio (z) = 0.13816 0.33549
#
# Static dielectric constant tensor:
#      x y z
#    x 1.877710 0.000000 0.060900 
#    y 0.000000 1.839950 0.000000 
#    z 0.060900 0.000000 1.860710 
# 
# From -- ./inp_files/19308.got.cif
#   From: 2010.05.17/outbox.cif.g08.bks.cpg/sg10_10_cif.got.tgz:19308.got - 2010.06.03 11:33:40.
