data_PCOD9147930
_publ_section_title
;
Structure prediction by ZEFSAII (Michael W. Deem and Ramdas Pophale) SiO2 
 PCOD9147930
Probable space group: P 2/M
;
_chemical_formula_sum "Si O2"
_cell_formula_units_Z 32
_cell_length_a 21.826878
_cell_length_b 19.553267
_cell_length_c 11.955544
_cell_angle_alpha 90.000000
_cell_angle_beta 160.052974
_cell_angle_gamma 90.000000
_cell_volume 1740.713021
_symmetry_space_group_name_H-M "P 2/M"
_symmetry_group_IT_number 10
_symmetry_cell_setting 'monoclinic'
loop_
_space_group_symop_operation_xyz
x,y,z
-x,y,-z
-x,-y,-z
x,-y,z
loop_
_atom_site_type_symbol
_atom_site_label
_atom_site_fract_x
_atom_site_fract_y
_atom_site_fract_z
Si Si1 0.992113 0.788255 0.159405
Si Si2 0.570737 0.634441 0.734521
Si Si3 0.846382 0.923349 0.832243
Si Si4 0.813031 0.577231 0.606186
Si Si5 0.636067 0.174479 0.323919
Si Si6 0.321964 0.699641 0.484888
Si Si7 0.092970 0.706016 0.768403
Si Si8 0.850407 0.579008 0.400398
O O1 0.973814 0.751273 0.244781
O O2 0.186492 0.797622 0.437010
O O3 0.913890 0.865097 0.032302
O O4 0.861788 0.740013 0.860430
O O5 0.500000 0.596449 0.500000
O O6 0.404693 0.667091 0.516056
O O7 0.700134 0.693279 0.905907
O O8 0.688174 0.597495 0.034851
O O9 0.684128 0.886026 0.490663
O O10 0.813374 0.000000 0.816478
O O11 0.000000 0.926981 0.000000
O O12 0.740417 0.500000 0.499657
O O13 0.701772 0.638622 0.468389
O O14 0.822050 0.587047 0.486875
O O15 0.000000 0.579539 0.000000
O O16 0.559081 0.240154 0.257600
O O17 0.500000 0.148248 0.000000
O O18 0.000000 0.735615 0.500000
O O19 0.010974 0.630291 0.647306
O O20 0.897338 0.500000 0.463408
#
# Coordination Sequence:
#
# PCOD9147930 Si02
#       8
#     4   4   4   4   4   4   4   4
#     4  10  19  37  57  83 113 149 187 224 284 342
#     4  11  24  38  54  82 106 150 196 249 289 331
#     4   8  16  33  55  82 116 151 181 216 272 345
#     4  10  21  37  59  81 103 143 188 237 300 356
#     4  10  21  30  54  90 114 146 181 230 288 331
#     4  11  21  35  57  78 114 143 187 239 284 350
#     4  10  21  36  58  78 108 147 193 237 287 339
#     4  10  23  41  59  79 109 150 196 245 298 354
#
# _framework density 18.383272000000002
#
# number of rings (size 3 to 8) (size 9 to 14) (size 15 to 20)
#    0.000    2.000    1.250    3.375    5.250    3.250 
#    0.000    1.250    0.000    0.375    0.000    7.000 
#    0.000    0.000    0.000    0.000    0.000    0.000 
#
# Total GULP energy -178210.428466 kJ/mol
# GULP energy per Si atom -5569.075890 kJ/mol
# Density = 1.834143 g / cm^3
# Si number density = 18.383272 Si / 1000 Ang^3
#
#
#
# Elastic Constant Matrix: (Units=GPa)
#
#
# Indices 1 2 3 4 5 6 
#
# 1 102.2609 45.4720 22.4072 0.0000 -18.9497 0.0000
# 2 45.4720 119.6663 12.4601 0.0000 -1.0744 0.0000
# 3 22.4072 12.4601 47.4158 0.0000 -8.9923 0.0000
# 4 0.0000 0.0000 0.0000 -0.1857 0.0000 -6.7931
# 5 -18.9497 -1.0744 -8.9923 0.0000 29.0433 0.0000
# 6 0.0000 0.0000 0.0000 -6.7931 0.0000 -1.1243
#
#
#
# Elastic Compliance Matrix: (Units=1/GPa)
#
#
# Indices 1 2 3 4 5 6 
#
# 1 0.014322 -0.004959 -0.003960 0.000000 0.007935 0.000000
# 2 -0.004959 0.010313 -0.000965 0.000000 -0.003152 0.000000
# 3 -0.003960 -0.000965 0.024135 0.000000 0.004853 0.000000
# 4 0.000000 0.000000 0.000000 0.024475 0.000000 -0.147878
# 5 0.007935 -0.003152 0.004853 0.000000 0.040995 0.000000
# 6 0.000000 0.000000 0.000000 -0.147878 0.000000 0.004042
#
#
# Mechanical properties :
#
#
# Convention : Reuss Voigt Hill
#
# Bulk Modulus (GPa) = 34.47877 47.78015 41.12946
# Shear Modulus (GPa) = 33.84842 18.14691 25.99766
#
# Velocity S-wave (km/s) = 4.29565 3.14529 3.76467
# Velocity P-wave (km/s) = 6.58784 6.26402 6.42797
#
# Compressibility (1/GPa) = 0.02900336
#
# Stress axis : x y z
#
# Youngs Moduli (GPa) = 69.82258 96.96556 41.43295
#
# Poissons Ratio (x) = 0.48082 0.16408
# Poissons Ratio (y) = 0.34622 0.03997
# Poissons Ratio (z) = 0.27651 0.09354
#
# Static dielectric constant tensor:
#      x y z
#    x 1.673620 0.000000 -0.034050 
#    y 0.000000 1.625350 0.000000 
#    z -0.034050 0.000000 1.719310 
# 
# From -- ./inp_files/25978.got.cif
#   From: 2010.05.17/outbox.cif.g08.bks.cpg/sg10_13_cif.got.tgz:25978.got - 2010.06.03 11:33:40.
