data_PCOD9147646
_publ_section_title
;
Structure prediction by ZEFSAII (Michael W. Deem and Ramdas Pophale) SiO2 
 PCOD9147646
Probable space group: P 2/M
;
_chemical_formula_sum "Si O2"
_cell_formula_units_Z 32
_cell_length_a 14.502360
_cell_length_b 14.713248
_cell_length_c 21.541613
_cell_angle_alpha 90.000000
_cell_angle_beta 19.803635
_cell_angle_gamma 90.000000
_cell_volume 1557.276738
_symmetry_space_group_name_H-M "P 2/M"
_symmetry_group_IT_number 10
_symmetry_cell_setting 'monoclinic'
loop_
_space_group_symop_operation_xyz
x,y,z
-x,y,-z
-x,-y,-z
x,-y,z
loop_
_atom_site_type_symbol
_atom_site_label
_atom_site_fract_x
_atom_site_fract_y
_atom_site_fract_z
Si Si1 0.086141 0.596668 0.375551
Si Si2 0.429703 0.167336 0.611348
Si Si3 0.289279 0.393465 0.987817
Si Si4 0.956924 0.788059 0.636902
Si Si5 0.495758 0.102450 0.705314
Si Si6 0.555738 0.104189 0.040036
Si Si7 0.106205 0.259081 0.001286
Si Si8 0.988916 0.752538 0.755708
O O1 0.027964 0.500000 0.378726
O O2 0.944953 0.691544 0.449844
O O3 0.000000 0.583596 0.500000
O O4 0.410429 0.612596 0.172168
O O5 0.500000 0.122875 0.500000
O O6 0.432570 0.106509 0.671325
O O7 0.689306 0.234176 0.452460
O O8 0.150849 0.224054 0.794840
O O9 0.227775 0.500000 0.018666
O O10 0.258926 0.337742 0.942717
O O11 0.094537 0.338977 0.157778
O O12 0.692222 0.835876 0.775841
O O13 0.196816 0.861089 0.484018
O O14 0.879518 0.756892 0.755155
O O15 0.464764 0.000000 0.747506
O O16 0.300460 0.173342 0.863694
O O17 0.560431 0.000000 0.058632
O O18 0.500000 0.099005 0.000000
O O19 0.830944 0.158425 0.882075
O O20 0.000000 0.288656 0.000000
#
# Coordination Sequence:
#
# PCOD9147646 Si02
#       8
#     4   4   4   4   4   4   4   4
#     4  10  21  36  58  86 118 160 203 244 296 358
#     4  10  20  37  62  84 119 159 199 250 303 357
#     4  11  22  38  62  89 121 157 201 255 309 360
#     4  10  19  35  61  85 121 161 194 242 297 361
#     4  10  22  39  61  90 121 160 204 249 301 360
#     4   9  17  31  53  81 115 154 190 227 281 350
#     4  10  22  41  64  85 118 160 202 255 307 358
#     4  10  20  35  56  87 122 154 196 247 299 354
#
# _framework density 20.548691000000002
#
# number of rings (size 3 to 8) (size 9 to 14) (size 15 to 20)
#    0.000    2.000    2.500    1.125    0.000    6.250 
#    0.000    3.125    0.000    6.000    0.000    0.000 
#    0.000    0.000    0.000    0.000    0.000    0.000 
#
# Total GULP energy -178300.022600 kJ/mol
# GULP energy per Si atom -5571.875706 kJ/mol
# Density = 2.050192 g / cm^3
# Si number density = 20.548691 Si / 1000 Ang^3
#
#
#
# Elastic Constant Matrix: (Units=GPa)
#
#
# Indices 1 2 3 4 5 6 
#
# 1 31.2996 19.5391 7.1678 0.0000 2.7816 0.0000
# 2 19.5391 144.2764 16.3797 0.0000 6.9279 0.0000
# 3 7.1678 16.3797 68.1137 0.0000 6.8846 0.0000
# 4 0.0000 0.0000 0.0000 22.5893 0.0000 4.4587
# 5 2.7816 6.9279 6.8846 0.0000 19.4526 0.0000
# 6 0.0000 0.0000 0.0000 4.4587 0.0000 16.3126
#
#
#
# Elastic Compliance Matrix: (Units=1/GPa)
#
#
# Indices 1 2 3 4 5 6 
#
# 1 0.035486 -0.004405 -0.002407 0.000000 -0.002654 0.000000
# 2 -0.004405 0.007749 -0.001228 0.000000 -0.001695 0.000000
# 3 -0.002407 -0.001228 0.015713 0.000000 -0.004779 0.000000
# 4 0.000000 0.000000 0.000000 0.046793 0.000000 -0.012790
# 5 -0.002654 -0.001695 -0.004779 0.000000 0.054082 0.000000
# 6 0.000000 0.000000 0.000000 -0.012790 0.000000 0.064798
#
#
# Mechanical properties :
#
#
# Convention : Reuss Voigt Hill
#
# Bulk Modulus (GPa) = 23.32792 36.65143 29.98968
# Shear Modulus (GPa) = 19.60856 25.04445 22.32651
#
# Velocity S-wave (km/s) = 3.09244 3.49490 3.29981
# Velocity P-wave (km/s) = 4.91204 5.84473 5.39856
#
# Compressibility (1/GPa) = 0.04286709
#
# Stress axis : x y z
#
# Youngs Moduli (GPa) = 28.17995 129.05592 63.64113
#
# Poissons Ratio (x) = 0.56851 0.15317
# Poissons Ratio (y) = 0.12414 0.07818
# Poissons Ratio (z) = 0.06782 0.15854
#
# Static dielectric constant tensor:
#      x y z
#    x 1.814130 0.000000 0.027730 
#    y 0.000000 1.842380 0.000000 
#    z 0.027730 0.000000 1.752130 
# 
# From -- ./inp_files/85382.got.cif
#   From: 2010.05.17/outbox.cif.g08.bks.cpg/sg10_43_cif.got.tgz:85382.got - 2010.06.03 11:33:40.
