data_PCOD9147388
_publ_section_title
;
Structure prediction by ZEFSAII (Michael W. Deem and Ramdas Pophale) SiO2 
 PCOD9147388
Probable space group: P 2/M
;
_chemical_formula_sum "Si O2"
_cell_formula_units_Z 28
_cell_length_a 16.450233
_cell_length_b 11.128305
_cell_length_c 9.942935
_cell_angle_alpha 90.000000
_cell_angle_beta 126.382171
_cell_angle_gamma 90.000000
_cell_volume 1465.392138
_symmetry_space_group_name_H-M "P 2/M"
_symmetry_group_IT_number 10
_symmetry_cell_setting 'monoclinic'
loop_
_space_group_symop_operation_xyz
x,y,z
-x,y,-z
-x,-y,-z
x,-y,z
loop_
_atom_site_type_symbol
_atom_site_label
_atom_site_fract_x
_atom_site_fract_y
_atom_site_fract_z
Si Si1 0.972656 0.293741 0.117627
Si Si2 0.594030 0.141441 0.889086
Si Si3 0.902750 0.366022 0.325843
Si Si4 0.832069 0.863574 0.628935
Si Si5 0.773944 0.141138 0.859839
Si Si6 0.544788 0.365140 0.194559
Si Si7 0.279041 0.776452 0.736540
O O1 0.933878 0.372513 0.201679
O O2 0.072107 0.223622 0.265712
O O3 0.878589 0.205017 0.998956
O O4 0.000000 0.349806 0.000000
O O5 0.679590 0.171825 0.861859
O O6 0.510763 0.247830 0.797062
O O7 0.562438 0.000000 0.841859
O O8 0.645306 0.155407 0.087653
O O9 0.881721 0.500000 0.357676
O O10 0.807264 0.283044 0.257203
O O11 0.000000 0.317045 0.500000
O O12 0.759952 0.837115 0.686437
O O13 0.774385 0.852262 0.431999
O O14 0.868867 0.000000 0.681939
O O15 0.788819 0.000000 0.894982
O O16 0.533164 0.500000 0.243676
O O17 0.659971 0.327214 0.282624
O O18 0.500000 0.373419 0.000000
#
# Coordination Sequence:
#
# PCOD9147388 Si02
#       7
#     4   4   4   4   4   4   4
#     4  10  19  35  55  78 109 146 186 224 269 329
#     4  10  20  35  59  86 112 140 184 239 285 330
#     4  11  22  36  53  77 110 146 186 231 278 328
#     4  10  20  33  53  81 115 149 181 221 277 337
#     4   9  18  34  54  80 113 148 181 222 276 333
#     4   9  20  37  58  81 109 146 187 228 281 342
#     4  11  20  35  56  82 111 144 185 228 282 328
#
# _framework density 19.107513999999998
#
# number of rings (size 3 to 8) (size 9 to 14) (size 15 to 20)
#    0.000    2.000    2.857    1.286    0.000    5.714 
#    0.000    1.429    0.000    5.143    0.000    0.000 
#    0.000    0.000    0.000    0.000    0.000    0.000 
#
# Total GULP energy -155954.517855 kJ/mol
# GULP energy per Si atom -5569.804209 kJ/mol
# Density = 1.906402 g / cm^3
# Si number density = 19.107514 Si / 1000 Ang^3
#
#
#
# Elastic Constant Matrix: (Units=GPa)
#
#
# Indices 1 2 3 4 5 6 
#
# 1 104.8689 51.8195 24.9148 0.0000 -14.5144 0.0000
# 2 51.8195 86.8826 11.0636 0.0000 0.3872 0.0000
# 3 24.9148 11.0636 43.4774 0.0000 -15.5700 0.0000
# 4 0.0000 0.0000 0.0000 10.6076 0.0000 5.2338
# 5 -14.5144 0.3872 -15.5700 0.0000 23.1274 0.0000
# 6 0.0000 0.0000 0.0000 5.2338 0.0000 32.5459
#
#
#
# Elastic Compliance Matrix: (Units=1/GPa)
#
#
# Indices 1 2 3 4 5 6 
#
# 1 0.016040 -0.009058 -0.004253 0.000000 0.007355 0.000000
# 2 -0.009058 0.017165 -0.001734 0.000000 -0.007139 0.000000
# 3 -0.004253 -0.001734 0.032854 0.000000 0.019479 0.000000
# 4 0.000000 0.000000 0.000000 0.102396 0.000000 -0.016467
# 5 0.007355 -0.007139 0.019479 0.000000 0.061088 0.000000
# 6 0.000000 0.000000 0.000000 -0.016467 0.000000 0.033374
#
#
# Mechanical properties :
#
#
# Convention : Reuss Voigt Hill
#
# Bulk Modulus (GPa) = 27.80116 45.64718 36.72417
# Shear Modulus (GPa) = 16.39365 23.08493 19.73929
#
# Velocity S-wave (km/s) = 2.93229 3.47963 3.21762
# Velocity P-wave (km/s) = 5.10351 6.33129 5.75027
#
# Compressibility (1/GPa) = 0.03596972
#
# Stress axis : x y z
#
# Youngs Moduli (GPa) = 62.34458 58.25866 30.43735
#
# Poissons Ratio (x) = 0.52770 0.12944
# Poissons Ratio (y) = 0.56471 0.05278
# Poissons Ratio (z) = 0.26514 0.10102
#
# Static dielectric constant tensor:
#      x y z
#    x 1.680380 0.000000 -0.015420 
#    y 0.000000 1.701110 0.000000 
#    z -0.015420 0.000000 1.672540 
# 
# From -- ./inp_files/28663.got.cif
#   From: 2010.05.17/outbox.cif.g08.bks.cpg/sg10_15_cif.got.tgz:28663.got - 2010.06.03 11:33:40.
