data_PCOD9147703
_publ_section_title
;
Structure prediction by ZEFSAII (Michael W. Deem and Ramdas Pophale) SiO2 
 PCOD9147703
Probable space group: P 2/M
;
_chemical_formula_sum "Si O2"
_cell_formula_units_Z 18
_cell_length_a 5.179829
_cell_length_b 13.536952
_cell_length_c 14.781465
_cell_angle_alpha 90.000000
_cell_angle_beta 89.243039
_cell_angle_gamma 90.000000
_cell_volume 1036.372519
_symmetry_space_group_name_H-M "P 2/M"
_symmetry_group_IT_number 10
_symmetry_cell_setting 'monoclinic'
loop_
_space_group_symop_operation_xyz
x,y,z
-x,y,-z
-x,-y,-z
x,-y,z
loop_
_atom_site_type_symbol
_atom_site_label
_atom_site_fract_x
_atom_site_fract_y
_atom_site_fract_z
Si Si1 0.127162 0.611090 0.899506
Si Si2 0.500000 0.742269 0.000000
Si Si3 0.848056 0.796421 0.848931
Si Si4 0.345865 0.117425 0.760032
Si Si5 0.245614 0.120139 0.555286
O O1 0.166774 0.500000 0.865576
O O2 0.385500 0.671702 0.922224
O O3 0.947604 0.683001 0.841619
O O4 0.000000 0.603797 0.000000
O O5 0.724268 0.803821 0.950283
O O6 0.612662 0.830098 0.786592
O O7 0.105816 0.858412 0.827022
O O8 0.259672 0.149637 0.659854
O O9 0.393328 0.000000 0.759517
O O10 0.500000 0.149736 0.500000
O O11 0.000000 0.155240 0.500000
O O12 0.236789 0.000000 0.556032
#
# Coordination Sequence:
#
# PCOD9147703 Si02
#       5
#     4   2   4   4   4
#     4   9  18  33  57  78 100 132 171 223 282 314
#     4  10  19  36  55  72 110 138 177 222 265 304
#     4  11  21  36  52  77 107 140 181 218 255 304
#     4  11  22  36  53  75 109 147 175 211 257 300
#     4   9  17  31  52  76  99 128 168 213 263 313
#
# _framework density 17.368272999999999
#
# number of rings (size 3 to 8) (size 9 to 14) (size 15 to 20)
#    0.000    2.000    2.222    2.333    0.000    4.444 
#    0.000    3.333    0.000    0.000    0.000    0.000 
#    0.000   17.778    0.000    0.000    0.000    0.000 
#
# Total GULP energy -100264.313818 kJ/mol
# GULP energy per Si atom -5570.239657 kJ/mol
# Density = 1.732874 g / cm^3
# Si number density = 17.368273 Si / 1000 Ang^3
#
#
#
# Elastic Constant Matrix: (Units=GPa)
#
#
# Indices 1 2 3 4 5 6 
#
# 1 132.3612 36.1896 44.5571 0.0000 24.6584 0.0000
# 2 36.1896 66.3402 46.8167 0.0000 17.9081 0.0000
# 3 44.5571 46.8167 67.4564 0.0000 16.3297 0.0000
# 4 0.0000 0.0000 0.0000 -5.3623 0.0000 6.3831
# 5 24.6584 17.9081 16.3297 0.0000 34.0275 0.0000
# 6 0.0000 0.0000 0.0000 6.3831 0.0000 14.4193
#
#
#
# Elastic Compliance Matrix: (Units=1/GPa)
#
#
# Indices 1 2 3 4 5 6 
#
# 1 0.010376 -0.000715 -0.005237 0.000000 -0.004630 0.000000
# 2 -0.000715 0.030903 -0.019420 0.000000 -0.006426 0.000000
# 3 -0.005237 -0.019420 0.032098 0.000000 -0.001388 0.000000
# 4 0.000000 0.000000 0.000000 -0.122130 0.000000 0.054064
# 5 -0.004630 -0.006426 -0.001388 0.000000 0.036791 0.000000
# 6 0.000000 0.000000 0.000000 0.054064 0.000000 0.045418
#
#
# Mechanical properties :
#
#
# Convention : Reuss Voigt Hill
#
# Bulk Modulus (GPa) = 44.18205 57.92051 51.05128
# Shear Modulus (GPa) = 54.49941 17.85652 36.17796
#
# Velocity S-wave (km/s) = 5.60775 3.20990 4.56893
# Velocity P-wave (km/s) = 8.21113 6.86722 7.56906
#
# Compressibility (1/GPa) = 0.02263363
#
# Stress axis : x y z
#
# Youngs Moduli (GPa) = 96.37735 32.35897 31.15504
#
# Poissons Ratio (x) = 0.02313 0.16315
# Poissons Ratio (y) = 0.06890 0.60503
# Poissons Ratio (z) = 0.50470 0.62841
#
# Static dielectric constant tensor:
#      x y z
#    x 1.633690 0.000000 0.009900 
#    y 0.000000 1.601480 0.000000 
#    z 0.009900 0.000000 1.603860 
# 
# From -- ./inp_files/58789.got.cif
#   From: 2010.05.17/outbox.cif.g08.bks.cpg/sg10_30_cif.got.tgz:58789.got - 2010.06.03 11:33:40.
