data_PCOD9147847
_publ_section_title
;
Structure prediction by ZEFSAII (Michael W. Deem and Ramdas Pophale) SiO2 
 PCOD9147847
Probable space group: P 2/M
;
_chemical_formula_sum "Si O2"
_cell_formula_units_Z 20
_cell_length_a 18.084631
_cell_length_b 10.407173
_cell_length_c 12.639935
_cell_angle_alpha 90.000000
_cell_angle_beta 23.397329
_cell_angle_gamma 90.000000
_cell_volume 944.697440
_symmetry_space_group_name_H-M "P 2/M"
_symmetry_group_IT_number 10
_symmetry_cell_setting 'monoclinic'
loop_
_space_group_symop_operation_xyz
x,y,z
-x,y,-z
-x,-y,-z
x,-y,z
loop_
_atom_site_type_symbol
_atom_site_label
_atom_site_fract_x
_atom_site_fract_y
_atom_site_fract_z
Si Si1 0.920499 0.148092 0.866872
Si Si2 0.106255 0.355980 0.471888
Si Si3 0.532241 0.724610 0.346201
Si Si4 0.509637 0.356874 0.145842
Si Si5 0.747802 0.849740 0.431428
O O1 0.020361 0.246623 0.656850
O O2 0.034411 0.164114 0.827564
O O3 0.948288 0.000000 0.798820
O O4 0.702855 0.180204 0.146393
O O5 0.080326 0.500000 0.550908
O O6 0.321900 0.338459 0.156063
O O7 0.000000 0.352709 0.500000
O O8 0.500000 0.654288 0.500000
O O9 0.582130 0.648062 0.173505
O O10 0.344330 0.797996 0.555534
O O11 0.430575 0.500000 0.234086
O O12 0.362819 0.241066 0.339726
O O13 0.701789 0.000000 0.502500
#
# Coordination Sequence:
#
# PCOD9147847 Si02
#       5
#     4   4   4   4   4
#     4  11  23  38  61  91 119 156 196 238 297 351
#     4  10  19  36  61  88 120 156 195 240 289 349
#     4  10  22  40  63  84 118 155 198 246 296 341
#     4   9  20  39  60  85 118 155 194 237 292 348
#     4   9  21  39  58  88 122 151 195 245 289 348
#
# _framework density 21.1708
#
# number of rings (size 3 to 8) (size 9 to 14) (size 15 to 20)
#    1.200    1.000    2.000    0.600    0.000    5.600 
#    0.000    6.000    0.000    1.200    0.000    0.000 
#    0.000    0.000    0.000    0.000    0.000    0.000 
#
# Total GULP energy -111388.103025 kJ/mol
# GULP energy per Si atom -5569.405151 kJ/mol
# Density = 2.112261 g / cm^3
# Si number density = 21.170800 Si / 1000 Ang^3
#
#
#
# Elastic Constant Matrix: (Units=GPa)
#
#
# Indices 1 2 3 4 5 6 
#
# 1 123.3139 42.6739 37.6048 0.0000 -13.5854 0.0000
# 2 42.6739 104.1446 34.3566 0.0000 1.1730 0.0000
# 3 37.6048 34.3566 70.0717 0.0000 -14.0501 0.0000
# 4 0.0000 0.0000 0.0000 1.5787 0.0000 -9.4977
# 5 -13.5854 1.1730 -14.0501 0.0000 45.2168 0.0000
# 6 0.0000 0.0000 0.0000 -9.4977 0.0000 7.1019
#
#
#
# Elastic Compliance Matrix: (Units=1/GPa)
#
#
# Indices 1 2 3 4 5 6 
#
# 1 0.010553 -0.003124 -0.003711 0.000000 0.002099 0.000000
# 2 -0.003124 0.012584 -0.005063 0.000000 -0.002838 0.000000
# 3 -0.003711 -0.005063 0.019780 0.000000 0.005163 0.000000
# 4 0.000000 0.000000 0.000000 -0.089905 0.000000 -0.120233
# 5 0.002099 -0.002838 0.005163 0.000000 0.024424 0.000000
# 6 0.000000 0.000000 0.000000 -0.120233 0.000000 -0.019985
#
#
# Mechanical properties :
#
#
# Convention : Reuss Voigt Hill
#
# Bulk Modulus (GPa) = 52.29488 58.53343 55.41415
# Shear Modulus (GPa) = -403.90741 22.97249 -190.46746
#
# Velocity S-wave (km/s) = -13.82748 3.29766 -9.49539
# Velocity P-wave (km/s) = 15.17160 6.49674 9.69458
#
# Compressibility (1/GPa) = 0.01912233
#
# Stress axis : x y z
#
# Youngs Moduli (GPa) = 94.75728 79.46539 50.55552
#
# Poissons Ratio (x) = 0.24822 0.18762
# Poissons Ratio (y) = 0.29598 0.25595
# Poissons Ratio (z) = 0.35167 0.40232
#
# Static dielectric constant tensor:
#      x y z
#    x 1.824930 0.000000 -0.040940 
#    y 0.000000 1.705380 0.000000 
#    z -0.040940 0.000000 1.766870 
# 
# From -- ./inp_files/50966.got.cif
#   From: 2010.05.17/outbox.cif.g08.bks.cpg/sg10_26_cif.got.tgz:50966.got - 2010.06.03 11:33:40.
