data_PCOD9147170
_publ_section_title
;
Structure prediction by ZEFSAII (Michael W. Deem and Ramdas Pophale) SiO2 
 PCOD9147170
Probable space group: P 2/M
;
_chemical_formula_sum "Si O2"
_cell_formula_units_Z 32
_cell_length_a 18.999590
_cell_length_b 12.380739
_cell_length_c 15.408221
_cell_angle_alpha 90.000000
_cell_angle_beta 154.141717
_cell_angle_gamma 90.000000
_cell_volume 1580.796235
_symmetry_space_group_name_H-M "P 2/M"
_symmetry_group_IT_number 10
_symmetry_cell_setting 'monoclinic'
loop_
_space_group_symop_operation_xyz
x,y,z
-x,y,-z
-x,-y,-z
x,-y,z
loop_
_atom_site_type_symbol
_atom_site_label
_atom_site_fract_x
_atom_site_fract_y
_atom_site_fract_z
Si Si1 0.410753 0.625238 0.309063
Si Si2 0.846813 0.785343 0.062485
Si Si3 0.685443 0.701787 0.490329
Si Si4 0.096807 0.618248 0.415518
Si Si5 0.382895 0.883804 0.724024
Si Si6 0.086737 0.877981 0.188153
Si Si7 0.244390 0.118396 0.861396
Si Si8 0.696701 0.737467 0.219230
O O1 0.500000 0.647874 0.500000
O O2 0.352899 0.500000 0.247199
O O3 0.547814 0.639465 0.388028
O O4 0.273137 0.711072 0.128409
O O5 0.764448 0.856794 0.045917
O O6 0.962584 0.706875 0.246401
O O7 0.958870 0.855908 0.123386
O O8 0.792651 0.625574 0.548503
O O9 0.620877 0.791643 0.351796
O O10 0.790558 0.777629 0.670226
O O11 0.025235 0.500000 0.345371
O O12 0.208216 0.646423 0.621819
O O13 0.285867 0.841661 0.698522
O O14 0.323346 0.000000 0.628486
O O15 0.567919 0.893272 0.955320
O O16 0.154724 0.000000 0.270893
O O17 0.000000 0.872759 0.000000
O O18 0.212445 0.225065 0.767645
O O19 0.166969 0.000000 0.758625
O O20 0.500000 0.713473 0.000000
#
# Coordination Sequence:
#
# PCOD9147170 Si02
#       8
#     4   4   4   4   4   4   4   4
#     4  11  23  39  60  86 115 149 194 249 303 348
#     4  11  22  39  59  85 120 152 191 241 296 350
#     4  10  19  36  58  83 110 146 196 239 283 342
#     4  10  22  39  59  81 112 156 200 240 285 340
#     4   9  16  30  55  83 112 145 182 226 276 333
#     4  10  21  37  57  83 117 154 190 233 290 356
#     4  10  19  34  57  84 117 150 185 228 283 345
#     4   9  19  35  56  85 117 149 190 237 279 336
#
# _framework density 20.242964000000001
#
# number of rings (size 3 to 8) (size 9 to 14) (size 15 to 20)
#    0.000    2.000    1.250    2.625    0.000    2.250 
#    0.000    4.375    0.000    9.000    0.000    0.000 
#    0.000    0.000    0.000    0.000    0.000    0.000 
#
# Total GULP energy -178245.363383 kJ/mol
# GULP energy per Si atom -5570.167606 kJ/mol
# Density = 2.019689 g / cm^3
# Si number density = 20.242964 Si / 1000 Ang^3
#
#
#
# Elastic Constant Matrix: (Units=GPa)
#
#
# Indices 1 2 3 4 5 6 
#
# 1 47.2310 1.4305 -12.0446 0.0000 -12.0930 0.0000
# 2 1.4305 69.9188 5.7920 0.0000 -9.6618 0.0000
# 3 -12.0446 5.7920 53.5124 0.0000 -18.4639 0.0000
# 4 0.0000 0.0000 0.0000 24.4271 0.0000 -15.4266
# 5 -12.0930 -9.6618 -18.4639 0.0000 29.8634 0.0000
# 6 0.0000 0.0000 0.0000 -15.4266 0.0000 14.0611
#
#
#
# Elastic Compliance Matrix: (Units=1/GPa)
#
#
# Indices 1 2 3 4 5 6 
#
# 1 0.030136 0.001158 0.013980 0.000000 0.021222 0.000000
# 2 0.001158 0.015016 0.000602 0.000000 0.005699 0.000000
# 3 0.013980 0.000602 0.030240 0.000000 0.024553 0.000000
# 4 0.000000 0.000000 0.000000 0.133291 0.000000 0.146235
# 5 0.021222 0.005699 0.024553 0.000000 0.059104 0.000000
# 6 0.000000 0.000000 0.000000 0.146235 0.000000 0.231554
#
#
# Mechanical properties :
#
#
# Convention : Reuss Voigt Hill
#
# Bulk Modulus (GPa) = 9.35695 17.89089 13.62392
# Shear Modulus (GPa) = 9.93077 25.36930 17.65003
#
# Velocity S-wave (km/s) = 2.21730 3.54395 2.95601
# Velocity P-wave (km/s) = 3.34479 5.05998 4.28900
#
# Compressibility (1/GPa) = 0.10687240
#
# Stress axis : x y z
#
# Youngs Moduli (GPa) = 33.18268 66.59425 33.06824
#
# Poissons Ratio (x) = -0.07711 -0.46230
# Poissons Ratio (y) = -0.03842 -0.01990
# Poissons Ratio (z) = -0.46390 -0.04007
#
# Static dielectric constant tensor:
#      x y z
#    x 1.718750 0.000000 -0.024020 
#    y 0.000000 1.774720 0.000000 
#    z -0.024020 0.000000 1.772390 
# 
# From -- ./inp_files/28609.got.cif
#   From: 2010.05.17/outbox.cif.g08.bks.cpg/sg10_15_cif.got.tgz:28609.got - 2010.06.03 11:33:40.
