data_PCOD9147870
_publ_section_title
;
Structure prediction by ZEFSAII (Michael W. Deem and Ramdas Pophale) SiO2 
 PCOD9147870
Probable space group: P 2/M
;
_chemical_formula_sum "Si O2"
_cell_formula_units_Z 32
_cell_length_a 21.009438
_cell_length_b 7.553508
_cell_length_c 27.370808
_cell_angle_alpha 90.000000
_cell_angle_beta 19.229290
_cell_angle_gamma 90.000000
_cell_volume 1430.564986
_symmetry_space_group_name_H-M "P 2/M"
_symmetry_group_IT_number 10
_symmetry_cell_setting 'monoclinic'
loop_
_space_group_symop_operation_xyz
x,y,z
-x,y,-z
-x,-y,-z
x,-y,z
loop_
_atom_site_type_symbol
_atom_site_label
_atom_site_fract_x
_atom_site_fract_y
_atom_site_fract_z
Si Si1 0.167641 0.205820 0.517886
Si Si2 0.933474 0.783118 0.778962
Si Si3 0.669846 0.785856 0.340343
Si Si4 0.906199 0.708151 0.617733
Si Si5 0.515235 0.213589 0.045169
Si Si6 0.418338 0.797230 0.802821
Si Si7 0.954488 0.216855 0.873754
Si Si8 0.778965 0.292368 0.153862
O O1 0.369315 0.285662 0.353413
O O2 0.077864 0.281658 0.632404
O O3 0.006611 0.211284 0.592649
O O4 0.210965 0.000000 0.497465
O O5 0.989663 0.730264 0.792636
O O6 0.933477 0.000000 0.777592
O O7 0.715759 0.726785 0.923543
O O8 0.500000 0.726533 0.500000
O O9 0.666269 0.729528 0.286575
O O10 0.874000 0.726204 0.214997
O O11 0.665469 0.000000 0.343394
O O12 0.948563 0.500000 0.589387
O O13 0.676956 0.733887 0.786752
O O14 0.000000 0.779419 0.500000
O O15 0.519129 0.000000 0.041163
O O16 0.500000 0.275693 0.000000
O O17 0.329595 0.796144 0.812660
O O18 0.442279 0.000000 0.802870
O O19 0.252743 0.718481 0.957144
O O20 0.952949 0.000000 0.876519
O O21 0.791816 0.500000 0.132713
O O22 0.000000 0.224968 0.000000
#
# Coordination Sequence:
#
# PCOD9147870 Si02
#       8
#     4   4   4   4   4   4   4   4
#     4  10  21  38  61  88 115 147 191 241 291 344
#     4   9  18  33  55  85 118 144 179 237 296 347
#     4  10  21  36  60  89 116 150 195 246 298 342
#     4  11  25  41  57  82 120 160 196 237 286 341
#     4  10  19  36  62  88 112 146 192 242 293 339
#     4  10  21  36  60  88 114 148 192 241 291 341
#     4   9  18  33  53  84 118 145 182 237 292 343
#     4  11  23  39  59  82 115 159 197 235 288 345
#
# _framework density 22.368784999999999
#
# number of rings (size 3 to 8) (size 9 to 14) (size 15 to 20)
#    0.000    2.000    2.500    0.750    3.500    2.500 
#    0.000    0.000    0.000    1.500    0.000    0.000 
#    0.000    0.000    0.000    0.000    0.000    0.000 
#
# Total GULP energy -178857.214325 kJ/mol
# GULP energy per Si atom -5589.287948 kJ/mol
# Density = 2.231787 g / cm^3
# Si number density = 22.368785 Si / 1000 Ang^3
#
#
#
# Elastic Constant Matrix: (Units=GPa)
#
#
# Indices 1 2 3 4 5 6 
#
# 1 41.2055 -5.0526 -8.5497 0.0000 26.8137 0.0000
# 2 -5.0526 55.1184 3.3112 0.0000 -1.3819 0.0000
# 3 -8.5497 3.3112 123.4948 0.0000 22.6598 0.0000
# 4 0.0000 0.0000 0.0000 -8.8215 0.0000 45.6004
# 5 26.8137 -1.3819 22.6598 0.0000 43.4431 0.0000
# 6 0.0000 0.0000 0.0000 45.6004 0.0000 -48.6826
#
#
#
# Elastic Compliance Matrix: (Units=1/GPa)
#
#
# Indices 1 2 3 4 5 6 
#
# 1 0.050253 0.003098 0.010029 0.000000 -0.036149 0.000000
# 2 0.003098 0.018396 -0.000039 0.000000 -0.001306 0.000000
# 3 0.010029 -0.000039 0.010980 0.000000 -0.011918 0.000000
# 4 0.000000 0.000000 0.000000 0.029506 0.000000 0.027638
# 5 -0.036149 -0.001306 -0.011918 0.000000 0.051506 0.000000
# 6 0.000000 0.000000 0.000000 0.027638 0.000000 0.005347
#
#
# Mechanical properties :
#
#
# Convention : Reuss Voigt Hill
#
# Bulk Modulus (GPa) = 9.45139 22.13739 15.79439
# Shear Modulus (GPa) = 28.55845 12.52843 20.54344
#
# Velocity S-wave (km/s) = 3.57698 2.36918 3.03380
# Velocity P-wave (km/s) = 4.61456 4.17158 4.39865
#
# Compressibility (1/GPa) = 0.10580452
#
# Stress axis : x y z
#
# Youngs Moduli (GPa) = 19.89931 54.35865 91.07692
#
# Poissons Ratio (x) = -0.16839 -0.91341
# Poissons Ratio (y) = -0.06164 0.00356
# Poissons Ratio (z) = -0.19957 0.00212
#
# Static dielectric constant tensor:
#      x y z
#    x 1.763520 0.000000 0.009980 
#    y 0.000000 1.855230 0.000000 
#    z 0.009980 0.000000 1.819250 
# 
# From -- ./inp_files/93584.got.cif
#   From: 2010.05.17/outbox.cif.g08.bks.cpg/sg10_47_cif.got.tgz:93584.got - 2010.06.03 11:33:40.
