data_PCOD9147424
_publ_section_title
;
Structure prediction by ZEFSAII (Michael W. Deem and Ramdas Pophale) SiO2 
 PCOD9147424
Probable space group: P 2/M
;
_chemical_formula_sum "Si O2"
_cell_formula_units_Z 28
_cell_length_a 12.746234
_cell_length_b 22.090855
_cell_length_c 5.257418
_cell_angle_alpha 90.000000
_cell_angle_beta 76.493905
_cell_angle_gamma 90.000000
_cell_volume 1439.419367
_symmetry_space_group_name_H-M "P 2/M"
_symmetry_group_IT_number 10
_symmetry_cell_setting 'monoclinic'
loop_
_space_group_symop_operation_xyz
x,y,z
-x,y,-z
-x,-y,-z
x,-y,z
loop_
_atom_site_type_symbol
_atom_site_label
_atom_site_fract_x
_atom_site_fract_y
_atom_site_fract_z
Si Si1 0.211067 0.631915 0.964932
Si Si2 0.114293 0.240182 0.072416
Si Si3 0.442448 0.222791 0.281816
Si Si4 0.536610 0.358938 0.228227
Si Si5 0.875448 0.571311 0.501799
Si Si6 0.797335 0.815126 0.474751
Si Si7 0.927154 0.069471 0.287660
O O1 0.142983 0.690002 0.090776
O O2 0.335646 0.650966 0.854086
O O3 0.164888 0.606960 0.724747
O O4 0.195707 0.586082 0.208486
O O5 0.193334 0.216789 0.805163
O O6 0.125518 0.207832 0.338465
O O7 0.000000 0.232499 0.000000
O O8 0.500000 0.199140 0.500000
O O9 0.466203 0.295774 0.268418
O O10 0.319521 0.203206 0.356229
O O11 0.500000 0.198907 0.000000
O O12 0.500000 0.392273 0.500000
O O13 0.500000 0.393174 0.000000
O O14 0.871490 0.500000 0.446721
O O15 0.000000 0.586566 0.500000
O O16 0.830677 0.883897 0.394015
O O17 0.000000 0.070580 0.500000
O O18 0.891898 0.000000 0.264597
O O19 0.000000 0.087228 0.000000
#
# Coordination Sequence:
#
# PCOD9147424 Si02
#       7
#     4   4   4   4   4   4   4
#     4  12  23  39  62  88 119 154 196 243 298 360
#     4  12  23  34  54  89 126 153 183 236 307 370
#     4  10  20  35  53  78 110 148 196 238 285 346
#     4  10  19  35  56  81 110 147 191 234 286 346
#     4  11  24  43  65  88 117 156 200 242 289 353
#     4  12  22  37  58  84 121 159 198 244 298 356
#     4  10  21  38  60  86 119 162 208 246 288 350
#
# _framework density 19.452287999999999
#
# number of rings (size 3 to 8) (size 9 to 14) (size 15 to 20)
#    0.000    1.000    0.000   10.286    0.000    1.143 
#    0.000    0.000    0.000    9.429    0.000    0.000 
#    0.000    0.000    0.000    0.000    0.000    0.000 
#
# Total GULP energy -156320.735823 kJ/mol
# GULP energy per Si atom -5582.883422 kJ/mol
# Density = 1.940801 g / cm^3
# Si number density = 19.452288 Si / 1000 Ang^3
#
#
#
# Elastic Constant Matrix: (Units=GPa)
#
#
# Indices 1 2 3 4 5 6 
#
# 1 88.9958 25.0178 27.3803 0.0000 -2.5195 0.0000
# 2 25.0178 64.5746 14.6900 0.0000 -2.4155 0.0000
# 3 27.3803 14.6900 135.1656 0.0000 11.8605 0.0000
# 4 0.0000 0.0000 0.0000 27.1220 0.0000 -7.3208
# 5 -2.5195 -2.4155 11.8605 0.0000 44.3071 0.0000
# 6 0.0000 0.0000 0.0000 -7.3208 0.0000 -8.5737
#
#
#
# Elastic Compliance Matrix: (Units=1/GPa)
#
#
# Indices 1 2 3 4 5 6 
#
# 1 0.013257 -0.004574 -0.002286 0.000000 0.001117 0.000000
# 2 -0.004574 0.017537 -0.001065 0.000000 0.000981 0.000000
# 3 -0.002286 -0.001065 0.008186 0.000000 -0.002379 0.000000
# 4 0.000000 0.000000 0.000000 0.029964 0.000000 -0.025586
# 5 0.001117 0.000981 -0.002379 0.000000 0.023324 0.000000
# 6 0.000000 0.000000 0.000000 -0.025586 0.000000 -0.094789
#
#
# Mechanical properties :
#
#
# Convention : Reuss Voigt Hill
#
# Bulk Modulus (GPa) = 43.23690 46.99024 45.11357
# Shear Modulus (GPa) = 237.62992 27.34762 132.48877
#
# Velocity S-wave (km/s) = 11.06461 3.75358 8.26181
# Velocity P-wave (km/s) = 13.62019 6.55705 10.68888
#
# Compressibility (1/GPa) = 0.02312839
#
# Stress axis : x y z
#
# Youngs Moduli (GPa) = 75.42940 57.02143 122.15893
#
# Poissons Ratio (x) = 0.26084 0.27930
# Poissons Ratio (y) = 0.34504 0.13015
# Poissons Ratio (z) = 0.17246 0.06075
#
# Static dielectric constant tensor:
#      x y z
#    x 1.744670 0.000000 0.007310 
#    y 0.000000 1.685720 0.000000 
#    z 0.007310 0.000000 1.737960 
# 
# From -- ./inp_files/7703.got.cif
#   From: 2010.05.17/outbox.cif.g08.bks.cpg/sg10_4_cif.got.tgz:7703.got - 2010.06.03 11:33:40.
