data_PCOD9147964
_publ_section_title
;
Structure prediction by ZEFSAII (Michael W. Deem and Ramdas Pophale) SiO2 
 PCOD9147964
Probable space group: P 2/M
;
_chemical_formula_sum "Si O2"
_cell_formula_units_Z 28
_cell_length_a 18.325057
_cell_length_b 9.462883
_cell_length_c 12.924986
_cell_angle_alpha 90.000000
_cell_angle_beta 38.286095
_cell_angle_gamma 90.000000
_cell_volume 1388.680301
_symmetry_space_group_name_H-M "P 2/M"
_symmetry_group_IT_number 10
_symmetry_cell_setting 'monoclinic'
loop_
_space_group_symop_operation_xyz
x,y,z
-x,y,-z
-x,-y,-z
x,-y,z
loop_
_atom_site_type_symbol
_atom_site_label
_atom_site_fract_x
_atom_site_fract_y
_atom_site_fract_z
Si Si1 0.631898 0.339655 0.615988
Si Si2 0.574072 0.661639 0.312691
Si Si3 0.807185 0.166161 0.057713
Si Si4 0.999155 0.658762 0.758320
Si Si5 0.871120 0.332880 0.593918
Si Si6 0.362857 0.169364 0.183272
Si Si7 0.840816 0.340689 0.221559
O O1 0.647868 0.500000 0.640845
O O2 0.507435 0.330966 0.697103
O O3 0.645335 0.225512 0.689977
O O4 0.723861 0.323753 0.420111
O O5 0.500000 0.689111 0.500000
O O6 0.618397 0.500000 0.273156
O O7 0.678608 0.770462 0.185681
O O8 0.844564 0.226088 0.128444
O O9 0.809638 0.000000 0.053295
O O10 0.894601 0.230550 0.875096
O O11 0.952969 0.500000 0.792980
O O12 0.098463 0.681689 0.561926
O O13 0.058141 0.666272 0.805215
O O14 0.852999 0.500000 0.637834
O O15 0.749367 0.246612 0.748653
O O16 0.000000 0.292572 0.500000
O O17 0.348887 0.000000 0.190279
O O18 0.500000 0.203908 0.000000
O O19 0.841761 0.500000 0.175754
#
# Coordination Sequence:
#
# PCOD9147964 Si02
#       7
#     4   4   4   4   4   4   4
#     4  10  20  38  66  92 113 151 206 254 296 350
#     4  10  20  38  61  83 115 158 203 250 300 354
#     4  12  25  36  53  87 128 164 202 245 294 363
#     4  10  21  39  62  87 118 156 201 253 307 358
#     4  10  22  43  71  98 122 157 214 273 316 364
#     4  11  25  43  64  94 133 169 201 248 319 392
#     4  10  19  37  62  86 115 154 201 249 296 350
#
# _framework density 20.163027
#
# number of rings (size 3 to 8) (size 9 to 14) (size 15 to 20)
#    0.000    1.571    2.857    2.143    0.000    6.857 
#    0.000    4.286    0.000    0.000    0.000    0.000 
#    0.000    0.000    0.000    0.000    0.000    0.000 
#
# Total GULP energy -156284.753853 kJ/mol
# GULP energy per Si atom -5581.598352 kJ/mol
# Density = 2.011714 g / cm^3
# Si number density = 20.163027 Si / 1000 Ang^3
#
#
#
# Elastic Constant Matrix: (Units=GPa)
#
#
# Indices 1 2 3 4 5 6 
#
# 1 70.6182 28.7041 27.0299 0.0000 -27.3494 0.0000
# 2 28.7041 122.3643 75.2317 0.0000 -26.6680 0.0000
# 3 27.0299 75.2317 103.6687 0.0000 -27.0614 0.0000
# 4 0.0000 0.0000 0.0000 -145.4595 0.0000 68.9010
# 5 -27.3494 -26.6680 -27.0614 0.0000 20.6202 0.0000
# 6 0.0000 0.0000 0.0000 68.9010 0.0000 -18.6241
#
#
#
# Elastic Compliance Matrix: (Units=1/GPa)
#
#
# Indices 1 2 3 4 5 6 
#
# 1 0.030158 0.000675 0.003523 0.000000 0.045496 0.000000
# 2 0.000675 0.015610 -0.009127 0.000000 0.009105 0.000000
# 3 0.003523 -0.009127 0.020519 0.000000 0.019797 0.000000
# 4 0.000000 0.000000 0.000000 0.009137 0.000000 0.033803
# 5 0.045496 0.009105 0.019797 0.000000 0.146596 0.000000
# 6 0.000000 0.000000 0.000000 0.033803 0.000000 0.071363
#
#
# Mechanical properties :
#
#
# Convention : Reuss Voigt Hill
#
# Bulk Modulus (GPa) = 17.72159 62.06474 39.89316
# Shear Modulus (GPa) = 15.52550 -17.64698 -1.06074
#
# Velocity S-wave (km/s) = 2.77790 -2.96161 -0.72610
# Velocity P-wave (km/s) = 4.37003 4.37646 4.37325
#
# Compressibility (1/GPa) = 0.05642834
#
# Stress axis : x y z
#
# Youngs Moduli (GPa) = 33.15904 64.06169 48.73549
#
# Poissons Ratio (x) = -0.04323 -0.17171
# Poissons Ratio (y) = -0.02238 0.44482
# Poissons Ratio (z) = -0.11683 0.58471
#
# Static dielectric constant tensor:
#      x y z
#    x 1.776060 0.000000 -0.033140 
#    y 0.000000 1.673580 0.000000 
#    z -0.033140 0.000000 1.741810 
# 
# From -- ./inp_files/70176.got.cif
#   From: 2010.05.17/outbox.cif.g08.bks.cpg/sg10_36_cif.got.tgz:70176.got - 2010.06.03 11:33:40.
