data_PCOD9147065
_publ_section_title
;
Structure prediction by ZEFSAII (Michael W. Deem and Ramdas Pophale) SiO2 
 PCOD9147065
Probable space group: P 2/M
;
_chemical_formula_sum "Si O2"
_cell_formula_units_Z 24
_cell_length_a 25.530080
_cell_length_b 10.671306
_cell_length_c 28.472758
_cell_angle_alpha 90.000000
_cell_angle_beta 9.096740
_cell_angle_gamma 90.000000
_cell_volume 1226.411841
_symmetry_space_group_name_H-M "P 2/M"
_symmetry_group_IT_number 10
_symmetry_cell_setting 'monoclinic'
loop_
_space_group_symop_operation_xyz
x,y,z
-x,y,-z
-x,-y,-z
x,-y,z
loop_
_atom_site_type_symbol
_atom_site_label
_atom_site_fract_x
_atom_site_fract_y
_atom_site_fract_z
Si Si1 0.544603 0.650292 0.601235
Si Si2 0.079883 0.146211 0.667809
Si Si3 0.215910 0.648591 0.717539
Si Si4 0.598944 0.500000 0.857916
Si Si5 0.689032 0.749744 0.739647
Si Si6 0.400088 0.000000 0.142212
Si Si7 0.287216 0.855397 0.377820
O O1 0.569086 0.500000 0.592550
O O2 0.740932 0.746348 0.460617
O O3 0.681561 0.662527 0.427236
O O4 0.159639 0.690943 0.942369
O O5 0.158110 0.172105 0.543909
O O6 0.182864 0.000000 0.586026
O O7 0.687423 0.152687 0.024474
O O8 0.500000 0.702901 0.500000
O O9 0.200425 0.500000 0.741731
O O10 0.491680 0.624488 0.925702
O O11 0.000000 0.500000 0.500000
O O12 0.500000 0.500000 0.000000
O O13 0.811968 0.766826 0.577854
O O14 0.000000 0.748855 0.500000
O O15 0.488909 0.874380 0.930463
O O16 0.000000 0.000000 0.500000
O O17 0.500000 0.000000 0.000000
O O18 0.200216 0.000000 0.442330
#
# Coordination Sequence:
#
# PCOD9147065 Si02
#       7
#     4   4   4   2   4   2   4
#     4  10  19  34  56  83 112 146 188 228 261 314
#     4  10  22  39  57  76 109 149 185 223 273 322
#     4   9  17  30  54  87 119 147 179 224 274 314
#     4  10  22  38  54  76 108 138 164 198 263 344
#     4  10  21  39  58  82 107 137 172 222 281 340
#     4  10  20  32  54  80 100 128 166 210 259 320
#     4  10  21  38  57  81 104 136 184 231 271 328
#
# _framework density 19.569282999999999
#
# number of rings (size 3 to 8) (size 9 to 14) (size 15 to 20)
#    0.000    2.167    0.833    2.000    0.000    7.333 
#    3.000    0.000    0.000    3.000    0.000    0.000 
#    0.000    0.000    0.000    0.000    0.000    0.000 
#
# Total GULP energy -133979.415001 kJ/mol
# GULP energy per Si atom -5582.475625 kJ/mol
# Density = 1.952474 g / cm^3
# Si number density = 19.569283 Si / 1000 Ang^3
#
#
#
# Elastic Constant Matrix: (Units=GPa)
#
#
# Indices 1 2 3 4 5 6 
#
# 1 -28.5473 -13.5677 -90.5633 0.0000 17.6466 0.0000
# 2 -13.5677 91.7614 -54.5763 0.0000 12.3962 0.0000
# 3 -90.5633 -54.5763 -53.1054 0.0000 52.6403 0.0000
# 4 0.0000 0.0000 0.0000 12.0474 0.0000 -3.4330
# 5 17.6466 12.3962 52.6403 0.0000 15.3702 0.0000
# 6 0.0000 0.0000 0.0000 -3.4330 0.0000 26.8115
#
#
#
# Elastic Compliance Matrix: (Units=1/GPa)
#
#
# Indices 1 2 3 4 5 6 
#
# 1 0.025728 -0.007370 -0.013582 0.000000 0.022920 0.000000
# 2 -0.007370 0.010301 0.000486 0.000000 -0.001510 0.000000
# 3 -0.013582 0.000486 0.004301 0.000000 0.000473 0.000000
# 4 0.000000 0.000000 0.000000 0.086149 0.000000 0.011031
# 5 0.022920 -0.001510 0.000473 0.000000 0.038344 0.000000
# 6 0.000000 0.000000 0.000000 0.011031 0.000000 0.038710
#
#
# Mechanical properties :
#
#
# Convention : Reuss Voigt Hill
#
# Bulk Modulus (GPa) = -1660.00234 -34.14510 -847.07372
# Shear Modulus (GPa) = 20.46967 22.10023 21.28495
#
# Velocity S-wave (km/s) = 3.23772 3.36420 3.30156
# Velocity P-wave (km/s) = 28.91598 1.54782 20.47596
#
# Compressibility (1/GPa) = -0.00060241
#
# Stress axis : x y z
#
# Youngs Moduli (GPa) = 38.86781 97.07823 232.52753
#
# Poissons Ratio (x) = 0.71548 3.15813
# Poissons Ratio (y) = 0.28646 -0.11295
# Poissons Ratio (z) = 0.52789 -0.04716
#
# Static dielectric constant tensor:
#      x y z
#    x 1.663780 0.000000 0.033400 
#    y 0.000000 1.784440 0.000000 
#    z 0.033400 0.000000 1.503930 
# 
# From -- ./inp_files/93896.got.cif
#   From: 2010.05.17/outbox.cif.g08.bks.cpg/sg10_47_cif.got.tgz:93896.got - 2010.06.03 11:33:40.
