data_PCOD9147825
_publ_section_title
;
Structure prediction by ZEFSAII (Michael W. Deem and Ramdas Pophale) SiO2 
 PCOD9147825
Probable space group: P 2/M
;
_chemical_formula_sum "Si O2"
_cell_formula_units_Z 28
_cell_length_a 12.519499
_cell_length_b 13.034842
_cell_length_c 21.313982
_cell_angle_alpha 90.000000
_cell_angle_beta 22.785626
_cell_angle_gamma 90.000000
_cell_volume 1347.060839
_symmetry_space_group_name_H-M "P 2/M"
_symmetry_group_IT_number 10
_symmetry_cell_setting 'monoclinic'
loop_
_space_group_symop_operation_xyz
x,y,z
-x,y,-z
-x,-y,-z
x,-y,z
loop_
_atom_site_type_symbol
_atom_site_label
_atom_site_fract_x
_atom_site_fract_y
_atom_site_fract_z
Si Si1 0.175741 0.618424 0.193084
Si Si2 0.724637 0.384802 0.190920
Si Si3 0.420883 0.182496 0.321781
Si Si4 0.376688 0.884316 0.923709
Si Si5 0.935094 0.814625 0.670283
Si Si6 0.514879 0.885667 0.578359
Si Si7 0.086397 0.721659 0.785532
O O1 0.111869 0.500000 0.242124
O O2 0.113340 0.697694 0.282740
O O3 0.004808 0.658217 0.225617
O O4 0.500000 0.625319 0.000000
O O5 0.612375 0.500000 0.250804
O O6 0.517878 0.300033 0.275703
O O7 0.816257 0.352539 0.211123
O O8 0.000000 0.381318 0.000000
O O9 0.516347 0.135352 0.205106
O O10 0.560402 0.126633 0.306407
O O11 0.100091 0.177031 0.515207
O O12 0.645840 0.870854 0.821714
O O13 0.265717 0.000000 0.989391
O O14 0.163709 0.795062 0.056676
O O15 0.157190 0.862957 0.598083
O O16 0.336101 0.800560 0.641468
O O17 0.454885 0.000000 0.590916
#
# Coordination Sequence:
#
# PCOD9147825 Si02
#       7
#     4   4   4   4   4   4   4
#     4  11  24  46  69  87 118 162 209 265 317 363
#     4  10  19  36  60  89 125 163 199 255 317 363
#     4   9  21  36  60  92 129 158 204 253 295 377
#     4  12  22  37  65  94 129 169 206 248 303 369
#     4  10  23  41  61  91 125 158 213 253 302 371
#     4   9  20  39  61  90 129 164 196 248 309 356
#     4  11  22  40  63  96 122 158 216 259 296 373
#
# _framework density 20.785995
#
# number of rings (size 3 to 8) (size 9 to 14) (size 15 to 20)
#    0.857    0.857    2.857    2.143    0.000    1.714 
#    0.000    7.857    0.000    1.714    0.000    0.000 
#    0.000    0.000    0.000    0.000    0.000    0.000 
#
# Total GULP energy -156306.200675 kJ/mol
# GULP energy per Si atom -5582.364310 kJ/mol
# Density = 2.073869 g / cm^3
# Si number density = 20.785995 Si / 1000 Ang^3
#
#
#
# Elastic Constant Matrix: (Units=GPa)
#
#
# Indices 1 2 3 4 5 6 
#
# 1 69.1508 7.0864 2.0769 0.0000 -1.9795 0.0000
# 2 7.0864 116.1838 -5.3195 0.0000 4.1048 0.0000
# 3 2.0769 -5.3195 44.4756 0.0000 0.8962 0.0000
# 4 0.0000 0.0000 0.0000 19.2518 0.0000 0.2639
# 5 -1.9795 4.1048 0.8962 0.0000 30.3331 0.0000
# 6 0.0000 0.0000 0.0000 0.2639 0.0000 27.3295
#
#
#
# Elastic Compliance Matrix: (Units=1/GPa)
#
#
# Indices 1 2 3 4 5 6 
#
# 1 0.014617 -0.000968 -0.000821 0.000000 0.001109 0.000000
# 2 -0.000968 0.008763 0.001119 0.000000 -0.001282 0.000000
# 3 -0.000821 0.001119 0.022674 0.000000 -0.000875 0.000000
# 4 0.000000 0.000000 0.000000 0.051950 0.000000 -0.000502
# 5 0.001109 -0.001282 -0.000875 0.000000 0.033239 0.000000
# 6 0.000000 0.000000 0.000000 -0.000502 0.000000 0.036595
#
#
# Mechanical properties :
#
#
# Convention : Reuss Voigt Hill
#
# Bulk Modulus (GPa) = 22.36452 26.38863 24.37657
# Shear Modulus (GPa) = 27.16178 30.44732 28.80455
#
# Velocity S-wave (km/s) = 3.61880 3.83142 3.72663
# Velocity P-wave (km/s) = 5.31448 5.68296 5.50181
#
# Compressibility (1/GPa) = 0.04471369
#
# Stress axis : x y z
#
# Youngs Moduli (GPa) = 68.41454 114.12081 44.10329
#
# Poissons Ratio (x) = 0.11050 0.03620
# Poissons Ratio (y) = 0.06624 -0.04936
# Poissons Ratio (z) = 0.05615 -0.12771
#
# Static dielectric constant tensor:
#      x y z
#    x 1.782590 0.000000 0.012980 
#    y 0.000000 1.706010 0.000000 
#    z 0.012980 0.000000 1.758350 
# 
# From -- ./inp_files/83933.got.cif
#   From: 2010.05.17/outbox.cif.g08.bks.cpg/sg10_42_cif.got.tgz:83933.got - 2010.06.03 11:33:40.
