data_PCOD9147540
_publ_section_title
;
Structure prediction by ZEFSAII (Michael W. Deem and Ramdas Pophale) SiO2 
 PCOD9147540
Probable space group: P 2/M
;
_chemical_formula_sum "Si O2"
_cell_formula_units_Z 22
_cell_length_a 5.290077
_cell_length_b 16.976887
_cell_length_c 15.601515
_cell_angle_alpha 90.000000
_cell_angle_beta 59.416435
_cell_angle_gamma 90.000000
_cell_volume 1206.239323
_symmetry_space_group_name_H-M "P 2/M"
_symmetry_group_IT_number 10
_symmetry_cell_setting 'monoclinic'
loop_
_space_group_symop_operation_xyz
x,y,z
-x,y,-z
-x,-y,-z
x,-y,z
loop_
_atom_site_type_symbol
_atom_site_label
_atom_site_fract_x
_atom_site_fract_y
_atom_site_fract_z
Si Si1 0.352245 0.174221 0.431624
Si Si2 0.161970 0.404256 0.557264
Si Si3 0.335218 0.267979 0.768131
Si Si4 0.334144 0.268523 0.115649
Si Si5 0.999290 0.406917 0.224146
Si Si6 0.351685 0.000000 0.432322
O O1 0.500000 0.182056 0.500000
O O2 0.482798 0.235761 0.342559
O O3 0.000000 0.180916 0.500000
O O4 0.426716 0.085984 0.382803
O O5 0.500000 0.378307 0.500000
O O6 0.163998 0.500000 0.553735
O O7 0.010941 0.383783 0.673284
O O8 0.000000 0.375863 0.500000
O O9 0.485154 0.246831 0.831438
O O10 0.282672 0.362301 0.767314
O O11 0.999159 0.236479 0.823294
O O12 0.271542 0.362937 0.133342
O O13 0.500000 0.249073 0.000000
O O14 0.990854 0.500000 0.216866
O O15 0.500000 0.000000 0.500000
O O16 0.000000 0.000000 0.500000
#
# Coordination Sequence:
#
# PCOD9147540 Si02
#       6
#     4   4   4   4   4   2
#     4  10  19  35  58  87 122 148 176 214 259 322
#     4   9  18  31  46  65  93 130 162 199 254 315
#     4  10  22  37  54  83 105 143 183 220 282 327
#     4  10  22  40  56  75 101 138 190 240 291 323
#     4   9  22  37  54  76 105 135 188 235 277 331
#     4   8  16  30  54  86 117 150 175 206 256 312
#
# _framework density 18.238503000000001
#
# number of rings (size 3 to 8) (size 9 to 14) (size 15 to 20)
#    1.091    1.455    0.000    1.636    2.545    1.818 
#    0.000    0.909    0.000    0.545    0.000    3.818 
#    0.000    0.000    0.000    0.000    0.000    0.000 
#
# Total GULP energy -122557.439420 kJ/mol
# GULP energy per Si atom -5570.792701 kJ/mol
# Density = 1.819699 g / cm^3
# Si number density = 18.238503 Si / 1000 Ang^3
#
#
#
# Elastic Constant Matrix: (Units=GPa)
#
#
# Indices 1 2 3 4 5 6 
#
# 1 146.7422 4.1479 54.8362 0.0000 19.4982 0.0000
# 2 4.1479 41.6950 7.4566 0.0000 0.9370 0.0000
# 3 54.8362 7.4566 97.2902 0.0000 7.7410 0.0000
# 4 0.0000 0.0000 0.0000 3.1156 0.0000 -2.7307
# 5 19.4982 0.9370 7.7410 0.0000 28.0406 0.0000
# 6 0.0000 0.0000 0.0000 -2.7307 0.0000 5.1410
#
#
#
# Elastic Compliance Matrix: (Units=1/GPa)
#
#
# Indices 1 2 3 4 5 6 
#
# 1 0.009304 0.000055 -0.004840 0.000000 -0.005135 0.000000
# 2 0.000055 0.024320 -0.001868 0.000000 -0.000335 0.000000
# 3 -0.004840 -0.001868 0.013166 0.000000 -0.000207 0.000000
# 4 0.000000 0.000000 0.000000 0.600537 0.000000 0.318985
# 5 -0.005135 -0.000335 -0.000207 0.000000 0.039302 0.000000
# 6 0.000000 0.000000 0.000000 0.318985 0.000000 0.363948
#
#
# Mechanical properties :
#
#
# Convention : Reuss Voigt Hill
#
# Bulk Modulus (GPa) = 29.86478 46.51206 38.18842
# Shear Modulus (GPa) = 4.65097 21.87858 13.26477
#
# Velocity S-wave (km/s) = 1.59863 3.46726 2.69977
# Velocity P-wave (km/s) = 4.45170 6.44877 5.54095
#
# Compressibility (1/GPa) = 0.03348426
#
# Stress axis : x y z
#
# Youngs Moduli (GPa) = 107.48038 41.11867 75.95302
#
# Poissons Ratio (x) = -0.00228 0.36759
# Poissons Ratio (y) = -0.00595 0.14191
# Poissons Ratio (z) = 0.52017 0.07683
#
# Static dielectric constant tensor:
#      x y z
#    x 1.654610 0.000000 0.003060 
#    y 0.000000 1.664560 0.000000 
#    z 0.003060 0.000000 1.590010 
# 
# From -- ./inp_files/39353.got.cif
#   From: 2010.05.17/outbox.cif.g08.bks.cpg/sg10_20_cif.got.tgz:39353.got - 2010.06.03 11:33:40.
