data_PCOD9147102
_publ_section_title
;
Structure prediction by ZEFSAII (Michael W. Deem and Ramdas Pophale) SiO2 
 PCOD9147102
Probable space group: P 2/M
;
_chemical_formula_sum "Si O2"
_cell_formula_units_Z 32
_cell_length_a 21.091184
_cell_length_b 8.833087
_cell_length_c 25.890039
_cell_angle_alpha 90.000000
_cell_angle_beta 157.548645
_cell_angle_gamma 90.000000
_cell_volume 1842.021047
_symmetry_space_group_name_H-M "P 2/M"
_symmetry_group_IT_number 10
_symmetry_cell_setting 'monoclinic'
loop_
_space_group_symop_operation_xyz
x,y,z
-x,y,-z
-x,-y,-z
x,-y,z
loop_
_atom_site_type_symbol
_atom_site_label
_atom_site_fract_x
_atom_site_fract_y
_atom_site_fract_z
Si Si1 0.846774 0.682127 0.421179
Si Si2 0.492727 0.180035 0.153089
Si Si3 0.410666 0.181519 0.590018
Si Si4 0.821867 0.681389 0.131912
Si Si5 0.345485 0.318320 0.147385
Si Si6 0.896831 0.681928 0.578728
Si Si7 0.356361 0.182453 0.430698
Si Si8 0.001099 0.319142 0.159059
O O1 0.824632 0.500000 0.401498
O O2 0.675119 0.761024 0.276738
O O3 0.886865 0.720337 0.510969
O O4 0.000000 0.724053 0.500000
O O5 0.441776 0.253783 0.169815
O O6 0.490368 0.000000 0.156103
O O7 0.351788 0.235306 0.007138
O O8 0.569851 0.251206 0.738321
O O9 0.250633 0.238543 0.501148
O O10 0.393916 0.229951 0.517878
O O11 0.418507 0.000000 0.598076
O O12 0.793049 0.500000 0.108784
O O13 0.936109 0.718789 0.167945
O O14 0.928353 0.719814 0.262553
O O15 0.360747 0.500000 0.158101
O O16 0.152133 0.278495 0.993677
O O17 0.874766 0.500000 0.567230
O O18 0.500000 0.234785 0.500000
O O19 0.174740 0.240948 0.278930
O O20 0.353813 0.000000 0.427957
O O21 0.022939 0.500000 0.173661
#
# Coordination Sequence:
#
# PCOD9147102 Si02
#       8
#     4   4   4   4   4   4   4   4
#     4  10  21  37  57  81 111 149 186 223 272 328
#     4  11  21  33  53  82 111 143 180 223 277 324
#     4  11  21  33  54  84 110 139 183 228 271 321
#     4   9  18  33  54  80 108 140 180 226 275 322
#     4  10  20  35  55  80 110 141 177 226 275 324
#     4  10  19  34  57  81 108 142 182 229 273 316
#     4  10  22  38  54  77 113 150 180 216 270 332
#     4   9  18  33  54  80 105 137 181 226 270 317
#
# _framework density 17.372223000000002
#
# number of rings (size 3 to 8) (size 9 to 14) (size 15 to 20)
#    0.000    2.000    2.500    2.625    0.000    4.000 
#    0.000    1.250    0.000    7.500    0.000    0.000 
#    0.000    0.000    0.000    0.000    0.000    0.000 
#
# Total GULP energy -178619.453588 kJ/mol
# GULP energy per Si atom -5581.857925 kJ/mol
# Density = 1.733268 g / cm^3
# Si number density = 17.372223 Si / 1000 Ang^3
#
#
#
# Elastic Constant Matrix: (Units=GPa)
#
#
# Indices 1 2 3 4 5 6 
#
# 1 99.2266 39.2557 75.8622 0.0000 7.1756 0.0000
# 2 39.2557 39.2855 54.6789 0.0000 1.9219 0.0000
# 3 75.8622 54.6789 171.2837 0.0000 4.3669 0.0000
# 4 0.0000 0.0000 0.0000 58.9710 0.0000 3.8506
# 5 7.1756 1.9219 4.3669 0.0000 25.3739 0.0000
# 6 0.0000 0.0000 0.0000 3.8506 0.0000 18.3266
#
#
#
# Elastic Compliance Matrix: (Units=1/GPa)
#
#
# Indices 1 2 3 4 5 6 
#
# 1 0.018408 -0.012594 -0.004042 0.000000 -0.003556 0.000000
# 2 -0.012594 0.054448 -0.011841 0.000000 0.001475 0.000000
# 3 -0.004042 -0.011841 0.011406 0.000000 0.000077 0.000000
# 4 0.000000 0.000000 0.000000 0.017193 0.000000 -0.003613
# 5 -0.003556 0.001475 0.000077 0.000000 0.040291 0.000000
# 6 0.000000 0.000000 0.000000 -0.003613 0.000000 0.055324
#
#
# Mechanical properties :
#
#
# Convention : Reuss Voigt Hill
#
# Bulk Modulus (GPa) = 36.61925 72.15437 54.38681
# Shear Modulus (GPa) = 19.00216 29.86757 24.43486
#
# Velocity S-wave (km/s) = 3.31089 4.15091 3.75447
# Velocity P-wave (km/s) = 5.97837 8.03728 7.08304
#
# Compressibility (1/GPa) = 0.02730804
#
# Stress axis : x y z
#
# Youngs Moduli (GPa) = 54.32527 18.36609 87.67054
#
# Poissons Ratio (x) = 0.23131 0.35433
# Poissons Ratio (y) = 0.68420 1.03810
# Poissons Ratio (z) = 0.21956 0.21747
#
# Static dielectric constant tensor:
#      x y z
#    x 1.571620 0.000000 -0.015470 
#    y 0.000000 1.581270 0.000000 
#    z -0.015470 0.000000 1.590910 
# 
# From -- ./inp_files/86800.got.cif
#   From: 2010.05.17/outbox.cif.g08.bks.cpg/sg10_44_cif.got.tgz:86800.got - 2010.06.03 11:33:40.
