data_PCOD9147167
_publ_section_title
;
Structure prediction by ZEFSAII (Michael W. Deem and Ramdas Pophale) SiO2 
 PCOD9147167
Probable space group: P 2/M
;
_chemical_formula_sum "Si O2"
_cell_formula_units_Z 32
_cell_length_a 25.114949
_cell_length_b 7.524229
_cell_length_c 16.103524
_cell_angle_alpha 90.000000
_cell_angle_beta 152.282587
_cell_angle_gamma 90.000000
_cell_volume 1415.376374
_symmetry_space_group_name_H-M "P 2/M"
_symmetry_group_IT_number 10
_symmetry_cell_setting 'monoclinic'
loop_
_space_group_symop_operation_xyz
x,y,z
-x,y,-z
-x,-y,-z
x,-y,z
loop_
_atom_site_type_symbol
_atom_site_label
_atom_site_fract_x
_atom_site_fract_y
_atom_site_fract_z
Si Si1 0.368681 0.714825 0.302266
Si Si2 0.400053 0.703578 0.806158
Si Si3 0.138895 0.281610 0.443320
Si Si4 0.259097 0.205622 0.976226
Si Si5 0.004644 0.703170 0.598267
Si Si6 0.906168 0.717054 0.803214
Si Si7 0.680900 0.285408 0.587321
Si Si8 0.480153 0.206492 0.194728
O O1 0.500000 0.768008 0.500000
O O2 0.367526 0.500000 0.293457
O O3 0.301240 0.766422 0.292641
O O4 0.314615 0.786168 0.143909
O O5 0.386691 0.500000 0.817416
O O6 0.271662 0.777614 0.629992
O O7 0.450517 0.702880 0.783214
O O8 0.500000 0.787869 0.000000
O O9 0.137424 0.500000 0.440032
O O10 0.084245 0.226642 0.279425
O O11 0.069634 0.220221 0.428662
O O12 0.137270 0.297943 0.806756
O O13 0.239290 0.000000 0.927297
O O14 0.355033 0.278363 0.045148
O O15 0.962236 0.500000 0.530246
O O16 0.000000 0.786177 0.500000
O O17 0.908965 0.500000 0.807065
O O18 0.782695 0.772503 0.668010
O O19 0.000000 0.775562 0.000000
O O20 0.676488 0.500000 0.579225
O O21 0.560139 0.220172 0.385999
O O22 0.468094 0.000000 0.155699
#
# Coordination Sequence:
#
# PCOD9147167 Si02
#       8
#     4   4   4   4   4   4   4   4
#     4  10  20  34  57  88 116 149 197 249 294 346
#     4  10  21  37  63  91 115 146 187 243 302 356
#     4   9  18  35  57  87 120 147 187 240 299 354
#     4  11  25  41  58  83 121 167 205 241 295 361
#     4  10  23  41  64  90 117 153 202 259 301 345
#     4   9  17  29  52  83 114 147 181 228 289 350
#     4  10  19  34  57  84 115 151 193 242 297 348
#     4  11  23  38  57  84 120 158 196 240 293 353
#
# _framework density 22.608829
#
# number of rings (size 3 to 8) (size 9 to 14) (size 15 to 20)
#    0.000    2.000    2.500    0.750    3.500    2.750 
#    0.000    0.625    0.000    0.375    0.000    0.000 
#    0.000    0.000    0.000    0.000    0.000    0.000 
#
# Total GULP energy -178745.412699 kJ/mol
# GULP energy per Si atom -5585.794147 kJ/mol
# Density = 2.255737 g / cm^3
# Si number density = 22.608829 Si / 1000 Ang^3
#
#
#
# Elastic Constant Matrix: (Units=GPa)
#
#
# Indices 1 2 3 4 5 6 
#
# 1 187.6917 5.0877 73.7539 0.0000 4.0561 0.0000
# 2 5.0877 57.2994 -1.4583 0.0000 1.2893 0.0000
# 3 73.7539 -1.4583 131.9913 0.0000 -7.5860 0.0000
# 4 0.0000 0.0000 0.0000 13.8842 0.0000 -10.0104
# 5 4.0561 1.2893 -7.5860 0.0000 28.8212 0.0000
# 6 0.0000 0.0000 0.0000 -10.0104 0.0000 -1.4992
#
#
#
# Elastic Compliance Matrix: (Units=1/GPa)
#
#
# Indices 1 2 3 4 5 6 
#
# 1 0.006968 -0.000676 -0.004016 0.000000 -0.002007 0.000000
# 2 -0.000676 0.017538 0.000540 0.000000 -0.000547 0.000000
# 3 -0.004016 0.000540 0.010009 0.000000 0.003176 0.000000
# 4 0.000000 0.000000 0.000000 0.012388 0.000000 -0.082714
# 5 -0.002007 -0.000547 0.003176 0.000000 0.035840 0.000000
# 6 0.000000 0.000000 0.000000 -0.082714 0.000000 -0.114723
#
#
# Mechanical properties :
#
#
# Convention : Reuss Voigt Hill
#
# Bulk Modulus (GPa) = 38.15231 59.08321 48.61776
# Shear Modulus (GPa) = -334.68889 28.21451 -153.23719
#
# Velocity S-wave (km/s) = -12.18015 3.53645 -8.24165
# Velocity P-wave (km/s) = 13.44977 6.54713 8.30757
#
# Compressibility (1/GPa) = 0.02621074
#
# Stress axis : x y z
#
# Youngs Moduli (GPa) = 143.51741 57.01823 99.91058
#
# Poissons Ratio (x) = 0.03853 0.40127
# Poissons Ratio (y) = 0.09698 -0.05394
# Poissons Ratio (z) = 0.57641 -0.03078
#
# Static dielectric constant tensor:
#      x y z
#    x 1.840470 0.000000 -0.010540 
#    y 0.000000 1.866200 0.000000 
#    z -0.010540 0.000000 1.808150 
# 
# From -- ./inp_files/71697.got.cif
#   From: 2010.05.17/outbox.cif.g08.bks.cpg/sg10_36_cif.got.tgz:71697.got - 2010.06.03 11:33:40.
