data_PCOD9147397
_publ_section_title
;
Structure prediction by ZEFSAII (Michael W. Deem and Ramdas Pophale) SiO2 
 PCOD9147397
Probable space group: P 2/M
;
_chemical_formula_sum "Si O2"
_cell_formula_units_Z 28
_cell_length_a 15.168321
_cell_length_b 8.989952
_cell_length_c 11.946369
_cell_angle_alpha 90.000000
_cell_angle_beta 118.402452
_cell_angle_gamma 90.000000
_cell_volume 1432.946452
_symmetry_space_group_name_H-M "P 2/M"
_symmetry_group_IT_number 10
_symmetry_cell_setting 'monoclinic'
loop_
_space_group_symop_operation_xyz
x,y,z
-x,y,-z
-x,-y,-z
x,-y,z
loop_
_atom_site_type_symbol
_atom_site_label
_atom_site_fract_x
_atom_site_fract_y
_atom_site_fract_z
Si Si1 0.224675 0.326665 0.475346
Si Si2 0.180754 0.825954 0.877329
Si Si3 0.519994 0.166514 0.880607
Si Si4 0.999988 0.320937 0.368303
Si Si5 0.291586 0.832367 0.718924
Si Si6 0.616670 0.821887 0.589161
Si Si7 0.690487 0.325705 0.862787
O O1 0.240424 0.500000 0.461182
O O2 0.109246 0.287857 0.381792
O O3 0.237249 0.291911 0.614391
O O4 0.308647 0.232458 0.462837
O O5 0.268557 0.814839 0.836162
O O6 0.085553 0.755773 0.756971
O O7 0.164326 0.000000 0.889866
O O8 0.217783 0.743851 0.011284
O O9 0.409034 0.175793 0.763272
O O10 0.592786 0.290827 0.879072
O O11 0.561638 0.000000 0.880623
O O12 0.500000 0.175514 0.000000
O O13 0.986184 0.500000 0.358826
O O14 0.000000 0.274382 0.500000
O O15 0.256290 0.000000 0.667722
O O16 0.500000 0.774893 0.500000
O O17 0.663547 0.753747 0.730308
O O18 0.616677 0.000000 0.595546
O O19 0.705583 0.500000 0.854957
#
# Coordination Sequence:
#
# PCOD9147397 Si02
#       7
#     4   4   4   4   4   4   4
#     4  11  23  39  63  92 126 163 206 259 313 370
#     4  11  22  38  61  90 124 165 210 255 306 368
#     4  10  19  35  55  81 120 161 201 248 303 367
#     4  10  21  39  61  92 132 169 203 254 320 375
#     4  10  20  34  56  86 122 162 204 251 304 364
#     4  11  25  46  69  91 122 166 213 260 311 371
#     4  12  25  40  61  90 126 164 207 261 319 376
#
# _framework density 19.540158000000002
#
# number of rings (size 3 to 8) (size 9 to 14) (size 15 to 20)
#    0.000    1.286    2.857    3.429    0.000    7.429 
#    0.000    0.714    0.000    4.286    0.000    0.000 
#    0.000    0.000    0.000    0.000    0.000    0.000 
#
# Total GULP energy -156375.750869 kJ/mol
# GULP energy per Si atom -5584.848245 kJ/mol
# Density = 1.949568 g / cm^3
# Si number density = 19.540158 Si / 1000 Ang^3
#
#
#
# Elastic Constant Matrix: (Units=GPa)
#
#
# Indices 1 2 3 4 5 6 
#
# 1 70.6331 41.4734 38.9880 0.0000 13.3481 0.0000
# 2 41.4734 80.8623 57.7017 0.0000 11.1221 0.0000
# 3 38.9880 57.7017 133.6965 0.0000 14.4595 0.0000
# 4 0.0000 0.0000 0.0000 145.0998 0.0000 -140.1714
# 5 13.3481 11.1221 14.4595 0.0000 28.9207 0.0000
# 6 0.0000 0.0000 0.0000 -140.1714 0.0000 208.7166
#
#
#
# Elastic Compliance Matrix: (Units=1/GPa)
#
#
# Indices 1 2 3 4 5 6 
#
# 1 0.021460 -0.008967 -0.001787 0.000000 -0.005563 0.000000
# 2 -0.008967 0.021899 -0.006738 0.000000 -0.000915 0.000000
# 3 -0.001787 -0.006738 0.011142 0.000000 -0.002155 0.000000
# 4 0.000000 0.000000 0.000000 0.019622 0.000000 0.013178
# 5 -0.005563 -0.000915 -0.002155 0.000000 0.038574 0.000000
# 6 0.000000 0.000000 0.000000 0.013178 0.000000 0.013641
#
#
# Mechanical properties :
#
#
# Convention : Reuss Voigt Hill
#
# Bulk Modulus (GPa) = 51.23173 62.39090 56.81132
# Shear Modulus (GPa) = 29.79267 86.34935 58.07101
#
# Velocity S-wave (km/s) = 3.90896 6.65482 5.45741
# Velocity P-wave (km/s) = 6.83000 9.54189 8.29749
#
# Compressibility (1/GPa) = 0.01951915
#
# Stress axis : x y z
#
# Youngs Moduli (GPa) = 46.59838 45.66364 89.75396
#
# Poissons Ratio (x) = 0.40945 0.16035
# Poissons Ratio (y) = 0.41783 0.60474
# Poissons Ratio (z) = 0.08325 0.30767
#
# Static dielectric constant tensor:
#      x y z
#    x 1.705720 0.000000 -0.000240 
#    y 0.000000 1.666630 0.000000 
#    z -0.000240 0.000000 1.717520 
# 
# From -- ./inp_files/50028.got.cif
#   From: 2010.05.17/outbox.cif.g08.bks.cpg/sg10_26_cif.got.tgz:50028.got - 2010.06.03 11:33:40.
