data_PCOD9147329
_publ_section_title
;
Structure prediction by ZEFSAII (Michael W. Deem and Ramdas Pophale) SiO2 
 PCOD9147329
Probable space group: P 2/M
;
_chemical_formula_sum "Si O2"
_cell_formula_units_Z 28
_cell_length_a 11.064859
_cell_length_b 13.857177
_cell_length_c 9.450523
_cell_angle_alpha 90.000000
_cell_angle_beta 64.102869
_cell_angle_gamma 90.000000
_cell_volume 1303.515243
_symmetry_space_group_name_H-M "P 2/M"
_symmetry_group_IT_number 10
_symmetry_cell_setting 'monoclinic'
loop_
_space_group_symop_operation_xyz
x,y,z
-x,y,-z
-x,-y,-z
x,-y,z
loop_
_atom_site_type_symbol
_atom_site_label
_atom_site_fract_x
_atom_site_fract_y
_atom_site_fract_z
Si Si1 0.371739 0.794633 0.631426
Si Si2 0.932140 0.000000 0.685476
Si Si3 0.660291 0.000000 0.947115
Si Si4 0.016894 0.661983 0.645233
Si Si5 0.377476 0.789349 0.952640
Si Si6 0.317028 0.607310 0.466077
Si Si7 0.937425 0.838644 0.187440
Si Si8 0.276602 0.605487 0.163186
O O1 0.500000 0.850069 0.500000
O O2 0.408807 0.771034 0.773763
O O3 0.358055 0.697537 0.542813
O O4 0.225261 0.845568 0.714128
O O5 0.769445 0.000000 0.764875
O O6 0.000000 0.000000 0.500000
O O7 0.987517 0.089825 0.745662
O O8 0.500000 0.000000 0.000000
O O9 0.686827 0.102943 0.009020
O O10 0.155552 0.605792 0.564659
O O11 0.029463 0.733229 0.770040
O O12 0.000000 0.714328 0.500000
O O13 0.882684 0.602106 0.731645
O O14 0.500000 0.795064 0.000000
O O15 0.298750 0.696676 0.051156
O O16 0.368508 0.500000 0.476207
O O17 0.341338 0.623606 0.285464
O O18 0.000000 0.851988 0.000000
O O19 0.323259 0.500000 0.087339
#
# Coordination Sequence:
#
# PCOD9147329 Si02
#       8
#     4   2   2   4   4   4   4   4
#     4  11  24  41  63  91 126 168 213 267 330 392
#     4  12  25  41  65  98 129 163 214 266 319 380
#     4  10  24  45  71  96 127 171 216 266 316 370
#     4   9  17  32  56  85 120 162 209 257 312 383
#     4  11  24  43  65  89 122 165 218 268 322 390
#     4   9  19  35  57  88 126 167 210 262 325 386
#     4  11  23  40  62  90 127 167 210 268 330 381
#     4  10  19  34  60  92 126 166 212 263 319 387
#
# _framework density 21.480377000000001
#
# number of rings (size 3 to 8) (size 9 to 14) (size 15 to 20)
#    0.000    1.714    0.000    4.500    0.000    8.000 
#    0.000    0.714    0.000    5.571    0.000    0.000 
#    0.000    0.000    0.000    0.000    0.000    0.000 
#
# Total GULP energy -156102.098821 kJ/mol
# GULP energy per Si atom -5575.074958 kJ/mol
# Density = 2.143149 g / cm^3
# Si number density = 21.480377 Si / 1000 Ang^3
#
#
#
# Elastic Constant Matrix: (Units=GPa)
#
#
# Indices 1 2 3 4 5 6 
#
# 1 109.1727 6.3889 43.5222 0.0000 -19.2054 0.0000
# 2 6.3889 102.6430 49.3054 0.0000 -2.9918 0.0000
# 3 43.5222 49.3054 154.5240 0.0000 -2.4146 0.0000
# 4 0.0000 0.0000 0.0000 -16.2431 0.0000 0.4546
# 5 -19.2054 -2.9918 -2.4146 0.0000 37.6218 0.0000
# 6 0.0000 0.0000 0.0000 0.4546 0.0000 -4.8886
#
#
#
# Elastic Compliance Matrix: (Units=1/GPa)
#
#
# Indices 1 2 3 4 5 6 
#
# 1 0.011503 0.001139 -0.003514 0.000000 0.005737 0.000000
# 2 0.001139 0.011636 -0.004014 0.000000 0.001249 0.000000
# 3 -0.003514 -0.004014 0.008718 0.000000 -0.001553 0.000000
# 4 0.000000 0.000000 0.000000 -0.061725 0.000000 -0.005741
# 5 0.005737 0.001249 -0.001553 0.000000 0.029509 0.000000
# 6 0.000000 0.000000 0.000000 -0.005741 0.000000 -0.205092
#
#
# Mechanical properties :
#
#
# Convention : Reuss Voigt Hill
#
# Bulk Modulus (GPa) = 52.41234 62.75252 57.58243
# Shear Modulus (GPa) = -26.83650 21.10624 -2.86513
#
# Velocity S-wave (km/s) = -3.53845 3.13802 -1.15617
# Velocity P-wave (km/s) = 2.78548 6.51205 5.00828
#
# Compressibility (1/GPa) = 0.01907948
#
# Stress axis : x y z
#
# Youngs Moduli (GPa) = 86.93246 85.93826 114.70915
#
# Poissons Ratio (x) = -0.09789 0.40305
# Poissons Ratio (y) = -0.09902 0.46046
# Poissons Ratio (z) = 0.30546 0.34497
#
# Static dielectric constant tensor:
#      x y z
#    x 1.837000 0.000000 -0.042740 
#    y 0.000000 1.868420 0.000000 
#    z -0.042740 0.000000 1.768000 
# 
# From -- ./inp_files/25262.got.cif
#   From: 2010.05.17/outbox.cif.g08.bks.cpg/sg10_13_cif.got.tgz:25262.got - 2010.06.03 11:33:40.
