data_PCOD9147451
_publ_section_title
;
Structure prediction by ZEFSAII (Michael W. Deem and Ramdas Pophale) SiO2 
 PCOD9147451
Probable space group: P 2/M
;
_chemical_formula_sum "Si O2"
_cell_formula_units_Z 32
_cell_length_a 31.440811
_cell_length_b 8.094219
_cell_length_c 13.397286
_cell_angle_alpha 90.000000
_cell_angle_beta 152.433897
_cell_angle_gamma 90.000000
_cell_volume 1577.801183
_symmetry_space_group_name_H-M "P 2/M"
_symmetry_group_IT_number 10
_symmetry_cell_setting 'monoclinic'
loop_
_space_group_symop_operation_xyz
x,y,z
-x,y,-z
-x,-y,-z
x,-y,z
loop_
_atom_site_type_symbol
_atom_site_label
_atom_site_fract_x
_atom_site_fract_y
_atom_site_fract_z
Si Si1 0.598258 0.298226 0.967624
Si Si2 0.793108 0.198511 0.082727
Si Si3 0.559322 0.300554 0.219402
Si Si4 0.785010 0.303144 0.456418
Si Si5 0.108754 0.797242 0.915722
Si Si6 0.400230 0.300389 0.256104
Si Si7 0.770674 0.195938 0.647192
Si Si8 0.897801 0.199342 0.498750
O O1 0.598910 0.500000 0.969217
O O2 0.683008 0.242247 0.212530
O O3 0.500568 0.247106 0.809754
O O4 0.613429 0.243208 0.886250
O O5 0.846865 0.257443 0.096578
O O6 0.838118 0.260676 0.279968
O O7 0.800577 0.000000 0.099467
O O8 0.686057 0.243682 0.858845
O O9 0.560906 0.500000 0.220254
O O10 0.663982 0.244867 0.434915
O O11 0.500000 0.245852 0.000000
O O12 0.781255 0.500000 0.449204
O O13 0.806616 0.247760 0.613143
O O14 0.853752 0.249850 0.512162
O O15 0.003035 0.745530 0.706381
O O16 0.109444 0.000000 0.916709
O O17 0.169135 0.738852 0.135275
O O18 0.500000 0.243856 0.500000
O O19 0.400667 0.500000 0.257490
O O20 0.775707 0.000000 0.662486
O O21 0.897168 0.000000 0.493890
#
# Coordination Sequence:
#
# PCOD9147451 Si02
#       8
#     4   4   4   4   4   4   4   4
#     4   9  18  34  54  77 110 151 187 222 278 338
#     4  10  20  37  62  88 113 147 193 239 283 338
#     4  10  19  35  57  79 106 148 191 228 278 336
#     4  11  21  38  61  84 116 152 189 238 286 338
#     4   9  21  40  59  82 118 154 185 233 298 347
#     4  10  21  36  55  83 118 155 189 225 280 344
#     4  11  23  38  56  84 118 152 191 237 284 338
#     4  10  20  38  64  88 108 145 196 240 286 347
#
# _framework density 20.281386999999999
#
# number of rings (size 3 to 8) (size 9 to 14) (size 15 to 20)
#    0.000    2.000    2.500    1.125    1.750    2.500 
#    0.000    5.625    0.000    1.500    0.000    0.000 
#    0.000    0.000    0.000    0.000    0.000    0.000 
#
# Total GULP energy -178714.063813 kJ/mol
# GULP energy per Si atom -5584.814494 kJ/mol
# Density = 2.023523 g / cm^3
# Si number density = 20.281387 Si / 1000 Ang^3
#
#
#
# Elastic Constant Matrix: (Units=GPa)
#
#
# Indices 1 2 3 4 5 6 
#
# 1 159.3101 5.7556 60.9172 0.0000 17.5165 0.0000
# 2 5.7556 12.3868 6.9317 0.0000 0.6988 0.0000
# 3 60.9172 6.9317 113.2164 0.0000 18.3415 0.0000
# 4 0.0000 0.0000 0.0000 18.4228 0.0000 11.5946
# 5 17.5165 0.6988 18.3415 0.0000 29.7946 0.0000
# 6 0.0000 0.0000 0.0000 11.5946 0.0000 31.2962
#
#
#
# Elastic Compliance Matrix: (Units=1/GPa)
#
#
# Indices 1 2 3 4 5 6 
#
# 1 0.008067 -0.001448 -0.003875 0.000000 -0.002323 0.000000
# 2 -0.001448 0.083902 -0.004639 0.000000 0.001740 0.000000
# 3 -0.003875 -0.004639 0.012013 0.000000 -0.005008 0.000000
# 4 0.000000 0.000000 0.000000 0.070785 0.000000 -0.026225
# 5 -0.002323 0.001740 -0.005008 0.000000 0.037971 0.000000
# 6 0.000000 0.000000 0.000000 -0.026225 0.000000 0.041669
#
#
# Mechanical properties :
#
#
# Convention : Reuss Voigt Hill
#
# Bulk Modulus (GPa) = 11.89686 48.01357 29.95522
# Shear Modulus (GPa) = 16.53700 29.98996 23.26348
#
# Velocity S-wave (km/s) = 2.85858 3.84955 3.39047
# Velocity P-wave (km/s) = 4.09560 6.59423 5.48898
#
# Compressibility (1/GPa) = 0.08405578
#
# Stress axis : x y z
#
# Youngs Moduli (GPa) = 123.96699 11.91861 83.24169
#
# Poissons Ratio (x) = 0.01726 0.32259
# Poissons Ratio (y) = 0.17956 0.38619
# Poissons Ratio (z) = 0.48042 0.05530
#
# Static dielectric constant tensor:
#      x y z
#    x 1.714210 0.000000 -0.020930 
#    y 0.000000 1.726600 0.000000 
#    z -0.020930 0.000000 1.714440 
# 
# From -- ./inp_files/58281.got.cif
#   From: 2010.05.17/outbox.cif.g08.bks.cpg/sg10_30_cif.got.tgz:58281.got - 2010.06.03 11:33:40.
