data_PCOD9147067
_publ_section_title
;
Structure prediction by ZEFSAII (Michael W. Deem and Ramdas Pophale) SiO2 
 PCOD9147067
Probable space group: P 2/M
;
_chemical_formula_sum "Si O2"
_cell_formula_units_Z 32
_cell_length_a 22.430406
_cell_length_b 13.483868
_cell_length_c 15.241201
_cell_angle_alpha 90.000000
_cell_angle_beta 159.582198
_cell_angle_gamma 90.000000
_cell_volume 1608.148080
_symmetry_space_group_name_H-M "P 2/M"
_symmetry_group_IT_number 10
_symmetry_cell_setting 'monoclinic'
loop_
_space_group_symop_operation_xyz
x,y,z
-x,y,-z
-x,-y,-z
x,-y,z
loop_
_atom_site_type_symbol
_atom_site_label
_atom_site_fract_x
_atom_site_fract_y
_atom_site_fract_z
Si Si1 0.939962 0.749537 0.555434
Si Si2 0.441885 0.116484 0.274646
Si Si3 0.571464 0.616283 0.328452
Si Si4 0.320920 0.382754 0.711736
Si Si5 0.171273 0.797556 0.028218
Si Si6 0.844778 0.385481 0.856635
Si Si7 0.735965 0.771054 0.110627
Si Si8 0.825799 0.889112 0.794185
O O1 0.837540 0.658300 0.453727
O O2 0.806380 0.798120 0.303542
O O3 0.105721 0.726479 0.725939
O O4 0.018878 0.804502 0.748028
O O5 0.347321 0.183225 0.217653
O O6 0.634611 0.150813 0.517717
O O7 0.447309 0.000000 0.307421
O O8 0.331216 0.134179 0.034971
O O9 0.520738 0.500000 0.249716
O O10 0.688245 0.640343 0.404406
O O11 0.676230 0.625191 0.563006
O O12 0.411337 0.688687 0.096849
O O13 0.323678 0.500000 0.724235
O O14 0.500000 0.344479 0.000000
O O15 0.160012 0.696496 0.071791
O O16 0.156193 0.885207 0.076934
O O17 0.852537 0.500000 0.900878
O O18 0.000000 0.376143 0.000000
O O19 0.822459 0.000000 0.752490
O O20 0.000000 0.839995 0.000000
#
# Coordination Sequence:
#
# PCOD9147067 Si02
#       8
#     4   4   4   4   4   4   4   4
#     4  10  22  36  53  81 114 150 192 236 285 342
#     4  10  22  41  65  88 114 151 194 246 302 355
#     4  10  20  35  57  85 115 152 194 235 286 344
#     4  10  19  34  56  83 113 151 197 241 283 332
#     4  11  21  36  59  88 118 154 199 236 292 348
#     4  10  21  37  58  87 124 162 198 239 289 350
#     4  10  21  39  57  81 116 149 193 241 291 343
#     4  10  21  38  61  89 117 146 190 244 298 357
#
# _framework density 19.898664
#
# number of rings (size 3 to 8) (size 9 to 14) (size 15 to 20)
#    0.000    1.875    1.250    2.625    0.000    5.000 
#    0.000    8.750    0.000    7.500    0.000    4.375 
#    0.000    0.000    0.000    0.000    0.000    0.000 
#
# Total GULP energy -178249.800718 kJ/mol
# GULP energy per Si atom -5570.306272 kJ/mol
# Density = 1.985337 g / cm^3
# Si number density = 19.898664 Si / 1000 Ang^3
#
#
#
# Elastic Constant Matrix: (Units=GPa)
#
#
# Indices 1 2 3 4 5 6 
#
# 1 78.1080 19.5605 48.3244 0.0000 -7.5874 0.0000
# 2 19.5605 81.3133 21.7988 0.0000 5.9875 0.0000
# 3 48.3244 21.7988 123.4572 0.0000 0.5873 0.0000
# 4 0.0000 0.0000 0.0000 19.7592 0.0000 2.8952
# 5 -7.5874 5.9875 0.5873 0.0000 42.4691 0.0000
# 6 0.0000 0.0000 0.0000 2.8952 0.0000 21.4004
#
#
#
# Elastic Compliance Matrix: (Units=1/GPa)
#
#
# Indices 1 2 3 4 5 6 
#
# 1 0.017908 -0.002830 -0.006528 0.000000 0.003689 0.000000
# 2 -0.002830 0.013494 -0.001264 0.000000 -0.002390 0.000000
# 3 -0.006528 -0.001264 0.010884 0.000000 -0.001139 0.000000
# 4 0.000000 0.000000 0.000000 0.051633 0.000000 -0.006985
# 5 0.003689 -0.002390 -0.001139 0.000000 0.024558 0.000000
# 6 0.000000 0.000000 0.000000 -0.006985 0.000000 0.047673
#
#
# Mechanical properties :
#
#
# Convention : Reuss Voigt Hill
#
# Bulk Modulus (GPa) = 47.52026 51.36067 49.44046
# Shear Modulus (GPa) = 25.71934 29.60539 27.66236
#
# Velocity S-wave (km/s) = 3.59906 3.86140 3.73253
# Velocity P-wave (km/s) = 6.41903 6.76370 6.59362
#
# Compressibility (1/GPa) = 0.02104366
#
# Stress axis : x y z
#
# Youngs Moduli (GPa) = 55.83990 74.10943 91.88112
#
# Poissons Ratio (x) = 0.20970 0.59977
# Poissons Ratio (y) = 0.15801 0.11610
# Poissons Ratio (z) = 0.36451 0.09364
#
# Static dielectric constant tensor:
#      x y z
#    x 1.732820 0.000000 -0.020770 
#    y 0.000000 1.702860 0.000000 
#    z -0.020770 0.000000 1.777400 
# 
# From -- ./inp_files/70796.got.cif
#   From: 2010.05.17/outbox.cif.g08.bks.cpg/sg10_36_cif.got.tgz:70796.got - 2010.06.03 11:33:40.
