data_PCOD9147238
_publ_section_title
;
Structure prediction by ZEFSAII (Michael W. Deem and Ramdas Pophale) SiO2 
 PCOD9147238
Probable space group: P 2/M
;
_chemical_formula_sum "Si O2"
_cell_formula_units_Z 32
_cell_length_a 24.119768
_cell_length_b 7.786551
_cell_length_c 24.157752
_cell_angle_alpha 90.000000
_cell_angle_beta 19.419849
_cell_angle_gamma 90.000000
_cell_volume 1508.518313
_symmetry_space_group_name_H-M "P 2/M"
_symmetry_group_IT_number 10
_symmetry_cell_setting 'monoclinic'
loop_
_space_group_symop_operation_xyz
x,y,z
-x,y,-z
-x,-y,-z
x,-y,z
loop_
_atom_site_type_symbol
_atom_site_label
_atom_site_fract_x
_atom_site_fract_y
_atom_site_fract_z
Si Si1 0.671627 0.210582 0.504797
Si Si2 0.081021 0.298780 0.980587
Si Si3 0.381552 0.197792 0.855847
Si Si4 0.853891 0.792346 0.712650
Si Si5 0.029883 0.800409 0.151202
Si Si6 0.457755 0.207969 0.601779
Si Si7 0.427020 0.303480 0.934612
Si Si8 0.778320 0.207779 0.657817
O O1 0.540933 0.271203 0.673914
O O2 0.596623 0.257888 0.515700
O O3 0.859094 0.275711 0.335268
O O4 0.680227 0.000000 0.498014
O O5 0.038545 0.500000 0.025454
O O6 0.279172 0.276711 0.788812
O O7 0.022187 0.208452 0.091926
O O8 0.000000 0.231550 0.000000
O O9 0.406066 0.198462 0.898153
O O10 0.372906 0.000000 0.843871
O O11 0.204552 0.279046 0.006079
O O12 0.794557 0.739722 0.706930
O O13 0.048027 0.737841 0.535100
O O14 0.852869 0.000000 0.714809
O O15 0.722716 0.731561 0.881569
O O16 0.033331 0.000000 0.165612
O O17 0.500000 0.265150 0.500000
O O18 0.447360 0.000000 0.611529
O O19 0.419288 0.500000 0.924610
O O20 0.606235 0.269443 0.793740
O O21 0.775152 0.000000 0.659729
#
# Coordination Sequence:
#
# PCOD9147238 Si02
#       8
#     4   4   4   4   4   4   4   4
#     4   9  18  35  59  87 109 134 182 239 291 338
#     4  11  23  36  52  80 119 152 182 221 276 351
#     4  10  21  39  59  81 112 151 200 248 287 340
#     4   9  19  38  64  91 119 156 203 252 298 344
#     4  10  20  38  64  85 106 140 186 242 292 333
#     4  10  19  34  58  86 113 140 181 234 283 338
#     4  12  25  37  55  87 126 163 200 241 297 362
#     4   9  19  38  64  91 119 155 203 253 297 346
#
# _framework density 21.212869000000001
#
# number of rings (size 3 to 8) (size 9 to 14) (size 15 to 20)
#    0.000    2.000    1.250    3.375    0.000    6.250 
#    0.000    5.000    0.000    0.000    0.000    0.000 
#    0.000    0.000    0.000    0.000    0.000    0.000 
#
# Total GULP energy -178730.596596 kJ/mol
# GULP energy per Si atom -5585.331144 kJ/mol
# Density = 2.116459 g / cm^3
# Si number density = 21.212869 Si / 1000 Ang^3
#
#
#
# Elastic Constant Matrix: (Units=GPa)
#
#
# Indices 1 2 3 4 5 6 
#
# 1 72.8212 -9.1319 68.4928 0.0000 6.5716 0.0000
# 2 -9.1319 32.5204 -0.0695 0.0000 -2.4087 0.0000
# 3 68.4928 -0.0695 200.4989 0.0000 -5.3581 0.0000
# 4 0.0000 0.0000 0.0000 1.1096 0.0000 -26.5934
# 5 6.5716 -2.4087 -5.3581 0.0000 17.0116 0.0000
# 6 0.0000 0.0000 0.0000 -26.5934 0.0000 -10.8930
#
#
#
# Elastic Compliance Matrix: (Units=1/GPa)
#
#
# Indices 1 2 3 4 5 6 
#
# 1 0.023097 0.005676 -0.008174 0.000000 -0.010693 0.000000
# 2 0.005676 0.032474 -0.001879 0.000000 0.001813 0.000000
# 3 -0.008174 -0.001879 0.007923 0.000000 0.005387 0.000000
# 4 0.000000 0.000000 0.000000 0.015144 0.000000 -0.036971
# 5 -0.010693 0.001813 0.005387 0.000000 0.064868 0.000000
# 6 0.000000 0.000000 0.000000 -0.036971 0.000000 -0.001543
#
#
# Mechanical properties :
#
#
# Convention : Reuss Voigt Hill
#
# Bulk Modulus (GPa) = 18.26802 47.15815 32.71309
# Shear Modulus (GPa) = 29.59190 17.88224 23.73707
#
# Velocity S-wave (km/s) = 3.73902 2.90658 3.34877
# Velocity P-wave (km/s) = 5.22215 5.79167 5.51427
#
# Compressibility (1/GPa) = 0.05474046
#
# Stress axis : x y z
#
# Youngs Moduli (GPa) = 43.29492 30.79370 126.21074
#
# Poissons Ratio (x) = -0.17480 1.03166
# Poissons Ratio (y) = -0.24576 0.23720
# Poissons Ratio (z) = 0.35390 0.05787
#
# Static dielectric constant tensor:
#      x y z
#    x 1.731680 0.000000 -0.012610 
#    y 0.000000 1.772370 0.000000 
#    z -0.012610 0.000000 1.770560 
# 
# From -- ./inp_files/90577.got.cif
#   From: 2010.05.17/outbox.cif.g08.bks.cpg/sg10_46_cif.got.tgz:90577.got - 2010.06.03 11:33:40.
