data_PCOD9147228
_publ_section_title
;
Structure prediction by ZEFSAII (Michael W. Deem and Ramdas Pophale) SiO2 
 PCOD9147228
Probable space group: P 2/M
;
_chemical_formula_sum "Si O2"
_cell_formula_units_Z 28
_cell_length_a 27.826659
_cell_length_b 7.544020
_cell_length_c 9.647377
_cell_angle_alpha 90.000000
_cell_angle_beta 37.761972
_cell_angle_gamma 90.000000
_cell_volume 1240.211934
_symmetry_space_group_name_H-M "P 2/M"
_symmetry_group_IT_number 10
_symmetry_cell_setting 'monoclinic'
loop_
_space_group_symop_operation_xyz
x,y,z
-x,y,-z
-x,-y,-z
x,-y,z
loop_
_atom_site_type_symbol
_atom_site_label
_atom_site_fract_x
_atom_site_fract_y
_atom_site_fract_z
Si Si1 0.072295 0.215848 0.239455
Si Si2 0.757837 0.215102 0.044191
Si Si3 0.386890 0.301119 0.431442
Si Si4 0.341679 0.785689 0.218879
Si Si5 0.025165 0.216600 0.791910
Si Si6 0.471980 0.799790 0.711097
Si Si7 0.796199 0.216038 0.651851
O O1 0.000000 0.271541 0.500000
O O2 0.043460 0.271095 0.155046
O O3 0.075068 0.000000 0.239489
O O4 0.157232 0.274878 0.093924
O O5 0.689784 0.282898 0.298272
O O6 0.754632 0.000000 0.056700
O O7 0.754216 0.267865 0.891263
O O8 0.417472 0.500000 0.367843
O O9 0.365606 0.262838 0.320394
O O10 0.454682 0.190427 0.351235
O O11 0.255443 0.729738 0.362731
O O12 0.343994 0.000000 0.210976
O O13 0.402577 0.720048 0.962632
O O14 0.113310 0.275313 0.554211
O O15 0.027446 0.000000 0.782128
O O16 0.000000 0.273034 0.000000
O O17 0.500000 0.719032 0.500000
O O18 0.444906 0.000000 0.735577
O O19 0.798481 0.000000 0.646375
#
# Coordination Sequence:
#
# PCOD9147228 Si02
#       7
#     4   4   4   4   4   4   4
#     4   9  15  26  46  79 114 144 179 232 292 339
#     4  10  19  34  58  84 114 149 192 240 288 338
#     4  12  26  40  56  83 118 154 193 232 276 331
#     4  10  21  37  60  87 115 148 185 229 283 336
#     4   9  16  24  40  75 119 148 174 222 285 343
#     4  10  21  41  68  94 117 142 181 229 281 340
#     4   9  17  31  52  83 117 146 182 232 286 340
#
# _framework density 22.576786999999999
#
# number of rings (size 3 to 8) (size 9 to 14) (size 15 to 20)
#    0.000    2.143    1.429    2.571    2.000    4.857 
#    0.000    2.143    0.000    0.429    0.000    1.000 
#    0.000    0.000    0.000    0.000    0.000    0.000 
#
# Total GULP energy -156377.332273 kJ/mol
# GULP energy per Si atom -5584.904724 kJ/mol
# Density = 2.252540 g / cm^3
# Si number density = 22.576787 Si / 1000 Ang^3
#
#
#
# Elastic Constant Matrix: (Units=GPa)
#
#
# Indices 1 2 3 4 5 6 
#
# 1 131.1265 -1.2311 20.5833 0.0000 10.6902 0.0000
# 2 -1.2311 63.6528 -3.5890 0.0000 3.0449 0.0000
# 3 20.5833 -3.5890 76.8880 0.0000 9.2028 0.0000
# 4 0.0000 0.0000 0.0000 -0.8699 0.0000 33.6824
# 5 10.6902 3.0449 9.2028 0.0000 45.9786 0.0000
# 6 0.0000 0.0000 0.0000 33.6824 0.0000 -19.7784
#
#
#
# Elastic Compliance Matrix: (Units=1/GPa)
#
#
# Indices 1 2 3 4 5 6 
#
# 1 0.008058 0.000116 -0.001974 0.000000 -0.001486 0.000000
# 2 0.000116 0.015820 0.000857 0.000000 -0.001246 0.000000
# 3 -0.001974 0.000857 0.013858 0.000000 -0.002372 0.000000
# 4 0.000000 0.000000 0.000000 0.017702 0.000000 0.030146
# 5 -0.001486 -0.001246 -0.002372 0.000000 0.022652 0.000000
# 6 0.000000 0.000000 0.000000 0.030146 0.000000 0.000779
#
#
# Mechanical properties :
#
#
# Convention : Reuss Voigt Hill
#
# Bulk Modulus (GPa) = 27.98491 33.68819 30.83655
# Shear Modulus (GPa) = 53.88863 22.12633 38.00748
#
# Velocity S-wave (km/s) = 4.89090 3.13397 4.10747
# Velocity P-wave (km/s) = 6.65709 5.29619 6.01525
#
# Compressibility (1/GPa) = 0.03573354
#
# Stress axis : x y z
#
# Youngs Moduli (GPa) = 124.09517 63.20960 72.15938
#
# Poissons Ratio (x) = -0.00731 0.14244
# Poissons Ratio (y) = -0.01435 -0.06181
# Poissons Ratio (z) = 0.24496 -0.05415
#
# Static dielectric constant tensor:
#      x y z
#    x 1.927470 0.000000 0.039250 
#    y 0.000000 1.897230 0.000000 
#    z 0.039250 0.000000 1.807430 
# 
# From -- ./inp_files/37026.got.cif
#   From: 2010.05.17/outbox.cif.g08.bks.cpg/sg10_19_cif.got.tgz:37026.got - 2010.06.03 11:33:40.
