data_PCOD9147364
_publ_section_title
;
Structure prediction by ZEFSAII (Michael W. Deem and Ramdas Pophale) SiO2 
 PCOD9147364
Probable space group: P 2/M
;
_chemical_formula_sum "Si O2"
_cell_formula_units_Z 32
_cell_length_a 22.202185
_cell_length_b 7.652789
_cell_length_c 12.417840
_cell_angle_alpha 90.000000
_cell_angle_beta 46.781855
_cell_angle_gamma 90.000000
_cell_volume 1537.592166
_symmetry_space_group_name_H-M "P 2/M"
_symmetry_group_IT_number 10
_symmetry_cell_setting 'monoclinic'
loop_
_space_group_symop_operation_xyz
x,y,z
-x,y,-z
-x,-y,-z
x,-y,z
loop_
_atom_site_type_symbol
_atom_site_label
_atom_site_fract_x
_atom_site_fract_y
_atom_site_fract_z
Si Si1 0.728505 0.299676 0.345345
Si Si2 0.229563 0.204992 0.944329
Si Si3 0.921898 0.213352 0.734930
Si Si4 0.893785 0.789004 0.524444
Si Si5 0.406641 0.291204 0.109305
Si Si6 0.260579 0.707246 0.434614
Si Si7 0.538605 0.211051 0.569578
Si Si8 0.616006 0.789038 0.106449
O O1 0.755954 0.500000 0.306400
O O2 0.759237 0.218307 0.196716
O O3 0.755680 0.219798 0.426270
O O4 0.628934 0.289976 0.469318
O O5 0.309924 0.277503 0.908286
O O6 0.228978 0.000000 0.972335
O O7 0.143848 0.275957 0.096755
O O8 0.890803 0.263732 0.653565
O O9 0.016941 0.270689 0.629442
O O10 0.924983 0.000000 0.733078
O O11 0.816746 0.728383 0.549330
O O12 0.892698 0.000000 0.524447
O O13 0.411546 0.500000 0.119125
O O14 0.342781 0.220389 0.276022
O O15 0.500000 0.220062 0.000000
O O16 0.372435 0.259252 0.031499
O O17 0.274633 0.500000 0.432648
O O18 0.500000 0.250682 0.500000
O O19 0.472712 0.271106 0.739491
O O20 0.547702 0.000000 0.564442
O O21 0.614202 0.000000 0.116523
#
# Coordination Sequence:
#
# PCOD9147364 Si02
#       8
#     4   4   4   4   4   4   4   4
#     4  11  23  37  53  75 105 144 188 223 256 309
#     4  10  19  35  55  78 109 139 168 215 274 316
#     4   8  16  32  58  87 111 132 165 219 271 317
#     4   9  17  34  60  86 106 134 176 215 260 320
#     4  10  21  37  54  73 104 142 177 215 261 311
#     4  10  22  38  53  74 108 146 180 217 264 313
#     4  10  19  35  54  75 105 139 175 218 267 312
#     4  10  20  33  54  81 106 132 170 218 267 315
#
# _framework density 20.81176
#
# number of rings (size 3 to 8) (size 9 to 14) (size 15 to 20)
#    0.000    2.250    1.250    2.625    0.000    5.000 
#    0.000    3.125    0.000    3.750    0.000    0.000 
#    0.000    0.000    0.000    0.000    0.000    0.000 
#
# Total GULP energy -178694.158529 kJ/mol
# GULP energy per Si atom -5584.192454 kJ/mol
# Density = 2.076439 g / cm^3
# Si number density = 20.811760 Si / 1000 Ang^3
#
#
#
# Elastic Constant Matrix: (Units=GPa)
#
#
# Indices 1 2 3 4 5 6 
#
# 1 97.4381 -6.0897 55.5036 0.0000 0.3669 0.0000
# 2 -6.0897 34.0395 -1.2368 0.0000 -3.1939 0.0000
# 3 55.5036 -1.2368 158.4570 0.0000 -5.8821 0.0000
# 4 0.0000 0.0000 0.0000 3.9183 0.0000 2.2662
# 5 0.3669 -3.1939 -5.8821 0.0000 26.5281 0.0000
# 6 0.0000 0.0000 0.0000 2.2662 0.0000 19.8788
#
#
#
# Elastic Compliance Matrix: (Units=1/GPa)
#
#
# Indices 1 2 3 4 5 6 
#
# 1 0.013001 0.002071 -0.004573 0.000000 -0.000944 0.000000
# 2 0.002071 0.030065 -0.000360 0.000000 0.003511 0.000000
# 3 -0.004573 -0.000360 0.007976 0.000000 0.001788 0.000000
# 4 0.000000 0.000000 0.000000 0.273225 0.000000 -0.031148
# 5 -0.000944 0.003511 0.001788 0.000000 0.038528 0.000000
# 6 0.000000 0.000000 0.000000 -0.031148 0.000000 0.053856
#
#
# Mechanical properties :
#
#
# Convention : Reuss Voigt Hill
#
# Bulk Modulus (GPa) = 22.06668 42.92099 32.49384
# Shear Modulus (GPa) = 11.42909 26.18222 18.80565
#
# Velocity S-wave (km/s) = 2.34597 3.55075 3.00927
# Velocity P-wave (km/s) = 4.23841 6.12198 5.26511
#
# Compressibility (1/GPa) = 0.04531719
#
# Stress axis : x y z
#
# Youngs Moduli (GPa) = 76.91916 33.26177 125.37392
#
# Poissons Ratio (x) = -0.06889 0.57330
# Poissons Ratio (y) = -0.15931 0.04519
# Poissons Ratio (z) = 0.35173 0.01199
#
# Static dielectric constant tensor:
#      x y z
#    x 1.718470 0.000000 -0.000850 
#    y 0.000000 1.773580 0.000000 
#    z -0.000850 0.000000 1.749260 
# 
# From -- ./inp_files/55307.got.cif
#   From: 2010.05.17/outbox.cif.g08.bks.cpg/sg10_28_cif.got.tgz:55307.got - 2010.06.03 11:33:40.
