data_PCOD9147178
_publ_section_title
;
Structure prediction by ZEFSAII (Michael W. Deem and Ramdas Pophale) SiO2 
 PCOD9147178
Probable space group: P 2/M
;
_chemical_formula_sum "Si O2"
_cell_formula_units_Z 28
_cell_length_a 11.064200
_cell_length_b 13.809592
_cell_length_c 10.045822
_cell_angle_alpha 90.000000
_cell_angle_beta 69.911978
_cell_angle_gamma 90.000000
_cell_volume 1441.546781
_symmetry_space_group_name_H-M "P 2/M"
_symmetry_group_IT_number 10
_symmetry_cell_setting 'monoclinic'
loop_
_space_group_symop_operation_xyz
x,y,z
-x,y,-z
-x,-y,-z
x,-y,z
loop_
_atom_site_type_symbol
_atom_site_label
_atom_site_fract_x
_atom_site_fract_y
_atom_site_fract_z
Si Si1 0.455093 0.613113 0.669764
Si Si2 0.915844 0.116618 0.257233
Si Si3 0.168065 0.231556 0.151675
Si Si4 0.824742 0.891918 0.585716
Si Si5 0.377123 0.385085 0.139109
Si Si6 0.309555 0.208365 0.825552
Si Si7 0.528363 0.891003 0.631014
O O1 0.500000 0.626172 0.500000
O O2 0.418662 0.500000 0.700349
O O3 0.573186 0.631285 0.728319
O O4 0.338912 0.683899 0.758277
O O5 0.903601 0.129780 0.421968
O O6 0.782334 0.148544 0.239332
O O7 0.022572 0.195387 0.169377
O O8 0.939090 0.000000 0.222469
O O9 0.178556 0.176964 0.287598
O O10 0.241984 0.333153 0.155505
O O11 0.248554 0.200084 0.992836
O O12 0.678121 0.893854 0.593136
O O13 0.858744 0.000000 0.618959
O O14 0.362220 0.500000 0.124529
O O15 0.500000 0.353956 0.000000
O O16 0.450939 0.162353 0.773297
O O17 0.500000 0.843103 0.500000
O O18 0.476645 0.000000 0.645317
#
# Coordination Sequence:
#
# PCOD9147178 Si02
#       7
#     4   4   4   4   4   4   4
#     4  10  22  40  66  99 128 157 201 258 317 378
#     4  11  25  45  63  83 125 180 218 252 304 368
#     4  12  25  38  61  93 123 162 211 252 305 378
#     4  10  22  40  62  86 119 164 211 261 313 365
#     4  10  21  42  68  94 127 160 195 253 326 381
#     4  12  23  37  62  92 124 162 206 258 314 371
#     4  10  19  34  57  85 113 150 202 256 310 364
#
# _framework density 19.423580000000001
#
# number of rings (size 3 to 8) (size 9 to 14) (size 15 to 20)
#    0.000    1.286    2.857    3.000    2.000    4.000 
#    0.000    2.143    0.000    3.429    0.000    0.000 
#    0.000    0.000    0.000    0.000    0.000    0.000 
#
# Total GULP energy -155957.127358 kJ/mol
# GULP energy per Si atom -5569.897406 kJ/mol
# Density = 1.937937 g / cm^3
# Si number density = 19.423580 Si / 1000 Ang^3
#
#
#
# Elastic Constant Matrix: (Units=GPa)
#
#
# Indices 1 2 3 4 5 6 
#
# 1 73.3897 36.5917 17.3588 0.0000 -13.9350 0.0000
# 2 36.5917 100.7901 32.4833 0.0000 -17.0168 0.0000
# 3 17.3588 32.4833 109.5466 0.0000 -18.0657 0.0000
# 4 0.0000 0.0000 0.0000 22.7681 0.0000 -3.9551
# 5 -13.9350 -17.0168 -18.0657 0.0000 37.7356 0.0000
# 6 0.0000 0.0000 0.0000 -3.9551 0.0000 30.9783
#
#
#
# Elastic Compliance Matrix: (Units=1/GPa)
#
#
# Indices 1 2 3 4 5 6 
#
# 1 0.017153 -0.005452 -0.000502 0.000000 0.003635 0.000000
# 2 -0.005452 0.013195 -0.002605 0.000000 0.002690 0.000000
# 3 -0.000502 -0.002605 0.010593 0.000000 0.003711 0.000000
# 4 0.000000 0.000000 0.000000 0.044917 0.000000 0.005735
# 5 0.003635 0.002690 0.003711 0.000000 0.030832 0.000000
# 6 0.000000 0.000000 0.000000 0.005735 0.000000 0.033013
#
#
# Mechanical properties :
#
#
# Convention : Reuss Voigt Hill
#
# Bulk Modulus (GPa) = 41.97703 50.73267 46.35485
# Shear Modulus (GPa) = 28.61048 31.44924 30.02986
#
# Velocity S-wave (km/s) = 3.84210 4.02820 3.93625
# Velocity P-wave (km/s) = 6.42967 6.91455 6.67651
#
# Compressibility (1/GPa) = 0.02382255
#
# Stress axis : x y z
#
# Youngs Moduli (GPa) = 58.29818 75.78864 94.40618
#
# Poissons Ratio (x) = 0.41319 0.04739
# Poissons Ratio (y) = 0.31783 0.24593
# Poissons Ratio (z) = 0.02926 0.19743
#
# Static dielectric constant tensor:
#      x y z
#    x 1.731740 0.000000 0.002340 
#    y 0.000000 1.732250 0.000000 
#    z 0.002340 0.000000 1.710650 
# 
# From -- ./inp_files/25219.got.cif
#   From: 2010.05.17/outbox.cif.g08.bks.cpg/sg10_13_cif.got.tgz:25219.got - 2010.06.03 11:33:40.
