data_PCOD9147531
_publ_section_title
;
Structure prediction by ZEFSAII (Michael W. Deem and Ramdas Pophale) SiO2 
 PCOD9147531
Probable space group: P 2/M
;
_chemical_formula_sum "Si O2"
_cell_formula_units_Z 28
_cell_length_a 17.804632
_cell_length_b 7.663762
_cell_length_c 13.992481
_cell_angle_alpha 90.000000
_cell_angle_beta 39.925472
_cell_angle_gamma 90.000000
_cell_volume 1225.358329
_symmetry_space_group_name_H-M "P 2/M"
_symmetry_group_IT_number 10
_symmetry_cell_setting 'monoclinic'
loop_
_space_group_symop_operation_xyz
x,y,z
-x,y,-z
-x,-y,-z
x,-y,z
loop_
_atom_site_type_symbol
_atom_site_label
_atom_site_fract_x
_atom_site_fract_y
_atom_site_fract_z
Si Si1 0.074503 0.200383 0.678298
Si Si2 0.845645 0.704481 0.815410
Si Si3 0.600596 0.712635 0.133297
Si Si4 0.875859 0.298414 0.159385
Si Si5 0.153249 0.802195 0.400335
Si Si6 0.412482 0.707187 0.173817
Si Si7 0.377260 0.286698 0.668036
O O1 0.115265 0.291394 0.734615
O O2 0.116115 0.282484 0.537117
O O3 0.934933 0.204983 0.800270
O O4 0.115302 0.000000 0.644394
O O5 0.849225 0.500000 0.834398
O O6 0.879149 0.727425 0.671508
O O7 0.713879 0.767634 0.962128
O O8 0.597219 0.500000 0.132143
O O9 0.481098 0.770680 0.200266
O O10 0.616192 0.762773 0.227260
O O11 0.875891 0.500000 0.125697
O O12 0.748629 0.226607 0.251402
O O13 0.000000 0.220490 0.000000
O O14 0.292774 0.800258 0.268987
O O15 0.109348 0.000000 0.446574
O O16 0.386085 0.500000 0.208336
O O17 0.500000 0.725963 0.000000
O O18 0.500000 0.229551 0.500000
O O19 0.376812 0.500000 0.661753
#
# Coordination Sequence:
#
# PCOD9147531 Si02
#       7
#     4   4   4   4   4   4   4
#     4  11  25  41  58  84 120 158 195 240 300 360
#     4  11  21  38  62  87 115 152 198 246 296 352
#     4   9  18  33  55  84 119 149 183 241 297 345
#     4  10  21  39  63  90 117 151 203 258 303 354
#     4  11  24  39  55  82 123 159 193 241 296 359
#     4  10  19  35  58  86 116 151 198 245 290 348
#     4   9  18  32  54  87 119 148 187 242 302 350
#
# _framework density 22.850459000000001
#
# number of rings (size 3 to 8) (size 9 to 14) (size 15 to 20)
#    0.000    1.857    1.429    2.571    2.000    6.857 
#    0.000    0.000    0.000    1.286    0.000    0.000 
#    0.000    0.000    0.000    0.000    0.000    0.000 
#
# Total GULP energy -156396.460128 kJ/mol
# GULP energy per Si atom -5585.587862 kJ/mol
# Density = 2.279845 g / cm^3
# Si number density = 22.850459 Si / 1000 Ang^3
#
#
#
# Elastic Constant Matrix: (Units=GPa)
#
#
# Indices 1 2 3 4 5 6 
#
# 1 183.2357 4.0887 49.7592 0.0000 -7.0951 0.0000
# 2 4.0887 40.5044 7.1482 0.0000 -2.3049 0.0000
# 3 49.7592 7.1482 98.7010 0.0000 -1.2143 0.0000
# 4 0.0000 0.0000 0.0000 9.6840 0.0000 -2.9949
# 5 -7.0951 -2.3049 -1.2143 0.0000 38.3769 0.0000
# 6 0.0000 0.0000 0.0000 -2.9949 0.0000 -12.5492
#
#
#
# Elastic Compliance Matrix: (Units=1/GPa)
#
#
# Indices 1 2 3 4 5 6 
#
# 1 0.006367 -0.000018 -0.003195 0.000000 0.001075 0.000000
# 2 -0.000018 0.025089 -0.001790 0.000000 0.001447 0.000000
# 3 -0.003195 -0.001790 0.011868 0.000000 -0.000323 0.000000
# 4 0.000000 0.000000 0.000000 0.096166 0.000000 -0.022950
# 5 0.001075 0.001447 -0.000323 0.000000 0.026333 0.000000
# 6 0.000000 0.000000 0.000000 -0.022950 0.000000 -0.074209
#
#
# Mechanical properties :
#
#
# Convention : Reuss Voigt Hill
#
# Bulk Modulus (GPa) = 30.01432 49.38146 39.69789
# Shear Modulus (GPa) = 44.35520 24.53200 34.44360
#
# Velocity S-wave (km/s) = 4.41058 3.28012 3.88667
# Velocity P-wave (km/s) = 6.25310 6.00027 6.12799
#
# Compressibility (1/GPa) = 0.03331743
#
# Stress axis : x y z
#
# Youngs Moduli (GPa) = 157.05427 39.85849 84.25831
#
# Poissons Ratio (x) = 0.00070 0.26925
# Poissons Ratio (y) = 0.00277 0.15085
# Poissons Ratio (z) = 0.50186 0.07136
#
# Static dielectric constant tensor:
#      x y z
#    x 1.810870 0.000000 -0.016500 
#    y 0.000000 1.861320 0.000000 
#    z -0.016500 0.000000 1.875230 
# 
# From -- ./inp_files/68576.got.cif
#   From: 2010.05.17/outbox.cif.g08.bks.cpg/sg10_35_cif.got.tgz:68576.got - 2010.06.03 11:33:40.
