data_PCOD9147104
_publ_section_title
;
Structure prediction by ZEFSAII (Michael W. Deem and Ramdas Pophale) SiO2 
 PCOD9147104
Probable space group: P 2/M
;
_chemical_formula_sum "Si O2"
_cell_formula_units_Z 32
_cell_length_a 23.235144
_cell_length_b 7.569367
_cell_length_c 15.030373
_cell_angle_alpha 90.000000
_cell_angle_beta 151.506614
_cell_angle_gamma 90.000000
_cell_volume 1261.087567
_symmetry_space_group_name_H-M "P 2/M"
_symmetry_group_IT_number 10
_symmetry_cell_setting 'monoclinic'
loop_
_space_group_symop_operation_xyz
x,y,z
-x,y,-z
-x,-y,-z
x,-y,z
loop_
_atom_site_type_symbol
_atom_site_label
_atom_site_fract_x
_atom_site_fract_y
_atom_site_fract_z
Si Si1 0.208550 0.713655 0.526246
Si Si2 0.105589 0.216915 0.709765
Si Si3 0.808852 0.798945 0.994039
Si Si4 0.705740 0.294450 0.672260
Si Si5 0.105961 0.716266 0.209041
Si Si6 0.461213 0.702794 0.791226
Si Si7 0.451440 0.284827 0.284622
Si Si8 0.707849 0.205277 0.175685
O O1 0.207599 0.500000 0.528867
O O2 0.112558 0.770212 0.320945
O O3 0.340015 0.777983 0.669087
O O4 0.202917 0.776836 0.619501
O O5 0.226289 0.276127 0.822460
O O6 0.000000 0.271246 0.500000
O O7 0.105927 0.000000 0.712808
O O8 0.107889 0.279500 0.814687
O O9 0.792348 0.716678 0.874957
O O10 0.673789 0.793167 0.852269
O O11 0.845302 0.000000 0.028806
O O12 0.688454 0.500000 0.630164
O O13 0.772811 0.222682 0.676764
O O14 0.570125 0.228646 0.501970
O O15 0.103168 0.500000 0.205362
O O16 0.000000 0.775768 0.000000
O O17 0.429575 0.500000 0.729576
O O18 0.510397 0.771126 0.763462
O O19 0.578100 0.708403 0.013309
O O20 0.435447 0.500000 0.267605
O O21 0.683694 0.000000 0.129810
#
# Coordination Sequence:
#
# PCOD9147104 Si02
#       8
#     4   4   4   4   4   4   4   4
#     4  10  20  36  57  83 112 145 181 218 269 330
#     4   9  20  39  57  73 103 147 186 219 266 326
#     4  11  22  36  56  83 110 142 182 225 272 321
#     4  10  20  36  57  83 112 145 181 218 269 330
#     4   9  18  35  59  83 109 143 184 229 272 314
#     4  10  19  34  57  81 109 145 180 218 268 327
#     4  10  19  34  57  81 109 145 180 218 268 327
#     4  11  22  36  56  83 110 142 182 225 272 321
#
# _framework density 25.374921000000001
#
# number of rings (size 3 to 8) (size 9 to 14) (size 15 to 20)
#    0.000    2.000    2.500    1.500    0.000    5.000 
#    0.000    0.625    0.000    6.000    0.000    0.000 
#    0.000    0.000    0.000    0.000    0.000    0.000 
#
# Total GULP energy -178857.612390 kJ/mol
# GULP energy per Si atom -5589.300387 kJ/mol
# Density = 2.531717 g / cm^3
# Si number density = 25.374921 Si / 1000 Ang^3
#
#
#
# Elastic Constant Matrix: (Units=GPa)
#
#
# Indices 1 2 3 4 5 6 
#
# 1 64.3608 -3.6737 3.5584 0.0000 -26.7356 0.0000
# 2 -3.6737 65.9815 -2.2130 0.0000 0.3682 0.0000
# 3 3.5584 -2.2130 134.3207 0.0000 -31.7601 0.0000
# 4 0.0000 0.0000 0.0000 -4.0632 0.0000 17.5350
# 5 -26.7356 0.3682 -31.7601 0.0000 45.4693 0.0000
# 6 0.0000 0.0000 0.0000 17.5350 0.0000 -8.5333
#
#
#
# Elastic Compliance Matrix: (Units=1/GPa)
#
#
# Indices 1 2 3 4 5 6 
#
# 1 0.021555 0.001216 0.002927 0.000000 0.014709 0.000000
# 2 0.001216 0.015233 0.000430 0.000000 0.000892 0.000000
# 3 0.002927 0.000430 0.009320 0.000000 0.008227 0.000000
# 4 0.000000 0.000000 0.000000 0.031280 0.000000 0.064277
# 5 0.014709 0.000892 0.008227 0.000000 0.036381 0.000000
# 6 0.000000 0.000000 0.000000 0.064277 0.000000 0.014894
#
#
# Mechanical properties :
#
#
# Convention : Reuss Voigt Hill
#
# Bulk Modulus (GPa) = 18.09850 28.88962 23.49406
# Shear Modulus (GPa) = 36.24887 24.37398 30.31143
#
# Velocity S-wave (km/s) = 3.78369 3.10264 3.45997
# Velocity P-wave (km/s) = 5.12214 4.92392 5.02401
#
# Compressibility (1/GPa) = 0.05525319
#
# Stress axis : x y z
#
# Youngs Moduli (GPa) = 46.39283 65.64736 107.29892
#
# Poissons Ratio (x) = -0.07984 -0.31405
# Poissons Ratio (y) = -0.05642 -0.04610
# Poissons Ratio (z) = -0.13579 -0.02820
#
# Static dielectric constant tensor:
#      x y z
#    x 1.982550 0.000000 -0.000100 
#    y 0.000000 1.947880 0.000000 
#    z -0.000100 0.000000 2.070480 
# 
# From -- ./inp_files/71568.got.cif
#   From: 2010.05.17/outbox.cif.g08.bks.cpg/sg10_36_cif.got.tgz:71568.got - 2010.06.03 11:33:40.
