data_PCOD9147647
_publ_section_title
;
Structure prediction by ZEFSAII (Michael W. Deem and Ramdas Pophale) SiO2 
 PCOD9147647
Probable space group: P 2/M
;
_chemical_formula_sum "Si O2"
_cell_formula_units_Z 32
_cell_length_a 19.959139
_cell_length_b 7.592465
_cell_length_c 25.453971
_cell_angle_alpha 90.000000
_cell_angle_beta 158.002470
_cell_angle_gamma 90.000000
_cell_volume 1444.804951
_symmetry_space_group_name_H-M "P 2/M"
_symmetry_group_IT_number 10
_symmetry_cell_setting 'monoclinic'
loop_
_space_group_symop_operation_xyz
x,y,z
-x,y,-z
-x,-y,-z
x,-y,z
loop_
_atom_site_type_symbol
_atom_site_label
_atom_site_fract_x
_atom_site_fract_y
_atom_site_fract_z
Si Si1 0.301117 0.792767 0.364626
Si Si2 0.951691 0.206351 0.727086
Si Si3 0.646516 0.786318 0.962278
Si Si4 0.624713 0.292664 0.826460
Si Si5 0.752840 0.292582 0.477280
Si Si6 0.993276 0.286611 0.934185
Si Si7 0.001010 0.787061 0.440118
Si Si8 0.392639 0.784731 0.871069
O O1 0.500000 0.717798 0.500000
O O2 0.186690 0.717567 0.330515
O O3 0.176090 0.776207 0.222437
O O4 0.326782 0.000000 0.394943
O O5 0.874002 0.218819 0.612097
O O6 0.153132 0.277930 0.878307
O O7 0.969534 0.000000 0.753139
O O8 0.645909 0.000000 0.963138
O O9 0.597755 0.727946 0.868714
O O10 0.500294 0.727390 0.897989
O O11 0.632031 0.500000 0.818686
O O12 0.449184 0.218533 0.670286
O O13 0.820429 0.220884 0.955328
O O14 0.742061 0.500000 0.479272
O O15 0.841911 0.267311 0.484919
O O16 0.987434 0.500000 0.927354
O O17 0.000000 0.235687 0.000000
O O18 0.000000 0.726993 0.500000
O O19 0.812345 0.728845 0.278509
O O20 0.006170 0.000000 0.445276
O O21 0.390987 0.000000 0.870030
O O22 0.500000 0.726516 0.000000
#
# Coordination Sequence:
#
# PCOD9147647 Si02
#       8
#     4   4   4   4   4   4   4   4
#     4  10  22  40  61  90 123 151 185 235 291 339
#     4  10  21  38  59  85 117 151 190 236 285 344
#     4  10  19  35  61  86 108 143 191 237 286 342
#     4  10  22  39  56  81 115 149 190 238 281 329
#     4  11  24  38  56  83 117 156 195 237 287 340
#     4  10  22  40  62  86 115 154 197 235 275 334
#     4  10  20  36  57  81 110 146 191 239 289 343
#     4   9  17  30  52  80 107 137 178 230 280 331
#
# _framework density 22.148319000000001
#
# number of rings (size 3 to 8) (size 9 to 14) (size 15 to 20)
#    0.000    2.000    1.250    1.875    1.750    5.750 
#    0.000    0.625    0.000    1.500    0.000    0.000 
#    0.000    0.000    0.000    0.000    0.000    0.000 
#
# Total GULP energy -178797.495428 kJ/mol
# GULP energy per Si atom -5587.421732 kJ/mol
# Density = 2.209791 g / cm^3
# Si number density = 22.148319 Si / 1000 Ang^3
#
#
#
# Elastic Constant Matrix: (Units=GPa)
#
#
# Indices 1 2 3 4 5 6 
#
# 1 68.8494 -14.0709 5.4530 0.0000 8.1832 0.0000
# 2 -14.0709 44.5446 -8.2388 0.0000 9.7874 0.0000
# 3 5.4530 -8.2388 123.6994 0.0000 12.2040 0.0000
# 4 0.0000 0.0000 0.0000 14.9627 0.0000 -15.7163
# 5 8.1832 9.7874 12.2040 0.0000 40.9329 0.0000
# 6 0.0000 0.0000 0.0000 -15.7163 0.0000 31.5158
#
#
#
# Elastic Compliance Matrix: (Units=1/GPa)
#
#
# Indices 1 2 3 4 5 6 
#
# 1 0.016363 0.006259 0.000171 0.000000 -0.004819 0.000000
# 2 0.006259 0.026685 0.002323 0.000000 -0.008324 0.000000
# 3 0.000171 0.002323 0.008541 0.000000 -0.003136 0.000000
# 4 0.000000 0.000000 0.000000 0.140345 0.000000 0.069988
# 5 -0.004819 -0.008324 -0.003136 0.000000 0.028319 0.000000
# 6 0.000000 0.000000 0.000000 0.069988 0.000000 0.066632
#
#
# Mechanical properties :
#
#
# Convention : Reuss Voigt Hill
#
# Bulk Modulus (GPa) = 14.47293 22.59778 18.53536
# Shear Modulus (GPa) = 17.09926 34.41229 25.75577
#
# Velocity S-wave (km/s) = 2.78156 3.94600 3.41380
# Velocity P-wave (km/s) = 4.10669 5.56654 4.89138
#
# Compressibility (1/GPa) = 0.06909449
#
# Stress axis : x y z
#
# Youngs Moduli (GPa) = 61.11396 37.47390 117.08692
#
# Poissons Ratio (x) = -0.23456 -0.02002
# Poissons Ratio (y) = -0.38252 -0.27196
# Poissons Ratio (z) = -0.01045 -0.08704
#
# Static dielectric constant tensor:
#      x y z
#    x 1.777320 0.000000 0.026490 
#    y 0.000000 1.950780 0.000000 
#    z 0.026490 0.000000 1.796300 
# 
# From -- ./inp_files/93762.got.cif
#   From: 2010.05.17/outbox.cif.g08.bks.cpg/sg10_47_cif.got.tgz:93762.got - 2010.06.03 11:33:40.
