data_PCOD9147018
_publ_section_title
;
Structure prediction by ZEFSAII (Michael W. Deem and Ramdas Pophale) SiO2 
 PCOD9147018
Probable space group: P 2/M
;
_chemical_formula_sum "Si O2"
_cell_formula_units_Z 32
_cell_length_a 22.601562
_cell_length_b 7.371320
_cell_length_c 14.479638
_cell_angle_alpha 90.000000
_cell_angle_beta 35.368928
_cell_angle_gamma 90.000000
_cell_volume 1396.365903
_symmetry_space_group_name_H-M "P 2/M"
_symmetry_group_IT_number 10
_symmetry_cell_setting 'monoclinic'
loop_
_space_group_symop_operation_xyz
x,y,z
-x,y,-z
-x,-y,-z
x,-y,z
loop_
_atom_site_type_symbol
_atom_site_label
_atom_site_fract_x
_atom_site_fract_y
_atom_site_fract_z
Si Si1 0.583191 0.211358 0.323240
Si Si2 0.394276 0.208771 0.247343
Si Si3 0.210165 0.719785 0.618964
Si Si4 0.033008 0.291053 0.555492
Si Si5 0.592893 0.777965 0.101896
Si Si6 0.268267 0.779945 0.235580
Si Si7 0.006065 0.721938 0.192727
Si Si8 0.211358 0.280732 0.829054
O O1 0.500000 0.291176 0.500000
O O2 0.587719 0.286813 0.213756
O O3 0.693124 0.222971 0.231076
O O4 0.554778 0.000000 0.347679
O O5 0.301601 0.214898 0.438073
O O6 0.494059 0.285028 0.169998
O O7 0.349421 0.284629 0.209212
O O8 0.420483 0.000000 0.193252
O O9 0.212787 0.500000 0.613736
O O10 0.100526 0.777023 0.718329
O O11 0.222382 0.779197 0.709157
O O12 0.997287 0.500000 0.599097
O O13 0.155752 0.287115 0.402760
O O14 0.991523 0.214106 0.704337
O O15 0.000000 0.207170 0.500000
O O16 0.591894 0.000000 0.105127
O O17 0.692267 0.726928 0.915919
O O18 0.264379 0.000000 0.245175
O O19 0.005173 0.500000 0.194857
O O20 0.104499 0.779159 0.009570
O O21 0.210242 0.500000 0.829464
#
# Coordination Sequence:
#
# PCOD9147018 Si02
#       8
#     4   4   4   4   4   4   4   4
#     4  10  21  38  57  78 108 145 178 213 267 323
#     4  10  19  34  57  81 106 139 180 221 265 316
#     4  10  19  34  56  80 108 141 177 220 269 316
#     4  10  21  36  56  80 109 144 178 215 266 322
#     4   9  19  35  55  78 107 143 179 217 264 321
#     4  10  20  35  56  82 108 138 179 224 266 310
#     4   9  18  35  55  77 107 141 176 214 262 320
#     4  10  21  35  56  82 106 138 182 225 264 311
#
# _framework density 22.916627999999999
#
# number of rings (size 3 to 8) (size 9 to 14) (size 15 to 20)
#    0.000    2.250    1.250    1.500    1.750    5.000 
#    0.000    2.500    0.000    3.000    0.000    0.000 
#    0.000    0.000    0.000    0.000    0.000    0.000 
#
# Total GULP energy -178897.124338 kJ/mol
# GULP energy per Si atom -5590.535136 kJ/mol
# Density = 2.286447 g / cm^3
# Si number density = 22.916628 Si / 1000 Ang^3
#
#
#
# Elastic Constant Matrix: (Units=GPa)
#
#
# Indices 1 2 3 4 5 6 
#
# 1 108.9201 -5.6546 17.5809 0.0000 34.1461 0.0000
# 2 -5.6546 82.5647 -8.3264 0.0000 8.2660 0.0000
# 3 17.5809 -8.3264 119.7184 0.0000 30.2393 0.0000
# 4 0.0000 0.0000 0.0000 9.5059 0.0000 -11.7399
# 5 34.1461 8.2660 30.2393 0.0000 45.0452 0.0000
# 6 0.0000 0.0000 0.0000 -11.7399 0.0000 6.3381
#
#
#
# Elastic Compliance Matrix: (Units=1/GPa)
#
#
# Indices 1 2 3 4 5 6 
#
# 1 0.012388 0.001983 0.000942 0.000000 -0.010388 0.000000
# 2 0.001983 0.012958 0.001915 0.000000 -0.005167 0.000000
# 3 0.000942 0.001915 0.010376 0.000000 -0.008032 0.000000
# 4 0.000000 0.000000 0.000000 -0.081702 0.000000 -0.151334
# 5 -0.010388 -0.005167 -0.008032 0.000000 0.036414 0.000000
# 6 0.000000 0.000000 0.000000 -0.151334 0.000000 -0.122536
#
#
# Mechanical properties :
#
#
# Convention : Reuss Voigt Hill
#
# Bulk Modulus (GPa) = 22.02420 35.37812 28.70116
# Shear Modulus (GPa) = -39.47959 32.68473 -3.39743
#
# Velocity S-wave (km/s) = -4.15510 3.78066 -1.21891
# Velocity P-wave (km/s) = 3.65902 5.87615 3.25121
#
# Compressibility (1/GPa) = 0.04540460
#
# Stress axis : x y z
#
# Youngs Moduli (GPa) = 80.72100 77.17257 96.37245
#
# Poissons Ratio (x) = -0.15307 -0.09083
# Poissons Ratio (y) = -0.16010 -0.18456
# Poissons Ratio (z) = -0.07607 -0.14779
#
# Static dielectric constant tensor:
#      x y z
#    x 1.817430 0.000000 0.023850 
#    y 0.000000 1.918060 0.000000 
#    z 0.023850 0.000000 1.795090 
# 
# From -- ./inp_files/57002.got.cif
#   From: 2010.05.17/outbox.cif.g08.bks.cpg/sg10_29_cif.got.tgz:57002.got - 2010.06.03 11:33:40.
