data_PCOD9147836
_publ_section_title
;
Structure prediction by ZEFSAII (Michael W. Deem and Ramdas Pophale) SiO2 
 PCOD9147836
Probable space group: P 2/M
;
_chemical_formula_sum "Si O2"
_cell_formula_units_Z 32
_cell_length_a 26.796233
_cell_length_b 8.981248
_cell_length_c 21.729489
_cell_angle_alpha 90.000000
_cell_angle_beta 19.843411
_cell_angle_gamma 90.000000
_cell_volume 1775.156513
_symmetry_space_group_name_H-M "P 2/M"
_symmetry_group_IT_number 10
_symmetry_cell_setting 'monoclinic'
loop_
_space_group_symop_operation_xyz
x,y,z
-x,y,-z
-x,-y,-z
x,-y,z
loop_
_atom_site_type_symbol
_atom_site_label
_atom_site_fract_x
_atom_site_fract_y
_atom_site_fract_z
Si Si1 0.332834 0.673774 0.997998
Si Si2 0.642326 0.319058 0.296325
Si Si3 0.540385 0.680133 0.279071
Si Si4 0.670478 0.324370 0.646793
Si Si5 0.035393 0.679237 0.030477
Si Si6 0.337523 0.321077 0.206693
Si Si7 0.172727 0.167274 0.289333
Si Si8 0.760369 0.177552 0.417335
O O1 0.290208 0.500000 0.048604
O O2 0.360787 0.719433 0.894958
O O3 0.493691 0.685544 0.843258
O O4 0.220141 0.768023 0.168522
O O5 0.500000 0.267673 0.500000
O O6 0.642292 0.500000 0.299181
O O7 0.615395 0.278450 0.256386
O O8 0.799693 0.272457 0.141411
O O9 0.520225 0.500000 0.300968
O O10 0.380746 0.753516 0.454767
O O11 0.708084 0.500000 0.596060
O O12 0.706629 0.271518 0.673600
O O13 0.742364 0.232475 0.508514
O O14 0.025713 0.500000 0.050647
O O15 0.910132 0.758091 0.215631
O O16 0.000000 0.709169 0.000000
O O17 0.341461 0.500000 0.204883
O O18 0.235481 0.269007 0.270440
O O19 0.500000 0.268266 0.000000
O O20 0.000000 0.162912 0.500000
O O21 0.232878 0.000000 0.225354
O O22 0.756318 0.000000 0.418283
#
# Coordination Sequence:
#
# PCOD9147836 Si02
#       8
#     4   4   4   4   4   4   4   4
#     4   9  17  33  56  78 104 139 183 232 276 323
#     4   9  17  32  58  88 111 136 181 232 273 317
#     4   9  18  35  58  82 108 140 183 232 274 322
#     4   9  18  35  59  84 109 138 180 234 280 326
#     4  10  20  36  60  86 114 148 184 228 278 323
#     4  10  19  36  61  85 106 134 183 239 282 324
#     4  11  24  38  51  75 113 151 183 223 276 336
#     4  11  22  35  54  82 117 151 183 221 270 332
#
# _framework density 18.026579000000002
#
# number of rings (size 3 to 8) (size 9 to 14) (size 15 to 20)
#    0.000    2.250    1.250    3.000    0.000    6.000 
#    2.250    0.625    0.000    1.500    0.000    0.000 
#    0.000    0.000    0.000    0.000    0.000    0.000 
#
# Total GULP energy -178516.652632 kJ/mol
# GULP energy per Si atom -5578.645395 kJ/mol
# Density = 1.798555 g / cm^3
# Si number density = 18.026579 Si / 1000 Ang^3
#
#
#
# Elastic Constant Matrix: (Units=GPa)
#
#
# Indices 1 2 3 4 5 6 
#
# 1 135.7610 27.0434 70.6944 0.0000 9.3450 0.0000
# 2 27.0434 28.1016 43.6533 0.0000 8.8692 0.0000
# 3 70.6944 43.6533 127.7293 0.0000 11.4088 0.0000
# 4 0.0000 0.0000 0.0000 -7.3614 0.0000 -14.8595
# 5 9.3450 8.8692 11.4088 0.0000 23.1567 0.0000
# 6 0.0000 0.0000 0.0000 -14.8595 0.0000 -0.8036
#
#
#
# Elastic Compliance Matrix: (Units=1/GPa)
#
#
# Indices 1 2 3 4 5 6 
#
# 1 0.010437 -0.001905 -0.005036 0.000000 -0.001001 0.000000
# 2 -0.001905 0.083220 -0.025742 0.000000 -0.018423 0.000000
# 3 -0.005036 -0.025742 0.019197 0.000000 0.002434 0.000000
# 4 0.000000 0.000000 0.000000 0.003740 0.000000 -0.069150
# 5 -0.001001 -0.018423 0.002434 0.000000 0.049445 0.000000
# 6 0.000000 0.000000 0.000000 -0.069150 0.000000 0.034257
#
#
# Mechanical properties :
#
#
# Convention : Reuss Voigt Hill
#
# Bulk Modulus (GPa) = 21.05783 63.81934 42.43859
# Shear Modulus (GPa) = 17.76262 13.01172 15.38717
#
# Velocity S-wave (km/s) = 3.14245 2.68956 2.92478
# Velocity P-wave (km/s) = 4.98734 6.71750 5.91601
#
# Compressibility (1/GPa) = 0.04748827
#
# Stress axis : x y z
#
# Youngs Moduli (GPa) = 95.81699 12.01628 52.09249
#
# Poissons Ratio (x) = 0.02289 0.26234
# Poissons Ratio (y) = 0.18250 1.34097
# Poissons Ratio (z) = 0.48253 0.30932
#
# Static dielectric constant tensor:
#      x y z
#    x 1.612610 0.000000 0.013170 
#    y 0.000000 1.598550 0.000000 
#    z 0.013170 0.000000 1.594560 
# 
# From -- ./inp_files/86737.got.cif
#   From: 2010.05.17/outbox.cif.g08.bks.cpg/sg10_44_cif.got.tgz:86737.got - 2010.06.03 11:33:40.
