data_PCOD9147204
_publ_section_title
;
Structure prediction by ZEFSAII (Michael W. Deem and Ramdas Pophale) SiO2 
 PCOD9147204
Probable space group: P 2/M
;
_chemical_formula_sum "Si O2"
_cell_formula_units_Z 32
_cell_length_a 9.435277
_cell_length_b 13.568921
_cell_length_c 28.541993
_cell_angle_alpha 90.000000
_cell_angle_beta 150.911666
_cell_angle_gamma 90.000000
_cell_volume 1776.483670
_symmetry_space_group_name_H-M "P 2/M"
_symmetry_group_IT_number 10
_symmetry_cell_setting 'monoclinic'
loop_
_space_group_symop_operation_xyz
x,y,z
-x,y,-z
-x,-y,-z
x,-y,z
loop_
_atom_site_type_symbol
_atom_site_label
_atom_site_fract_x
_atom_site_fract_y
_atom_site_fract_z
Si Si1 0.341429 0.617459 0.697174
Si Si2 0.773897 0.247196 0.047423
Si Si3 0.127763 0.383353 0.085994
Si Si4 0.214595 0.255394 0.445548
Si Si5 0.693833 0.113703 0.439815
Si Si6 0.681547 0.113544 0.931650
Si Si7 0.731931 0.116713 0.273847
Si Si8 0.381050 0.802462 0.262667
O O1 0.354875 0.500000 0.691712
O O2 0.542023 0.638799 0.801568
O O3 0.490930 0.690274 0.702137
O O4 0.013521 0.657032 0.609000
O O5 0.920156 0.342223 0.066219
O O6 0.040036 0.197888 0.152643
O O7 0.500000 0.269830 0.000000
O O8 0.678524 0.178303 0.976955
O O9 0.110362 0.500000 0.078774
O O10 0.000000 0.343633 0.000000
O O11 0.500000 0.287564 0.500000
O O12 0.294106 0.192354 0.514839
O O13 0.027004 0.178310 0.360587
O O14 0.456345 0.144758 0.332701
O O15 0.000000 0.118426 0.500000
O O16 0.655781 0.000000 0.444739
O O17 0.456029 0.142535 0.826054
O O18 0.624625 0.000000 0.927804
O O19 0.000000 0.117759 0.000000
O O20 0.550745 0.144714 0.268516
O O21 0.783889 0.000000 0.289370
#
# Coordination Sequence:
#
# PCOD9147204 Si02
#       8
#     4   4   4   4   4   4   4   4
#     4   9  19  37  61  85 111 145 187 232 277 335
#     4  11  23  35  53  84 121 152 175 227 290 339
#     4   9  19  37  64  89 107 141 192 231 270 334
#     4  11  24  38  55  85 117 148 184 240 288 335
#     4  11  21  37  61  84 109 146 196 237 277 332
#     4  10  20  34  56  81 108 149 197 231 267 335
#     4  10  19  34  58  81 105 146 194 236 279 327
#     4  10  20  36  57  84 110 148 191 234 275 333
#
# _framework density 18.013112
#
# number of rings (size 3 to 8) (size 9 to 14) (size 15 to 20)
#    0.000    1.875    3.750    1.125    3.500    3.250 
#    0.000    2.500    0.000    0.000    0.000    0.000 
#    0.000    0.000    0.000    0.000    0.000    0.000 
#
# Total GULP energy -178500.115416 kJ/mol
# GULP energy per Si atom -5578.128607 kJ/mol
# Density = 1.797211 g / cm^3
# Si number density = 18.013112 Si / 1000 Ang^3
#
#
#
# Elastic Constant Matrix: (Units=GPa)
#
#
# Indices 1 2 3 4 5 6 
#
# 1 60.0664 8.1356 30.8787 0.0000 6.9900 0.0000
# 2 8.1356 72.6728 9.3802 0.0000 -5.8292 0.0000
# 3 30.8787 9.3802 92.7840 0.0000 -6.0704 0.0000
# 4 0.0000 0.0000 0.0000 26.8155 0.0000 -4.2685
# 5 6.9900 -5.8292 -6.0704 0.0000 25.8528 0.0000
# 6 0.0000 0.0000 0.0000 -4.2685 0.0000 2.6964
#
#
#
# Elastic Compliance Matrix: (Units=1/GPa)
#
#
# Indices 1 2 3 4 5 6 
#
# 1 0.021770 -0.002114 -0.007564 0.000000 -0.008139 0.000000
# 2 -0.002114 0.014358 -0.000507 0.000000 0.003690 0.000000
# 3 -0.007564 -0.000507 0.013683 0.000000 0.005144 0.000000
# 4 0.000000 0.000000 0.000000 0.049854 0.000000 0.078920
# 5 -0.008139 0.003690 0.005144 0.000000 0.042921 0.000000
# 6 0.000000 0.000000 0.000000 0.078920 0.000000 0.495788
#
#
# Mechanical properties :
#
#
# Convention : Reuss Voigt Hill
#
# Bulk Modulus (GPa) = 33.96444 35.81244 34.88844
# Shear Modulus (GPa) = 7.47879 22.88152 15.18015
#
# Velocity S-wave (km/s) = 2.03982 3.56795 2.90613
# Velocity P-wave (km/s) = 4.94410 6.07439 5.53816
#
# Compressibility (1/GPa) = 0.02944256
#
# Stress axis : x y z
#
# Youngs Moduli (GPa) = 45.93459 69.64604 73.08464
#
# Poissons Ratio (x) = 0.14721 0.55281
# Poissons Ratio (y) = 0.09709 0.03703
# Poissons Ratio (z) = 0.34745 0.03529
#
# Static dielectric constant tensor:
#      x y z
#    x 1.592190 0.000000 0.003320 
#    y 0.000000 1.625800 0.000000 
#    z 0.003320 0.000000 1.683590 
# 
# From -- ./inp_files/92396.got.cif
#   From: 2010.05.17/outbox.cif.g08.bks.cpg/sg10_47_cif.got.tgz:92396.got - 2010.06.03 11:33:40.
