data_PCOD9147769
_publ_section_title
;
Structure prediction by ZEFSAII (Michael W. Deem and Ramdas Pophale) SiO2 
 PCOD9147769
Probable space group: P 2/M
;
_chemical_formula_sum "Si O2"
_cell_formula_units_Z 24
_cell_length_a 15.810675
_cell_length_b 7.330417
_cell_length_c 17.436700
_cell_angle_alpha 90.000000
_cell_angle_beta 142.434721
_cell_angle_gamma 90.000000
_cell_volume 1232.067778
_symmetry_space_group_name_H-M "P 2/M"
_symmetry_group_IT_number 10
_symmetry_cell_setting 'monoclinic'
loop_
_space_group_symop_operation_xyz
x,y,z
-x,y,-z
-x,-y,-z
x,-y,z
loop_
_atom_site_type_symbol
_atom_site_label
_atom_site_fract_x
_atom_site_fract_y
_atom_site_fract_z
Si Si1 0.627542 0.718929 0.849887
Si Si2 0.158008 0.717581 0.593634
Si Si3 0.314440 0.000000 0.806598
Si Si4 0.341338 0.722681 0.405239
Si Si5 0.365730 0.000000 0.013270
Si Si6 0.843141 0.721526 0.870747
Si Si7 0.675548 0.279099 0.433245
O O1 0.628224 0.500000 0.861061
O O2 0.657000 0.825441 0.949089
O O3 0.741368 0.767015 0.867779
O O4 0.475543 0.772489 0.708539
O O5 0.177103 0.500000 0.613088
O O6 0.250828 0.822926 0.720996
O O7 0.208450 0.774792 0.545031
O O8 0.000000 0.760714 0.500000
O O9 0.475500 0.000000 0.900520
O O10 0.284159 0.000000 0.875103
O O11 0.500000 0.776503 0.500000
O O12 0.340879 0.500000 0.403822
O O13 0.232007 0.781996 0.261823
O O14 0.306490 0.782716 0.466517
O O15 0.847944 0.500000 0.870483
O O16 0.000000 0.783932 0.000000
O O17 0.675390 0.500000 0.436065
#
# Coordination Sequence:
#
# PCOD9147769 Si02
#       7
#     4   4   2   4   2   4   4
#     4  10  19  36  59  82 114 152 193 241 287 344
#     4  10  21  39  62  87 116 150 190 244 305 354
#     4  11  23  40  60  83 115 151 193 247 298 355
#     4   9  14  24  47  79 111 143 185 230 275 340
#     4  11  24  38  59  86 111 153 199 243 298 345
#     4   9  17  30  51  81 116 153 189 232 289 346
#     4   9  16  29  53  82 109 143 188 234 282 338
#
# _framework density 19.479448000000001
#
# number of rings (size 3 to 8) (size 9 to 14) (size 15 to 20)
#    0.000    2.333    3.333    0.250    0.000    0.667 
#    3.000    2.083    0.000    3.000    0.000    0.000 
#    0.000    0.000    0.000    0.000    0.000    0.000 
#
# Total GULP energy -133987.040323 kJ/mol
# GULP energy per Si atom -5582.793347 kJ/mol
# Density = 1.943511 g / cm^3
# Si number density = 19.479448 Si / 1000 Ang^3
#
#
#
# Elastic Constant Matrix: (Units=GPa)
#
#
# Indices 1 2 3 4 5 6 
#
# 1 191.3864 30.7579 101.5341 0.0000 -20.1360 0.0000
# 2 30.7579 69.9299 19.7109 0.0000 -8.7565 0.0000
# 3 101.5341 19.7109 128.1875 0.0000 -24.2901 0.0000
# 4 0.0000 0.0000 0.0000 13.1676 0.0000 -7.0199
# 5 -20.1360 -8.7565 -24.2901 0.0000 45.3079 0.0000
# 6 0.0000 0.0000 0.0000 -7.0199 0.0000 -14.7333
#
#
#
# Elastic Compliance Matrix: (Units=1/GPa)
#
#
# Indices 1 2 3 4 5 6 
#
# 1 0.009299 -0.002109 -0.007052 0.000000 -0.000055 0.000000
# 2 -0.002109 0.015566 -0.000368 0.000000 0.001874 0.000000
# 3 -0.007052 -0.000368 0.014287 0.000000 0.004454 0.000000
# 4 0.000000 0.000000 0.000000 0.060561 0.000000 -0.028855
# 5 -0.000055 0.001874 0.004454 0.000000 0.024797 0.000000
# 6 0.000000 0.000000 0.000000 -0.028855 0.000000 -0.054125
#
#
# Mechanical properties :
#
#
# Convention : Reuss Voigt Hill
#
# Bulk Modulus (GPa) = 49.76419 77.05663 63.41041
# Shear Modulus (GPa) = 52.00649 24.58183 38.29416
#
# Velocity S-wave (km/s) = 5.17263 3.55623 4.43863
# Velocity P-wave (km/s) = 7.82798 7.51706 7.67409
#
# Compressibility (1/GPa) = 0.02009477
#
# Stress axis : x y z
#
# Youngs Moduli (GPa) = 107.53363 64.24214 69.99196
#
# Poissons Ratio (x) = 0.13552 0.49358
# Poissons Ratio (y) = 0.22684 0.02573
# Poissons Ratio (z) = 0.75832 0.02362
#
# Static dielectric constant tensor:
#      x y z
#    x 1.662130 0.000000 0.000110 
#    y 0.000000 1.708850 0.000000 
#    z 0.000110 0.000000 1.657170 
# 
# From -- ./inp_files/66706.got.cif
#   From: 2010.05.17/outbox.cif.g08.bks.cpg/sg10_34_cif.got.tgz:66706.got - 2010.06.03 11:33:40.
