data_PCOD9147106
_publ_section_title
;
Structure prediction by ZEFSAII (Michael W. Deem and Ramdas Pophale) SiO2 
 PCOD9147106
Probable space group: P 2/M
;
_chemical_formula_sum "Si O2"
_cell_formula_units_Z 28
_cell_length_a 9.758075
_cell_length_b 7.444844
_cell_length_c 28.990535
_cell_angle_alpha 90.000000
_cell_angle_beta 34.171345
_cell_angle_gamma 90.000000
_cell_volume 1182.924297
_symmetry_space_group_name_H-M "P 2/M"
_symmetry_group_IT_number 10
_symmetry_cell_setting 'monoclinic'
loop_
_space_group_symop_operation_xyz
x,y,z
-x,y,-z
-x,-y,-z
x,-y,z
loop_
_atom_site_type_symbol
_atom_site_label
_atom_site_fract_x
_atom_site_fract_y
_atom_site_fract_z
Si Si1 0.836951 0.704182 0.937554
Si Si2 0.249880 0.219611 0.333244
Si Si3 0.454443 0.283033 0.114342
Si Si4 0.951874 0.282260 0.217911
Si Si5 0.711101 0.219685 0.475783
Si Si6 0.310606 0.209334 0.853546
Si Si7 0.603629 0.206494 0.608005
O O1 0.772150 0.500000 0.942777
O O2 0.957406 0.780685 0.857813
O O3 0.052411 0.701633 0.915316
O O4 0.601603 0.783647 0.028307
O O5 0.479134 0.280441 0.239160
O O6 0.279690 0.282572 0.377757
O O7 0.987370 0.271229 0.386237
O O8 0.258808 0.000000 0.331034
O O9 0.462443 0.500000 0.110667
O O10 0.171520 0.230410 0.190856
O O11 0.590718 0.225696 0.122398
O O12 0.929771 0.500000 0.223533
O O13 0.687485 0.210565 0.303930
O O14 0.500000 0.280758 0.500000
O O15 0.664417 0.283207 0.541093
O O16 0.701654 0.000000 0.478489
O O17 0.272502 0.000000 0.853869
O O18 0.687958 0.000000 0.582724
#
# Coordination Sequence:
#
# PCOD9147106 Si02
#       7
#     4   4   4   4   4   4   4
#     4  10  20  38  60  79 105 146 193 231 269 326
#     4   9  18  33  51  78 112 144 177 218 266 321
#     4  10  22  38  56  79 109 148 190 230 273 326
#     4  10  21  37  58  82 110 143 186 233 278 324
#     4   9  18  31  53  83 110 140 180 221 263 321
#     4  11  22  35  55  84 117 145 179 229 282 326
#     4  10  19  34  57  81 110 144 180 222 272 325
#
# _framework density 23.670155000000001
#
# number of rings (size 3 to 8) (size 9 to 14) (size 15 to 20)
#    0.000    2.143    1.429    1.714    2.000    6.286 
#    0.000    0.000    0.000    6.429    0.000    0.000 
#    0.000    0.000    0.000    0.000    0.000    0.000 
#
# Total GULP energy -156559.787368 kJ/mol
# GULP energy per Si atom -5591.420977 kJ/mol
# Density = 2.361628 g / cm^3
# Si number density = 23.670155 Si / 1000 Ang^3
#
#
#
# Elastic Constant Matrix: (Units=GPa)
#
#
# Indices 1 2 3 4 5 6 
#
# 1 72.4886 -0.8178 20.8435 0.0000 -25.1418 0.0000
# 2 -0.8178 78.7656 -0.6272 0.0000 -0.5175 0.0000
# 3 20.8435 -0.6272 83.5166 0.0000 -16.8677 0.0000
# 4 0.0000 0.0000 0.0000 13.1561 0.0000 -0.1746
# 5 -25.1418 -0.5175 -16.8677 0.0000 47.2393 0.0000
# 6 0.0000 0.0000 0.0000 -0.1746 0.0000 6.9885
#
#
#
# Elastic Compliance Matrix: (Units=1/GPa)
#
#
# Indices 1 2 3 4 5 6 
#
# 1 0.017459 0.000215 -0.002671 0.000000 0.008340 0.000000
# 2 0.000215 0.012701 0.000100 0.000000 0.000289 0.000000
# 3 -0.002671 0.000100 0.013314 0.000000 0.003334 0.000000
# 4 0.000000 0.000000 0.000000 0.076036 0.000000 0.001899
# 5 0.008340 0.000289 0.003334 0.000000 0.026801 0.000000
# 6 0.000000 0.000000 0.000000 0.001899 0.000000 0.143140
#
#
# Mechanical properties :
#
#
# Convention : Reuss Voigt Hill
#
# Bulk Modulus (GPa) = 25.79878 30.39642 28.09760
# Shear Modulus (GPa) = 16.28225 27.83493 22.05859
#
# Velocity S-wave (km/s) = 2.62559 3.43293 3.05604
# Velocity P-wave (km/s) = 4.48493 5.34630 4.93445
#
# Compressibility (1/GPa) = 0.03876152
#
# Stress axis : x y z
#
# Youngs Moduli (GPa) = 57.27867 78.73506 75.10705
#
# Poissons Ratio (x) = -0.01691 0.20061
# Poissons Ratio (y) = -0.01230 -0.00753
# Poissons Ratio (z) = 0.15299 -0.00789
#
# Static dielectric constant tensor:
#      x y z
#    x 1.863780 0.000000 0.010500 
#    y 0.000000 1.950230 0.000000 
#    z 0.010500 0.000000 1.855730 
# 
# From -- ./inp_files/36669.got.cif
#   From: 2010.05.17/outbox.cif.g08.bks.cpg/sg10_19_cif.got.tgz:36669.got - 2010.06.03 11:33:40.
