data_PCOD9147245
_publ_section_title
;
Structure prediction by ZEFSAII (Michael W. Deem and Ramdas Pophale) SiO2 
 PCOD9147245
Probable space group: P 2/M
;
_chemical_formula_sum "Si O2"
_cell_formula_units_Z 28
_cell_length_a 17.550840
_cell_length_b 8.301870
_cell_length_c 19.174167
_cell_angle_alpha 90.000000
_cell_angle_beta 31.767397
_cell_angle_gamma 90.000000
_cell_volume 1470.840903
_symmetry_space_group_name_H-M "P 2/M"
_symmetry_group_IT_number 10
_symmetry_cell_setting 'monoclinic'
loop_
_space_group_symop_operation_xyz
x,y,z
-x,y,-z
-x,-y,-z
x,-y,z
loop_
_atom_site_type_symbol
_atom_site_label
_atom_site_fract_x
_atom_site_fract_y
_atom_site_fract_z
Si Si1 0.552329 0.676852 0.540306
Si Si2 0.434616 0.192880 0.979027
Si Si3 0.878464 0.311022 0.821951
Si Si4 0.843602 0.000000 0.093029
Si Si5 0.232981 0.683293 0.935518
Si Si6 0.569497 0.000000 0.370580
Si Si7 0.797462 0.690377 0.449747
Si Si8 0.537368 0.192892 0.748080
O O1 0.500000 0.674083 0.500000
O O2 0.510655 0.500000 0.600078
O O3 0.479562 0.836357 0.627202
O O4 0.719055 0.700142 0.434116
O O5 0.266163 0.237274 0.098977
O O6 0.440208 0.000000 0.978056
O O7 0.500000 0.259542 0.000000
O O8 0.528377 0.236990 0.837393
O O9 0.878154 0.500000 0.804197
O O10 0.038347 0.245073 0.678731
O O11 0.853979 0.300406 0.924141
O O12 0.813098 0.164461 0.074978
O O13 0.738994 0.000000 0.241163
O O14 0.000000 0.000000 0.000000
O O15 0.209256 0.500000 0.926873
O O16 0.401655 0.708730 0.822901
O O17 0.500000 0.000000 0.500000
O O18 0.804448 0.500000 0.459801
O O19 0.685662 0.766759 0.592177
O O20 0.509418 0.000000 0.764063
#
# Coordination Sequence:
#
# PCOD9147245 Si02
#       8
#     4   4   4   2   4   2   4   4
#     4   9  19  35  55  78 109 149 192 241 291 340
#     4   9  19  37  60  84 113 151 194 240 291 354
#     4   9  20  37  58  85 116 152 194 237 292 357
#     4  12  26  40  56  84 117 148 199 250 300 359
#     4  10  21  40  61  81 114 156 197 245 294 349
#     4  10  22  38  54  76 104 140 187 234 284 349
#     4  10  20  34  54  84 117 149 192 244 295 351
#     4  10  19  34  58  87 114 148 197 242 291 358
#
# _framework density 19.036728
#
# number of rings (size 3 to 8) (size 9 to 14) (size 15 to 20)
#    0.000    2.286    0.714    1.286    2.000    5.714 
#    0.000    2.143    0.000    4.286    0.000    0.000 
#    0.000    0.000    0.000    0.000    0.000    0.000 
#
# Total GULP energy -155881.900765 kJ/mol
# GULP energy per Si atom -5567.210742 kJ/mol
# Density = 1.899340 g / cm^3
# Si number density = 19.036728 Si / 1000 Ang^3
#
#
#
# Elastic Constant Matrix: (Units=GPa)
#
#
# Indices 1 2 3 4 5 6 
#
# 1 110.1557 26.7686 60.1186 0.0000 2.2095 0.0000
# 2 26.7686 94.3150 25.4056 0.0000 2.3604 0.0000
# 3 60.1186 25.4056 152.3607 0.0000 -10.6713 0.0000
# 4 0.0000 0.0000 0.0000 21.4977 0.0000 -12.2541
# 5 2.2095 2.3604 -10.6713 0.0000 20.6731 0.0000
# 6 0.0000 0.0000 0.0000 -12.2541 0.0000 -11.5329
#
#
#
# Elastic Compliance Matrix: (Units=1/GPa)
#
#
# Indices 1 2 3 4 5 6 
#
# 1 0.012239 -0.002114 -0.004722 0.000000 -0.003504 0.000000
# 2 -0.002114 0.011574 -0.001216 0.000000 -0.001723 0.000000
# 3 -0.004722 -0.001216 0.009000 0.000000 0.005289 0.000000
# 4 0.000000 0.000000 0.000000 0.028970 0.000000 -0.030782
# 5 -0.003504 -0.001723 0.005289 0.000000 0.051674 0.000000
# 6 0.000000 0.000000 0.000000 -0.030782 0.000000 -0.054002
#
#
# Mechanical properties :
#
#
# Convention : Reuss Voigt Hill
#
# Bulk Modulus (GPa) = 59.85383 64.60190 62.22786
# Shear Modulus (GPa) = 61.62973 22.43017 42.02995
#
# Velocity S-wave (km/s) = 5.69600 3.43630 4.70386
# Velocity P-wave (km/s) = 8.64689 7.05360 7.89056
#
# Compressibility (1/GPa) = 0.01670737
#
# Stress axis : x y z
#
# Youngs Moduli (GPa) = 81.70369 86.40378 111.11092
#
# Poissons Ratio (x) = 0.18266 0.52470
# Poissons Ratio (y) = 0.17272 0.13516
# Poissons Ratio (z) = 0.38583 0.10510
#
# Static dielectric constant tensor:
#      x y z
#    x 1.630320 0.000000 -0.004300 
#    y 0.000000 1.664150 0.000000 
#    z -0.004300 0.000000 1.662300 
# 
# From -- ./inp_files/85631.got.cif
#   From: 2010.05.17/outbox.cif.g08.bks.cpg/sg10_43_cif.got.tgz:85631.got - 2010.06.03 11:33:40.
