data_PCOD9147891
_publ_section_title
;
Structure prediction by ZEFSAII (Michael W. Deem and Ramdas Pophale) SiO2 
 PCOD9147891
Probable space group: P 2/M
;
_chemical_formula_sum "Si O2"
_cell_formula_units_Z 32
_cell_length_a 15.461878
_cell_length_b 8.331348
_cell_length_c 18.467381
_cell_angle_alpha 90.000000
_cell_angle_beta 38.877871
_cell_angle_gamma 90.000000
_cell_volume 1493.168996
_symmetry_space_group_name_H-M "P 2/M"
_symmetry_group_IT_number 10
_symmetry_cell_setting 'monoclinic'
loop_
_space_group_symop_operation_xyz
x,y,z
-x,y,-z
-x,-y,-z
x,-y,z
loop_
_atom_site_type_symbol
_atom_site_label
_atom_site_fract_x
_atom_site_fract_y
_atom_site_fract_z
Si Si1 0.767091 0.311742 0.461163
Si Si2 0.000932 0.303923 0.416325
Si Si3 0.946273 0.814362 0.215555
Si Si4 0.707428 0.310217 0.837300
Si Si5 0.198722 0.314332 0.829156
Si Si6 0.777934 0.692209 0.021450
Si Si7 0.540999 0.187588 0.083313
Si Si8 0.519125 0.185730 0.401734
O O1 0.736779 0.500000 0.490523
O O2 0.858658 0.288320 0.329314
O O3 0.625123 0.219254 0.542908
O O4 0.864410 0.253473 0.462712
O O5 0.002404 0.500000 0.414684
O O6 0.140718 0.254357 0.284153
O O7 0.000000 0.251329 0.500000
O O8 0.881452 0.785827 0.178641
O O9 0.934846 0.000000 0.243307
O O10 0.104154 0.760134 0.107801
O O11 0.711670 0.500000 0.851617
O O12 0.599722 0.281587 0.841942
O O13 0.640130 0.221601 0.949536
O O14 0.154165 0.500000 0.852041
O O15 0.183181 0.260730 0.922031
O O16 0.359849 0.297290 0.705964
O O17 0.777997 0.500000 0.017498
O O18 0.629090 0.755171 0.094389
O O19 0.510829 0.000000 0.107459
O O20 0.500000 0.213619 0.500000
O O21 0.560424 0.000000 0.365117
#
# Coordination Sequence:
#
# PCOD9147891 Si02
#       8
#     4   4   4   4   4   4   4   4
#     4  11  22  38  65  93 120 161 209 253 299 359
#     4   9  20  38  60  89 121 153 195 248 301 352
#     4  12  24  39  61  89 123 159 197 247 306 364
#     4  10  19  36  63  88 118 158 200 247 299 361
#     4  11  24  41  63  88 117 158 204 251 299 361
#     4  11  24  41  60  87 121 157 202 249 301 364
#     4  11  22  37  59  88 121 156 198 249 303 361
#     4  11  23  40  62  89 123 160 200 253 307 357
#
# _framework density 21.430931000000001
#
# number of rings (size 3 to 8) (size 9 to 14) (size 15 to 20)
#    0.000    1.250    1.250    6.000    0.000    6.000 
#    0.000    4.375    0.000    5.250    0.000    0.000 
#    0.000    0.000    0.000    0.000    0.000    0.000 
#
# Total GULP energy -179056.800615 kJ/mol
# GULP energy per Si atom -5595.525019 kJ/mol
# Density = 2.138215 g / cm^3
# Si number density = 21.430931 Si / 1000 Ang^3
#
#
#
# Elastic Constant Matrix: (Units=GPa)
#
#
# Indices 1 2 3 4 5 6 
#
# 1 106.7110 0.5130 6.8237 0.0000 -14.5080 0.0000
# 2 0.5130 31.2837 1.3969 0.0000 2.9365 0.0000
# 3 6.8237 1.3969 43.4938 0.0000 -14.5604 0.0000
# 4 0.0000 0.0000 0.0000-1731.0924 0.0000 570.7876
# 5 -14.5080 2.9365 -14.5604 0.0000 30.6776 0.0000
# 6 0.0000 0.0000 0.0000 570.7876 0.0000 -180.8124
#
#
#
# Elastic Compliance Matrix: (Units=1/GPa)
#
#
# Indices 1 2 3 4 5 6 
#
# 1 0.010027 -0.000621 0.000064 0.000000 0.004832 0.000000
# 2 -0.000621 0.032517 -0.002482 0.000000 -0.004584 0.000000
# 3 0.000064 -0.002482 0.027524 0.000000 0.013332 0.000000
# 4 0.000000 0.000000 0.000000 0.014131 0.000000 0.044608
# 5 0.004832 -0.004584 0.013332 0.000000 0.041649 0.000000
# 6 0.000000 0.000000 0.000000 0.044608 0.000000 0.135288
#
#
# Mechanical properties :
#
#
# Convention : Reuss Voigt Hill
#
# Bulk Modulus (GPa) = 15.62688 22.10619 18.86653
# Shear Modulus (GPa) = 17.32848 -364.72843 -173.69998
#
# Velocity S-wave (km/s) = 2.84663 -13.05976 -9.01260
# Velocity P-wave (km/s) = 4.25581 14.73337 9.97397
#
# Compressibility (1/GPa) = 0.06399232
#
# Stress axis : x y z
#
# Youngs Moduli (GPa) = 99.73174 30.75330 36.33128
#
# Poissons Ratio (x) = 0.01909 -0.00234
# Poissons Ratio (y) = 0.06192 0.09016
# Poissons Ratio (z) = -0.00642 0.07631
#
# Static dielectric constant tensor:
#      x y z
#    x 1.792510 0.000000 -0.000260 
#    y 0.000000 1.720180 0.000000 
#    z -0.000260 0.000000 1.754790 
# 
# From -- ./inp_files/84720.got.cif
#   From: 2010.05.17/outbox.cif.g08.bks.cpg/sg10_43_cif.got.tgz:84720.got - 2010.06.03 11:33:40.
