data_PCOD9147705
_publ_section_title
;
Structure prediction by ZEFSAII (Michael W. Deem and Ramdas Pophale) SiO2 
 PCOD9147705
Probable space group: P 2/M
;
_chemical_formula_sum "Si O2"
_cell_formula_units_Z 32
_cell_length_a 8.525368
_cell_length_b 13.145026
_cell_length_c 19.534437
_cell_angle_alpha 90.000000
_cell_angle_beta 134.587320
_cell_angle_gamma 90.000000
_cell_volume 1559.071822
_symmetry_space_group_name_H-M "P 2/M"
_symmetry_group_IT_number 10
_symmetry_cell_setting 'monoclinic'
loop_
_space_group_symop_operation_xyz
x,y,z
-x,y,-z
-x,-y,-z
x,-y,z
loop_
_atom_site_type_symbol
_atom_site_label
_atom_site_fract_x
_atom_site_fract_y
_atom_site_fract_z
Si Si1 0.167450 0.155074 0.770725
Si Si2 0.250713 0.272123 0.922073
Si Si3 0.287701 0.885769 0.302221
Si Si4 0.962306 0.221379 0.415483
Si Si5 0.449289 0.301022 0.557317
Si Si6 0.675679 0.885939 0.943006
Si Si7 0.804462 0.254843 0.856446
Si Si8 0.572885 0.615210 0.306927
O O1 0.187980 0.258610 0.823144
O O2 0.107565 0.160883 0.672810
O O3 0.412581 0.111786 0.851723
O O4 0.957088 0.106052 0.742235
O O5 0.034883 0.305018 0.899992
O O6 0.500000 0.318356 0.000000
O O7 0.281544 0.162050 0.969197
O O8 0.425667 0.806802 0.391139
O O9 0.264651 0.828253 0.222607
O O10 0.381271 0.000000 0.325255
O O11 0.775907 0.307317 0.365472
O O12 0.000000 0.165684 0.500000
O O13 0.192796 0.275889 0.474761
O O14 0.500000 0.347445 0.500000
O O15 0.506537 0.371473 0.638968
O O16 0.777505 0.808783 0.918246
O O17 0.763393 0.000000 0.964613
O O18 0.619767 0.341829 0.799795
O O19 0.632935 0.500000 0.310383
#
# Coordination Sequence:
#
# PCOD9147705 Si02
#       8
#     4   4   4   4   4   4   4   4
#     4  10  19  36  55  81 119 162 193 239 287 331
#     4   9  21  35  57  85 115 156 187 228 290 345
#     4  10  20  34  54  82 119 166 198 226 283 350
#     4  10  20  37  60  82 118 151 197 244 298 345
#     4  10  20  35  58  84 120 151 194 250 288 344
#     4  11  21  34  57  90 121 156 201 240 282 341
#     4  10  20  37  60  85 119 150 188 246 289 345
#     4  10  22  40  64  87 112 150 195 245 309 365
#
# _framework density 20.525030999999998
#
# number of rings (size 3 to 8) (size 9 to 14) (size 15 to 20)
#    0.000    2.000    2.500    1.125    0.000    8.000 
#    0.000    0.000    0.000    5.250    0.000    0.000 
#    0.000    0.000    0.000    0.000    0.000    0.000 
#
# Total GULP energy -178184.157366 kJ/mol
# GULP energy per Si atom -5568.254918 kJ/mol
# Density = 2.047832 g / cm^3
# Si number density = 20.525031 Si / 1000 Ang^3
#
#
#
# Elastic Constant Matrix: (Units=GPa)
#
#
# Indices 1 2 3 4 5 6 
#
# 1 78.1674 -10.5230 17.4891 0.0000 3.8447 0.0000
# 2 -10.5230 27.3545 -1.0922 0.0000 0.5412 0.0000
# 3 17.4891 -1.0922 78.2935 0.0000 2.7850 0.0000
# 4 0.0000 0.0000 0.0000 6.8989 0.0000 2.3215
# 5 3.8447 0.5412 2.7850 0.0000 53.5393 0.0000
# 6 0.0000 0.0000 0.0000 2.3215 0.0000 16.5126
#
#
#
# Elastic Compliance Matrix: (Units=1/GPa)
#
#
# Indices 1 2 3 4 5 6 
#
# 1 0.014250 0.005377 -0.003076 0.000000 -0.000918 0.000000
# 2 0.005377 0.038615 -0.000636 0.000000 -0.000743 0.000000
# 3 -0.003076 -0.000636 0.013467 0.000000 -0.000473 0.000000
# 4 0.000000 0.000000 0.000000 0.152148 0.000000 -0.021390
# 5 -0.000918 -0.000743 -0.000473 0.000000 0.018776 0.000000
# 6 0.000000 0.000000 0.000000 -0.021390 0.000000 0.063567
#
#
# Mechanical properties :
#
#
# Convention : Reuss Voigt Hill
#
# Bulk Modulus (GPa) = 14.35465 21.72928 18.04197
# Shear Modulus (GPa) = 15.59023 27.25292 21.42158
#
# Velocity S-wave (km/s) = 2.75902 3.64784 3.23411
# Velocity P-wave (km/s) = 4.14228 5.32466 4.77025
#
# Compressibility (1/GPa) = 0.06966381
#
# Stress axis : x y z
#
# Youngs Moduli (GPa) = 70.17449 25.89674 74.25327
#
# Poissons Ratio (x) = -0.13925 0.22837
# Poissons Ratio (y) = -0.37734 0.04723
# Poissons Ratio (z) = 0.21582 0.01647
#
# Static dielectric constant tensor:
#      x y z
#    x 1.797500 0.000000 -0.004460 
#    y 0.000000 1.709750 0.000000 
#    z -0.004460 0.000000 1.764130 
# 
# From -- ./inp_files/82829.got.cif
#   From: 2010.05.17/outbox.cif.g08.bks.cpg/sg10_42_cif.got.tgz:82829.got - 2010.06.03 11:33:40.
