data_PCOD9147026
_publ_section_title
;
Structure prediction by ZEFSAII (Michael W. Deem and Ramdas Pophale) SiO2 
 PCOD9147026
Probable space group: P 2/M
;
_chemical_formula_sum "Si O2"
_cell_formula_units_Z 32
_cell_length_a 20.410120
_cell_length_b 7.453415
_cell_length_c 26.203309
_cell_angle_alpha 90.000000
_cell_angle_beta 21.466643
_cell_angle_gamma 90.000000
_cell_volume 1458.780696
_symmetry_space_group_name_H-M "P 2/M"
_symmetry_group_IT_number 10
_symmetry_cell_setting 'monoclinic'
loop_
_space_group_symop_operation_xyz
x,y,z
-x,y,-z
-x,-y,-z
x,-y,z
loop_
_atom_site_type_symbol
_atom_site_label
_atom_site_fract_x
_atom_site_fract_y
_atom_site_fract_z
Si Si1 0.792650 0.219453 0.643772
Si Si2 0.529036 0.793927 0.923260
Si Si3 0.227903 0.708261 0.557936
Si Si4 0.163706 0.282024 0.133218
Si Si5 0.919960 0.719140 0.111799
Si Si6 0.622023 0.208754 0.660923
Si Si7 0.479233 0.719617 0.573925
Si Si8 0.212073 0.716423 0.981092
O O1 0.671071 0.282182 0.779542
O O2 0.710729 0.281070 0.648909
O O3 0.000000 0.269422 0.500000
O O4 0.783016 0.000000 0.650414
O O5 0.588680 0.000000 0.888773
O O6 0.500000 0.709714 0.000000
O O7 0.335985 0.791438 0.036911
O O8 0.207877 0.500000 0.587012
O O9 0.307949 0.714624 0.443170
O O10 0.366197 0.783502 0.499580
O O11 0.026489 0.780885 0.706810
O O12 0.175128 0.500000 0.128192
O O13 0.178199 0.228818 0.063628
O O14 0.918616 0.500000 0.113727
O O15 0.716326 0.777047 0.265890
O O16 0.000000 0.775365 0.000000
O O17 0.052479 0.778843 0.060436
O O18 0.408357 0.227248 0.820455
O O19 0.668914 0.000000 0.624743
O O20 0.500000 0.773070 0.500000
O O21 0.481887 0.500000 0.572935
O O22 0.211108 0.500000 0.980651
#
# Coordination Sequence:
#
# PCOD9147026 Si02
#       8
#     4   4   4   4   4   4   4   4
#     4   9  19  36  56  80 107 136 177 228 271 311
#     4  10  21  37  60  84 107 140 184 228 269 317
#     4  10  21  36  55  82 115 148 182 228 278 325
#     4  10  21  36  55  81 115 148 178 219 278 334
#     4   9  16  26  46  76 103 133 175 221 264 310
#     4  11  22  36  57  82 110 145 185 227 272 327
#     4   9  16  29  51  78 106 137 182 231 270 313
#     4  10  19  34  56  80 110 145 180 224 278 328
#
# _framework density 21.936129000000001
#
# number of rings (size 3 to 8) (size 9 to 14) (size 15 to 20)
#    0.000    2.250    1.250    1.875    1.750    5.750 
#    0.000    0.000    0.000    5.625    0.000    0.000 
#    0.000    0.000    0.000    0.000    0.000    0.000 
#
# Total GULP energy -178802.307886 kJ/mol
# GULP energy per Si atom -5587.572121 kJ/mol
# Density = 2.188620 g / cm^3
# Si number density = 21.936129 Si / 1000 Ang^3
#
#
#
# Elastic Constant Matrix: (Units=GPa)
#
#
# Indices 1 2 3 4 5 6 
#
# 1 142.1765 1.8646 68.5126 0.0000 6.0073 0.0000
# 2 1.8646 61.9920 -3.5686 0.0000 -0.7588 0.0000
# 3 68.5126 -3.5686 183.1407 0.0000 4.9790 0.0000
# 4 0.0000 0.0000 0.0000 13.1432 0.0000 -24.2184
# 5 6.0073 -0.7588 4.9790 0.0000 40.1303 0.0000
# 6 0.0000 0.0000 0.0000 -24.2184 0.0000 -52.7869
#
#
#
# Elastic Compliance Matrix: (Units=1/GPa)
#
#
# Indices 1 2 3 4 5 6 
#
# 1 0.008625 -0.000455 -0.003211 0.000000 -0.000901 0.000000
# 2 -0.000455 0.016176 0.000477 0.000000 0.000315 0.000000
# 3 -0.003211 0.000477 0.006680 0.000000 -0.000339 0.000000
# 4 0.000000 0.000000 0.000000 0.041229 0.000000 -0.018916
# 5 -0.000901 0.000315 -0.000339 0.000000 0.025102 0.000000
# 6 0.000000 0.000000 0.000000 -0.018916 0.000000 -0.010266
#
#
# Mechanical properties :
#
#
# Convention : Reuss Voigt Hill
#
# Bulk Modulus (GPa) = 39.83667 57.88071 48.85869
# Shear Modulus (GPa) = 48.87938 21.46404 35.17171
#
# Velocity S-wave (km/s) = 4.72557 3.13146 4.00855
# Velocity P-wave (km/s) = 6.92635 6.28633 6.61409
#
# Compressibility (1/GPa) = 0.02510250
#
# Stress axis : x y z
#
# Youngs Moduli (GPa) = 115.94404 61.81951 149.70084
#
# Poissons Ratio (x) = 0.02815 0.48068
# Poissons Ratio (y) = 0.05279 -0.07140
# Poissons Ratio (z) = 0.37229 -0.02949
#
# Static dielectric constant tensor:
#      x y z
#    x 1.732060 0.000000 0.006560 
#    y 0.000000 1.854850 0.000000 
#    z 0.006560 0.000000 1.745640 
# 
# From -- ./inp_files/93686.got.cif
#   From: 2010.05.17/outbox.cif.g08.bks.cpg/sg10_47_cif.got.tgz:93686.got - 2010.06.03 11:33:40.
