data_PCOD9147037
_publ_section_title
;
Structure prediction by ZEFSAII (Michael W. Deem and Ramdas Pophale) SiO2 
 PCOD9147037
Probable space group: P 2/M
;
_chemical_formula_sum "Si O2"
_cell_formula_units_Z 28
_cell_length_a 15.221944
_cell_length_b 8.659575
_cell_length_c 12.808266
_cell_angle_alpha 90.000000
_cell_angle_beta 74.918774
_cell_angle_gamma 90.000000
_cell_volume 1630.179303
_symmetry_space_group_name_H-M "P 2/M"
_symmetry_group_IT_number 10
_symmetry_cell_setting 'monoclinic'
loop_
_space_group_symop_operation_xyz
x,y,z
-x,y,-z
-x,-y,-z
x,-y,z
loop_
_atom_site_type_symbol
_atom_site_label
_atom_site_fract_x
_atom_site_fract_y
_atom_site_fract_z
Si Si1 0.087816 0.815593 0.843075
Si Si2 0.396801 0.184161 0.497075
Si Si3 0.729824 0.683711 0.285635
Si Si4 0.592020 0.315355 0.734752
Si Si5 0.697588 0.685268 0.909901
Si Si6 0.396176 0.183769 0.858426
Si Si7 0.896364 0.685135 0.927708
O O1 0.168298 0.749882 0.747189
O O2 0.987758 0.751499 0.848009
O O3 0.087680 0.000000 0.842514
O O4 0.107803 0.756135 0.954752
O O5 0.500000 0.224153 0.500000
O O6 0.326408 0.267938 0.595043
O O7 0.385408 0.234595 0.381257
O O8 0.386467 0.000000 0.511628
O O9 0.731918 0.500000 0.273210
O O10 0.676862 0.756286 0.203246
O O11 0.591724 0.500000 0.720174
O O12 0.661531 0.276107 0.806299
O O13 0.492240 0.261458 0.802028
O O14 0.686809 0.500000 0.927839
O O15 0.803282 0.722558 0.896775
O O16 0.638201 0.768481 0.016665
O O17 0.404586 0.000000 0.847003
O O18 0.903936 0.500000 0.934775
#
# Coordination Sequence:
#
# PCOD9147037 Si02
#       7
#     4   4   4   4   4   4   4
#     4  11  21  34  54  84 116 145 182 232 283 333
#     4  11  23  39  59  83 112 145 187 237 283 327
#     4  12  23  37  59  83 112 149 188 231 282 337
#     4  11  23  39  58  81 112 153 195 230 274 333
#     4  10  22  38  57  82 115 153 191 230 274 333
#     4  12  23  35  54  83 116 151 188 231 281 332
#     4  10  19  34  56  81 113 151 187 226 276 334
#
# _framework density 17.176024000000002
#
# number of rings (size 3 to 8) (size 9 to 14) (size 15 to 20)
#    0.000    1.000    2.857    6.429    0.000    4.000 
#    0.000    0.000    0.000    0.857    0.000    6.000 
#    0.000    0.000    0.000    0.000    0.000    0.000 
#
# Total GULP energy -156554.276437 kJ/mol
# GULP energy per Si atom -5591.224158 kJ/mol
# Density = 1.713693 g / cm^3
# Si number density = 17.176024 Si / 1000 Ang^3
#
#
#
# Elastic Constant Matrix: (Units=GPa)
#
#
# Indices 1 2 3 4 5 6 
#
# 1 37.3552 1.7100 19.1103 0.0000 -14.1701 0.0000
# 2 1.7100 44.3884 6.7596 0.0000 -1.7257 0.0000
# 3 19.1103 6.7596 71.5468 0.0000 -2.3994 0.0000
# 4 0.0000 0.0000 0.0000 38.2440 0.0000 -0.4516
# 5 -14.1701 -1.7257 -2.3994 0.0000 29.4771 0.0000
# 6 0.0000 0.0000 0.0000 -0.4516 0.0000 -7.0690
#
#
#
# Elastic Compliance Matrix: (Units=1/GPa)
#
#
# Indices 1 2 3 4 5 6 
#
# 1 0.038447 0.000691 -0.009740 0.000000 0.017730 0.000000
# 2 0.000691 0.022910 -0.002299 0.000000 0.001486 0.000000
# 3 -0.009740 -0.002299 0.016680 0.000000 -0.003459 0.000000
# 4 0.000000 0.000000 0.000000 0.026128 0.000000 -0.001669
# 5 0.017730 0.001486 -0.003459 0.000000 0.042253 0.000000
# 6 0.000000 0.000000 0.000000 -0.001669 0.000000 -0.141356
#
#
# Mechanical properties :
#
#
# Convention : Reuss Voigt Hill
#
# Bulk Modulus (GPa) = 18.07000 23.16114 20.61557
# Shear Modulus (GPa) = 108.21624 20.51110 64.36367
#
# Velocity S-wave (km/s) = 7.94613 3.45943 6.12816
# Velocity P-wave (km/s) = 9.73300 5.42869 7.88042
#
# Compressibility (1/GPa) = 0.05534034
#
# Stress axis : x y z
#
# Youngs Moduli (GPa) = 26.01012 43.64962 59.95331
#
# Poissons Ratio (x) = -0.03018 0.58394
# Poissons Ratio (y) = -0.01798 0.13785
# Poissons Ratio (z) = 0.25334 0.10036
#
# Static dielectric constant tensor:
#      x y z
#    x 1.582090 0.000000 -0.006880 
#    y 0.000000 1.574340 0.000000 
#    z -0.006880 0.000000 1.555680 
# 
# From -- ./inp_files/49066.got.cif
#   From: 2010.05.17/outbox.cif.g08.bks.cpg/sg10_25_cif.got.tgz:49066.got - 2010.06.03 11:33:40.
