data_PCOD9147591
_publ_section_title
;
Structure prediction by ZEFSAII (Michael W. Deem and Ramdas Pophale) SiO2 
 PCOD9147591
Probable space group: P 2/M
;
_chemical_formula_sum "Si O2"
_cell_formula_units_Z 32
_cell_length_a 19.036897
_cell_length_b 10.485678
_cell_length_c 15.468242
_cell_angle_alpha 90.000000
_cell_angle_beta 32.473178
_cell_angle_gamma 90.000000
_cell_volume 1657.795154
_symmetry_space_group_name_H-M "P 2/M"
_symmetry_group_IT_number 10
_symmetry_cell_setting 'monoclinic'
loop_
_space_group_symop_operation_xyz
x,y,z
-x,y,-z
-x,-y,-z
x,-y,z
loop_
_atom_site_type_symbol
_atom_site_label
_atom_site_fract_x
_atom_site_fract_y
_atom_site_fract_z
Si Si1 0.081439 0.134459 0.826803
Si Si2 0.134293 0.146505 0.307144
Si Si3 0.234411 0.353532 0.460625
Si Si4 0.036575 0.783470 0.223520
Si Si5 0.265522 0.651530 0.894298
Si Si6 0.740426 0.351499 0.298064
Si Si7 0.655685 0.646983 0.847198
Si Si8 0.457908 0.650271 0.352691
O O1 0.166116 0.261862 0.743264
O O2 0.994272 0.138301 0.831424
O O3 0.157838 0.000000 0.746395
O O4 0.000000 0.135941 0.000000
O O5 0.095847 0.149991 0.246012
O O6 0.251402 0.248582 0.202198
O O7 0.000000 0.179429 0.500000
O O8 0.170162 0.000000 0.294254
O O9 0.209771 0.500000 0.514972
O O10 0.286814 0.356281 0.309167
O O11 0.349930 0.296333 0.399887
O O12 0.100577 0.277786 0.606287
O O13 0.141329 0.681597 0.080664
O O14 0.282526 0.500000 0.869900
O O15 0.254591 0.694182 0.805891
O O16 0.397812 0.706409 0.798713
O O17 0.781394 0.500000 0.259207
O O18 0.599813 0.343801 0.490367
O O19 0.665476 0.500000 0.872729
O O20 0.500000 0.677096 0.000000
O O21 0.467223 0.500000 0.319458
#
# Coordination Sequence:
#
# PCOD9147591 Si02
#       8
#     4   4   4   4   4   4   4   4
#     4  11  23  39  58  84 120 163 202 247 302 355
#     4  11  25  45  66  91 125 166 207 254 308 365
#     4  10  20  35  58  91 124 156 195 246 306 360
#     4  12  22  38  61  89 118 161 203 255 292 365
#     4  10  21  33  55  91 125 158 199 249 307 358
#     4  10  19  35  59  86 116 157 205 250 294 354
#     4  10  23  43  68  96 126 160 201 251 308 372
#     4   9  18  33  55  85 124 160 196 245 298 353
#
# _framework density 19.302748000000001
#
# number of rings (size 3 to 8) (size 9 to 14) (size 15 to 20)
#    0.000    1.625    3.750    1.125    1.750    3.750 
#    0.000    0.000    0.000    3.000    0.000    0.000 
#    0.000    0.000    0.000    0.000    0.000    0.000 
#
# Total GULP energy -178342.878652 kJ/mol
# GULP energy per Si atom -5573.214958 kJ/mol
# Density = 1.925881 g / cm^3
# Si number density = 19.302748 Si / 1000 Ang^3
#
#
#
# Elastic Constant Matrix: (Units=GPa)
#
#
# Indices 1 2 3 4 5 6 
#
# 1 105.5735 42.2151 46.8719 0.0000 -11.3372 0.0000
# 2 42.2151 76.4838 30.0792 0.0000 -22.9315 0.0000
# 3 46.8719 30.0792 79.7333 0.0000 -16.2114 0.0000
# 4 0.0000 0.0000 0.0000 -3.6947 0.0000 6.6905
# 5 -11.3372 -22.9315 -16.2114 0.0000 30.2399 0.0000
# 6 0.0000 0.0000 0.0000 6.6905 0.0000 -90.7415
#
#
#
# Elastic Compliance Matrix: (Units=1/GPa)
#
#
# Indices 1 2 3 4 5 6 
#
# 1 0.014733 -0.006311 -0.006880 0.000000 -0.002950 0.000000
# 2 -0.006311 0.021004 -0.001635 0.000000 0.012686 0.000000
# 3 -0.006880 -0.001635 0.018436 0.000000 0.006064 0.000000
# 4 0.000000 0.000000 0.000000 -0.312368 0.000000 -0.023031
# 5 -0.002950 0.012686 0.006064 0.000000 0.044834 0.000000
# 6 0.000000 0.000000 0.000000 -0.023031 0.000000 -0.012718
#
#
# Mechanical properties :
#
#
# Convention : Reuss Voigt Hill
#
# Bulk Modulus (GPa) = 40.77946 55.56924 48.17435
# Shear Modulus (GPa) = -26.55988 -3.33095 -14.94542
#
# Velocity S-wave (km/s) = -3.71342 -1.31506 -2.78558
# Velocity P-wave (km/s) = 1.66916 5.15217 3.82956
#
# Compressibility (1/GPa) = 0.02452215
#
# Stress axis : x y z
#
# Youngs Moduli (GPa) = 67.87304 47.60959 54.24130
#
# Poissons Ratio (x) = 0.30046 0.37320
# Poissons Ratio (y) = 0.42833 0.08867
# Poissons Ratio (z) = 0.46699 0.07783
#
# Static dielectric constant tensor:
#      x y z
#    x 1.715360 0.000000 -0.001510 
#    y 0.000000 1.691870 0.000000 
#    z -0.001510 0.000000 1.673530 
# 
# From -- ./inp_files/69165.got.cif
#   From: 2010.05.17/outbox.cif.g08.bks.cpg/sg10_35_cif.got.tgz:69165.got - 2010.06.03 11:33:40.
