data_PCOD9147525
_publ_section_title
;
Structure prediction by ZEFSAII (Michael W. Deem and Ramdas Pophale) SiO2 
 PCOD9147525
Probable space group: P 2/M
;
_chemical_formula_sum "Si O2"
_cell_formula_units_Z 20
_cell_length_a 19.406398
_cell_length_b 12.923393
_cell_length_c 10.292091
_cell_angle_alpha 90.000000
_cell_angle_beta 154.024323
_cell_angle_gamma 90.000000
_cell_volume 1130.547610
_symmetry_space_group_name_H-M "P 2/M"
_symmetry_group_IT_number 10
_symmetry_cell_setting 'monoclinic'
loop_
_space_group_symop_operation_xyz
x,y,z
-x,y,-z
-x,-y,-z
x,-y,z
loop_
_atom_site_type_symbol
_atom_site_label
_atom_site_fract_x
_atom_site_fract_y
_atom_site_fract_z
Si Si1 0.864419 0.620223 0.878727
Si Si2 0.338697 0.806408 0.553325
Si Si3 0.296051 0.806058 0.792072
Si Si4 0.136728 0.000000 0.122610
Si Si5 0.924387 0.379187 0.512987
Si Si6 0.079531 0.000000 0.494693
O O1 0.815671 0.500000 0.790173
O O2 0.725816 0.699092 0.612994
O O3 0.000000 0.635952 0.000000
O O4 0.945770 0.640391 0.155237
O O5 0.301339 0.809638 0.644121
O O6 0.243684 0.899340 0.325936
O O7 0.525652 0.817025 0.856655
O O8 0.218214 0.698543 0.703858
O O9 0.187724 0.899262 0.657898
O O10 0.000000 0.000000 0.000000
O O11 0.052181 0.000000 0.840778
O O12 0.877455 0.500000 0.444949
O O13 0.000000 0.362953 0.500000
O O14 0.000000 0.000000 0.500000
#
# Coordination Sequence:
#
# PCOD9147525 Si02
#       6
#     4   4   4   2   4   2
#     4  10  19  35  58  85 115 148 194 236 269 328
#     4  11  22  36  60  89 116 144 188 237 288 333
#     4  11  22  38  58  87 119 147 183 238 289 332
#     4  12  21  39  63  83 110 152 193 230 272 341
#     4  10  21  38  59  83 115 155 193 229 277 337
#     4  12  25  41  61  85 114 149 191 232 279 338
#
# _framework density 17.690543000000002
#
# number of rings (size 3 to 8) (size 9 to 14) (size 15 to 20)
#    0.000    1.200    4.000    3.000    0.000    2.400 
#    0.000    7.000    0.000    3.600    0.000    0.000 
#    0.000    0.000    0.000    0.000    0.000    0.000 
#
# Total GULP energy -111780.732741 kJ/mol
# GULP energy per Si atom -5589.036637 kJ/mol
# Density = 1.765028 g / cm^3
# Si number density = 17.690543 Si / 1000 Ang^3
#
#
#
# Elastic Constant Matrix: (Units=GPa)
#
#
# Indices 1 2 3 4 5 6 
#
# 1 112.8048 60.1783 85.5934 0.0000 -8.1037 0.0000
# 2 60.1783 114.8475 100.3598 0.0000 14.9606 0.0000
# 3 85.5934 100.3598 165.9431 0.0000 3.4605 0.0000
# 4 0.0000 0.0000 0.0000 3.1434 0.0000 -10.1419
# 5 -8.1037 14.9606 3.4605 0.0000 29.4428 0.0000
# 6 0.0000 0.0000 0.0000 -10.1419 0.0000 1.1311
#
#
#
# Elastic Compliance Matrix: (Units=1/GPa)
#
#
# Indices 1 2 3 4 5 6 
#
# 1 0.016135 -0.004239 -0.005911 0.000000 0.007289 0.000000
# 2 -0.004239 0.021726 -0.010725 0.000000 -0.010946 0.000000
# 3 -0.005911 -0.010725 0.015520 0.000000 0.001999 0.000000
# 4 0.000000 0.000000 0.000000 -0.011391 0.000000 -0.102132
# 5 0.007289 -0.010946 0.001999 0.000000 0.041297 0.000000
# 6 0.000000 0.000000 0.000000 -0.102132 0.000000 -0.031655
#
#
# Mechanical properties :
#
#
# Convention : Reuss Voigt Hill
#
# Bulk Modulus (GPa) = 85.97446 98.42870 92.20158
# Shear Modulus (GPa) = 51.40974 16.57441 33.99208
#
# Velocity S-wave (km/s) = 5.39663 3.06422 4.38823
# Velocity P-wave (km/s) = 9.35608 8.26312 8.82653
#
# Compressibility (1/GPa) = 0.01163136
#
# Stress axis : x y z
#
# Youngs Moduli (GPa) = 61.97817 46.02746 64.43477
#
# Poissons Ratio (x) = 0.19510 0.38086
# Poissons Ratio (y) = 0.26271 0.69106
# Poissons Ratio (z) = 0.36634 0.49365
#
# Static dielectric constant tensor:
#      x y z
#    x 1.570960 0.000000 -0.020240 
#    y 0.000000 1.602710 0.000000 
#    z -0.020240 0.000000 1.553190 
# 
# From -- ./inp_files/32383.got.cif
#   From: 2010.05.17/outbox.cif.g08.bks.cpg/sg10_17_cif.got.tgz:32383.got - 2010.06.03 11:33:40.
