data_PCOD9147711
_publ_section_title
;
Structure prediction by ZEFSAII (Michael W. Deem and Ramdas Pophale) SiO2 
 PCOD9147711
Probable space group: P 2/M
;
_chemical_formula_sum "Si O2"
_cell_formula_units_Z 28
_cell_length_a 15.865598
_cell_length_b 7.627809
_cell_length_c 12.227646
_cell_angle_alpha 90.000000
_cell_angle_beta 56.452948
_cell_angle_gamma 90.000000
_cell_volume 1233.301989
_symmetry_space_group_name_H-M "P 2/M"
_symmetry_group_IT_number 10
_symmetry_cell_setting 'monoclinic'
loop_
_space_group_symop_operation_xyz
x,y,z
-x,y,-z
-x,-y,-z
x,-y,z
loop_
_atom_site_type_symbol
_atom_site_label
_atom_site_fract_x
_atom_site_fract_y
_atom_site_fract_z
Si Si1 0.237662 0.792573 0.816145
Si Si2 0.842596 0.798457 0.353141
Si Si3 0.466465 0.211619 0.647653
Si Si4 0.384550 0.285680 0.091387
Si Si5 0.201835 0.288022 0.080711
Si Si6 0.971938 0.701265 0.636888
Si Si7 0.336803 0.297135 0.365277
O O1 0.181587 0.722161 0.749181
O O2 0.352202 0.723250 0.745582
O O3 0.248785 0.000000 0.786589
O O4 0.183055 0.768143 0.970319
O O5 0.739004 0.794929 0.496985
O O6 0.928997 0.703170 0.359047
O O7 0.876437 0.000000 0.317672
O O8 0.500000 0.254350 0.500000
O O9 0.549147 0.285035 0.671422
O O10 0.468969 0.000000 0.657083
O O11 0.386411 0.500000 0.091625
O O12 0.312135 0.231068 0.044502
O O13 0.336987 0.229622 0.241261
O O14 0.500000 0.225763 0.000000
O O15 0.199376 0.500000 0.082808
O O16 0.119046 0.222100 0.226427
O O17 0.940675 0.500000 0.635444
O O18 0.000000 0.783626 0.500000
O O19 0.305220 0.500000 0.385646
#
# Coordination Sequence:
#
# PCOD9147711 Si02
#       7
#     4   4   4   4   4   4   4
#     4  10  22  39  58  82 118 159 194 237 292 347
#     4  11  23  40  60  84 116 155 196 240 292 348
#     4  10  19  36  56  78 118 163 197 234 287 343
#     4   9  18  34  56  84 118 151 185 232 290 347
#     4  10  21  38  61  86 116 152 190 240 295 347
#     4  10  22  42  65  88 116 150 191 242 299 349
#     4  11  21  34  58  89 117 150 197 247 293 345
#
# _framework density 22.703281
#
# number of rings (size 3 to 8) (size 9 to 14) (size 15 to 20)
#    0.000    1.857    1.429    2.571    0.000    6.857 
#    0.000    5.714    0.000    3.857    0.000    0.000 
#    0.000    0.000    0.000    0.000    0.000    0.000 
#
# Total GULP energy -156551.079107 kJ/mol
# GULP energy per Si atom -5591.109968 kJ/mol
# Density = 2.265161 g / cm^3
# Si number density = 22.703281 Si / 1000 Ang^3
#
#
#
# Elastic Constant Matrix: (Units=GPa)
#
#
# Indices 1 2 3 4 5 6 
#
# 1 113.3819 -7.3755 49.9038 0.0000 12.9937 0.0000
# 2 -7.3755 47.7826 -3.9081 0.0000 -0.1985 0.0000
# 3 49.9038 -3.9081 143.3601 0.0000 16.6467 0.0000
# 4 0.0000 0.0000 0.0000 14.2018 0.0000 -2.1567
# 5 12.9937 -0.1985 16.6467 0.0000 39.4774 0.0000
# 6 0.0000 0.0000 0.0000 -2.1567 0.0000 11.5717
#
#
#
# Elastic Compliance Matrix: (Units=1/GPa)
#
#
# Indices 1 2 3 4 5 6 
#
# 1 0.010654 0.001355 -0.003434 0.000000 -0.002052 0.000000
# 2 0.001355 0.021148 0.000152 0.000000 -0.000404 0.000000
# 3 -0.003434 0.000152 0.008458 0.000000 -0.002435 0.000000
# 4 0.000000 0.000000 0.000000 0.072465 0.000000 0.013505
# 5 -0.002052 -0.000404 -0.002435 0.000000 0.027031 0.000000
# 6 0.000000 0.000000 0.000000 0.013505 0.000000 0.088935
#
#
# Mechanical properties :
#
#
# Convention : Reuss Voigt Hill
#
# Bulk Modulus (GPa) = 27.46761 42.41834 34.94298
# Shear Modulus (GPa) = 20.43490 30.77714 25.60602
#
# Velocity S-wave (km/s) = 3.00340 3.68588 3.36200
# Velocity P-wave (km/s) = 4.91447 6.06948 5.52225
#
# Compressibility (1/GPa) = 0.03640651
#
# Stress axis : x y z
#
# Youngs Moduli (GPa) = 93.85867 47.28575 118.23687
#
# Poissons Ratio (x) = -0.06408 0.40597
# Poissons Ratio (y) = -0.12720 -0.01793
# Poissons Ratio (z) = 0.32227 -0.00717
#
# Static dielectric constant tensor:
#      x y z
#    x 1.811290 0.000000 0.001380 
#    y 0.000000 1.850730 0.000000 
#    z 0.001380 0.000000 1.828570 
# 
# From -- ./inp_files/49543.got.cif
#   From: 2010.05.17/outbox.cif.g08.bks.cpg/sg10_25_cif.got.tgz:49543.got - 2010.06.03 11:33:40.
