data_PCOD9147232
_publ_section_title
;
Structure prediction by ZEFSAII (Michael W. Deem and Ramdas Pophale) SiO2 
 PCOD9147232
Probable space group: P 2/M
;
_chemical_formula_sum "Si O2"
_cell_formula_units_Z 24
_cell_length_a 24.000017
_cell_length_b 8.805102
_cell_length_c 9.920125
_cell_angle_alpha 90.000000
_cell_angle_beta 143.030206
_cell_angle_gamma 90.000000
_cell_volume 1260.730056
_symmetry_space_group_name_H-M "P 2/M"
_symmetry_group_IT_number 10
_symmetry_cell_setting 'monoclinic'
loop_
_space_group_symop_operation_xyz
x,y,z
-x,y,-z
-x,-y,-z
x,-y,z
loop_
_atom_site_type_symbol
_atom_site_label
_atom_site_fract_x
_atom_site_fract_y
_atom_site_fract_z
Si Si1 0.892880 0.682927 0.283910
Si Si2 0.696530 0.824353 0.398867
Si Si3 0.245410 0.319518 0.210817
Si Si4 0.567384 0.321495 0.947077
Si Si5 0.430535 0.819571 0.485644
Si Si6 0.747823 0.823951 0.206776
O O1 0.886855 0.500000 0.289313
O O2 0.830061 0.761082 0.276175
O O3 0.000000 0.727541 0.500000
O O4 0.846667 0.720176 0.050332
O O5 0.741238 0.757144 0.618496
O O6 0.607953 0.732667 0.169378
O O7 0.765445 0.818226 0.402460
O O8 0.671017 0.000000 0.370335
O O9 0.249731 0.500000 0.235461
O O10 0.332546 0.263059 0.291303
O O11 0.549620 0.500000 0.911623
O O12 0.654286 0.275911 0.017642
O O13 0.481120 0.230149 0.721337
O O14 0.500000 0.776441 0.500000
O O15 0.417037 0.000000 0.456296
O O16 0.726486 0.000000 0.131602
#
# Coordination Sequence:
#
# PCOD9147232 Si02
#       6
#     4   4   4   4   4   4
#     4  10  22  40  62  88 117 151 192 241 296 350
#     4   9  20  38  59  85 119 156 193 237 289 342
#     4  11  23  38  59  87 117 151 196 243 289 344
#     4  10  19  34  58  84 115 153 193 233 280 338
#     4  11  23  37  55  83 120 159 196 237 286 339
#     4   9  19  36  59  86 116 154 193 233 285 344
#
# _framework density 19.036587999999998
#
# number of rings (size 3 to 8) (size 9 to 14) (size 15 to 20)
#    1.000    1.000    0.000    4.000    0.000    6.333 
#    0.000    4.167    0.000    5.000    0.000    0.000 
#    0.000    0.000    0.000    0.000    0.000    0.000 
#
# Total GULP energy -133918.456438 kJ/mol
# GULP energy per Si atom -5579.935685 kJ/mol
# Density = 1.899326 g / cm^3
# Si number density = 19.036588 Si / 1000 Ang^3
#
#
#
# Elastic Constant Matrix: (Units=GPa)
#
#
# Indices 1 2 3 4 5 6 
#
# 1 56.0235 7.5521 27.4755 0.0000 -15.8462 0.0000
# 2 7.5521 46.6950 21.1565 0.0000 -8.1164 0.0000
# 3 27.4755 21.1565 117.5618 0.0000 -8.7479 0.0000
# 4 0.0000 0.0000 0.0000 -136.5235 0.0000 23.9127
# 5 -15.8462 -8.1164 -8.7479 0.0000 27.3828 0.0000
# 6 0.0000 0.0000 0.0000 23.9127 0.0000 28.1988
#
#
#
# Elastic Compliance Matrix: (Units=1/GPa)
#
#
# Indices 1 2 3 4 5 6 
#
# 1 0.023551 0.000439 -0.004670 0.000000 0.012267 0.000000
# 2 0.000439 0.024229 -0.004005 0.000000 0.006156 0.000000
# 3 -0.004670 -0.004005 0.010273 0.000000 -0.000608 0.000000
# 4 0.000000 0.000000 0.000000 -0.006377 0.000000 0.005408
# 5 0.012267 0.006156 -0.000608 0.000000 0.045249 0.000000
# 6 0.000000 0.000000 0.000000 0.005408 0.000000 0.030876
#
#
# Mechanical properties :
#
#
# Convention : Reuss Voigt Hill
#
# Bulk Modulus (GPa) = 24.04937 36.96092 30.50514
# Shear Modulus (GPa) = 31.61910 -5.24863 13.18523
#
# Velocity S-wave (km/s) = 4.07991 -1.66226 2.63463
# Velocity P-wave (km/s) = 5.90381 3.97161 5.03133
#
# Compressibility (1/GPa) = 0.04158113
#
# Stress axis : x y z
#
# Youngs Moduli (GPa) = 42.46194 41.27263 97.34112
#
# Poissons Ratio (x) = -0.01813 0.45461
# Poissons Ratio (y) = -0.01865 0.38984
# Poissons Ratio (z) = 0.19831 0.16529
#
# Static dielectric constant tensor:
#      x y z
#    x 1.704260 0.000000 -0.027460 
#    y 0.000000 1.632440 0.000000 
#    z -0.027460 0.000000 1.659760 
# 
# From -- ./inp_files/57321.got.cif
#   From: 2010.05.17/outbox.cif.g08.bks.cpg/sg10_29_cif.got.tgz:57321.got - 2010.06.03 11:33:40.
