data_PCOD9147781
_publ_section_title
;
Structure prediction by ZEFSAII (Michael W. Deem and Ramdas Pophale) SiO2 
 PCOD9147781
Probable space group: P 2/M
;
_chemical_formula_sum "Si O2"
_cell_formula_units_Z 28
_cell_length_a 17.271062
_cell_length_b 8.983206
_cell_length_c 10.836473
_cell_angle_alpha 90.000000
_cell_angle_beta 123.879428
_cell_angle_gamma 90.000000
_cell_volume 1395.814218
_symmetry_space_group_name_H-M "P 2/M"
_symmetry_group_IT_number 10
_symmetry_cell_setting 'monoclinic'
loop_
_space_group_symop_operation_xyz
x,y,z
-x,y,-z
-x,-y,-z
x,-y,z
loop_
_atom_site_type_symbol
_atom_site_label
_atom_site_fract_x
_atom_site_fract_y
_atom_site_fract_z
Si Si1 0.193929 0.670773 0.927499
Si Si2 0.648124 0.170299 0.068499
Si Si3 0.647140 0.675790 0.316050
Si Si4 0.800142 0.822821 0.597064
Si Si5 0.315058 0.672431 0.286673
Si Si6 0.477190 0.826499 0.290361
Si Si7 0.009440 0.678682 0.153567
O O1 0.197606 0.500000 0.884024
O O2 0.250148 0.672122 0.106770
O O3 0.087763 0.710442 0.864141
O O4 0.250055 0.778507 0.887213
O O5 0.617854 0.274808 0.153233
O O6 0.647010 0.000000 0.111053
O O7 0.581558 0.180629 0.890194
O O8 0.652339 0.500000 0.331050
O O9 0.746399 0.750573 0.434100
O O10 0.572164 0.741037 0.345730
O O11 0.740917 0.763860 0.661360
O O12 0.904086 0.762308 0.708998
O O13 0.798120 0.000000 0.588558
O O14 0.327946 0.500000 0.335637
O O15 0.411583 0.749039 0.333034
O O16 0.493873 0.000000 0.333597
O O17 0.025663 0.500000 0.172449
O O18 0.000000 0.718408 0.000000
#
# Coordination Sequence:
#
# PCOD9147781 Si02
#       7
#     4   4   4   4   4   4   4
#     4   9  18  34  60  89 118 151 191 237 283 336
#     4  10  21  38  61  88 120 152 189 240 292 340
#     4  12  25  41  60  82 113 157 202 241 286 346
#     4  12  25  39  57  85 121 156 193 241 296 349
#     4  10  19  36  59  87 119 154 195 237 285 344
#     4  10  21  38  61  90 120 151 190 240 294 343
#     4  10  19  37  62  89 119 154 192 236 285 343
#
# _framework density 20.059975999999999
#
# number of rings (size 3 to 8) (size 9 to 14) (size 15 to 20)
#    0.000    1.571    1.429    4.286    0.000    5.429 
#    0.000    3.571    0.000    4.286    0.000    0.000 
#    0.000    0.000    0.000    0.000    0.000    0.000 
#
# Total GULP energy -156612.377550 kJ/mol
# GULP energy per Si atom -5593.299198 kJ/mol
# Density = 2.001432 g / cm^3
# Si number density = 20.059976 Si / 1000 Ang^3
#
#
#
# Elastic Constant Matrix: (Units=GPa)
#
#
# Indices 1 2 3 4 5 6 
#
# 1 80.8487 46.2043 20.1380 0.0000 22.1348 0.0000
# 2 46.2043 131.9709 35.3840 0.0000 22.4283 0.0000
# 3 20.1380 35.3840 49.3587 0.0000 15.5049 0.0000
# 4 0.0000 0.0000 0.0000 -14.4341 0.0000 -8.8632
# 5 22.1348 22.4283 15.5049 0.0000 33.2505 0.0000
# 6 0.0000 0.0000 0.0000 -8.8632 0.0000 32.1962
#
#
#
# Elastic Compliance Matrix: (Units=1/GPa)
#
#
# Indices 1 2 3 4 5 6 
#
# 1 0.017399 -0.004340 -0.001486 0.000000 -0.007962 0.000000
# 2 -0.004340 0.010877 -0.005424 0.000000 -0.001919 0.000000
# 3 -0.001486 -0.005424 0.027292 0.000000 -0.008078 0.000000
# 4 0.000000 0.000000 0.000000 -0.059263 0.000000 -0.016314
# 5 -0.007962 -0.001919 -0.008078 0.000000 0.040436 0.000000
# 6 0.000000 0.000000 0.000000 -0.016314 0.000000 0.026568
#
#
# Mechanical properties :
#
#
# Convention : Reuss Voigt Hill
#
# Bulk Modulus (GPa) = 30.24122 51.73677 40.98899
# Shear Modulus (GPa) = 51.63450 20.89933 36.26691
#
# Velocity S-wave (km/s) = 5.07897 3.23126 4.25658
# Velocity P-wave (km/s) = 7.03582 6.30622 6.68099
#
# Compressibility (1/GPa) = 0.03306745
#
# Stress axis : x y z
#
# Youngs Moduli (GPa) = 57.47423 91.93462 36.64016
#
# Poissons Ratio (x) = 0.39899 0.05446
# Poissons Ratio (y) = 0.24943 0.19875
# Poissons Ratio (z) = 0.08543 0.49868
#
# Static dielectric constant tensor:
#      x y z
#    x 1.684320 0.000000 -0.011240 
#    y 0.000000 1.668870 0.000000 
#    z -0.011240 0.000000 1.747990 
# 
# From -- ./inp_files/54998.got.cif
#   From: 2010.05.17/outbox.cif.g08.bks.cpg/sg10_28_cif.got.tgz:54998.got - 2010.06.03 11:33:40.
