data_PCOD9147250
_publ_section_title
;
Structure prediction by ZEFSAII (Michael W. Deem and Ramdas Pophale) SiO2 
 PCOD9147250
Probable space group: P 2/M
;
_chemical_formula_sum "Si O2"
_cell_formula_units_Z 29
_cell_length_a 14.591673
_cell_length_b 7.790550
_cell_length_c 12.680996
_cell_angle_alpha 90.000000
_cell_angle_beta 78.426019
_cell_angle_gamma 90.000000
_cell_volume 1412.227986
_symmetry_space_group_name_H-M "P 2/M"
_symmetry_group_IT_number 10
_symmetry_cell_setting 'monoclinic'
loop_
_space_group_symop_operation_xyz
x,y,z
-x,y,-z
-x,-y,-z
x,-y,z
loop_
_atom_site_type_symbol
_atom_site_label
_atom_site_fract_x
_atom_site_fract_y
_atom_site_fract_z
Si Si1 0.605374 0.700094 0.955808
Si Si2 0.297939 0.201559 0.512994
Si Si3 0.585711 0.790304 0.321060
Si Si4 0.381308 0.208059 0.285848
Si Si5 0.061784 0.302938 0.892451
Si Si6 0.894827 0.309114 0.343773
Si Si7 0.265795 0.801180 0.889107
Si Si8 0.000000 0.500000 0.500000
O O1 0.604523 0.500000 0.986119
O O2 0.629645 0.718418 0.827761
O O3 0.680729 0.788857 0.012808
O O4 0.500000 0.768973 0.000000
O O5 0.375881 0.272020 0.575481
O O6 0.307494 0.267717 0.391613
O O7 0.196427 0.220379 0.587661
O O8 0.318985 0.000000 0.499443
O O9 0.482570 0.740310 0.309029
O O10 0.584787 0.000000 0.323657
O O11 0.661133 0.738366 0.215831
O O12 0.379332 0.000000 0.274787
O O13 0.027509 0.500000 0.888904
O O14 0.063347 0.229294 0.772741
O O15 0.168687 0.296961 0.906248
O O16 0.000000 0.221687 0.000000
O O17 0.859291 0.500000 0.318492
O O18 0.967042 0.352175 0.420382
O O19 0.244436 0.000000 0.870198
#
# Coordination Sequence:
#
# PCOD9147250 Si02
#       8
#     4   4   4   4   4   4   4   1
#     4  11  23  38  55  79 117 159 200 242 284 338
#     4  10  19  34  58  88 116 146 192 240 283 333
#     4   9  17  31  55  83 115 151 186 231 280 333
#     4  10  20  35  55  82 118 159 197 232 279 342
#     4  10  21  39  61  87 114 147 193 243 300 348
#     4   9  19  38  60  79 111 147 188 232 281 352
#     4  11  21  36  61  87 114 152 195 239 293 347
#     4   8  20  40  60  80 102 156 190 218 288 366
#
# _framework density 20.534927
#
# number of rings (size 3 to 8) (size 9 to 14) (size 15 to 20)
#    0.414    1.655    2.759    1.241    0.000    3.034 
#    2.483    1.034    0.000    1.655    0.000    0.000 
#    0.000    0.000    0.000    0.000    0.000    0.000 
#
# Total GULP energy -161434.625633 kJ/mol
# GULP energy per Si atom -5566.711229 kJ/mol
# Density = 2.048819 g / cm^3
# Si number density = 20.534927 Si / 1000 Ang^3
#
#
#
# Elastic Constant Matrix: (Units=GPa)
#
#
# Indices 1 2 3 4 5 6 
#
# 1 60.5549 -3.4891 47.4740 0.0000 13.8853 0.0000
# 2 -3.4891 28.7847 -6.0934 0.0000 -0.1494 0.0000
# 3 47.4740 -6.0934 161.4774 0.0000 6.3202 0.0000
# 4 0.0000 0.0000 0.0000 2.2960 0.0000 -27.2109
# 5 13.8853 -0.1494 6.3202 0.0000 38.3849 0.0000
# 6 0.0000 0.0000 0.0000 -27.2109 0.0000 -45.6165
#
#
#
# Elastic Compliance Matrix: (Units=1/GPa)
#
#
# Indices 1 2 3 4 5 6 
#
# 1 0.023419 0.001415 -0.006543 0.000000 -0.007389 0.000000
# 2 0.001415 0.035106 0.000929 0.000000 -0.000528 0.000000
# 3 -0.006543 0.000929 0.008111 0.000000 0.001035 0.000000
# 4 0.000000 0.000000 0.000000 0.053973 0.000000 -0.032196
# 5 -0.007389 -0.000528 0.001035 0.000000 0.028552 0.000000
# 6 0.000000 0.000000 0.000000 -0.032196 0.000000 -0.002717
#
#
# Mechanical properties :
#
#
# Convention : Reuss Voigt Hill
#
# Bulk Modulus (GPa) = 17.17021 36.28888 26.72955
# Shear Modulus (GPa) = 28.69371 13.20791 20.95081
#
# Velocity S-wave (km/s) = 3.74212 2.53888 3.19760
# Velocity P-wave (km/s) = 5.20105 5.12881 5.16505
#
# Compressibility (1/GPa) = 0.05824040
#
# Stress axis : x y z
#
# Youngs Moduli (GPa) = 42.70037 28.48498 123.29130
#
# Poissons Ratio (x) = -0.04032 0.80664
# Poissons Ratio (y) = -0.06044 -0.11458
# Poissons Ratio (z) = 0.27937 -0.02647
#
# Static dielectric constant tensor:
#      x y z
#    x 1.690650 0.000000 -0.011630 
#    y 0.000000 1.784850 0.000000 
#    z -0.011630 0.000000 1.784690 
# 
# From -- ./inp_files/49243.got.cif
#   From: 2010.05.17/outbox.cif.g08.bks.cpg/sg10_25_cif.got.tgz:49243.got - 2010.06.03 11:33:40.
