data_PCOD9147845
_publ_section_title
;
Structure prediction by ZEFSAII (Michael W. Deem and Ramdas Pophale) SiO2 
 PCOD9147845
Probable space group: P 2/M
;
_chemical_formula_sum "Si O2"
_cell_formula_units_Z 28
_cell_length_a 14.814299
_cell_length_b 9.117197
_cell_length_c 11.384654
_cell_angle_alpha 90.000000
_cell_angle_beta 112.311142
_cell_angle_gamma 90.000000
_cell_volume 1422.550917
_symmetry_space_group_name_H-M "P 2/M"
_symmetry_group_IT_number 10
_symmetry_cell_setting 'monoclinic'
loop_
_space_group_symop_operation_xyz
x,y,z
-x,y,-z
-x,-y,-z
x,-y,z
loop_
_atom_site_type_symbol
_atom_site_label
_atom_site_fract_x
_atom_site_fract_y
_atom_site_fract_z
Si Si1 0.961063 0.828975 0.612659
Si Si2 0.116087 0.173435 0.074925
Si Si3 0.650090 0.674975 0.136255
Si Si4 0.158582 0.824146 0.834208
Si Si5 0.206015 0.674094 0.346012
Si Si6 0.544881 0.675978 0.835381
Si Si7 0.599957 0.827593 0.621096
O O1 0.865451 0.735115 0.589075
O O2 0.000000 0.822020 0.500000
O O3 0.051515 0.778214 0.737763
O O4 0.940179 0.000000 0.631206
O O5 0.157275 0.269026 0.200632
O O6 0.132220 0.000000 0.107153
O O7 0.166267 0.211320 0.975940
O O8 0.000000 0.192398 0.000000
O O9 0.662587 0.500000 0.150804
O O10 0.753551 0.753456 0.194150
O O11 0.567138 0.717712 0.189192
O O12 0.604970 0.705940 0.984560
O O13 0.162405 0.000000 0.823620
O O14 0.211972 0.500000 0.351502
O O15 0.312485 0.745380 0.400938
O O16 0.548365 0.500000 0.817516
O O17 0.585763 0.759362 0.743363
O O18 0.500000 0.809761 0.500000
O O19 0.622446 0.000000 0.641876
#
# Coordination Sequence:
#
# PCOD9147845 Si02
#       7
#     4   4   4   4   4   4   4
#     4  10  22  42  63  82 114 159 202 243 290 348
#     4  10  19  36  61  87 121 157 197 245 293 348
#     4   9  19  35  57  85 120 155 185 233 297 358
#     4  10  20  34  56  87 116 151 196 242 290 343
#     4  12  25  40  62  91 123 156 195 246 304 362
#     4   9  19  38  60  85 117 153 192 237 298 355
#     4  11  25  43  63  86 115 155 204 251 295 348
#
# _framework density 19.682950999999999
#
# number of rings (size 3 to 8) (size 9 to 14) (size 15 to 20)
#    0.000    1.857    1.429    3.429    0.000    7.429 
#    0.000    5.714    0.000    0.000    0.000    0.000 
#    0.000    0.000    0.000    0.000    0.000    0.000 
#
# Total GULP energy -156491.282803 kJ/mol
# GULP energy per Si atom -5588.974386 kJ/mol
# Density = 1.963815 g / cm^3
# Si number density = 19.682951 Si / 1000 Ang^3
#
#
#
# Elastic Constant Matrix: (Units=GPa)
#
#
# Indices 1 2 3 4 5 6 
#
# 1 143.9810 61.7929 15.9632 0.0000 10.3253 0.0000
# 2 61.7929 79.5256 25.2728 0.0000 8.2945 0.0000
# 3 15.9632 25.2728 28.2930 0.0000 -1.7187 0.0000
# 4 0.0000 0.0000 0.0000 51.2595 0.0000 -11.7993
# 5 10.3253 8.2945 -1.7187 0.0000 24.1765 0.0000
# 6 0.0000 0.0000 0.0000 -11.7993 0.0000 39.4607
#
#
#
# Elastic Compliance Matrix: (Units=1/GPa)
#
#
# Indices 1 2 3 4 5 6 
#
# 1 0.010540 -0.008546 0.001598 0.000000 -0.001456 0.000000
# 2 -0.008546 0.025820 -0.018639 0.000000 -0.006533 0.000000
# 3 0.001598 -0.018639 0.051662 0.000000 0.009385 0.000000
# 4 0.000000 0.000000 0.000000 0.020951 0.000000 0.006265
# 5 -0.001456 -0.006533 0.009385 0.000000 0.044893 0.000000
# 6 0.000000 0.000000 0.000000 0.006265 0.000000 0.027215
#
#
# Mechanical properties :
#
#
# Convention : Reuss Voigt Hill
#
# Bulk Modulus (GPa) = 27.13769 50.87303 39.00536
# Shear Modulus (GPa) = 20.44691 32.89739 26.67215
#
# Velocity S-wave (km/s) = 3.22656 4.09267 3.68515
# Velocity P-wave (km/s) = 5.26291 6.94518 6.16173
#
# Compressibility (1/GPa) = 0.03684912
#
# Stress axis : x y z
#
# Youngs Moduli (GPa) = 94.87351 38.72994 19.35673
#
# Poissons Ratio (x) = 0.33099 -0.03094
# Poissons Ratio (y) = 0.81081 0.36078
# Poissons Ratio (z) = -0.15166 0.72187
#
# Static dielectric constant tensor:
#      x y z
#    x 1.694620 0.000000 0.001680 
#    y 0.000000 1.653350 0.000000 
#    z 0.001680 0.000000 1.695770 
# 
# From -- ./inp_files/50089.got.cif
#   From: 2010.05.17/outbox.cif.g08.bks.cpg/sg10_26_cif.got.tgz:50089.got - 2010.06.03 11:33:40.
