data_PCOD9147375
_publ_section_title
;
Structure prediction by ZEFSAII (Michael W. Deem and Ramdas Pophale) SiO2 
 PCOD9147375
Probable space group: P 2/M
;
_chemical_formula_sum "Si O2"
_cell_formula_units_Z 28
_cell_length_a 13.148759
_cell_length_b 13.942004
_cell_length_c 9.261754
_cell_angle_alpha 90.000000
_cell_angle_beta 123.425580
_cell_angle_gamma 90.000000
_cell_volume 1417.041727
_symmetry_space_group_name_H-M "P 2/M"
_symmetry_group_IT_number 10
_symmetry_cell_setting 'monoclinic'
loop_
_space_group_symop_operation_xyz
x,y,z
-x,y,-z
-x,-y,-z
x,-y,z
loop_
_atom_site_type_symbol
_atom_site_label
_atom_site_fract_x
_atom_site_fract_y
_atom_site_fract_z
Si Si1 0.671386 0.690436 0.177829
Si Si2 0.984133 0.106984 0.661341
Si Si3 0.167755 0.297755 0.431616
Si Si4 0.053599 0.607281 0.880456
Si Si5 0.216232 0.797851 0.970194
Si Si6 0.544061 0.606276 0.829394
Si Si7 0.632931 0.737504 0.654641
O O1 0.786348 0.682359 0.371192
O O2 0.692736 0.783081 0.094094
O O3 0.556897 0.682377 0.195851
O O4 0.640113 0.609237 0.035919
O O5 0.892878 0.192622 0.627663
O O6 0.000000 0.111866 0.500000
O O7 0.111438 0.128168 0.843439
O O8 0.940997 0.000000 0.663988
O O9 0.063660 0.372982 0.310199
O O10 0.279727 0.295157 0.406862
O O11 0.103486 0.500000 0.899305
O O12 0.145441 0.695383 0.929389
O O13 0.000000 0.614442 0.000000
O O14 0.292335 0.807040 0.177457
O O15 0.492593 0.500000 0.773060
O O16 0.602540 0.644763 0.729631
O O17 0.500000 0.774231 0.500000
#
# Coordination Sequence:
#
# PCOD9147375 Si02
#       7
#     4   4   4   4   4   4   4
#     4  10  19  35  54  80 115 156 194 248 299 338
#     4  10  21  40  69  97 118 148 195 249 307 373
#     4  11  21  38  59  88 118 155 196 249 301 361
#     4  10  21  35  53  78 114 162 200 235 291 356
#     4  10  21  38  60  87 121 155 194 249 303 357
#     4  10  22  36  52  82 120 165 218 255 285 336
#     4  11  22  38  58  83 115 165 199 240 302 354
#
# _framework density 19.759474999999998
#
# number of rings (size 3 to 8) (size 9 to 14) (size 15 to 20)
#    0.000    1.714    4.286    0.857    0.000    4.857 
#    0.000    2.143    0.000    1.714    0.000    7.000 
#    0.000    0.000    0.000    0.000    0.000    0.000 
#
# Total GULP energy -156064.577182 kJ/mol
# GULP energy per Si atom -5573.734899 kJ/mol
# Density = 1.971450 g / cm^3
# Si number density = 19.759475 Si / 1000 Ang^3
#
#
#
# Elastic Constant Matrix: (Units=GPa)
#
#
# Indices 1 2 3 4 5 6 
#
# 1 73.7048 16.8181 5.2648 0.0000 -1.1219 0.0000
# 2 16.8181 64.2869 5.5724 0.0000 1.0168 0.0000
# 3 5.2648 5.5724 145.1472 0.0000 13.9337 0.0000
# 4 0.0000 0.0000 0.0000 13.5242 0.0000 0.8560
# 5 -1.1219 1.0168 13.9337 0.0000 32.1212 0.0000
# 6 0.0000 0.0000 0.0000 0.8560 0.0000 7.2157
#
#
#
# Elastic Compliance Matrix: (Units=1/GPa)
#
#
# Indices 1 2 3 4 5 6 
#
# 1 0.014471 -0.003759 -0.000460 0.000000 0.000824 0.000000
# 2 -0.003759 0.016585 -0.000456 0.000000 -0.000458 0.000000
# 3 -0.000460 -0.000456 0.007225 0.000000 -0.003136 0.000000
# 4 0.000000 0.000000 0.000000 0.074501 0.000000 -0.008838
# 5 0.000824 -0.000458 -0.003136 0.000000 0.032536 0.000000
# 6 0.000000 0.000000 0.000000 -0.008838 0.000000 0.139635
#
#
# Mechanical properties :
#
#
# Convention : Reuss Voigt Hill
#
# Bulk Modulus (GPa) = 34.56493 37.60551 36.08522
# Shear Modulus (GPa) = 16.45031 27.60446 22.02738
#
# Velocity S-wave (km/s) = 2.88849 3.74173 3.34245
# Velocity P-wave (km/s) = 5.35306 6.14332 5.76176
#
# Compressibility (1/GPa) = 0.02893106
#
# Stress axis : x y z
#
# Youngs Moduli (GPa) = 69.10501 60.29380 138.41290
#
# Poissons Ratio (x) = 0.22664 0.06362
# Poissons Ratio (y) = 0.25976 0.06317
# Poissons Ratio (z) = 0.03176 0.02752
#
# Static dielectric constant tensor:
#      x y z
#    x 1.752850 0.000000 0.035430 
#    y 0.000000 1.649540 0.000000 
#    z 0.035430 0.000000 1.752970 
# 
# From -- ./inp_files/29594.got.cif
#   From: 2010.05.17/outbox.cif.g08.bks.cpg/sg10_15_cif.got.tgz:29594.got - 2010.06.03 11:33:40.
