data_PCOD9147278
_publ_section_title
;
Structure prediction by ZEFSAII (Michael W. Deem and Ramdas Pophale) SiO2 
 PCOD9147278
Probable space group: P 2/M
;
_chemical_formula_sum "Si O2"
_cell_formula_units_Z 28
_cell_length_a 9.877432
_cell_length_b 7.590500
_cell_length_c 29.127601
_cell_angle_alpha 90.000000
_cell_angle_beta 146.774387
_cell_angle_gamma 90.000000
_cell_volume 1196.602646
_symmetry_space_group_name_H-M "P 2/M"
_symmetry_group_IT_number 10
_symmetry_cell_setting 'monoclinic'
loop_
_space_group_symop_operation_xyz
x,y,z
-x,y,-z
-x,-y,-z
x,-y,z
loop_
_atom_site_type_symbol
_atom_site_label
_atom_site_fract_x
_atom_site_fract_y
_atom_site_fract_z
Si Si1 0.751325 0.214917 0.835553
Si Si2 0.608808 0.798042 0.893196
Si Si3 0.601067 0.798149 0.632062
Si Si4 0.293344 0.784295 0.977018
Si Si5 0.672001 0.214025 0.354319
Si Si6 0.929937 0.702012 0.286285
Si Si7 0.164155 0.704299 0.446396
O O1 0.736183 0.278522 0.883835
O O2 0.512382 0.268921 0.738907
O O3 0.010551 0.264909 0.886133
O O4 0.743281 0.000000 0.834523
O O5 0.317124 0.796102 0.799789
O O6 0.696267 0.000000 0.921036
O O7 0.652987 0.721385 0.955944
O O8 0.452981 0.726318 0.633823
O O9 0.854032 0.706792 0.689918
O O10 0.409533 0.790995 0.535544
O O11 0.665379 0.000000 0.660752
O O12 0.304367 0.000000 0.980000
O O13 0.500000 0.723047 0.000000
O O14 0.945188 0.280879 0.421449
O O15 0.687980 0.000000 0.359992
O O16 0.859527 0.500000 0.275866
O O17 0.048880 0.778267 0.366679
O O18 0.225520 0.500000 0.455491
#
# Coordination Sequence:
#
# PCOD9147278 Si02
#       7
#     4   4   4   4   4   4   4
#     4   9  17  32  54  83 117 149 184 231 283 336
#     4  10  19  34  59  85 113 152 194 234 287 342
#     4  11  24  38  59  88 117 150 194 243 296 345
#     4   9  18  30  53  89 122 147 182 235 288 340
#     4  10  21  37  59  87 118 150 192 243 289 339
#     4  11  24  40  58  83 117 155 197 241 289 344
#     4  11  23  40  60  83 115 155 198 238 290 349
#
# _framework density 23.399581000000001
#
# number of rings (size 3 to 8) (size 9 to 14) (size 15 to 20)
#    0.000    1.857    1.429    2.571    2.000    8.000 
#    0.000    0.000    0.000    3.000    0.000    0.000 
#    0.000    0.000    0.000    0.000    0.000    0.000 
#
# Total GULP energy -156600.027187 kJ/mol
# GULP energy per Si atom -5592.858114 kJ/mol
# Density = 2.334632 g / cm^3
# Si number density = 23.399581 Si / 1000 Ang^3
#
#
#
# Elastic Constant Matrix: (Units=GPa)
#
#
# Indices 1 2 3 4 5 6 
#
# 1 104.5561 -1.1339 26.0964 0.0000 28.5211 0.0000
# 2 -1.1339 55.9584 -4.4111 0.0000 -1.7839 0.0000
# 3 26.0964 -4.4111 66.0683 0.0000 14.0713 0.0000
# 4 0.0000 0.0000 0.0000 1.4354 0.0000 17.2829
# 5 28.5211 -1.7839 14.0713 0.0000 40.6874 0.0000
# 6 0.0000 0.0000 0.0000 17.2829 0.0000 39.9384
#
#
#
# Elastic Compliance Matrix: (Units=1/GPa)
#
#
# Indices 1 2 3 4 5 6 
#
# 1 0.012463 -0.000252 -0.003321 0.000000 -0.007599 0.000000
# 2 -0.000252 0.017976 0.001181 0.000000 0.000556 0.000000
# 3 -0.003321 0.001181 0.017293 0.000000 -0.003601 0.000000
# 4 0.000000 0.000000 0.000000 -0.165465 0.000000 0.071603
# 5 -0.007599 0.000556 -0.003601 0.000000 0.031174 0.000000
# 6 0.000000 0.000000 0.000000 0.071603 0.000000 -0.005947
#
#
# Mechanical properties :
#
#
# Convention : Reuss Voigt Hill
#
# Bulk Modulus (GPa) = 23.28304 29.74285 26.51294
# Shear Modulus (GPa) = -68.11550 30.14767 -18.98391
#
# Velocity S-wave (km/s) = -5.40119 3.59330 -2.85141
# Velocity P-wave (km/s) = 5.37823 5.47304 0.71722
#
# Compressibility (1/GPa) = 0.04294972
#
# Stress axis : x y z
#
# Youngs Moduli (GPa) = 80.23529 55.62931 57.82524
#
# Poissons Ratio (x) = 0.01399 0.19205
# Poissons Ratio (y) = 0.02018 -0.06830
# Poissons Ratio (z) = 0.26648 -0.06571
#
# Static dielectric constant tensor:
#      x y z
#    x 1.875080 0.000000 -0.033940 
#    y 0.000000 1.889320 0.000000 
#    z -0.033940 0.000000 1.836800 
# 
# From -- ./inp_files/37067.got.cif
#   From: 2010.05.17/outbox.cif.g08.bks.cpg/sg10_19_cif.got.tgz:37067.got - 2010.06.03 11:33:40.
