data_PCOD9147376
_publ_section_title
;
Structure prediction by ZEFSAII (Michael W. Deem and Ramdas Pophale) SiO2 
 PCOD9147376
Probable space group: P 2/M
;
_chemical_formula_sum "Si O2"
_cell_formula_units_Z 32
_cell_length_a 12.961761
_cell_length_b 19.065905
_cell_length_c 8.807883
_cell_angle_alpha 90.000000
_cell_angle_beta 49.404280
_cell_angle_gamma 90.000000
_cell_volume 1652.790330
_symmetry_space_group_name_H-M "P 2/M"
_symmetry_group_IT_number 10
_symmetry_cell_setting 'monoclinic'
loop_
_space_group_symop_operation_xyz
x,y,z
-x,y,-z
-x,-y,-z
x,-y,z
loop_
_atom_site_type_symbol
_atom_site_label
_atom_site_fract_x
_atom_site_fract_y
_atom_site_fract_z
Si Si1 0.220672 0.697300 0.608393
Si Si2 0.649015 0.081724 0.315255
Si Si3 0.902711 0.842150 0.234047
Si Si4 0.009666 0.579707 0.806064
Si Si5 0.390664 0.126847 0.985952
Si Si6 0.503125 0.716854 0.172100
Si Si7 0.785730 0.311427 0.020906
Si Si8 0.897577 0.177199 0.728246
O O1 0.148651 0.770653 0.640114
O O2 0.135938 0.629095 0.641187
O O3 0.367598 0.700456 0.393087
O O4 0.216010 0.697354 0.796139
O O5 0.500000 0.111335 0.500000
O O6 0.772134 0.118578 0.288148
O O7 0.650448 0.088647 0.131075
O O8 0.652936 0.000000 0.353630
O O9 0.008817 0.873679 0.255435
O O10 0.000000 0.825427 0.000000
O O11 0.017984 0.500000 0.743681
O O12 0.876898 0.622946 0.886092
O O13 0.000000 0.577675 0.000000
O O14 0.462801 0.199750 0.864951
O O15 0.500000 0.094673 0.000000
O O16 0.243122 0.144234 0.199770
O O17 0.500000 0.695451 0.000000
O O18 0.631092 0.679942 0.123528
O O19 0.844628 0.241981 0.882297
O O20 0.000000 0.200660 0.500000
#
# Coordination Sequence:
#
# PCOD9147376 Si02
#       8
#     4   4   4   4   4   4   4   4
#     4  11  19  34  60  88 114 152 191 246 296 343
#     4  11  25  42  63  88 118 157 199 247 298 360
#     4  12  20  39  63  91 117 151 201 251 301 354
#     4   9  18  33  56  85 115 148 194 243 293 348
#     4  10  22  39  58  86 120 156 195 242 302 360
#     4  10  22  34  55  86 117 149 193 247 293 342
#     4  10  19  35  54  83 117 151 191 237 296 349
#     4  11  23  35  58  93 121 151 195 253 305 349
#
# _framework density 19.361197000000001
#
# number of rings (size 3 to 8) (size 9 to 14) (size 15 to 20)
#    0.000    1.500    3.750    2.250    7.000    0.500 
#    0.000    0.625    0.000    7.875    0.000    0.000 
#    0.000    0.000    0.000    0.000    0.000    0.000 
#
# Total GULP energy -178398.234051 kJ/mol
# GULP energy per Si atom -5574.944814 kJ/mol
# Density = 1.931713 g / cm^3
# Si number density = 19.361197 Si / 1000 Ang^3
#
#
#
# Elastic Constant Matrix: (Units=GPa)
#
#
# Indices 1 2 3 4 5 6 
#
# 1 130.9423 37.1194 41.5270 0.0000 -28.0119 0.0000
# 2 37.1194 41.3006 17.9637 0.0000 -15.0299 0.0000
# 3 41.5270 17.9637 131.0811 0.0000 -32.9791 0.0000
# 4 0.0000 0.0000 0.0000 13.1261 0.0000 -3.8707
# 5 -28.0119 -15.0299 -32.9791 0.0000 41.0632 0.0000
# 6 0.0000 0.0000 0.0000 -3.8707 0.0000 11.6249
#
#
#
# Elastic Compliance Matrix: (Units=1/GPa)
#
#
# Indices 1 2 3 4 5 6 
#
# 1 0.011159 -0.008116 -0.001573 0.000000 0.003379 0.000000
# 2 -0.008116 0.034097 -0.000444 0.000000 0.006587 0.000000
# 3 -0.001573 -0.000444 0.009872 0.000000 0.006693 0.000000
# 4 0.000000 0.000000 0.000000 0.084479 0.000000 0.028129
# 5 0.003379 0.006587 0.006693 0.000000 0.034444 0.000000
# 6 0.000000 0.000000 0.000000 0.028129 0.000000 0.095388
#
#
# Mechanical properties :
#
#
# Convention : Reuss Voigt Hill
#
# Bulk Modulus (GPa) = 28.68456 55.17159 41.92807
# Shear Modulus (GPa) = 16.59327 26.94376 21.76851
#
# Velocity S-wave (km/s) = 2.93070 3.73451 3.35675
# Velocity P-wave (km/s) = 5.12832 6.86682 6.06023
#
# Compressibility (1/GPa) = 0.03486196
#
# Stress axis : x y z
#
# Youngs Moduli (GPa) = 89.61175 29.32780 101.29694
#
# Poissons Ratio (x) = 0.23802 0.15935
# Poissons Ratio (y) = 0.72727 0.04502
# Poissons Ratio (z) = 0.14096 0.01303
#
# Static dielectric constant tensor:
#      x y z
#    x 1.782450 0.000000 0.043560 
#    y 0.000000 1.672850 0.000000 
#    z 0.043560 0.000000 1.721970 
# 
# From -- ./inp_files/26048.got.cif
#   From: 2010.05.17/outbox.cif.g08.bks.cpg/sg10_14_cif.got.tgz:26048.got - 2010.06.03 11:33:40.
