data_PCOD9147739
_publ_section_title
;
Structure prediction by ZEFSAII (Michael W. Deem and Ramdas Pophale) SiO2 
 PCOD9147739
Probable space group: P 2/M
;
_chemical_formula_sum "Si O2"
_cell_formula_units_Z 28
_cell_length_a 9.651399
_cell_length_b 7.567405
_cell_length_c 27.863597
_cell_angle_alpha 90.000000
_cell_angle_beta 142.135421
_cell_angle_gamma 90.000000
_cell_volume 1249.106228
_symmetry_space_group_name_H-M "P 2/M"
_symmetry_group_IT_number 10
_symmetry_cell_setting 'monoclinic'
loop_
_space_group_symop_operation_xyz
x,y,z
-x,y,-z
-x,-y,-z
x,-y,z
loop_
_atom_site_type_symbol
_atom_site_label
_atom_site_fract_x
_atom_site_fract_y
_atom_site_fract_z
Si Si1 0.268482 0.210758 0.075605
Si Si2 0.292352 0.214822 0.976848
Si Si3 0.029672 0.284217 0.365837
Si Si4 0.196282 0.284678 0.517294
Si Si5 0.477944 0.701080 0.760082
Si Si6 0.127175 0.797858 0.199024
Si Si7 0.298178 0.705319 0.346395
O O1 0.386318 0.297018 0.153001
O O2 0.309135 0.000000 0.091883
O O3 0.345417 0.276992 0.044825
O O4 0.000000 0.236000 0.000000
O O5 0.061704 0.278144 0.888764
O O6 0.271074 0.000000 0.975461
O O7 0.500000 0.256626 0.000000
O O8 0.022859 0.500000 0.360822
O O9 0.141171 0.239000 0.447142
O O10 0.167390 0.219693 0.356937
O O11 0.769817 0.224087 0.297588
O O12 0.193620 0.500000 0.520351
O O13 0.451965 0.221322 0.596600
O O14 0.000000 0.222357 0.500000
O O15 0.449224 0.500000 0.734610
O O16 0.635617 0.791940 0.763987
O O17 0.152900 0.714144 0.258183
O O18 0.061761 0.000000 0.190121
O O19 0.336717 0.500000 0.368880
#
# Coordination Sequence:
#
# PCOD9147739 Si02
#       7
#     4   4   4   4   4   4   4
#     4  10  19  36  58  79 106 142 186 229 272 324
#     4   9  19  35  55  77 103 141 186 227 267 324
#     4   9  19  34  54  84 117 146 180 224 273 327
#     4   9  16  30  56  85 111 145 185 220 264 325
#     4  11  22  36  56  82 113 145 184 230 276 324
#     4  11  22  38  57  80 110 146 187 227 275 331
#     4  10  20  35  57  84 114 144 180 228 276 321
#
# _framework density 22.416025999999999
#
# number of rings (size 3 to 8) (size 9 to 14) (size 15 to 20)
#    0.000    2.143    1.429    2.143    2.000    4.286 
#    0.000    0.714    0.000    8.571    0.000    0.000 
#    0.000    0.000    0.000    0.000    0.000    0.000 
#
# Total GULP energy -156394.878711 kJ/mol
# GULP energy per Si atom -5585.531383 kJ/mol
# Density = 2.236501 g / cm^3
# Si number density = 22.416026 Si / 1000 Ang^3
#
#
#
# Elastic Constant Matrix: (Units=GPa)
#
#
# Indices 1 2 3 4 5 6 
#
# 1 134.4305 -0.7500 25.4317 0.0000 -18.8889 0.0000
# 2 -0.7500 42.0531 -4.8378 0.0000 7.3265 0.0000
# 3 25.4317 -4.8378 75.8573 0.0000 -4.6837 0.0000
# 4 0.0000 0.0000 0.0000 19.7406 0.0000 -15.9781
# 5 -18.8889 7.3265 -4.6837 0.0000 34.4535 0.0000
# 6 0.0000 0.0000 0.0000 -15.9781 0.0000 8.8137
#
#
#
# Elastic Compliance Matrix: (Units=1/GPa)
#
#
# Indices 1 2 3 4 5 6 
#
# 1 0.008574 -0.000943 -0.002654 0.000000 0.004540 0.000000
# 2 -0.000943 0.024918 0.001559 0.000000 -0.005604 0.000000
# 3 -0.002654 0.001559 0.014181 0.000000 0.000141 0.000000
# 4 0.000000 0.000000 0.000000 -0.108394 0.000000 -0.196505
# 5 0.004540 -0.005604 0.000141 0.000000 0.032725 0.000000
# 6 0.000000 0.000000 0.000000 -0.196505 0.000000 -0.242778
#
#
# Mechanical properties :
#
#
# Convention : Reuss Voigt Hill
#
# Bulk Modulus (GPa) = 22.93775 32.44762 27.69269
# Shear Modulus (GPa) = -19.82815 28.10135 4.13660
#
# Velocity S-wave (km/s) = -2.97737 3.54450 1.35992
# Velocity P-wave (km/s) = 1.25087 5.59088 3.85313
#
# Compressibility (1/GPa) = 0.04359625
#
# Stress axis : x y z
#
# Youngs Moduli (GPa) = 116.63714 40.13105 70.51862
#
# Poissons Ratio (x) = 0.03786 0.18717
# Poissons Ratio (y) = 0.11004 -0.10997
# Poissons Ratio (z) = 0.30958 -0.06258
#
# Static dielectric constant tensor:
#      x y z
#    x 1.836040 0.000000 0.002700 
#    y 0.000000 1.862450 0.000000 
#    z 0.002700 0.000000 1.801810 
# 
# From -- ./inp_files/37113.got.cif
#   From: 2010.05.17/outbox.cif.g08.bks.cpg/sg10_19_cif.got.tgz:37113.got - 2010.06.03 11:33:40.
