data_PCOD9147896
_publ_section_title
;
Structure prediction by ZEFSAII (Michael W. Deem and Ramdas Pophale) SiO2 
 PCOD9147896
Probable space group: P 2/M
;
_chemical_formula_sum "Si O2"
_cell_formula_units_Z 25
_cell_length_a 9.694299
_cell_length_b 9.575955
_cell_length_c 19.279652
_cell_angle_alpha 90.000000
_cell_angle_beta 46.141939
_cell_angle_gamma 90.000000
_cell_volume 1290.530225
_symmetry_space_group_name_H-M "P 2/M"
_symmetry_group_IT_number 10
_symmetry_cell_setting 'monoclinic'
loop_
_space_group_symop_operation_xyz
x,y,z
-x,y,-z
-x,-y,-z
x,-y,z
loop_
_atom_site_type_symbol
_atom_site_label
_atom_site_fract_x
_atom_site_fract_y
_atom_site_fract_z
Si Si1 0.709415 0.338001 0.743371
Si Si2 0.945367 0.668386 0.131931
Si Si3 0.695561 0.250548 0.592591
Si Si4 0.139680 0.339575 0.606321
Si Si5 0.698144 0.331085 0.080304
Si Si6 0.284805 0.165847 0.676175
Si Si7 0.000000 0.000000 0.500000
O O1 0.718098 0.500000 0.760891
O O2 0.679357 0.329315 0.671170
O O3 0.518203 0.274984 0.844249
O O4 0.921153 0.283198 0.685926
O O5 0.938216 0.500000 0.146628
O O6 0.804314 0.699989 0.116068
O O7 0.873754 0.755668 0.221891
O O8 0.157518 0.707873 0.031536
O O9 0.791257 0.336860 0.496975
O O10 0.488167 0.201236 0.639460
O O11 0.833732 0.120676 0.556616
O O12 0.150157 0.500000 0.627941
O O13 0.268317 0.237014 0.606831
O O14 0.687519 0.500000 0.081944
O O15 0.257093 0.000000 0.682597
#
# Coordination Sequence:
#
# PCOD9147896 Si02
#       7
#     4   4   4   4   4   4   1
#     4  10  19  36  63  92 115 145 193 249 294 338
#     4   9  17  34  60  89 118 148 188 241 291 347
#     4  12  23  39  63  83 118 153 200 237 293 347
#     4  11  25  40  58  87 120 157 199 244 289 340
#     4   8  15  30  60  92 115 143 186 239 297 342
#     4  12  26  39  58  84 119 161 196 234 293 351
#     4  12  24  40  60  88 114 158 198 246 284 354
#
# _framework density 19.371880999999998
#
# number of rings (size 3 to 8) (size 9 to 14) (size 15 to 20)
#    0.000    1.600    4.000    2.400    1.120    4.480 
#    0.000    2.400    1.760    4.800    0.000    0.000 
#    0.000    0.000    0.000    0.000    0.000    0.000 
#
# Total GULP energy -139225.713392 kJ/mol
# GULP energy per Si atom -5569.028536 kJ/mol
# Density = 1.932779 g / cm^3
# Si number density = 19.371881 Si / 1000 Ang^3
#
#
#
# Elastic Constant Matrix: (Units=GPa)
#
#
# Indices 1 2 3 4 5 6 
#
# 1 49.8781 10.3306 20.1123 0.0000 -20.6207 0.0000
# 2 10.3306 58.3448 10.5639 0.0000 -7.1574 0.0000
# 3 20.1123 10.5639 97.3658 0.0000 -27.2768 0.0000
# 4 0.0000 0.0000 0.0000 -28.9016 0.0000 -15.7816
# 5 -20.6207 -7.1574 -27.2768 0.0000 21.0275 0.0000
# 6 0.0000 0.0000 0.0000 -15.7816 0.0000 19.0416
#
#
#
# Elastic Compliance Matrix: (Units=1/GPa)
#
#
# Indices 1 2 3 4 5 6 
#
# 1 0.034803 -0.002148 0.003771 0.000000 0.038291 0.000000
# 2 -0.002148 0.018027 -0.000602 0.000000 0.003249 0.000000
# 3 0.003771 -0.000602 0.016550 0.000000 0.024961 0.000000
# 4 0.000000 0.000000 0.000000 -0.023820 0.000000 -0.019742
# 5 0.038291 0.003249 0.024961 0.000000 0.118592 0.000000
# 6 0.000000 0.000000 0.000000 -0.019742 0.000000 0.036155
#
#
# Mechanical properties :
#
#
# Convention : Reuss Voigt Hill
#
# Bulk Modulus (GPa) = 14.00120 31.95582 22.97851
# Shear Modulus (GPa) = 22.51519 13.20563 17.86041
#
# Velocity S-wave (km/s) = 3.41289 2.61375 3.03970
# Velocity P-wave (km/s) = 4.77218 5.06367 4.92008
#
# Compressibility (1/GPa) = 0.07142245
#
# Stress axis : x y z
#
# Youngs Moduli (GPa) = 28.73288 55.47124 60.42374
#
# Poissons Ratio (x) = 0.11914 -0.22785
# Poissons Ratio (y) = 0.06171 0.03638
# Poissons Ratio (z) = -0.10835 0.03340
#
# Static dielectric constant tensor:
#      x y z
#    x 1.692630 0.000000 -0.015050 
#    y 0.000000 1.650740 0.000000 
#    z -0.015050 0.000000 1.718950 
# 
# From -- ./inp_files/81952.got.cif
#   From: 2010.05.17/outbox.cif.g08.bks.cpg/sg10_41_cif.got.tgz:81952.got - 2010.06.03 11:33:40.
