data_PCOD9147328
_publ_section_title
;
Structure prediction by ZEFSAII (Michael W. Deem and Ramdas Pophale) SiO2 
 PCOD9147328
Probable space group: P 2/M
;
_chemical_formula_sum "Si O2"
_cell_formula_units_Z 18
_cell_length_a 5.399482
_cell_length_b 18.881152
_cell_length_c 8.879741
_cell_angle_alpha 90.000000
_cell_angle_beta 84.187661
_cell_angle_gamma 90.000000
_cell_volume 900.621653
_symmetry_space_group_name_H-M "P 2/M"
_symmetry_group_IT_number 10
_symmetry_cell_setting 'monoclinic'
loop_
_space_group_symop_operation_xyz
x,y,z
-x,y,-z
-x,-y,-z
x,-y,z
loop_
_atom_site_type_symbol
_atom_site_label
_atom_site_fract_x
_atom_site_fract_y
_atom_site_fract_z
Si Si1 0.769411 0.843334 0.895939
Si Si2 0.836041 0.576055 0.222018
Si Si3 0.209933 0.701116 0.270029
Si Si4 0.233947 0.000000 0.099897
Si Si5 0.500000 0.370180 0.500000
Si Si6 0.500000 0.625167 0.000000
O O1 0.818573 0.782818 0.769019
O O2 0.775890 0.922487 0.824829
O O3 0.500000 0.835329 0.000000
O O4 0.000000 0.837417 0.000000
O O5 0.967048 0.500000 0.235649
O O6 0.624666 0.582261 0.363725
O O7 0.991156 0.647269 0.238663
O O8 0.714993 0.579648 0.064007
O O9 0.300395 0.680252 0.429919
O O10 0.419383 0.675259 0.140159
O O11 0.500000 0.000000 0.000000
O O12 0.000000 0.000000 0.000000
#
# Coordination Sequence:
#
# PCOD9147328 Si02
#       6
#     4   4   4   2   2   2
#     4  10  19  34  60  90 123 153 189 239 292 350
#     4  11  23  39  57  79 107 147 194 246 297 349
#     4  11  22  37  57  81 113 151 193 236 295 347
#     4   8  16  30  52  89 123 151 183 229 290 347
#     4  10  25  40  54  75 108 150 202 243 292 344
#     4  10  21  36  56  83 110 138 184 241 300 350
#
# _framework density 19.986197000000001
#
# number of rings (size 3 to 8) (size 9 to 14) (size 15 to 20)
#    0.000    1.778    1.111    3.333    3.111    7.111 
#    0.000    0.000    0.000    0.667    0.000    3.111 
#    0.000    0.000    0.000    0.000    0.000    0.000 
#
# Total GULP energy -100281.829391 kJ/mol
# GULP energy per Si atom -5571.212744 kJ/mol
# Density = 1.994071 g / cm^3
# Si number density = 19.986197 Si / 1000 Ang^3
#
#
#
# Elastic Constant Matrix: (Units=GPa)
#
#
# Indices 1 2 3 4 5 6 
#
# 1 90.9298 29.6681 11.0166 0.0000 20.4441 0.0000
# 2 29.6681 209.2439 32.3800 0.0000 14.3938 0.0000
# 3 11.0166 32.3800 65.8309 0.0000 23.4459 0.0000
# 4 0.0000 0.0000 0.0000 11.0127 0.0000 1.3316
# 5 20.4441 14.3938 23.4459 0.0000 29.5401 0.0000
# 6 0.0000 0.0000 0.0000 1.3316 0.0000 22.4359
#
#
#
# Elastic Compliance Matrix: (Units=1/GPa)
#
#
# Indices 1 2 3 4 5 6 
#
# 1 0.013570 -0.001549 0.002184 0.000000 -0.010371 0.000000
# 2 -0.001549 0.005360 -0.002549 0.000000 0.000484 0.000000
# 3 0.002184 -0.002549 0.022549 0.000000 -0.018167 0.000000
# 4 0.000000 0.000000 0.000000 0.091461 0.000000 -0.005428
# 5 -0.010371 0.000484 -0.018167 0.000000 0.055213 0.000000
# 6 0.000000 0.000000 0.000000 -0.005428 0.000000 0.044894
#
#
# Mechanical properties :
#
#
# Convention : Reuss Voigt Hill
#
# Bulk Modulus (GPa) = 26.55960 56.90380 41.73170
# Shear Modulus (GPa) = 20.04620 32.12705 26.08663
#
# Velocity S-wave (km/s) = 3.17046 4.01367 3.61672
# Velocity P-wave (km/s) = 5.16916 7.07197 6.19407
#
# Compressibility (1/GPa) = 0.03765118
#
# Stress axis : x y z
#
# Youngs Moduli (GPa) = 73.69313 186.56901 44.34798
#
# Poissons Ratio (x) = 0.28893 -0.09687
# Poissons Ratio (y) = 0.11413 0.11306
# Poissons Ratio (z) = -0.16097 0.47565
#
# Static dielectric constant tensor:
#      x y z
#    x 1.823740 0.000000 -0.028320 
#    y 0.000000 1.757630 0.000000 
#    z -0.028320 0.000000 1.690380 
# 
# From -- ./inp_files/4006.got.cif
#   From: 2010.05.17/outbox.cif.g08.bks.cpg/sg10_3_cif.got.tgz:4006.got - 2010.06.03 11:33:40.
