data_PCOD9147730
_publ_section_title
;
Structure prediction by ZEFSAII (Michael W. Deem and Ramdas Pophale) SiO2 
 PCOD9147730
Probable space group: P 2/M
;
_chemical_formula_sum "Si O2"
_cell_formula_units_Z 32
_cell_length_a 25.190307
_cell_length_b 7.587794
_cell_length_c 15.522846
_cell_angle_alpha 90.000000
_cell_angle_beta 28.431864
_cell_angle_gamma 90.000000
_cell_volume 1412.637358
_symmetry_space_group_name_H-M "P 2/M"
_symmetry_group_IT_number 10
_symmetry_cell_setting 'monoclinic'
loop_
_space_group_symop_operation_xyz
x,y,z
-x,y,-z
-x,-y,-z
x,-y,z
loop_
_atom_site_type_symbol
_atom_site_label
_atom_site_fract_x
_atom_site_fract_y
_atom_site_fract_z
Si Si1 0.358720 0.287739 0.455840
Si Si2 0.527273 0.210283 0.366888
Si Si3 0.913344 0.203420 0.913117
Si Si4 0.766008 0.784342 0.963279
Si Si5 0.844679 0.298608 0.485299
Si Si6 0.879907 0.212437 0.630740
Si Si7 0.596195 0.715576 0.797145
Si Si8 0.120100 0.297303 0.849247
O O1 0.352153 0.500000 0.462201
O O2 0.430547 0.240690 0.436337
O O3 0.416747 0.230520 0.284087
O O4 0.231838 0.220398 0.647825
O O5 0.500000 0.282208 0.500000
O O6 0.541480 0.000000 0.355313
O O7 0.645050 0.277617 0.164365
O O8 0.856493 0.270451 0.906115
O O9 0.046816 0.213541 0.712704
O O10 0.880102 0.000000 0.969833
O O11 0.871240 0.295424 0.059582
O O12 0.794256 0.728464 0.826302
O O13 0.770284 0.000000 0.955105
O O14 0.844882 0.500000 0.454053
O O15 0.862726 0.292216 0.561998
O O16 0.721388 0.226081 0.643435
O O17 0.000000 0.252318 0.500000
O O18 0.874188 0.000000 0.627761
O O19 0.595044 0.500000 0.802620
O O20 0.500000 0.776128 0.000000
O O21 0.114214 0.500000 0.827007
O O22 0.000000 0.213446 0.000000
#
# Coordination Sequence:
#
# PCOD9147730 Si02
#       8
#     4   4   4   4   4   4   4   4
#     4  10  21  38  61  86 116 152 193 242 292 341
#     4  10  21  38  59  83 115 154 194 237 287 345
#     4  11  21  37  60  85 113 150 190 232 286 349
#     4   9  19  35  55  78 109 151 190 229 287 347
#     4  11  22  36  58  87 117 149 193 244 293 343
#     4  10  19  36  57  79 114 156 192 233 290 347
#     4   9  20  39  60  82 114 157 198 236 286 346
#     4  10  21  38  59  84 115 150 187 233 292 344
#
# _framework density 22.652666
#
# number of rings (size 3 to 8) (size 9 to 14) (size 15 to 20)
#    0.000    2.000    1.250    2.250    1.750    4.250 
#    0.000    3.750    0.000    1.875    0.000    0.000 
#    0.000    0.000    0.000    0.000    0.000    0.000 
#
# Total GULP energy -178860.125208 kJ/mol
# GULP energy per Si atom -5589.378913 kJ/mol
# Density = 2.260111 g / cm^3
# Si number density = 22.652666 Si / 1000 Ang^3
#
#
#
# Elastic Constant Matrix: (Units=GPa)
#
#
# Indices 1 2 3 4 5 6 
#
# 1 90.5457 -7.0651 43.3278 0.0000 11.6095 0.0000
# 2 -7.0651 47.8096 1.2421 0.0000 0.7837 0.0000
# 3 43.3278 1.2421 169.9942 0.0000 13.9086 0.0000
# 4 0.0000 0.0000 0.0000 1.1765 0.0000 6.3032
# 5 11.6095 0.7837 13.9086 0.0000 44.4981 0.0000
# 6 0.0000 0.0000 0.0000 6.3032 0.0000 16.3760
#
#
#
# Elastic Compliance Matrix: (Units=1/GPa)
#
#
# Indices 1 2 3 4 5 6 
#
# 1 0.013017 0.002045 -0.003132 0.000000 -0.002453 0.000000
# 2 0.002045 0.021246 -0.000618 0.000000 -0.000715 0.000000
# 3 -0.003132 -0.000618 0.006791 0.000000 -0.001295 0.000000
# 4 0.000000 0.000000 0.000000 -0.800242 0.000000 0.308017
# 5 -0.002453 -0.000715 -0.001295 0.000000 0.023530 0.000000
# 6 0.000000 0.000000 0.000000 0.308017 0.000000 -0.057492
#
#
# Mechanical properties :
#
#
# Convention : Reuss Voigt Hill
#
# Bulk Modulus (GPa) = 26.56408 42.59547 34.57977
# Shear Modulus (GPa) = -6.43342 30.46643 12.01651
#
# Velocity S-wave (km/s) = -1.68707 3.67132 2.30569
# Velocity P-wave (km/s) = 2.82086 6.06762 4.73145
#
# Compressibility (1/GPa) = 0.03764482
#
# Stress axis : x y z
#
# Youngs Moduli (GPa) = 76.82280 47.06705 147.24784
#
# Poissons Ratio (x) = -0.09626 0.46118
# Poissons Ratio (y) = -0.15712 0.09101
# Poissons Ratio (z) = 0.24061 0.02909
#
# Static dielectric constant tensor:
#      x y z
#    x 1.810150 0.000000 0.002470 
#    y 0.000000 1.854980 0.000000 
#    z 0.002470 0.000000 1.832260 
# 
# From -- ./inp_files/71513.got.cif
#   From: 2010.05.17/outbox.cif.g08.bks.cpg/sg10_36_cif.got.tgz:71513.got - 2010.06.03 11:33:40.
