data_PCOD9147330
_publ_section_title
;
Structure prediction by ZEFSAII (Michael W. Deem and Ramdas Pophale) SiO2 
 PCOD9147330
Probable space group: P 2/M
;
_chemical_formula_sum "Si O2"
_cell_formula_units_Z 28
_cell_length_a 14.498397
_cell_length_b 10.508449
_cell_length_c 10.141267
_cell_angle_alpha 90.000000
_cell_angle_beta 67.625439
_cell_angle_gamma 90.000000
_cell_volume 1428.758383
_symmetry_space_group_name_H-M "P 2/M"
_symmetry_group_IT_number 10
_symmetry_cell_setting 'monoclinic'
loop_
_space_group_symop_operation_xyz
x,y,z
-x,y,-z
-x,-y,-z
x,-y,z
loop_
_atom_site_type_symbol
_atom_site_label
_atom_site_fract_x
_atom_site_fract_y
_atom_site_fract_z
Si Si1 0.510306 0.145321 0.652785
Si Si2 0.023343 0.644221 0.128771
Si Si3 0.828555 0.737785 0.345037
Si Si4 0.675573 0.653743 0.651234
Si Si5 0.932918 0.000000 0.244097
Si Si6 0.147089 0.000000 0.012816
Si Si7 0.226197 0.352254 0.133194
Si Si8 0.708080 0.779394 0.140327
O O1 0.500000 0.153849 0.500000
O O2 0.582834 0.257118 0.661852
O O3 0.401082 0.167450 0.773126
O O4 0.544850 0.000000 0.663923
O O5 0.054807 0.500000 0.079250
O O6 0.114337 0.697392 0.163850
O O7 0.921157 0.647279 0.262235
O O8 0.000000 0.710236 0.000000
O O9 0.762477 0.686925 0.499594
O O10 0.759663 0.747522 0.251777
O O11 0.882535 0.874842 0.334499
O O12 0.654762 0.500000 0.660087
O O13 0.714713 0.698275 0.773351
O O14 0.053643 0.000000 0.164511
O O15 0.897660 0.000000 0.110901
O O16 0.222351 0.881640 0.971642
O O17 0.213406 0.500000 0.173424
O O18 0.287718 0.336217 0.964555
#
# Coordination Sequence:
#
# PCOD9147330 Si02
#       8
#     4   4   4   4   2   2   4   4
#     4  11  24  44  71  98 127 168 219 275 328 382
#     4  10  19  34  60  93 124 164 216 259 309 383
#     4  11  21  36  63  94 128 169 213 264 320 382
#     4  11  26  45  63  93 135 174 216 270 329 383
#     4   9  20  30  58  91 130 167 203 255 323 385
#     4   9  18  34  55  95 129 157 208 267 316 379
#     4  10  23  41  62  91 134 173 204 264 334 387
#     4  11  20  38  64  94 122 166 215 269 324 382
#
# _framework density 19.597435999999998
#
# number of rings (size 3 to 8) (size 9 to 14) (size 15 to 20)
#    0.000    1.571    3.571    1.286    3.000    2.571 
#    1.286    4.286    0.000    1.714    0.000    0.000 
#    0.000    0.000    0.000    0.000    0.000    0.000 
#
# Total GULP energy -156091.171497 kJ/mol
# GULP energy per Si atom -5574.684696 kJ/mol
# Density = 1.955283 g / cm^3
# Si number density = 19.597436 Si / 1000 Ang^3
#
#
#
# Elastic Constant Matrix: (Units=GPa)
#
#
# Indices 1 2 3 4 5 6 
#
# 1 118.2462 55.2307 49.8254 0.0000 -11.7196 0.0000
# 2 55.2307 82.7057 17.2779 0.0000 -1.5862 0.0000
# 3 49.8254 17.2779 62.3680 0.0000 -10.1984 0.0000
# 4 0.0000 0.0000 0.0000 14.8186 0.0000 -5.3626
# 5 -11.7196 -1.5862 -10.1984 0.0000 33.3818 0.0000
# 6 0.0000 0.0000 0.0000 -5.3626 0.0000 20.8440
#
#
#
# Elastic Compliance Matrix: (Units=1/GPa)
#
#
# Indices 1 2 3 4 5 6 
#
# 1 0.017905 -0.009558 -0.011266 0.000000 0.002390 0.000000
# 2 -0.009558 0.017944 0.002374 0.000000 -0.001778 0.000000
# 3 -0.011266 0.002374 0.024997 0.000000 0.003794 0.000000
# 4 0.000000 0.000000 0.000000 0.074410 0.000000 0.019144
# 5 0.002390 -0.001778 0.003794 0.000000 0.031870 0.000000
# 6 0.000000 0.000000 0.000000 0.019144 0.000000 0.052901
#
#
# Mechanical properties :
#
#
# Convention : Reuss Voigt Hill
#
# Bulk Modulus (GPa) = 41.75946 56.44309 49.10128
# Shear Modulus (GPa) = 18.87451 23.20794 21.04123
#
# Velocity S-wave (km/s) = 3.10677 3.44500 3.28025
# Velocity P-wave (km/s) = 5.85015 6.68490 6.28141
#
# Compressibility (1/GPa) = 0.02394667
#
# Stress axis : x y z
#
# Youngs Moduli (GPa) = 55.85038 55.73023 40.00535
#
# Poissons Ratio (x) = 0.53265 0.45068
# Poissons Ratio (y) = 0.53380 -0.09497
# Poissons Ratio (z) = 0.62919 -0.13230
#
# Static dielectric constant tensor:
#      x y z
#    x 1.667990 0.000000 -0.018510 
#    y 0.000000 1.784350 0.000000 
#    z -0.018510 0.000000 1.622720 
# 
# From -- ./inp_files/28271.got.cif
#   From: 2010.05.17/outbox.cif.g08.bks.cpg/sg10_15_cif.got.tgz:28271.got - 2010.06.03 11:33:40.
