data_PCOD9147907
_publ_section_title
;
Structure prediction by ZEFSAII (Michael W. Deem and Ramdas Pophale) SiO2 
 PCOD9147907
Probable space group: P 2/M
;
_chemical_formula_sum "Si O2"
_cell_formula_units_Z 32
_cell_length_a 9.423844
_cell_length_b 14.444244
_cell_length_c 24.740361
_cell_angle_alpha 90.000000
_cell_angle_beta 150.901099
_cell_angle_gamma 90.000000
_cell_volume 1637.758398
_symmetry_space_group_name_H-M "P 2/M"
_symmetry_group_IT_number 10
_symmetry_cell_setting 'monoclinic'
loop_
_space_group_symop_operation_xyz
x,y,z
-x,y,-z
-x,-y,-z
x,-y,z
loop_
_atom_site_type_symbol
_atom_site_label
_atom_site_fract_x
_atom_site_fract_y
_atom_site_fract_z
Si Si1 0.390020 0.109564 0.902743
Si Si2 0.296474 0.105463 0.630124
Si Si3 0.222455 0.390226 0.944485
Si Si4 0.428299 0.390108 0.310630
Si Si5 0.612713 0.712379 0.481209
Si Si6 0.300335 0.105899 0.338707
Si Si7 0.294709 0.255247 0.067804
Si Si8 0.302595 0.720320 0.699942
O O1 0.557159 0.170918 0.914731
O O2 0.043061 0.125456 0.780756
O O3 0.442843 0.000000 0.912420
O O4 0.500000 0.132544 0.000000
O O5 0.554139 0.108173 0.672272
O O6 0.360807 0.175073 0.699293
O O7 0.000000 0.135235 0.500000
O O8 0.249754 0.000000 0.632632
O O9 0.240595 0.500000 0.961619
O O10 0.916097 0.372714 0.812820
O O11 0.500000 0.364880 0.000000
O O12 0.224588 0.332398 0.999867
O O13 0.479286 0.500000 0.328381
O O14 0.521087 0.343804 0.397536
O O15 0.599816 0.344205 0.317499
O O16 0.500000 0.671239 0.500000
O O17 0.468395 0.814511 0.427143
O O18 0.960838 0.714904 0.597627
O O19 0.340318 0.000000 0.372524
O O20 0.511833 0.296609 0.184886
O O21 0.000000 0.226560 0.000000
#
# Coordination Sequence:
#
# PCOD9147907 Si02
#       8
#     4   4   4   4   4   4   4   4
#     4  10  24  43  64  93 132 180 225 265 322 394
#     4  10  19  36  64  94 125 167 218 265 310 377
#     4  10  24  46  73  99 126 170 226 277 325 394
#     4  11  25  47  70  93 130 175 217 265 332 402
#     4  12  26  41  66 100 134 168 216 273 322 390
#     4  10  21  40  66  94 128 173 218 266 320 375
#     4  12  26  41  68  99 133 175 216 275 334 384
#     4  12  24  42  64  99 133 171 215 265 329 392
#
# _framework density 19.538900999999999
#
# number of rings (size 3 to 8) (size 9 to 14) (size 15 to 20)
#    0.000    1.125    3.750    1.500    7.000    3.000 
#    0.000    0.000    0.000    0.000    0.000    0.000 
#    0.000    0.000    0.000    0.000    0.000    0.000 
#
# Total GULP energy -178944.098557 kJ/mol
# GULP energy per Si atom -5592.003080 kJ/mol
# Density = 1.949443 g / cm^3
# Si number density = 19.538901 Si / 1000 Ang^3
#
#
#
# Elastic Constant Matrix: (Units=GPa)
#
#
# Indices 1 2 3 4 5 6 
#
# 1 144.5457 46.0836 71.2427 0.0000 12.2499 0.0000
# 2 46.0836 60.2504 51.9583 0.0000 2.7002 0.0000
# 3 71.2427 51.9583 126.6813 0.0000 11.4043 0.0000
# 4 0.0000 0.0000 0.0000 23.9769 0.0000 9.8402
# 5 12.2499 2.7002 11.4043 0.0000 39.8240 0.0000
# 6 0.0000 0.0000 0.0000 9.8402 0.0000 -8.4672
#
#
#
# Elastic Compliance Matrix: (Units=1/GPa)
#
#
# Indices 1 2 3 4 5 6 
#
# 1 0.010415 -0.004602 -0.003807 0.000000 -0.001801 0.000000
# 2 -0.004602 0.027781 -0.008996 0.000000 0.002108 0.000000
# 3 -0.003807 -0.008996 0.013923 0.000000 -0.002206 0.000000
# 4 0.000000 0.000000 0.000000 0.028238 0.000000 0.032817
# 5 -0.001801 0.002108 -0.002206 0.000000 0.026153 0.000000
# 6 0.000000 0.000000 0.000000 0.032817 0.000000 -0.079963
#
#
# Mechanical properties :
#
#
# Convention : Reuss Voigt Hill
#
# Bulk Modulus (GPa) = 57.77609 74.44963 66.11286
# Shear Modulus (GPa) = 74.48641 21.87960 48.18300
#
# Velocity S-wave (km/s) = 6.18101 3.34997 4.97127
# Velocity P-wave (km/s) = 8.97629 7.29034 8.17688
#
# Compressibility (1/GPa) = 0.01730820
#
# Stress axis : x y z
#
# Youngs Moduli (GPa) = 96.01990 35.99640 71.82172
#
# Poissons Ratio (x) = 0.16564 0.27345
# Poissons Ratio (y) = 0.44185 0.64612
# Poissons Ratio (z) = 0.36558 0.32383
#
# Static dielectric constant tensor:
#      x y z
#    x 1.662600 0.000000 0.001360 
#    y 0.000000 1.687160 0.000000 
#    z 0.001360 0.000000 1.697000 
# 
# From -- ./inp_files/88269.got.cif
#   From: 2010.05.17/outbox.cif.g08.bks.cpg/sg10_45_cif.got.tgz:88269.got - 2010.06.03 11:33:40.
