data_PCOD9147074
_publ_section_title
;
Structure prediction by ZEFSAII (Michael W. Deem and Ramdas Pophale) SiO2 
 PCOD9147074
Probable space group: P 2/M
;
_chemical_formula_sum "Si O2"
_cell_formula_units_Z 28
_cell_length_a 29.718706
_cell_length_b 11.290361
_cell_length_c 23.652363
_cell_angle_alpha 90.000000
_cell_angle_beta 10.623602
_cell_angle_gamma 90.000000
_cell_volume 1463.086817
_symmetry_space_group_name_H-M "P 2/M"
_symmetry_group_IT_number 10
_symmetry_cell_setting 'monoclinic'
loop_
_space_group_symop_operation_xyz
x,y,z
-x,y,-z
-x,-y,-z
x,-y,z
loop_
_atom_site_type_symbol
_atom_site_label
_atom_site_fract_x
_atom_site_fract_y
_atom_site_fract_z
Si Si1 0.094564 0.000000 0.479775
Si Si2 0.390975 0.360316 0.799985
Si Si3 0.633259 0.249641 0.681725
Si Si4 0.605084 0.000000 0.006910
Si Si5 0.116735 0.639521 0.300185
Si Si6 0.076921 0.247425 0.568086
Si Si7 0.668829 0.364220 0.346634
Si Si8 0.135251 0.638518 0.706755
O O1 0.105141 0.115908 0.506903
O O2 0.297130 0.000000 0.179089
O O3 0.839773 0.000000 0.759045
O O4 0.308755 0.500000 0.895982
O O5 0.512902 0.316171 0.591175
O O6 0.609493 0.360122 0.575442
O O7 0.175129 0.275397 0.087359
O O8 0.558713 0.113407 0.777337
O O9 0.838121 0.287051 0.383464
O O10 0.714804 0.281099 0.644537
O O11 0.390467 0.314306 0.960134
O O12 0.130419 0.500000 0.288656
O O13 0.950066 0.670968 0.453290
O O14 0.000000 0.696409 0.500000
O O15 0.500000 0.365571 0.500000
O O16 0.722642 0.500000 0.298224
O O17 0.926750 0.314857 0.006853
O O18 0.076963 0.500000 0.764871
#
# Coordination Sequence:
#
# PCOD9147074 Si02
#       8
#     2   4   4   2   4   4   4   4
#     4  11  23  43  67  87 113 152 202 259 309 356
#     4  10  19  34  56  84 121 161 199 242 295 355
#     4  12  24  39  62  89 118 156 201 250 301 354
#     4  11  23  43  67  87 113 152 202 259 309 356
#     4  11  24  41  59  84 120 156 192 241 302 368
#     4  12  24  39  62  89 118 156 201 250 301 354
#     4   9  17  29  49  82 119 156 199 242 289 348
#     4  10  19  34  56  84 121 161 199 242 295 355
#
# _framework density 19.137619999999998
#
# number of rings (size 3 to 8) (size 9 to 14) (size 15 to 20)
#    0.000    1.286    2.857    3.429    0.000    8.000 
#    0.000    1.429    0.000    0.857    0.000    6.000 
#    0.000    0.000    0.000    0.000    0.000    0.000 
#
# Total GULP energy -156268.546816 kJ/mol
# GULP energy per Si atom -5581.019529 kJ/mol
# Density = 1.909406 g / cm^3
# Si number density = 19.137620 Si / 1000 Ang^3
#
#
#
# Elastic Constant Matrix: (Units=GPa)
#
#
# Indices 1 2 3 4 5 6 
#
# 1 109.4916 19.0609 5.0996 0.0000 21.6504 0.0000
# 2 19.0609 68.6683 15.6671 0.0000 15.0964 0.0000
# 3 5.0996 15.6671 29.4095 0.0000 24.9221 0.0000
# 4 0.0000 0.0000 0.0000 13.8210 0.0000 13.3354
# 5 21.6504 15.0964 24.9221 0.0000 45.3005 0.0000
# 6 0.0000 0.0000 0.0000 13.3354 0.0000 23.1821
#
#
#
# Elastic Compliance Matrix: (Units=1/GPa)
#
#
# Indices 1 2 3 4 5 6 
#
# 1 0.010819 -0.002704 0.005962 0.000000 -0.007550 0.000000
# 2 -0.002704 0.017291 -0.009282 0.000000 0.000636 0.000000
# 3 0.005962 -0.009282 0.070639 0.000000 -0.038618 0.000000
# 4 0.000000 0.000000 0.000000 0.162607 0.000000 -0.093539
# 5 -0.007550 0.000636 -0.038618 0.000000 0.046717 0.000000
# 6 0.000000 0.000000 0.000000 -0.093539 0.000000 0.096945
#
#
# Mechanical properties :
#
#
# Convention : Reuss Voigt Hill
#
# Bulk Modulus (GPa) = 11.53367 31.91385 21.72376
# Shear Modulus (GPa) = 11.21164 27.64350 19.42757
#
# Velocity S-wave (km/s) = 2.42305 3.80473 3.18960
# Velocity P-wave (km/s) = 3.72397 6.00112 4.99407
#
# Compressibility (1/GPa) = 0.08670270
#
# Stress axis : x y z
#
# Youngs Moduli (GPa) = 92.43048 57.83346 14.15646
#
# Poissons Ratio (x) = 0.15636 -0.08440
# Poissons Ratio (y) = 0.24990 0.13139
# Poissons Ratio (z) = -0.55107 0.53679
#
# Static dielectric constant tensor:
#      x y z
#    x 1.701440 0.000000 0.022080 
#    y 0.000000 1.855780 0.000000 
#    z 0.022080 0.000000 1.709640 
# 
# From -- ./inp_files/91444.got.cif
#   From: 2010.05.17/outbox.cif.g08.bks.cpg/sg10_46_cif.got.tgz:91444.got - 2010.06.03 11:33:40.
