data_PCOD9147072
_publ_section_title
;
Structure prediction by ZEFSAII (Michael W. Deem and Ramdas Pophale) SiO2 
 PCOD9147072
Probable space group: P 2/M
;
_chemical_formula_sum "Si O2"
_cell_formula_units_Z 26
_cell_length_a 24.066165
_cell_length_b 9.789463
_cell_length_c 10.593000
_cell_angle_alpha 90.000000
_cell_angle_beta 147.370839
_cell_angle_gamma 90.000000
_cell_volume 1345.656461
_symmetry_space_group_name_H-M "P 2/M"
_symmetry_group_IT_number 10
_symmetry_cell_setting 'monoclinic'
loop_
_space_group_symop_operation_xyz
x,y,z
-x,y,-z
-x,-y,-z
x,-y,z
loop_
_atom_site_type_symbol
_atom_site_label
_atom_site_fract_x
_atom_site_fract_y
_atom_site_fract_z
Si Si1 0.080819 0.664413 0.258283
Si Si2 0.385554 0.149888 0.515227
Si Si3 0.605079 0.844850 0.071588
Si Si4 0.500000 0.732951 0.500000
Si Si5 0.300639 0.338965 0.545632
Si Si6 0.311244 0.651982 0.974289
Si Si7 0.920794 0.337247 0.453279
O O1 0.066400 0.500000 0.238323
O O2 0.192253 0.685073 0.408286
O O3 0.072163 0.714653 0.387255
O O4 0.000000 0.718305 0.000000
O O5 0.430704 0.180355 0.463883
O O6 0.312427 0.265948 0.432786
O O7 0.337337 0.000000 0.429490
O O8 0.489791 0.148598 0.798154
O O9 0.619805 0.738689 0.211844
O O10 0.635927 0.000000 0.164725
O O11 0.671410 0.777003 0.087087
O O12 0.412793 0.652035 0.255519
O O13 0.319307 0.500000 0.570770
O O14 0.305626 0.500000 0.900741
O O15 0.198728 0.673964 0.819019
O O16 0.941955 0.500000 0.502459
O O17 0.000000 0.280805 0.500000
#
# Coordination Sequence:
#
# PCOD9147072 Si02
#       7
#     4   4   4   2   4   4   4
#     4   9  18  33  53  81 115 146 183 235 292 344
#     4  10  22  38  55  78 111 152 192 227 273 343
#     4  10  20  35  56  80 109 149 190 227 276 341
#     4  10  22  36  56  82 114 152 188 234 286 344
#     4  11  21  34  56  85 112 142 184 238 290 333
#     4  10  19  34  56  84 115 145 187 239 289 336
#     4   9  17  31  54  82 112 148 188 234 287 345
#
# _framework density 19.321422999999999
#
# number of rings (size 3 to 8) (size 9 to 14) (size 15 to 20)
#    0.000    2.154    1.538    1.846    0.000    7.385 
#    0.000    3.077    0.000    2.308    0.000    0.000 
#    0.000    0.000    0.000    0.000    0.000    0.000 
#
# Total GULP energy -144766.487111 kJ/mol
# GULP energy per Si atom -5567.941812 kJ/mol
# Density = 1.927745 g / cm^3
# Si number density = 19.321423 Si / 1000 Ang^3
#
#
#
# Elastic Constant Matrix: (Units=GPa)
#
#
# Indices 1 2 3 4 5 6 
#
# 1 144.1886 54.3066 26.0905 0.0000 2.8609 0.0000
# 2 54.3066 101.1914 13.5028 0.0000 3.6162 0.0000
# 3 26.0905 13.5028 56.8773 0.0000 -0.7943 0.0000
# 4 0.0000 0.0000 0.0000 -17.3275 0.0000 13.1238
# 5 2.8609 3.6162 -0.7943 0.0000 21.0008 0.0000
# 6 0.0000 0.0000 0.0000 13.1238 0.0000 -35.3339
#
#
#
# Elastic Compliance Matrix: (Units=1/GPa)
#
#
# Indices 1 2 3 4 5 6 
#
# 1 0.009216 -0.004502 -0.003167 0.000000 -0.000600 0.000000
# 2 -0.004502 0.012477 -0.000919 0.000000 -0.001570 0.000000
# 3 -0.003167 -0.000919 0.019271 0.000000 0.001319 0.000000
# 4 0.000000 0.000000 0.000000 -0.080302 0.000000 -0.029826
# 5 -0.000600 -0.001570 0.001319 0.000000 0.048019 0.000000
# 6 0.000000 0.000000 0.000000 -0.029826 0.000000 -0.039380
#
#
# Mechanical properties :
#
#
# Convention : Reuss Voigt Hill
#
# Bulk Modulus (GPa) = 42.03765 54.45081 48.24423
# Shear Modulus (GPa) = -893.93013 7.55838 -443.18587
#
# Velocity S-wave (km/s) = -21.53293 1.98000 -15.16157
# Velocity P-wave (km/s) = 24.42168 5.78532 16.77720
#
# Compressibility (1/GPa) = 0.02378820
#
# Stress axis : x y z
#
# Youngs Moduli (GPa) = 108.50804 80.14743 51.89122
#
# Poissons Ratio (x) = 0.36081 0.16435
# Poissons Ratio (y) = 0.48849 0.04768
# Poissons Ratio (z) = 0.34366 0.07365
#
# Static dielectric constant tensor:
#      x y z
#    x 1.741970 0.000000 -0.034580 
#    y 0.000000 1.670520 0.000000 
#    z -0.034580 0.000000 1.715490 
# 
# From -- ./inp_files/57501.got.cif
#   From: 2010.05.17/outbox.cif.g08.bks.cpg/sg10_29_cif.got.tgz:57501.got - 2010.06.03 11:33:40.
