data_PCOD9147867
_publ_section_title
;
Structure prediction by ZEFSAII (Michael W. Deem and Ramdas Pophale) SiO2 
 PCOD9147867
Probable space group: P 2/M
;
_chemical_formula_sum "Si O2"
_cell_formula_units_Z 28
_cell_length_a 10.253414
_cell_length_b 7.649451
_cell_length_c 26.948589
_cell_angle_alpha 90.000000
_cell_angle_beta 141.588328
_cell_angle_gamma 90.000000
_cell_volume 1313.231615
_symmetry_space_group_name_H-M "P 2/M"
_symmetry_group_IT_number 10
_symmetry_cell_setting 'monoclinic'
loop_
_space_group_symop_operation_xyz
x,y,z
-x,y,-z
-x,-y,-z
x,-y,z
loop_
_atom_site_type_symbol
_atom_site_label
_atom_site_fract_x
_atom_site_fract_y
_atom_site_fract_z
Si Si1 0.188754 0.297022 0.522966
Si Si2 0.486522 0.296176 0.940908
Si Si3 0.644270 0.287964 0.690344
Si Si4 0.068552 0.796497 0.761205
Si Si5 0.516604 0.288582 0.760378
Si Si6 0.955202 0.204056 0.357926
Si Si7 0.758807 0.714310 0.931081
O O1 0.204523 0.500000 0.543456
O O2 0.421578 0.225929 0.601368
O O3 0.000000 0.218181 0.500000
O O4 0.115804 0.287883 0.444453
O O5 0.546848 0.500000 0.963884
O O6 0.253755 0.287397 0.848610
O O7 0.643483 0.222238 0.946292
O O8 0.500000 0.218138 0.000000
O O9 0.655075 0.500000 0.690512
O O10 0.636010 0.237907 0.745826
O O11 0.846429 0.219486 0.722130
O O12 0.051635 0.723483 0.700145
O O13 0.126772 0.000000 0.773749
O O14 0.507373 0.500000 0.758193
O O15 0.277977 0.224327 0.689488
O O16 0.631669 0.229139 0.844514
O O17 0.010390 0.000000 0.371434
O O18 0.753453 0.500000 0.929468
O O19 0.000000 0.767323 0.000000
#
# Coordination Sequence:
#
# PCOD9147867 Si02
#       7
#     4   4   4   4   4   4   4
#     4  10  20  38  62  89 118 148 193 249 300 347
#     4  10  21  37  62  90 116 151 197 245 293 348
#     4  10  22  38  61  90 116 149 198 249 294 349
#     4  11  25  42  58  82 123 165 198 235 288 355
#     4  10  19  36  62  87 116 153 194 245 295 344
#     4  11  23  38  59  85 118 160 199 236 286 354
#     4   9  18  32  56  90 119 144 183 240 295 340
#
# _framework density 21.321446999999999
#
# number of rings (size 3 to 8) (size 9 to 14) (size 15 to 20)
#    0.000    1.857    2.857    0.857    2.000    4.000 
#    0.000    2.857    0.000    0.857    0.000    0.000 
#    0.000    0.000    0.000    0.000    0.000    0.000 
#
# Total GULP energy -156440.934701 kJ/mol
# GULP energy per Si atom -5587.176239 kJ/mol
# Density = 2.127292 g / cm^3
# Si number density = 21.321447 Si / 1000 Ang^3
#
#
#
# Elastic Constant Matrix: (Units=GPa)
#
#
# Indices 1 2 3 4 5 6 
#
# 1 139.9629 -9.6091 60.2407 0.0000 -3.3532 0.0000
# 2 -9.6091 37.3976 -9.9543 0.0000 -2.7060 0.0000
# 3 60.2407 -9.9543 117.8222 0.0000 -7.3303 0.0000
# 4 0.0000 0.0000 0.0000 -162.5676 0.0000 -51.2118
# 5 -3.3532 -2.7060 -7.3303 0.0000 42.2654 0.0000
# 6 0.0000 0.0000 0.0000 -51.2118 0.0000 -2.7057
#
#
#
# Elastic Compliance Matrix: (Units=1/GPa)
#
#
# Indices 1 2 3 4 5 6 
#
# 1 0.009208 0.001139 -0.004611 0.000000 0.000004 0.000000
# 2 0.001139 0.027695 0.001894 0.000000 0.002192 0.000000
# 3 -0.004611 0.001894 0.011110 0.000000 0.001682 0.000000
# 4 0.000000 0.000000 0.000000 0.001240 0.000000 -0.023462
# 5 0.000004 0.002192 0.001682 0.000000 0.024092 0.000000
# 6 0.000000 0.000000 0.000000 -0.023462 0.000000 0.074477
#
#
# Mechanical properties :
#
#
# Convention : Reuss Voigt Hill
#
# Bulk Modulus (GPa) = 22.29392 41.83748 32.06570
# Shear Modulus (GPa) = 30.13302 -7.63457 11.24923
#
# Velocity S-wave (km/s) = 3.76343 -1.89433 2.29945
# Velocity P-wave (km/s) = 5.41880 3.85749 4.70338
#
# Compressibility (1/GPa) = 0.04485529
#
# Stress axis : x y z
#
# Youngs Moduli (GPa) = 108.60391 36.10754 90.01094
#
# Poissons Ratio (x) = -0.04112 0.41507
# Poissons Ratio (y) = -0.12367 -0.17048
# Poissons Ratio (z) = 0.50081 -0.06839
#
# Static dielectric constant tensor:
#      x y z
#    x 1.751610 0.000000 -0.025290 
#    y 0.000000 1.822760 0.000000 
#    z -0.025290 0.000000 1.736490 
# 
# From -- ./inp_files/37002.got.cif
#   From: 2010.05.17/outbox.cif.g08.bks.cpg/sg10_19_cif.got.tgz:37002.got - 2010.06.03 11:33:40.
