data_PCOD9147933
_publ_section_title
;
Structure prediction by ZEFSAII (Michael W. Deem and Ramdas Pophale) SiO2 
 PCOD9147933
Probable space group: P 2/M
;
_chemical_formula_sum "Si O2"
_cell_formula_units_Z 28
_cell_length_a 8.971430
_cell_length_b 16.986188
_cell_length_c 13.607602
_cell_angle_alpha 90.000000
_cell_angle_beta 131.521277
_cell_angle_gamma 90.000000
_cell_volume 1552.575044
_symmetry_space_group_name_H-M "P 2/M"
_symmetry_group_IT_number 10
_symmetry_cell_setting 'monoclinic'
loop_
_space_group_symop_operation_xyz
x,y,z
-x,y,-z
-x,-y,-z
x,-y,z
loop_
_atom_site_type_symbol
_atom_site_label
_atom_site_fract_x
_atom_site_fract_y
_atom_site_fract_z
Si Si1 0.260854 0.500000 0.405810
Si Si2 0.672744 0.908989 0.831792
Si Si3 0.171000 0.344326 0.492433
Si Si4 0.692198 0.656661 0.014239
Si Si5 0.904807 0.768323 0.256617
Si Si6 0.936986 0.911134 0.134823
Si Si7 0.456966 0.250766 0.750250
Si Si8 0.055085 0.500000 0.909645
O O1 0.500000 0.500000 0.500000
O O2 0.203788 0.422239 0.443096
O O3 0.132825 0.500000 0.248207
O O4 0.536965 0.833643 0.748805
O O5 0.863129 0.905926 0.843001
O O6 0.595023 0.000000 0.792610
O O7 0.756803 0.895933 0.979337
O O8 0.366818 0.310204 0.630566
O O9 0.000000 0.359979 0.500000
O O10 0.087391 0.274196 0.388524
O O11 0.835170 0.714897 0.135620
O O12 0.809632 0.576555 0.049330
O O13 0.500000 0.642739 0.000000
O O14 0.619042 0.700694 0.884072
O O15 0.944411 0.852586 0.228259
O O16 0.724151 0.768823 0.254827
O O17 0.915225 0.000000 0.160424
O O18 0.000000 0.500000 0.000000
#
# Coordination Sequence:
#
# PCOD9147933 Si02
#       8
#     2   4   4   4   4   4   4   2
#     4  12  27  44  60  86 120 156 197 236 288 352
#     4   9  18  33  53  83 117 151 188 233 286 342
#     4  10  23  43  63  81 114 158 194 235 291 349
#     4  10  21  39  62  86 114 150 196 243 293 342
#     4  10  19  37  58  84 112 148 194 237 285 341
#     4   9  18  32  54  82 117 154 187 228 288 345
#     4  10  21  35  60  88 111 145 193 241 286 339
#     4  12  27  42  60  90 122 152 189 246 292 338
#
# _framework density 18.034555999999998
#
# number of rings (size 3 to 8) (size 9 to 14) (size 15 to 20)
#    0.000    2.000    2.857    1.286    2.000    2.857 
#    0.000    2.143    0.000    4.286    0.000    0.000 
#    0.000    0.000    0.000    0.000    0.000    0.000 
#
# Total GULP energy -156199.592809 kJ/mol
# GULP energy per Si atom -5578.556886 kJ/mol
# Density = 1.799351 g / cm^3
# Si number density = 18.034556 Si / 1000 Ang^3
#
#
#
# Elastic Constant Matrix: (Units=GPa)
#
#
# Indices 1 2 3 4 5 6 
#
# 1 17.0681 34.5478 24.8101 0.0000 -6.8028 0.0000
# 2 34.5478 119.3673 35.7653 0.0000 -8.0477 0.0000
# 3 24.8101 35.7653 97.1946 0.0000 -12.5867 0.0000
# 4 0.0000 0.0000 0.0000 22.3095 0.0000 -1.2728
# 5 -6.8028 -8.0477 -12.5867 0.0000 18.3252 0.0000
# 6 0.0000 0.0000 0.0000 -1.2728 0.0000 36.2819
#
#
#
# Elastic Compliance Matrix: (Units=1/GPa)
#
#
# Indices 1 2 3 4 5 6 
#
# 1 0.238764 -0.055859 -0.035224 0.000000 0.039910 0.000000
# 2 -0.055859 0.022546 0.005004 0.000000 -0.007398 0.000000
# 3 -0.035224 0.005004 0.017595 0.000000 0.001207 0.000000
# 4 0.000000 0.000000 0.000000 0.044914 0.000000 0.001576
# 5 0.039910 -0.007398 0.001207 0.000000 0.066965 0.000000
# 6 0.000000 0.000000 0.000000 0.001576 0.000000 0.027617
#
#
# Mechanical properties :
#
#
# Convention : Reuss Voigt Hill
#
# Bulk Modulus (GPa) = 9.36798 47.09737 28.23268
# Shear Modulus (GPa) = 7.98541 24.61709 16.30125
#
# Velocity S-wave (km/s) = 2.10653 3.69859 3.00974
# Velocity P-wave (km/s) = 3.33502 6.66417 5.26942
#
# Compressibility (1/GPa) = 0.10674655
#
# Stress axis : x y z
#
# Youngs Moduli (GPa) = 4.18824 44.35299 56.83485
#
# Poissons Ratio (x) = 2.47753 2.00195
# Poissons Ratio (y) = 0.23395 -0.28441
# Poissons Ratio (z) = 0.14753 -0.22195
#
# Static dielectric constant tensor:
#      x y z
#    x 1.613440 0.000000 0.001520 
#    y 0.000000 1.616120 0.000000 
#    z 0.001520 0.000000 1.616640 
# 
# From -- ./inp_files/35282.got.cif
#   From: 2010.05.17/outbox.cif.g08.bks.cpg/sg10_18_cif.got.tgz:35282.got - 2010.06.03 11:33:40.
