data_PCOD9147654
_publ_section_title
;
Structure prediction by ZEFSAII (Michael W. Deem and Ramdas Pophale) SiO2 
 PCOD9147654
Probable space group: P 2/M
;
_chemical_formula_sum "Si O2"
_cell_formula_units_Z 28
_cell_length_a 8.628901
_cell_length_b 19.325591
_cell_length_c 14.355336
_cell_angle_alpha 90.000000
_cell_angle_beta 37.168935
_cell_angle_gamma 90.000000
_cell_volume 1446.301199
_symmetry_space_group_name_H-M "P 2/M"
_symmetry_group_IT_number 10
_symmetry_cell_setting 'monoclinic'
loop_
_space_group_symop_operation_xyz
x,y,z
-x,y,-z
-x,-y,-z
x,-y,z
loop_
_atom_site_type_symbol
_atom_site_label
_atom_site_fract_x
_atom_site_fract_y
_atom_site_fract_z
Si Si1 0.813976 0.577312 0.957783
Si Si2 0.974699 0.719099 0.652058
Si Si3 0.782986 0.575888 0.745921
Si Si4 0.690042 0.918306 0.651430
Si Si5 0.526671 0.802108 0.599117
Si Si6 0.986385 0.725009 0.141664
Si Si7 0.511573 0.813266 0.105786
O O1 0.906891 0.500000 0.939994
O O2 0.800496 0.576980 0.850879
O O3 0.969639 0.645829 0.910941
O O4 0.518631 0.584966 0.131552
O O5 0.946414 0.640438 0.634173
O O6 0.711773 0.759311 0.760809
O O7 0.219423 0.758936 0.497145
O O8 0.005259 0.720223 0.749676
O O9 0.866697 0.500000 0.674467
O O10 0.564813 0.877085 0.625452
O O11 0.560545 0.881902 0.803042
O O12 0.000000 0.907867 0.500000
O O13 0.643357 0.000000 0.671577
O O14 0.500000 0.806980 0.500000
O O15 0.281356 0.760645 0.754163
O O16 0.218855 0.775850 0.002808
O O17 0.500000 0.825255 0.000000
#
# Coordination Sequence:
#
# PCOD9147654 Si02
#       7
#     4   4   4   4   4   4   4
#     4   8  12  20  38  70 109 145 185 234 280 320
#     4   9  15  29  50  78 111 149 194 231 273 333
#     4   8  12  19  38  71 108 144 188 238 275 314
#     4  11  24  42  64  89 114 146 189 230 282 353
#     4  10  21  37  58  84 116 151 186 231 288 341
#     4   9  17  29  50  80 113 148 188 234 280 330
#     4  10  19  35  61  87 114 148 190 236 276 330
#
# _framework density 19.359729999999999
#
# number of rings (size 3 to 8) (size 9 to 14) (size 15 to 20)
#    0.000    2.714    2.857    0.857    0.000    1.143 
#    0.000    2.143    0.000    4.286    0.000    6.000 
#    0.000    0.000    0.000    0.000    0.000    0.000 
#
# Total GULP energy -156182.338042 kJ/mol
# GULP energy per Si atom -5577.940644 kJ/mol
# Density = 1.931567 g / cm^3
# Si number density = 19.359730 Si / 1000 Ang^3
#
#
#
# Elastic Constant Matrix: (Units=GPa)
#
#
# Indices 1 2 3 4 5 6 
#
# 1 40.4064 43.2305 50.6775 0.0000 1.1201 0.0000
# 2 43.2305 201.9366 70.0090 0.0000 -18.2412 0.0000
# 3 50.6775 70.0090 96.1514 0.0000 -12.4586 0.0000
# 4 0.0000 0.0000 0.0000 15.4676 0.0000 21.3270
# 5 1.1201 -18.2412 -12.4586 0.0000 36.9136 0.0000
# 6 0.0000 0.0000 0.0000 21.3270 0.0000 39.6652
#
#
#
# Elastic Compliance Matrix: (Units=1/GPa)
#
#
# Indices 1 2 3 4 5 6 
#
# 1 0.086537 -0.004851 -0.044683 0.000000 -0.020104 0.000000
# 2 -0.004851 0.007002 -0.002169 0.000000 0.002875 0.000000
# 3 -0.044683 -0.002169 0.037194 0.000000 0.012837 0.000000
# 4 0.000000 0.000000 0.000000 0.249962 0.000000 -0.134398
# 5 -0.020104 0.002875 0.012837 0.000000 0.033454 0.000000
# 6 0.000000 0.000000 0.000000 -0.134398 0.000000 0.097474
#
#
# Mechanical properties :
#
#
# Convention : Reuss Voigt Hill
#
# Bulk Modulus (GPa) = 36.59421 74.03650 55.31536
# Shear Modulus (GPa) = 8.01105 30.04779 19.02942
#
# Velocity S-wave (km/s) = 2.03641 3.94391 3.13859
# Velocity P-wave (km/s) = 4.94698 7.68536 6.46287
#
# Compressibility (1/GPa) = 0.02732673
#
# Stress axis : x y z
#
# Youngs Moduli (GPa) = 11.55575 142.81086 26.88619
#
# Poissons Ratio (x) = 0.69272 1.20136
# Poissons Ratio (y) = 0.05605 0.05832
# Poissons Ratio (z) = 0.51635 0.30980
#
# Static dielectric constant tensor:
#      x y z
#    x 1.715570 0.000000 0.043090 
#    y 0.000000 1.657940 0.000000 
#    z 0.043090 0.000000 1.676370 
# 
# From -- ./inp_files/62303.got.cif
#   From: 2010.05.17/outbox.cif.g08.bks.cpg/sg10_32_cif.got.tgz:62303.got - 2010.06.03 11:33:40.
