data_PCOD9147795
_publ_section_title
;
Structure prediction by ZEFSAII (Michael W. Deem and Ramdas Pophale) SiO2 
 PCOD9147795
Probable space group: P 2/M
;
_chemical_formula_sum "Si O2"
_cell_formula_units_Z 32
_cell_length_a 14.642627
_cell_length_b 8.858804
_cell_length_c 19.965133
_cell_angle_alpha 90.000000
_cell_angle_beta 134.110779
_cell_angle_gamma 90.000000
_cell_volume 1859.464708
_symmetry_space_group_name_H-M "P 2/M"
_symmetry_group_IT_number 10
_symmetry_cell_setting 'monoclinic'
loop_
_space_group_symop_operation_xyz
x,y,z
-x,y,-z
-x,-y,-z
x,-y,z
loop_
_atom_site_type_symbol
_atom_site_label
_atom_site_fract_x
_atom_site_fract_y
_atom_site_fract_z
Si Si1 0.728850 0.822646 0.036990
Si Si2 0.358925 0.319033 0.722272
Si Si3 0.875268 0.182115 0.894738
Si Si4 0.126975 0.180144 0.521090
Si Si5 0.982926 0.679466 0.665343
Si Si6 0.033927 0.178530 0.203545
Si Si7 0.644267 0.321022 0.857707
Si Si8 0.734559 0.181594 0.191180
O O1 0.690370 0.780852 0.093123
O O2 0.882354 0.806259 0.112614
O O3 0.699742 0.000000 0.011940
O O4 0.669288 0.728370 0.947019
O O5 0.344631 0.500000 0.716421
O O6 0.247386 0.246274 0.621554
O O7 0.498923 0.280906 0.766596
O O8 0.345596 0.254792 0.790620
O O9 0.893546 0.225922 0.826625
O O10 0.749074 0.242788 0.864965
O O11 0.873817 0.000000 0.896463
O O12 0.000000 0.232363 0.000000
O O13 0.105495 0.257872 0.438646
O O14 0.000000 0.210220 0.500000
O O15 0.138834 0.000000 0.519784
O O16 0.996907 0.500000 0.667628
O O17 0.935285 0.728207 0.714422
O O18 0.121220 0.757886 0.727922
O O19 0.056079 0.000000 0.227339
O O20 0.658755 0.500000 0.859538
O O21 0.736008 0.000000 0.198000
#
# Coordination Sequence:
#
# PCOD9147795 Si02
#       8
#     4   4   4   4   4   4   4   4
#     4   9  18  34  54  76 108 148 189 227 268 320
#     4  11  24  39  54  78 113 150 185 226 281 334
#     4  10  19  36  60  83 108 146 191 232 273 320
#     4  11  22  37  60  85 108 141 188 232 272 323
#     4  11  21  33  55  85 116 145 175 221 282 334
#     4   9  18  34  56  82 112 143 184 231 270 320
#     4  11  24  37  52  80 116 149 184 229 280 334
#     4  10  20  35  54  78 108 146 191 231 266 317
#
# _framework density 17.209254999999999
#
# number of rings (size 3 to 8) (size 9 to 14) (size 15 to 20)
#    0.000    1.750    2.500    3.375    0.000    6.250 
#    0.000    2.500    0.000    0.750    0.000    5.250 
#    0.000    0.000    0.000    0.000    0.000    0.000 
#
# Total GULP energy -178721.174619 kJ/mol
# GULP energy per Si atom -5585.036707 kJ/mol
# Density = 1.717009 g / cm^3
# Si number density = 17.209255 Si / 1000 Ang^3
#
#
#
# Elastic Constant Matrix: (Units=GPa)
#
#
# Indices 1 2 3 4 5 6 
#
# 1 114.3963 40.8540 56.0608 0.0000 -1.6527 0.0000
# 2 40.8540 50.8900 39.7491 0.0000 -1.4611 0.0000
# 3 56.0608 39.7491 69.5819 0.0000 -3.8080 0.0000
# 4 0.0000 0.0000 0.0000 20.4890 0.0000 4.3466
# 5 -1.6527 -1.4611 -3.8080 0.0000 21.8394 0.0000
# 6 0.0000 0.0000 0.0000 4.3466 0.0000 26.1183
#
#
#
# Elastic Compliance Matrix: (Units=1/GPa)
#
#
# Indices 1 2 3 4 5 6 
#
# 1 0.015061 -0.004697 -0.009496 0.000000 -0.000830 0.000000
# 2 -0.004697 0.036977 -0.017389 0.000000 -0.000914 0.000000
# 3 -0.009496 -0.017389 0.032160 0.000000 0.003726 0.000000
# 4 0.000000 0.000000 0.000000 0.050593 0.000000 -0.008420
# 5 -0.000830 -0.000914 0.003726 0.000000 0.046314 0.000000
# 6 0.000000 0.000000 0.000000 -0.008420 0.000000 0.039688
#
#
# Mechanical properties :
#
#
# Convention : Reuss Voigt Hill
#
# Bulk Modulus (GPa) = 47.54458 56.46624 52.00541
# Shear Modulus (GPa) = 17.18395 20.23630 18.71012
#
# Velocity S-wave (km/s) = 3.16338 3.43285 3.30087
# Velocity P-wave (km/s) = 6.40546 6.97104 6.69423
#
# Compressibility (1/GPa) = 0.02103289
#
# Stress axis : x y z
#
# Youngs Moduli (GPa) = 66.39761 27.04393 31.09445
#
# Poissons Ratio (x) = 0.12703 0.29529
# Poissons Ratio (y) = 0.31187 0.54070
# Poissons Ratio (z) = 0.63054 0.47027
#
# Static dielectric constant tensor:
#      x y z
#    x 1.585710 0.000000 -0.005680 
#    y 0.000000 1.569310 0.000000 
#    z -0.005680 0.000000 1.570020 
# 
# From -- ./inp_files/84743.got.cif
#   From: 2010.05.17/outbox.cif.g08.bks.cpg/sg10_43_cif.got.tgz:84743.got - 2010.06.03 11:33:40.
