data_PCOD9147829
_publ_section_title
;
Structure prediction by ZEFSAII (Michael W. Deem and Ramdas Pophale) SiO2 
 PCOD9147829
Probable space group: P 2/M
;
_chemical_formula_sum "Si O2"
_cell_formula_units_Z 32
_cell_length_a 20.806377
_cell_length_b 9.215299
_cell_length_c 14.469632
_cell_angle_alpha 90.000000
_cell_angle_beta 136.876460
_cell_angle_gamma 90.000000
_cell_volume 1896.482012
_symmetry_space_group_name_H-M "P 2/M"
_symmetry_group_IT_number 10
_symmetry_cell_setting 'monoclinic'
loop_
_space_group_symop_operation_xyz
x,y,z
-x,y,-z
-x,-y,-z
x,-y,z
loop_
_atom_site_type_symbol
_atom_site_label
_atom_site_fract_x
_atom_site_fract_y
_atom_site_fract_z
Si Si1 0.532677 0.331166 0.341443
Si Si2 0.297410 0.330754 0.627277
Si Si3 0.643175 0.172299 0.925798
Si Si4 0.832439 0.172705 0.645935
Si Si5 0.606388 0.326875 0.080011
Si Si6 0.011952 0.672270 0.903819
Si Si7 0.694577 0.327027 0.645386
Si Si8 0.772813 0.671546 0.926712
O O1 0.502050 0.500000 0.312978
O O2 0.609551 0.318033 0.339627
O O3 0.445747 0.230677 0.226429
O O4 0.591448 0.297059 0.495782
O O5 0.268779 0.500000 0.591603
O O6 0.218100 0.231052 0.499376
O O7 0.326736 0.296692 0.762438
O O8 0.734499 0.234456 0.970259
O O9 0.643403 0.000000 0.929798
O O10 0.632776 0.240062 0.016551
O O11 0.769455 0.239253 0.663048
O O12 0.936141 0.236843 0.767624
O O13 0.831965 0.000000 0.649215
O O14 0.609344 0.500000 0.063713
O O15 0.500000 0.292992 0.000000
O O16 0.992607 0.500000 0.872889
O O17 0.118818 0.699185 0.985417
O O18 0.000000 0.706277 0.000000
O O19 0.711789 0.500000 0.648357
O O20 0.711418 0.297700 0.770277
O O21 0.762935 0.500000 0.936984
#
# Coordination Sequence:
#
# PCOD9147829 Si02
#       8
#     4   4   4   4   4   4   4   4
#     4   9  17  33  55  77 105 143 189 228 262 312
#     4   9  18  34  58  82 106 139 183 231 266 311
#     4  12  25  36  50  78 118 151 177 220 279 340
#     4  11  21  31  51  84 120 146 169 215 279 339
#     4  10  19  37  62  83 103 138 190 235 268 311
#     4  10  19  36  61  83 104 138 190 237 269 311
#     4   9  18  35  56  77 103 143 193 232 262 307
#     4  10  21  38  59  78 103 144 191 234 269 315
#
# _framework density 16.873348
#
# number of rings (size 3 to 8) (size 9 to 14) (size 15 to 20)
#    0.000    2.000    2.500    3.000    0.000    4.500 
#    0.000    2.500    0.000    0.750    0.000    5.250 
#    0.000    0.000    0.000    0.000    0.000    0.000 
#
# Total GULP energy -178671.995252 kJ/mol
# GULP energy per Si atom -5583.499852 kJ/mol
# Density = 1.683494 g / cm^3
# Si number density = 16.873348 Si / 1000 Ang^3
#
#
#
# Elastic Constant Matrix: (Units=GPa)
#
#
# Indices 1 2 3 4 5 6 
#
# 1 93.7343 65.0742 53.6072 0.0000 -5.9278 0.0000
# 2 65.0742 82.9846 64.9005 0.0000 -5.2921 0.0000
# 3 53.6072 64.9005 91.7589 0.0000 -5.8595 0.0000
# 4 0.0000 0.0000 0.0000 -3.6989 0.0000 0.5762
# 5 -5.9278 -5.2921 -5.8595 0.0000 14.8700 0.0000
# 6 0.0000 0.0000 0.0000 0.5762 0.0000 10.3607
#
#
#
# Elastic Compliance Matrix: (Units=1/GPa)
#
#
# Indices 1 2 3 4 5 6 
#
# 1 0.023622 -0.017217 -0.001450 0.000000 0.002718 0.000000
# 2 -0.017217 0.039582 -0.017928 0.000000 0.000159 0.000000
# 3 -0.001450 -0.017928 0.024600 0.000000 0.002735 0.000000
# 4 0.000000 0.000000 0.000000 -0.268030 0.000000 0.014906
# 5 0.002718 0.000159 0.002735 0.000000 0.069468 0.000000
# 6 0.000000 0.000000 0.000000 0.014906 0.000000 0.095689
#
#
# Mechanical properties :
#
#
# Convention : Reuss Voigt Hill
#
# Bulk Modulus (GPa) = 68.41803 70.62687 69.52245
# Shear Modulus (GPa) = 79.37603 9.96610 44.67106
#
# Velocity S-wave (km/s) = 6.86618 2.43295 5.15090
# Velocity P-wave (km/s) = 10.17326 7.05976 8.75601
#
# Compressibility (1/GPa) = 0.01461603
#
# Stress axis : x y z
#
# Youngs Moduli (GPa) = 42.33378 25.26373 40.65034
#
# Poissons Ratio (x) = 0.43495 0.05893
# Poissons Ratio (y) = 0.72884 0.72878
# Poissons Ratio (z) = 0.06137 0.45293
#
# Static dielectric constant tensor:
#      x y z
#    x 1.560010 0.000000 -0.001650 
#    y 0.000000 1.551480 0.000000 
#    z -0.001650 0.000000 1.577390 
# 
# From -- ./inp_files/70010.got.cif
#   From: 2010.05.17/outbox.cif.g08.bks.cpg/sg10_36_cif.got.tgz:70010.got - 2010.06.03 11:33:40.
