data_PCOD9147031
_publ_section_title
;
Structure prediction by ZEFSAII (Michael W. Deem and Ramdas Pophale) SiO2 
 PCOD9147031
Probable space group: P 2/M
;
_chemical_formula_sum "Si O2"
_cell_formula_units_Z 28
_cell_length_a 19.897780
_cell_length_b 15.156123
_cell_length_c 8.094583
_cell_angle_alpha 90.000000
_cell_angle_beta 146.125668
_cell_angle_gamma 90.000000
_cell_volume 1360.608942
_symmetry_space_group_name_H-M "P 2/M"
_symmetry_group_IT_number 10
_symmetry_cell_setting 'monoclinic'
loop_
_space_group_symop_operation_xyz
x,y,z
-x,y,-z
-x,-y,-z
x,-y,z
loop_
_atom_site_type_symbol
_atom_site_label
_atom_site_fract_x
_atom_site_fract_y
_atom_site_fract_z
Si Si1 0.065404 0.101195 0.900503
Si Si2 0.818993 0.101021 0.234342
Si Si3 0.757071 0.597578 0.135719
Si Si4 0.359804 0.762798 0.251195
Si Si5 0.359817 0.598152 0.753881
Si Si6 0.985413 0.603615 0.169863
Si Si7 0.786472 0.741000 0.740973
O O1 0.123766 0.104790 0.834339
O O2 0.925702 0.122311 0.579802
O O3 0.076609 0.000000 0.981360
O O4 0.134219 0.174177 0.147645
O O5 0.781232 0.000000 0.184898
O O6 0.709978 0.168843 0.009047
O O7 0.765453 0.500000 0.079392
O O8 0.666640 0.595122 0.106702
O O9 0.888436 0.620164 0.478849
O O10 0.698682 0.667871 0.898518
O O11 0.500000 0.764036 0.500000
O O12 0.317964 0.779309 0.353163
O O13 0.323217 0.500000 0.614053
O O14 0.280333 0.677541 0.522708
O O15 0.500000 0.610443 0.000000
O O16 0.955268 0.500000 0.136008
O O17 0.000000 0.614091 0.000000
O O18 0.886194 0.674253 0.023986
#
# Coordination Sequence:
#
# PCOD9147031 Si02
#       7
#     4   4   4   4   4   4   4
#     4   8  15  29  52  81 107 132 169 219 271 324
#     4   8  15  31  53  76 105 139 174 214 264 319
#     4  10  21  36  52  74 108 142 173 219 271 313
#     4  11  23  35  50  80 114 141 178 222 264 315
#     4  10  20  35  54  74 101 146 194 220 249 314
#     4  10  19  34  56  81 103 128 178 232 268 311
#     4  11  20  33  57  80 104 141 179 220 274 323
#
# _framework density 20.579021000000001
#
# number of rings (size 3 to 8) (size 9 to 14) (size 15 to 20)
#    0.000    2.286    1.429    3.000    0.000    3.429 
#    0.000    1.429    0.000    1.714    0.000    0.000 
#    0.000    0.000    0.000    0.000    0.000    0.000 
#
# Total GULP energy -156241.860225 kJ/mol
# GULP energy per Si atom -5580.066437 kJ/mol
# Density = 2.053218 g / cm^3
# Si number density = 20.579021 Si / 1000 Ang^3
#
#
#
# Elastic Constant Matrix: (Units=GPa)
#
#
# Indices 1 2 3 4 5 6 
#
# 1 55.7930 13.0794 19.9899 0.0000 24.0973 0.0000
# 2 13.0794 111.0258 61.4425 0.0000 7.9223 0.0000
# 3 19.9899 61.4425 75.2442 0.0000 22.8324 0.0000
# 4 0.0000 0.0000 0.0000 32.5243 0.0000 8.1743
# 5 24.0973 7.9223 22.8324 0.0000 25.0889 0.0000
# 6 0.0000 0.0000 0.0000 8.1743 0.0000 48.0595
#
#
#
# Elastic Compliance Matrix: (Units=1/GPa)
#
#
# Indices 1 2 3 4 5 6 
#
# 1 0.031671 -0.004300 0.005409 0.000000 -0.033985 0.000000
# 2 -0.004300 0.018925 -0.018997 0.000000 0.015442 0.000000
# 3 0.005409 -0.018997 0.037469 0.000000 -0.033295 0.000000
# 4 0.000000 0.000000 0.000000 0.032119 0.000000 -0.005463
# 5 -0.033985 0.015442 -0.033295 0.000000 0.097924 0.000000
# 6 0.000000 0.000000 0.000000 -0.005463 0.000000 0.021737
#
#
# Mechanical properties :
#
#
# Convention : Reuss Voigt Hill
#
# Bulk Modulus (GPa) = 19.12397 47.89854 33.51125
# Shear Modulus (GPa) = 17.06197 30.97129 24.01663
#
# Velocity S-wave (km/s) = 2.88253 3.88363 3.41991
# Velocity P-wave (km/s) = 4.51572 6.59061 5.64924
#
# Compressibility (1/GPa) = 0.05229040
#
# Stress axis : x y z
#
# Youngs Moduli (GPa) = 31.57413 52.84144 26.68903
#
# Poissons Ratio (x) = 0.22720 -0.14437
# Poissons Ratio (y) = 0.13576 0.50701
# Poissons Ratio (z) = -0.17080 1.00382
#
# Static dielectric constant tensor:
#      x y z
#    x 1.764680 0.000000 -0.010500 
#    y 0.000000 1.754410 0.000000 
#    z -0.010500 0.000000 1.709270 
# 
# From -- ./inp_files/29392.got.cif
#   From: 2010.05.17/outbox.cif.g08.bks.cpg/sg10_15_cif.got.tgz:29392.got - 2010.06.03 11:33:40.
