data_PCOD9147109
_publ_section_title
;
Structure prediction by ZEFSAII (Michael W. Deem and Ramdas Pophale) SiO2 
 PCOD9147109
Probable space group: P 2/M
;
_chemical_formula_sum "Si O2"
_cell_formula_units_Z 24
_cell_length_a 12.850076
_cell_length_b 7.268642
_cell_length_c 25.657718
_cell_angle_alpha 90.000000
_cell_angle_beta 146.638848
_cell_angle_gamma 90.000000
_cell_volume 1317.868950
_symmetry_space_group_name_H-M "P 2/M"
_symmetry_group_IT_number 10
_symmetry_cell_setting 'monoclinic'
loop_
_space_group_symop_operation_xyz
x,y,z
-x,y,-z
-x,-y,-z
x,-y,z
loop_
_atom_site_type_symbol
_atom_site_label
_atom_site_fract_x
_atom_site_fract_y
_atom_site_fract_z
Si Si1 0.667046 0.277551 0.397330
Si Si2 0.750059 0.279051 0.735932
Si Si3 0.689567 0.000000 0.888679
Si Si4 0.942929 0.000000 0.890140
Si Si5 0.960464 0.276020 0.607093
Si Si6 0.714480 0.723710 0.602233
Si Si7 0.636850 0.278565 0.264370
O O1 0.675153 0.500000 0.401103
O O2 0.463252 0.227685 0.335708
O O3 0.835058 0.214865 0.505208
O O4 0.677258 0.223732 0.341402
O O5 0.767298 0.500000 0.747527
O O6 0.892630 0.175170 0.833524
O O7 0.771551 0.224989 0.684556
O O8 0.802904 0.000000 0.881397
O O9 0.551224 0.175381 0.832092
O O10 0.846144 0.000000 0.999178
O O11 0.956595 0.500000 0.605014
O O12 0.857007 0.216564 0.616620
O O13 0.178342 0.224988 0.691277
O O14 0.500000 0.782804 0.500000
O O15 0.711118 0.500000 0.599872
O O16 0.614031 0.500000 0.253197
#
# Coordination Sequence:
#
# PCOD9147109 Si02
#       7
#     4   4   2   2   4   4   4
#     4   9  15  27  50  80 112 146 174 204 255 316
#     4  10  19  34  57  81 111 144 174 214 267 319
#     4  11  24  40  57  78 104 134 178 237 283 317
#     4  11  24  40  57  79 104 133 180 235 282 321
#     4   9  16  28  51  82 116 151 179 207 253 316
#     4   9  15  27  52  83 113 148 181 210 251 307
#     4  10  20  35  55  80 111 145 179 216 265 323
#
# _framework density 18.211217000000001
#
# number of rings (size 3 to 8) (size 9 to 14) (size 15 to 20)
#    0.000    2.333    3.333    0.500    0.000    2.667 
#    0.000    5.417    0.000    2.000    0.000    4.667 
#    0.000    0.000    0.000    0.000    0.000    0.000 
#
# Total GULP energy -134028.766942 kJ/mol
# GULP energy per Si atom -5584.531956 kJ/mol
# Density = 1.816977 g / cm^3
# Si number density = 18.211217 Si / 1000 Ang^3
#
#
#
# Elastic Constant Matrix: (Units=GPa)
#
#
# Indices 1 2 3 4 5 6 
#
# 1 134.2995 28.4144 86.9867 0.0000 13.9885 0.0000
# 2 28.4144 93.4846 45.1523 0.0000 0.5305 0.0000
# 3 86.9867 45.1523 163.8297 0.0000 0.3577 0.0000
# 4 0.0000 0.0000 0.0000 26.9581 0.0000 -0.5610
# 5 13.9885 0.5305 0.3577 0.0000 24.1326 0.0000
# 6 0.0000 0.0000 0.0000 -0.5610 0.0000 0.5596
#
#
#
# Elastic Compliance Matrix: (Units=1/GPa)
#
#
# Indices 1 2 3 4 5 6 
#
# 1 0.012499 -0.000647 -0.006443 0.000000 -0.007135 0.000000
# 2 -0.000647 0.012374 -0.003067 0.000000 0.000148 0.000000
# 3 -0.006443 -0.003067 0.010362 0.000000 0.003648 0.000000
# 4 0.000000 0.000000 0.000000 0.037885 0.000000 0.037975
# 5 -0.007135 0.000148 0.003648 0.000000 0.045516 0.000000
# 6 0.000000 0.000000 0.000000 0.037975 0.000000 1.824930
#
#
# Mechanical properties :
#
#
# Convention : Reuss Voigt Hill
#
# Bulk Modulus (GPa) = 67.01588 79.19117 73.10353
# Shear Modulus (GPa) = 2.53955 25.73409 14.13682
#
# Velocity S-wave (km/s) = 1.18217 3.76319 2.78918
# Velocity P-wave (km/s) = 6.22435 7.90325 7.11350
#
# Compressibility (1/GPa) = 0.01492184
#
# Stress axis : x y z
#
# Youngs Moduli (GPa) = 80.00616 80.81341 96.50597
#
# Poissons Ratio (x) = 0.05227 0.62175
# Poissons Ratio (y) = 0.05175 0.29601
# Poissons Ratio (z) = 0.51545 0.24788
#
# Static dielectric constant tensor:
#      x y z
#    x 1.617740 0.000000 0.000090 
#    y 0.000000 1.700240 0.000000 
#    z 0.000090 0.000000 1.571120 
# 
# From -- ./inp_files/55066.got.cif
#   From: 2010.05.17/outbox.cif.g08.bks.cpg/sg10_28_cif.got.tgz:55066.got - 2010.06.03 11:33:40.
