data_PCOD9147873
_publ_section_title
;
Structure prediction by ZEFSAII (Michael W. Deem and Ramdas Pophale) SiO2 
 PCOD9147873
Probable space group: P 2/M
;
_chemical_formula_sum "Si O2"
_cell_formula_units_Z 24
_cell_length_a 10.136908
_cell_length_b 12.104158
_cell_length_c 15.091975
_cell_angle_alpha 90.000000
_cell_angle_beta 38.862478
_cell_angle_gamma 90.000000
_cell_volume 1161.896785
_symmetry_space_group_name_H-M "P 2/M"
_symmetry_group_IT_number 10
_symmetry_cell_setting 'monoclinic'
loop_
_space_group_symop_operation_xyz
x,y,z
-x,y,-z
-x,-y,-z
x,-y,z
loop_
_atom_site_type_symbol
_atom_site_label
_atom_site_fract_x
_atom_site_fract_y
_atom_site_fract_z
Si Si1 0.294827 0.287832 0.778565
Si Si2 0.956951 0.275308 0.806765
Si Si3 0.351397 0.827146 0.502424
Si Si4 0.238622 0.500000 0.907756
Si Si5 0.775959 0.876741 0.625006
Si Si6 0.253495 0.500000 0.108698
Si Si7 0.336407 0.134031 0.917068
O O1 0.493290 0.270279 0.611005
O O2 0.340878 0.390312 0.816537
O O3 0.256859 0.183498 0.863899
O O4 0.094940 0.309816 0.821004
O O5 0.861949 0.383550 0.808283
O O6 0.128659 0.210110 0.658346
O O7 0.782288 0.193604 0.940090
O O8 0.500000 0.881778 0.500000
O O9 0.307968 0.885196 0.431730
O O10 0.245217 0.500000 0.007683
O O11 0.000000 0.500000 0.000000
O O12 0.584063 0.833060 0.783952
O O13 0.000000 0.817056 0.500000
O O14 0.816904 0.000000 0.639668
O O15 0.500000 0.500000 0.000000
O O16 0.318231 0.000000 0.928921
#
# Coordination Sequence:
#
# PCOD9147873 Si02
#       7
#     4   4   4   2   4   2   4
#     4  10  19  36  62  88 115 153 201 238 290 354
#     4  11  21  38  58  87 121 155 191 242 299 351
#     4   9  21  36  56  85 117 148 188 244 299 347
#     4  12  18  37  67  87 109 159 202 241 286 358
#     4   9  19  37  57  78 112 158 201 238 283 346
#     4  12  26  39  57  89 125 153 189 250 303 336
#     4  10  20  34  59  92 120 151 198 248 289 344
#
# _framework density 20.655878999999999
#
# number of rings (size 3 to 8) (size 9 to 14) (size 15 to 20)
#    0.000    1.833    3.333    0.500    0.000    4.333 
#    0.000    5.833    0.000    4.500    0.000    0.000 
#    0.000    0.000    0.000    0.000    0.000    0.000 
#
# Total GULP energy -133673.253422 kJ/mol
# GULP energy per Si atom -5569.718893 kJ/mol
# Density = 2.060886 g / cm^3
# Si number density = 20.655879 Si / 1000 Ang^3
#
#
#
# Elastic Constant Matrix: (Units=GPa)
#
#
# Indices 1 2 3 4 5 6 
#
# 1 36.7314 4.1330 19.1769 0.0000 -17.7626 0.0000
# 2 4.1330 95.2610 53.7916 0.0000 -4.1334 0.0000
# 3 19.1769 53.7916 186.3787 0.0000 -15.7631 0.0000
# 4 0.0000 0.0000 0.0000 -15.5561 0.0000 5.1402
# 5 -17.7626 -4.1334 -15.7631 0.0000 37.5001 0.0000
# 6 0.0000 0.0000 0.0000 5.1402 0.0000 11.1726
#
#
#
# Elastic Compliance Matrix: (Units=1/GPa)
#
#
# Indices 1 2 3 4 5 6 
#
# 1 0.036316 0.000554 -0.002526 0.000000 0.016201 0.000000
# 2 0.000554 0.012551 -0.003671 0.000000 0.000103 0.000000
# 3 -0.002526 -0.003671 0.006791 0.000000 0.001253 0.000000
# 4 0.000000 0.000000 0.000000 -0.055800 0.000000 0.025673
# 5 0.016201 0.000103 0.001253 0.000000 0.034878 0.000000
# 6 0.000000 0.000000 0.000000 0.025673 0.000000 0.077694
#
#
# Mechanical properties :
#
#
# Convention : Reuss Voigt Hill
#
# Bulk Modulus (GPa) = 22.53728 52.50822 37.52275
# Shear Modulus (GPa) = 36.09988 22.70796 29.40392
#
# Velocity S-wave (km/s) = 4.18506 3.31924 3.77704
# Velocity P-wave (km/s) = 5.85555 6.33762 6.10135
#
# Compressibility (1/GPa) = 0.04437093
#
# Stress axis : x y z
#
# Youngs Moduli (GPa) = 27.53643 79.67750 147.25950
#
# Poissons Ratio (x) = -0.04413 0.37202
# Poissons Ratio (y) = -0.01525 0.54053
# Poissons Ratio (z) = 0.06956 0.29246
#
# Static dielectric constant tensor:
#      x y z
#    x 1.833890 0.000000 -0.249720 
#    y 0.000000 1.570400 0.000000 
#    z -0.249720 0.000000 2.702760 
# 
# From -- ./inp_files/76633.got.cif
#   From: 2010.05.17/outbox.cif.g08.bks.cpg/sg10_39_cif.got.tgz:76633.got - 2010.06.03 11:33:40.
