data_PCOD9147582
_publ_section_title
;
Structure prediction by ZEFSAII (Michael W. Deem and Ramdas Pophale) SiO2 
 PCOD9147582
Probable space group: P 2/M
;
_chemical_formula_sum "Si O2"
_cell_formula_units_Z 24
_cell_length_a 25.592032
_cell_length_b 7.814841
_cell_length_c 19.571270
_cell_angle_alpha 90.000000
_cell_angle_beta 161.137002
_cell_angle_gamma 90.000000
_cell_volume 1265.488422
_symmetry_space_group_name_H-M "P 2/M"
_symmetry_group_IT_number 10
_symmetry_cell_setting 'monoclinic'
loop_
_space_group_symop_operation_xyz
x,y,z
-x,y,-z
-x,-y,-z
x,-y,z
loop_
_atom_site_type_symbol
_atom_site_label
_atom_site_fract_x
_atom_site_fract_y
_atom_site_fract_z
Si Si1 0.592152 0.500000 0.006023
Si Si2 0.999258 0.807026 0.320720
Si Si3 0.166290 0.707252 0.171215
Si Si4 0.504211 0.200950 0.652700
Si Si5 0.187239 0.697919 0.041918
Si Si6 0.752645 0.500000 0.353399
Si Si7 0.671623 0.202506 0.999840
O O1 0.401700 0.500000 0.787676
O O2 0.639696 0.331934 0.021596
O O3 0.685471 0.500000 0.193270
O O4 0.136243 0.665998 0.497877
O O5 0.058800 0.000000 0.405341
O O6 0.918619 0.792636 0.145951
O O7 0.851062 0.774564 0.189968
O O8 0.169421 0.500000 0.174213
O O9 0.321746 0.765707 0.405748
O O10 0.175195 0.766096 0.103689
O O11 0.000000 0.763380 0.000000
O O12 0.628123 0.293639 0.755289
O O13 0.550061 0.247781 0.787011
O O14 0.540924 0.000000 0.691904
O O15 0.134195 0.500000 0.976022
O O16 0.652733 0.000000 0.993159
#
# Coordination Sequence:
#
# PCOD9147582 Si02
#       7
#     2   4   4   4   4   2   4
#     4  11  25  41  65  86 125 166 189 241 292 369
#     4  10  21  40  66  92 122 154 198 256 300 350
#     4  10  22  36  51  78 116 156 198 243 289 341
#     4  10  21  36  56  84 114 149 196 244 294 348
#     4  10  19  35  59  85 113 150 199 245 291 348
#     4  11  25  43  59  94 123 158 203 227 302 367
#     4   9  21  40  63  94 119 152 203 250 300 351
#
# _framework density 18.965008000000001
#
# number of rings (size 3 to 8) (size 9 to 14) (size 15 to 20)
#    0.000    2.000    0.833    3.000    4.667    7.667 
#    0.000    5.000    0.000    0.000    0.000    0.000 
#    0.000    0.000    0.000    0.000    0.000    0.000 
#
# Total GULP energy -134061.763129 kJ/mol
# GULP energy per Si atom -5585.906797 kJ/mol
# Density = 1.892184 g / cm^3
# Si number density = 18.965008 Si / 1000 Ang^3
#
#
#
# Elastic Constant Matrix: (Units=GPa)
#
#
# Indices 1 2 3 4 5 6 
#
# 1 957.9156 401.7869 325.4248 0.0000 -27.1575 0.0000
# 2 401.7869 237.5329 163.8301 0.0000 -4.6008 0.0000
# 3 325.4248 163.8301 208.3690 0.0000 1.4527 0.0000
# 4 0.0000 0.0000 0.0000 -5.6357 0.0000 3.5719
# 5 -27.1575 -4.6008 1.4527 0.0000 9.1627 0.0000
# 6 0.0000 0.0000 0.0000 3.5719 0.0000 -52.3209
#
#
#
# Elastic Compliance Matrix: (Units=1/GPa)
#
#
# Indices 1 2 3 4 5 6 
#
# 1 0.004987 -0.006047 -0.003120 0.000000 0.012239 0.000000
# 2 -0.006047 0.016845 -0.003739 0.000000 -0.008871 0.000000
# 3 -0.003120 -0.003739 0.012702 0.000000 -0.013137 0.000000
# 4 0.000000 0.000000 0.000000 -0.185467 0.000000 -0.012662
# 5 0.012239 -0.008871 -0.013137 0.000000 0.143042 0.000000
# 6 0.000000 0.000000 0.000000 -0.012662 0.000000 -0.019977
#
#
# Mechanical properties :
#
#
# Convention : Reuss Voigt Hill
#
# Bulk Modulus (GPa) = 114.62553 353.98901 234.30727
# Shear Modulus (GPa) = 5876.48672 24.42628 2950.45650
#
# Velocity S-wave (km/s) = 55.72541 3.59272 39.48562
# Velocity P-wave (km/s) = 64.81512 14.29228 46.93223
#
# Compressibility (1/GPa) = 0.00872406
#
# Stress axis : x y z
#
# Youngs Moduli (GPa) = 200.52390 59.36508 78.72534
#
# Poissons Ratio (x) = 0.35897 0.24559
# Poissons Ratio (y) = 1.21252 0.29434
# Poissons Ratio (z) = 0.62554 0.22195
#
# Static dielectric constant tensor:
#      x y z
#    x 1.641870 0.000000 -0.006460 
#    y 0.000000 1.680430 0.000000 
#    z -0.006460 0.000000 1.627510 
# 
# From -- ./inp_files/80140.got.cif
#   From: 2010.05.17/outbox.cif.g08.bks.cpg/sg10_41_cif.got.tgz:80140.got - 2010.06.03 11:33:40.
