data_PCOD9147318
_publ_section_title
;
Structure prediction by ZEFSAII (Michael W. Deem and Ramdas Pophale) SiO2 
 PCOD9147318
Probable space group: P 2/M
;
_chemical_formula_sum "Si O2"
_cell_formula_units_Z 26
_cell_length_a 14.503764
_cell_length_b 13.607779
_cell_length_c 9.416700
_cell_angle_alpha 90.000000
_cell_angle_beta 142.123138
_cell_angle_gamma 90.000000
_cell_volume 1141.067604
_symmetry_space_group_name_H-M "P 2/M"
_symmetry_group_IT_number 10
_symmetry_cell_setting 'monoclinic'
loop_
_space_group_symop_operation_xyz
x,y,z
-x,y,-z
-x,-y,-z
x,-y,z
loop_
_atom_site_type_symbol
_atom_site_label
_atom_site_fract_x
_atom_site_fract_y
_atom_site_fract_z
Si Si1 0.689106 0.883216 0.982698
Si Si2 0.581154 0.613697 0.349250
Si Si3 0.782280 0.390956 0.096039
Si Si4 0.035656 0.895604 0.353496
Si Si5 0.275668 0.737058 0.226565
Si Si6 0.000000 0.844810 0.000000
Si Si7 0.722652 0.741695 0.267438
O O1 0.634921 0.816049 0.049991
O O2 0.871309 0.879347 0.220174
O O3 0.646352 0.000000 0.927160
O O4 0.655063 0.822118 0.794624
O O5 0.637556 0.500000 0.414767
O O6 0.400843 0.606658 0.126632
O O7 0.625755 0.669684 0.548963
O O8 0.636728 0.676638 0.280672
O O9 0.842973 0.500000 0.166551
O O10 0.816512 0.330241 0.996856
O O11 0.813178 0.333149 0.276496
O O12 0.999065 0.902121 0.143740
O O13 0.154887 0.810889 0.513022
O O14 0.099691 0.000000 0.479569
O O15 0.153086 0.784390 0.179385
#
# Coordination Sequence:
#
# PCOD9147318 Si02
#       7
#     4   4   4   4   4   2   4
#     4   9  20  37  60  87 120 158 196 232 280 352
#     4  11  22  39  61  87 113 152 205 249 285 338
#     4  10  22  40  62  83 109 155 208 243 281 340
#     4  10  19  34  60  87 116 154 194 233 282 346
#     4  10  20  37  63  87 120 149 194 242 294 338
#     4  10  19  36  57  92 122 144 183 238 295 352
#     4  11  20  34  58  87 118 144 188 248 294 328
#
# _framework density 22.785678999999998
#
# number of rings (size 3 to 8) (size 9 to 14) (size 15 to 20)
#    0.000    1.846    1.538    3.000    0.000    4.308 
#    0.000    1.538    0.000   31.385    0.000    0.000 
#    0.000    0.000    0.000    0.000    0.000    0.000 
#
# Total GULP energy -145110.032339 kJ/mol
# GULP energy per Si atom -5581.155090 kJ/mol
# Density = 2.273382 g / cm^3
# Si number density = 22.785679 Si / 1000 Ang^3
#
#
#
# Elastic Constant Matrix: (Units=GPa)
#
#
# Indices 1 2 3 4 5 6 
#
# 1 99.6618 37.3363 17.7687 0.0000 -31.4420 0.0000
# 2 37.3363 182.3819 36.3523 0.0000 -18.4736 0.0000
# 3 17.7687 36.3523 60.3515 0.0000 -17.9376 0.0000
# 4 0.0000 0.0000 0.0000 457.2567 0.0000 770.6338
# 5 -31.4420 -18.4736 -17.9376 0.0000 36.6401 0.0000
# 6 0.0000 0.0000 0.0000 770.6338 0.0000 1545.8238
#
#
#
# Elastic Compliance Matrix: (Units=1/GPa)
#
#
# Indices 1 2 3 4 5 6 
#
# 1 0.014287 -0.001822 0.000307 0.000000 0.011492 0.000000
# 2 -0.001822 0.006537 -0.003378 0.000000 0.000079 0.000000
# 3 0.000307 -0.003378 0.021166 0.000000 0.008922 0.000000
# 4 0.000000 0.000000 0.000000 0.013684 0.000000 -0.006822
# 5 0.011492 0.000079 0.008922 0.000000 0.041562 0.000000
# 6 0.000000 0.000000 0.000000 -0.006822 0.000000 0.004048
#
#
# Mechanical properties :
#
#
# Convention : Reuss Voigt Hill
#
# Bulk Modulus (GPa) = 31.05204 58.36776 44.70990
# Shear Modulus (GPa) = 41.04909 424.67331 232.86120
#
# Velocity S-wave (km/s) = 4.24905 13.66682 10.12019
# Velocity P-wave (km/s) = 6.14248 16.57450 12.49888
#
# Compressibility (1/GPa) = 0.03220400
#
# Stress axis : x y z
#
# Youngs Moduli (GPa) = 69.99187 152.97006 47.24623
#
# Poissons Ratio (x) = 0.27870 -0.01448
# Poissons Ratio (y) = 0.12752 0.15959
# Poissons Ratio (z) = -0.02146 0.51670
#
# Static dielectric constant tensor:
#      x y z
#    x 2.090800 0.000000 -0.286050 
#    y 0.000000 1.903070 0.000000 
#    z -0.286050 0.000000 2.157720 
# 
# From -- ./inp_files/29817.got.cif
#   From: 2010.05.17/outbox.cif.g08.bks.cpg/sg10_15_cif.got.tgz:29817.got - 2010.06.03 11:33:40.
