data_PCOD9147125
_publ_section_title
;
Structure prediction by ZEFSAII (Michael W. Deem and Ramdas Pophale) SiO2 
 PCOD9147125
Probable space group: P 2/M
;
_chemical_formula_sum "Si O2"
_cell_formula_units_Z 20
_cell_length_a 13.718195
_cell_length_b 12.295539
_cell_length_c 7.128246
_cell_angle_alpha 90.000000
_cell_angle_beta 58.250798
_cell_angle_gamma 90.000000
_cell_volume 1022.421134
_symmetry_space_group_name_H-M "P 2/M"
_symmetry_group_IT_number 10
_symmetry_cell_setting 'monoclinic'
loop_
_space_group_symop_operation_xyz
x,y,z
-x,y,-z
-x,-y,-z
x,-y,z
loop_
_atom_site_type_symbol
_atom_site_label
_atom_site_fract_x
_atom_site_fract_y
_atom_site_fract_z
Si Si1 0.902604 0.000000 0.333054
Si Si2 0.786325 0.762269 0.917291
Si Si3 0.821821 0.000000 0.001041
Si Si4 0.042102 0.228989 0.740578
Si Si5 0.630584 0.374461 0.808352
Si Si6 0.238408 0.625939 0.684914
O O1 0.891041 0.124593 0.414861
O O2 0.825896 0.000000 0.222621
O O3 0.041911 0.000000 0.180685
O O4 0.770262 0.890467 0.969278
O O5 0.751523 0.699161 0.142328
O O6 0.712327 0.709555 0.830276
O O7 0.923570 0.744782 0.758150
O O8 0.127707 0.328281 0.684862
O O9 0.000000 0.198413 0.000000
O O10 0.661238 0.500000 0.827534
O O11 0.654211 0.364345 0.563154
O O12 0.500000 0.356956 0.000000
O O13 0.221868 0.500000 0.751282
#
# Coordination Sequence:
#
# PCOD9147125 Si02
#       6
#     2   4   2   4   4   4
#     4   9  10  26  49  79 111 142 170 205 242 316
#     4  10  19  34  57  82 109 141 172 214 265 317
#     4   9  14  28  54  82 108 142 174 202 257 318
#     4   9  15  27  51  83 110 137 168 205 259 321
#     4  10  23  41  56  73 101 140 189 232 260 303
#     4  10  20  33  54  82 107 138 174 215 271 322
#
# _framework density 19.561411
#
# number of rings (size 3 to 8) (size 9 to 14) (size 15 to 20)
#    0.000    2.400    6.000    0.600    0.000    6.000 
#    0.000    7.500    0.000    4.800    0.000    0.000 
#    0.000    0.000    0.000    0.000    0.000    0.000 
#
# Total GULP energy -111498.772051 kJ/mol
# GULP energy per Si atom -5574.938603 kJ/mol
# Density = 1.951689 g / cm^3
# Si number density = 19.561411 Si / 1000 Ang^3
#
#
#
# Elastic Constant Matrix: (Units=GPa)
#
#
# Indices 1 2 3 4 5 6 
#
# 1 28.4729 20.8089 12.4242 0.0000 12.1254 0.0000
# 2 20.8089 128.5000 45.2197 0.0000 8.1605 0.0000
# 3 12.4242 45.2197 76.0071 0.0000 -0.2973 0.0000
# 4 0.0000 0.0000 0.0000 7.5083 0.0000 3.7535
# 5 12.1254 8.1605 -0.2973 0.0000 14.7283 0.0000
# 6 0.0000 0.0000 0.0000 3.7535 0.0000 24.8164
#
#
#
# Elastic Compliance Matrix: (Units=1/GPa)
#
#
# Indices 1 2 3 4 5 6 
#
# 1 0.062739 -0.004226 -0.007935 0.000000 -0.049470 0.000000
# 2 -0.004226 0.010607 -0.005630 0.000000 -0.002512 0.000000
# 3 -0.007935 -0.005630 0.017842 0.000000 0.010012 0.000000
# 4 0.000000 0.000000 0.000000 0.144080 0.000000 -0.021792
# 5 -0.049470 -0.002512 0.010012 0.000000 0.110218 0.000000
# 6 0.000000 0.000000 0.000000 -0.021792 0.000000 0.043592
#
#
# Mechanical properties :
#
#
# Convention : Reuss Voigt Hill
#
# Bulk Modulus (GPa) = 17.98310 43.32065 30.65187
# Shear Modulus (GPa) = 11.28174 19.71240 15.49707
#
# Velocity S-wave (km/s) = 2.40414 3.17790 2.81771
# Velocity P-wave (km/s) = 4.11334 5.97155 5.12733
#
# Compressibility (1/GPa) = 0.05560777
#
# Stress axis : x y z
#
# Youngs Moduli (GPa) = 15.93902 94.27734 56.04711
#
# Poissons Ratio (x) = 0.39840 0.44472
# Poissons Ratio (y) = 0.06736 0.31552
# Poissons Ratio (z) = 0.12647 0.53074
#
# Static dielectric constant tensor:
#      x y z
#    x 1.666200 0.000000 0.059160 
#    y 0.000000 1.717990 0.000000 
#    z 0.059160 0.000000 1.772290 
# 
# From -- ./inp_files/27490.got.cif
#   From: 2010.05.17/outbox.cif.g08.bks.cpg/sg10_14_cif.got.tgz:27490.got - 2010.06.03 11:33:40.
