data_PCOD9147656
_publ_section_title
;
Structure prediction by ZEFSAII (Michael W. Deem and Ramdas Pophale) SiO2 
 PCOD9147656
Probable space group: P 2/M
;
_chemical_formula_sum "Si O2"
_cell_formula_units_Z 32
_cell_length_a 28.022389
_cell_length_b 7.820347
_cell_length_c 10.953602
_cell_angle_alpha 90.000000
_cell_angle_beta 31.161164
_cell_angle_gamma 90.000000
_cell_volume 1242.092972
_symmetry_space_group_name_H-M "P 2/M"
_symmetry_group_IT_number 10
_symmetry_cell_setting 'monoclinic'
loop_
_space_group_symop_operation_xyz
x,y,z
-x,y,-z
-x,-y,-z
x,-y,z
loop_
_atom_site_type_symbol
_atom_site_label
_atom_site_fract_x
_atom_site_fract_y
_atom_site_fract_z
Si Si1 0.562933 0.796134 0.980561
Si Si2 0.105431 0.302430 0.293584
Si Si3 0.395189 0.791150 0.743400
Si Si4 0.735792 0.689851 0.468323
Si Si5 0.773996 0.801682 0.744334
Si Si6 0.385331 0.206802 0.495398
Si Si7 0.945625 0.790066 0.237841
Si Si8 0.887805 0.195393 0.975680
O O1 0.665016 0.728528 0.732629
O O2 0.572893 0.000000 0.961354
O O3 0.500000 0.752424 0.000000
O O4 0.494134 0.748723 0.240382
O O5 0.102309 0.500000 0.338661
O O6 0.164027 0.204556 0.267302
O O7 0.148466 0.291547 0.063315
O O8 0.000000 0.241215 0.500000
O O9 0.500000 0.730816 0.500000
O O10 0.353967 0.753733 0.699898
O O11 0.399236 0.000000 0.747538
O O12 0.324778 0.726710 0.000482
O O13 0.771429 0.500000 0.401176
O O14 0.671490 0.708672 0.488234
O O15 0.822750 0.801819 0.237940
O O16 0.842450 0.728853 0.491425
O O17 0.757573 0.000000 0.747654
O O18 0.378127 0.000000 0.493243
O O19 0.012878 0.737971 0.200759
O O20 0.943857 0.000000 0.240056
O O21 0.000000 0.731620 0.000000
O O22 0.895463 0.000000 0.920351
#
# Coordination Sequence:
#
# PCOD9147656 Si02
#       8
#     4   4   4   4   4   4   4   4
#     4   8  15  29  48  71 101 139 179 218 268 326
#     4  11  22  35  56  87 121 149 182 236 295 352
#     4   9  18  33  54  84 112 138 181 237 286 331
#     4  11  21  32  50  79 113 144 183 229 281 339
#     4  10  19  35  61  87 115 153 193 235 291 350
#     4   9  17  32  53  77 109 144 183 230 281 339
#     4   9  19  36  56  83 113 145 191 241 280 329
#     4  11  21  35  56  81 115 149 186 233 283 340
#
# _framework density 25.762967
#
# number of rings (size 3 to 8) (size 9 to 14) (size 15 to 20)
#    0.000    2.250    1.250    3.375    0.000    3.750 
#    2.250    0.000    0.000    4.875    0.000    0.000 
#    0.000    0.000    0.000    0.000    0.000    0.000 
#
# Total GULP energy -178860.868151 kJ/mol
# GULP energy per Si atom -5589.402130 kJ/mol
# Density = 2.570433 g / cm^3
# Si number density = 25.762967 Si / 1000 Ang^3
#
#
#
# Elastic Constant Matrix: (Units=GPa)
#
#
# Indices 1 2 3 4 5 6 
#
# 1 71.5496 -2.8261 39.1238 0.0000 -1.8398 0.0000
# 2 -2.8261 42.8959 2.3549 0.0000 5.5299 0.0000
# 3 39.1238 2.3549 217.2961 0.0000 7.5502 0.0000
# 4 0.0000 0.0000 0.0000 14.6966 0.0000 -7.3728
# 5 -1.8398 5.5299 7.5502 0.0000 53.8207 0.0000
# 6 0.0000 0.0000 0.0000 -7.3728 0.0000 10.1140
#
#
#
# Elastic Compliance Matrix: (Units=1/GPa)
#
#
# Indices 1 2 3 4 5 6 
#
# 1 0.015598 0.001078 -0.002849 0.000000 0.000822 0.000000
# 2 0.001078 0.023706 -0.000369 0.000000 -0.002347 0.000000
# 3 -0.002849 -0.000369 0.005146 0.000000 -0.000781 0.000000
# 4 0.000000 0.000000 0.000000 0.107272 0.000000 0.078198
# 5 0.000822 -0.002347 -0.000781 0.000000 0.018959 0.000000
# 6 0.000000 0.000000 0.000000 0.078198 0.000000 0.155876
#
#
# Mechanical properties :
#
#
# Convention : Reuss Voigt Hill
#
# Bulk Modulus (GPa) = 24.89434 45.44965 35.17200
# Shear Modulus (GPa) = 14.52529 35.26552 24.89541
#
# Velocity S-wave (km/s) = 2.37703 3.70381 3.11195
# Velocity P-wave (km/s) = 4.14940 5.99755 5.15695
#
# Compressibility (1/GPa) = 0.04016977
#
# Stress axis : x y z
#
# Youngs Moduli (GPa) = 64.11216 42.18324 194.32381
#
# Poissons Ratio (x) = -0.04547 0.55355
# Poissons Ratio (y) = -0.06911 0.07179
# Poissons Ratio (z) = 0.18263 0.01558
#
# Static dielectric constant tensor:
#      x y z
#    x 2.058420 0.000000 0.011550 
#    y 0.000000 1.915260 0.000000 
#    z 0.011550 0.000000 2.092830 
# 
# From -- ./inp_files/58201.got.cif
#   From: 2010.05.17/outbox.cif.g08.bks.cpg/sg10_30_cif.got.tgz:58201.got - 2010.06.03 11:33:40.
