data_PCOD9147498
_publ_section_title
;
Structure prediction by ZEFSAII (Michael W. Deem and Ramdas Pophale) SiO2 
 PCOD9147498
Probable space group: P 2/M
;
_chemical_formula_sum "Si O2"
_cell_formula_units_Z 32
_cell_length_a 26.174438
_cell_length_b 8.000732
_cell_length_c 18.986995
_cell_angle_alpha 90.000000
_cell_angle_beta 157.444070
_cell_angle_gamma 90.000000
_cell_volume 1525.193906
_symmetry_space_group_name_H-M "P 2/M"
_symmetry_group_IT_number 10
_symmetry_cell_setting 'monoclinic'
loop_
_space_group_symop_operation_xyz
x,y,z
-x,y,-z
-x,-y,-z
x,-y,z
loop_
_atom_site_type_symbol
_atom_site_label
_atom_site_fract_x
_atom_site_fract_y
_atom_site_fract_z
Si Si1 0.177732 0.796293 0.433263
Si Si2 0.897004 0.808311 0.131378
Si Si3 0.868037 0.795536 0.787577
Si Si4 0.135990 0.696629 0.760699
Si Si5 0.819031 0.697366 0.334357
Si Si6 0.623449 0.807244 0.200544
Si Si7 0.601578 0.189336 0.526349
Si Si8 0.657027 0.684513 0.744417
O O1 0.144575 0.745157 0.310753
O O2 0.310610 0.735829 0.643615
O O3 0.048766 0.750024 0.315847
O O4 0.187139 0.000000 0.444933
O O5 0.841794 0.794878 0.139806
O O6 0.892152 0.000000 0.101240
O O7 0.799893 0.703302 0.959745
O O8 0.729670 0.741905 0.648351
O O9 0.871225 0.000000 0.793072
O O10 0.000000 0.741523 0.000000
O O11 0.164888 0.500000 0.808557
O O12 0.207859 0.750815 0.780486
O O13 0.977309 0.710721 0.545984
O O14 0.785597 0.500000 0.298726
O O15 0.741661 0.800110 0.293950
O O16 0.586084 0.000000 0.168488
O O17 0.500000 0.728652 0.000000
O O18 0.459930 0.282349 0.347942
O O19 0.642099 0.191372 0.660242
O O20 0.578676 0.000000 0.472811
O O21 0.641455 0.500000 0.694621
#
# Coordination Sequence:
#
# PCOD9147498 Si02
#       8
#     4   4   4   4   4   4   4   4
#     4   9  18  33  53  80 111 140 178 231 284 330
#     4  11  20  33  56  83 108 138 183 232 274 328
#     4   9  17  31  55  84 112 144 180 227 280 323
#     4   9  18  33  53  78 108 140 171 220 279 329
#     4   9  18  34  55  76 105 142 180 218 272 336
#     4  10  20  35  54  78 110 147 187 233 281 328
#     4  10  19  35  58  82 109 142 189 230 265 328
#     4  11  22  36  55  78 112 150 179 220 283 337
#
# _framework density 20.980937999999998
#
# number of rings (size 3 to 8) (size 9 to 14) (size 15 to 20)
#    0.000    2.250    1.250    4.125    0.000    2.750 
#    2.250    1.250    0.000    9.750    0.000    0.000 
#    0.000    0.000    0.000    0.000    0.000    0.000 
#
# Total GULP energy -178318.741185 kJ/mol
# GULP energy per Si atom -5572.460662 kJ/mol
# Density = 2.093318 g / cm^3
# Si number density = 20.980938 Si / 1000 Ang^3
#
#
#
# Elastic Constant Matrix: (Units=GPa)
#
#
# Indices 1 2 3 4 5 6 
#
# 1 90.3248 -5.4944 27.0312 0.0000 -10.5036 0.0000
# 2 -5.4944 23.8894 5.9431 0.0000 -1.8874 0.0000
# 3 27.0312 5.9431 107.6519 0.0000 -22.7112 0.0000
# 4 0.0000 0.0000 0.0000 2.2204 0.0000 -3.4666
# 5 -10.5036 -1.8874 -22.7112 0.0000 30.6006 0.0000
# 6 0.0000 0.0000 0.0000 -3.4666 0.0000 -11.8378
#
#
#
# Elastic Compliance Matrix: (Units=1/GPa)
#
#
# Indices 1 2 3 4 5 6 
#
# 1 0.012422 0.003748 -0.002819 0.000000 0.002403 0.000000
# 2 0.003748 0.043602 -0.002975 0.000000 0.001768 0.000000
# 3 -0.002819 -0.002975 0.011760 0.000000 0.007577 0.000000
# 4 0.000000 0.000000 0.000000 0.309060 0.000000 -0.090506
# 5 0.002403 0.001768 0.007577 0.000000 0.039236 0.000000
# 6 0.000000 0.000000 0.000000 -0.090506 0.000000 -0.057971
#
#
# Mechanical properties :
#
#
# Convention : Reuss Voigt Hill
#
# Bulk Modulus (GPa) = 15.70082 30.75842 23.22962
# Shear Modulus (GPa) = 13.04014 17.15572 15.09793
#
# Velocity S-wave (km/s) = 2.49574 2.86262 2.68545
# Velocity P-wave (km/s) = 3.97550 5.06143 4.55097
#
# Compressibility (1/GPa) = 0.06369092
#
# Stress axis : x y z
#
# Youngs Moduli (GPa) = 80.50061 22.93498 85.03531
#
# Poissons Ratio (x) = -0.08597 0.23973
# Poissons Ratio (y) = -0.30174 0.25301
# Poissons Ratio (z) = 0.22695 0.06824
#
# Static dielectric constant tensor:
#      x y z
#    x 1.762070 0.000000 -0.012730 
#    y 0.000000 1.753620 0.000000 
#    z -0.012730 0.000000 1.778100 
# 
# From -- ./inp_files/87009.got.cif
#   From: 2010.05.17/outbox.cif.g08.bks.cpg/sg10_44_cif.got.tgz:87009.got - 2010.06.03 11:33:40.
