data_PCOD9147546
_publ_section_title
;
Structure prediction by ZEFSAII (Michael W. Deem and Ramdas Pophale) SiO2 
 PCOD9147546
Probable space group: P 2/M
;
_chemical_formula_sum "Si O2"
_cell_formula_units_Z 32
_cell_length_a 14.174478
_cell_length_b 15.059472
_cell_length_c 7.482194
_cell_angle_alpha 90.000000
_cell_angle_beta 117.628229
_cell_angle_gamma 90.000000
_cell_volume 1415.035563
_symmetry_space_group_name_H-M "P 2/M"
_symmetry_group_IT_number 10
_symmetry_cell_setting 'monoclinic'
loop_
_space_group_symop_operation_xyz
x,y,z
-x,y,-z
-x,-y,-z
x,-y,z
loop_
_atom_site_type_symbol
_atom_site_label
_atom_site_fract_x
_atom_site_fract_y
_atom_site_fract_z
Si Si1 0.758848 0.400785 0.453522
Si Si2 0.733420 0.099964 0.923584
Si Si3 0.453336 0.782028 0.155311
Si Si4 0.847406 0.211527 0.525785
Si Si5 0.077093 0.785230 0.822872
Si Si6 0.907444 0.401904 0.263597
Si Si7 0.493473 0.404309 0.778859
Si Si8 0.354526 0.099843 0.551894
O O1 0.792009 0.500000 0.548039
O O2 0.812046 0.309261 0.564135
O O3 0.796607 0.400221 0.277798
O O4 0.632546 0.393328 0.368042
O O5 0.655457 0.165015 0.961412
O O6 0.676604 0.094576 0.682552
O O7 0.743874 0.000000 0.005154
O O8 0.845117 0.149719 0.006116
O O9 0.444714 0.683449 0.229617
O O10 0.541227 0.841131 0.331205
O O11 0.500000 0.769209 0.000000
O O12 0.883056 0.213220 0.349624
O O13 0.748055 0.146492 0.452904
O O14 0.954924 0.185576 0.722638
O O15 0.084929 0.679696 0.865013
O O16 0.920626 0.500000 0.197331
O O17 0.000000 0.391934 0.500000
O O18 0.530776 0.500000 0.740496
O O19 0.500000 0.409575 0.000000
O O20 0.373275 0.000000 0.637026
#
# Coordination Sequence:
#
# PCOD9147546 Si02
#       8
#     4   4   4   4   4   4   4   4
#     4   9  15  27  49  80 118 152 183 225 281 344
#     4  11  26  43  58  79 113 159 198 237 294 358
#     4  11  22  38  66  92 115 143 190 242 291 336
#     4  10  19  35  58  89 115 146 193 243 291 332
#     4  10  20  35  58  87 122 146 191 246 291 332
#     4   9  15  26  50  84 118 149 182 228 284 336
#     4   9  18  30  50  87 123 148 177 222 283 345
#     4  11  24  42  61  81 110 152 198 239 292 358
#
# _framework density 22.614273000000001
#
# number of rings (size 3 to 8) (size 9 to 14) (size 15 to 20)
#    0.000    2.000    3.750    1.500    5.250    4.500 
#    0.000    2.500    0.000    3.750    0.000    1.750 
#    0.000    0.000    0.000    0.000    0.000    0.000 
#
# Total GULP energy -178654.370414 kJ/mol
# GULP energy per Si atom -5582.949075 kJ/mol
# Density = 2.256280 g / cm^3
# Si number density = 22.614273 Si / 1000 Ang^3
#
#
#
# Elastic Constant Matrix: (Units=GPa)
#
#
# Indices 1 2 3 4 5 6 
#
# 1 62.8619 44.2313 8.2603 0.0000 15.5084 0.0000
# 2 44.2313 193.4940 36.5581 0.0000 28.1287 0.0000
# 3 8.2603 36.5581 46.1653 0.0000 22.1804 0.0000
# 4 0.0000 0.0000 0.0000 17.5325 0.0000 16.3386
# 5 15.5084 28.1287 22.1804 0.0000 32.4729 0.0000
# 6 0.0000 0.0000 0.0000 16.3386 0.0000 -4.2894
#
#
#
# Elastic Compliance Matrix: (Units=1/GPa)
#
#
# Indices 1 2 3 4 5 6 
#
# 1 0.020485 -0.004125 0.003847 0.000000 -0.008838 0.000000
# 2 -0.004125 0.007103 -0.004283 0.000000 -0.001258 0.000000
# 3 0.003847 -0.004283 0.034927 0.000000 -0.021984 0.000000
# 4 0.000000 0.000000 0.000000 0.012537 0.000000 0.047752
# 5 -0.008838 -0.001258 -0.021984 0.000000 0.051122 0.000000
# 6 0.000000 0.000000 0.000000 0.047752 0.000000 -0.051241
#
#
# Mechanical properties :
#
#
# Convention : Reuss Voigt Hill
#
# Bulk Modulus (GPa) = 18.72833 53.40228 36.06531
# Shear Modulus (GPa) = 49.09196 23.37462 36.23329
#
# Velocity S-wave (km/s) = 4.66428 3.21849 4.00713
# Velocity P-wave (km/s) = 6.10794 6.12186 6.11491
#
# Compressibility (1/GPa) = 0.05339504
#
# Stress axis : x y z
#
# Youngs Moduli (GPa) = 48.81590 140.78592 28.63141
#
# Poissons Ratio (x) = 0.58072 -0.11016
# Poissons Ratio (y) = 0.20136 0.12261
# Poissons Ratio (z) = -0.18782 0.60292
#
# Static dielectric constant tensor:
#      x y z
#    x 1.841040 0.000000 -0.031740 
#    y 0.000000 1.918900 0.000000 
#    z -0.031740 0.000000 1.879220 
# 
# From -- ./inp_files/29525.got.cif
#   From: 2010.05.17/outbox.cif.g08.bks.cpg/sg10_15_cif.got.tgz:29525.got - 2010.06.03 11:33:40.
