data_PCOD9147882
_publ_section_title
;
Structure prediction by ZEFSAII (Michael W. Deem and Ramdas Pophale) SiO2 
 PCOD9147882
Probable space group: P 2/M
;
_chemical_formula_sum "Si O2"
_cell_formula_units_Z 25
_cell_length_a 16.191553
_cell_length_b 7.479493
_cell_length_c 15.265558
_cell_angle_alpha 90.000000
_cell_angle_beta 141.283277
_cell_angle_gamma 90.000000
_cell_volume 1156.325550
_symmetry_space_group_name_H-M "P 2/M"
_symmetry_group_IT_number 10
_symmetry_cell_setting 'monoclinic'
loop_
_space_group_symop_operation_xyz
x,y,z
-x,y,-z
-x,-y,-z
x,-y,z
loop_
_atom_site_type_symbol
_atom_site_label
_atom_site_fract_x
_atom_site_fract_y
_atom_site_fract_z
Si Si1 0.504485 0.783906 0.602596
Si Si2 0.805142 0.214252 0.901846
Si Si3 0.336086 0.210070 0.620156
Si Si4 0.047168 0.706907 0.445403
Si Si5 0.464092 0.780956 0.067599
Si Si6 0.828158 0.784527 0.120101
Si Si7 0.000000 0.500000 0.000000
O O1 0.500000 0.714215 0.500000
O O2 0.648185 0.752380 0.764015
O O3 0.388867 0.717465 0.571289
O O4 0.491228 0.000000 0.585024
O O5 0.885475 0.341445 0.904443
O O6 0.825250 0.000000 0.904974
O O7 0.852970 0.265793 0.039721
O O8 0.183313 0.222952 0.517896
O O9 0.426791 0.282518 0.773407
O O10 0.366677 0.000000 0.642246
O O11 0.074833 0.500000 0.485493
O O12 0.000000 0.786404 0.500000
O O13 0.933991 0.723586 0.278806
O O14 0.463847 0.000000 0.067318
O O15 0.500000 0.723383 0.000000
O O16 0.317994 0.724097 0.974086
O O17 0.828679 0.000000 0.122153
#
# Coordination Sequence:
#
# PCOD9147882 Si02
#       7
#     4   4   4   4   4   4   1
#     4   9  18  37  65  93 126 164 208 267 329 386
#     4  10  22  43  66  95 132 169 217 272 325 389
#     4  10  19  36  62  90 119 159 213 262 317 382
#     4  11  25  41  56  86 133 174 210 263 326 388
#     4   9  16  29  56  90 117 148 200 261 315 376
#     4  10  20  38  64  88 121 166 207 261 323 377
#     4  12  26  40  66  98 128 176 220 268 328 390
#
# _framework density 21.62021
#
# number of rings (size 3 to 8) (size 9 to 14) (size 15 to 20)
#    0.000    2.080    1.600    1.680    1.120    3.840 
#    1.440    4.400    0.000    2.880    0.000    0.000 
#    0.000    0.000    0.000    0.000    0.000    0.160 
#
# Total GULP energy -139341.573344 kJ/mol
# GULP energy per Si atom -5573.662934 kJ/mol
# Density = 2.157100 g / cm^3
# Si number density = 21.620210 Si / 1000 Ang^3
#
#
#
# Elastic Constant Matrix: (Units=GPa)
#
#
# Indices 1 2 3 4 5 6 
#
# 1 93.8668 15.9450 58.0688 0.0000 -4.4150 0.0000
# 2 15.9450 71.8105 -3.6805 0.0000 1.0715 0.0000
# 3 58.0688 -3.6805 118.6325 0.0000 -7.1044 0.0000
# 4 0.0000 0.0000 0.0000 266.8588 0.0000 160.2022
# 5 -4.4150 1.0715 -7.1044 0.0000 38.5374 0.0000
# 6 0.0000 0.0000 0.0000 160.2022 0.0000 107.7763
#
#
#
# Elastic Compliance Matrix: (Units=1/GPa)
#
#
# Indices 1 2 3 4 5 6 
#
# 1 0.016389 -0.004063 -0.008119 0.000000 0.000494 0.000000
# 2 -0.004063 0.014958 0.002427 0.000000 -0.000434 0.000000
# 3 -0.008119 0.002427 0.012558 0.000000 0.001317 0.000000
# 4 0.000000 0.000000 0.000000 0.034808 0.000000 -0.051739
# 5 0.000494 -0.000434 0.001317 0.000000 0.026260 0.000000
# 6 0.000000 0.000000 0.000000 -0.051739 0.000000 0.086185
#
#
# Mechanical properties :
#
#
# Convention : Reuss Voigt Hill
#
# Bulk Modulus (GPa) = 40.99047 47.21961 44.10504
# Shear Modulus (GPa) = 22.85190 96.89961 59.87575
#
# Velocity S-wave (km/s) = 3.25463 6.70196 5.26825
# Velocity P-wave (km/s) = 5.75535 9.04302 7.57959
#
# Compressibility (1/GPa) = 0.02439592
#
# Stress axis : x y z
#
# Youngs Moduli (GPa) = 61.01566 66.85181 79.63320
#
# Poissons Ratio (x) = 0.27159 0.64652
# Poissons Ratio (y) = 0.24788 -0.19324
# Poissons Ratio (z) = 0.49537 -0.16223
#
# Static dielectric constant tensor:
#      x y z
#    x 1.811070 0.000000 -0.030040 
#    y 0.000000 1.723070 0.000000 
#    z -0.030040 0.000000 1.739450 
# 
# From -- ./inp_files/66720.got.cif
#   From: 2010.05.17/outbox.cif.g08.bks.cpg/sg10_34_cif.got.tgz:66720.got - 2010.06.03 11:33:40.
