data_PCOD9147502
_publ_section_title
;
Structure prediction by ZEFSAII (Michael W. Deem and Ramdas Pophale) SiO2 
 PCOD9147502
Probable space group: P 2/M
;
_chemical_formula_sum "Si O2"
_cell_formula_units_Z 24
_cell_length_a 12.021540
_cell_length_b 14.576590
_cell_length_c 13.950460
_cell_angle_alpha 90.000000
_cell_angle_beta 30.102939
_cell_angle_gamma 90.000000
_cell_volume 1226.092500
_symmetry_space_group_name_H-M "P 2/M"
_symmetry_group_IT_number 10
_symmetry_cell_setting 'monoclinic'
loop_
_space_group_symop_operation_xyz
x,y,z
-x,y,-z
-x,-y,-z
x,-y,z
loop_
_atom_site_type_symbol
_atom_site_label
_atom_site_fract_x
_atom_site_fract_y
_atom_site_fract_z
Si Si1 0.993838 0.793792 0.811338
Si Si2 0.127496 0.396509 0.777448
Si Si3 0.301922 0.895745 0.726288
Si Si4 0.480823 0.397530 0.674953
Si Si5 0.452409 0.891601 0.923398
Si Si6 0.612012 0.209917 0.637369
O O1 0.976080 0.688349 0.859474
O O2 0.098128 0.849773 0.822799
O O3 0.176490 0.797004 0.589839
O O4 0.773827 0.840200 0.936131
O O5 0.034418 0.500000 0.846362
O O6 0.254075 0.381127 0.784122
O O7 0.326978 0.395833 0.550147
O O8 0.500000 0.898083 0.500000
O O9 0.407222 0.836650 0.732574
O O10 0.257367 0.000000 0.789327
O O11 0.476765 0.500000 0.718556
O O12 0.545138 0.316058 0.697549
O O13 0.634837 0.844434 0.718992
O O14 0.436801 0.000000 0.914138
O O15 0.500000 0.880396 0.000000
#
# Coordination Sequence:
#
# PCOD9147502 Si02
#       6
#     4   4   4   4   4   4
#     4  10  19  35  58  82 112 145 174 218 277 329
#     4   8  13  25  50  84 118 147 174 207 256 325
#     4   9  16  27  48  80 110 136 169 209 264 332
#     4   8  13  25  50  84 118 147 174 207 256 325
#     4  11  26  43  56  75 102 139 195 244 270 312
#     4  10  19  35  58  82 112 145 174 218 277 329
#
# _framework density 19.574380000000001
#
# number of rings (size 3 to 8) (size 9 to 14) (size 15 to 20)
#    0.000    2.667    1.667    2.000    0.000    3.333 
#    0.000    4.167    0.000    4.000    0.000    4.667 
#    0.000    0.000    0.000    0.000    0.000    0.000 
#
# Total GULP energy -134071.228448 kJ/mol
# GULP energy per Si atom -5586.301185 kJ/mol
# Density = 1.952983 g / cm^3
# Si number density = 19.574380 Si / 1000 Ang^3
#
#
#
# Elastic Constant Matrix: (Units=GPa)
#
#
# Indices 1 2 3 4 5 6 
#
# 1 63.4748 54.5603 19.7842 0.0000 15.4100 0.0000
# 2 54.5603 168.2572 24.0965 0.0000 12.2454 0.0000
# 3 19.7842 24.0965 77.1080 0.0000 8.6375 0.0000
# 4 0.0000 0.0000 0.0000 14.8779 0.0000 4.3626
# 5 15.4100 12.2454 8.6375 0.0000 23.8505 0.0000
# 6 0.0000 0.0000 0.0000 4.3626 0.0000 20.3412
#
#
#
# Elastic Compliance Matrix: (Units=1/GPa)
#
#
# Indices 1 2 3 4 5 6 
#
# 1 0.025599 -0.007002 -0.003054 0.000000 -0.011839 0.000000
# 2 -0.007002 0.008295 -0.000860 0.000000 0.000577 0.000000
# 3 -0.003054 -0.000860 0.014332 0.000000 -0.002776 0.000000
# 4 0.000000 0.000000 0.000000 0.071725 0.000000 -0.015383
# 5 -0.011839 0.000577 -0.002776 0.000000 0.050286 0.000000
# 6 0.000000 0.000000 0.000000 -0.015383 0.000000 0.052460
#
#
# Mechanical properties :
#
#
# Convention : Reuss Voigt Hill
#
# Bulk Modulus (GPa) = 37.88754 56.19134 47.03944
# Shear Modulus (GPa) = 19.73732 25.84050 22.78891
#
# Velocity S-wave (km/s) = 3.17886 3.63729 3.41577
# Velocity P-wave (km/s) = 5.73334 6.81239 6.29603
#
# Compressibility (1/GPa) = 0.02639390
#
# Stress axis : x y z
#
# Youngs Moduli (GPa) = 39.06431 120.55451 69.77330
#
# Poissons Ratio (x) = 0.84411 0.21308
# Poissons Ratio (y) = 0.27352 0.06002
# Poissons Ratio (z) = 0.11930 0.10371
#
# Static dielectric constant tensor:
#      x y z
#    x 1.624310 0.000000 0.030930 
#    y 0.000000 1.694170 0.000000 
#    z 0.030930 0.000000 1.796150 
# 
# From -- ./inp_files/51678.got.cif
#   From: 2010.05.17/outbox.cif.g08.bks.cpg/sg10_26_cif.got.tgz:51678.got - 2010.06.03 11:33:40.
