data_PCOD9147317
_publ_section_title
;
Structure prediction by ZEFSAII (Michael W. Deem and Ramdas Pophale) SiO2 
 PCOD9147317
Probable space group: P 2/M
;
_chemical_formula_sum "Si O2"
_cell_formula_units_Z 30
_cell_length_a 11.727681
_cell_length_b 16.980885
_cell_length_c 9.544039
_cell_angle_alpha 90.000000
_cell_angle_beta 122.205973
_cell_angle_gamma 90.000000
_cell_volume 1608.220782
_symmetry_space_group_name_H-M "P 2/M"
_symmetry_group_IT_number 10
_symmetry_cell_setting 'monoclinic'
loop_
_space_group_symop_operation_xyz
x,y,z
-x,y,-z
-x,-y,-z
x,-y,z
loop_
_atom_site_type_symbol
_atom_site_label
_atom_site_fract_x
_atom_site_fract_y
_atom_site_fract_z
Si Si1 0.541959 0.712515 0.374808
Si Si2 0.695467 0.588907 0.837973
Si Si3 0.984161 0.212747 0.149156
Si Si4 0.000000 0.371851 0.500000
Si Si5 0.222367 0.679559 0.859854
Si Si6 0.173785 0.643423 0.358586
Si Si7 0.616993 0.810934 0.168509
Si Si8 0.111424 0.909466 0.693977
O O1 0.500000 0.742259 0.500000
O O2 0.423783 0.652725 0.252272
O O3 0.680215 0.663194 0.481923
O O4 0.565153 0.784361 0.285395
O O5 0.645334 0.500000 0.789156
O O6 0.799278 0.604455 0.776350
O O7 0.752963 0.601878 0.032865
O O8 0.098921 0.272884 0.280062
O O9 0.848831 0.264093 0.074472
O O10 0.959705 0.137121 0.226990
O O11 0.000000 0.191321 0.000000
O O12 0.119691 0.328251 0.662353
O O13 0.083862 0.402810 0.417032
O O14 0.347760 0.727480 0.883735
O O15 0.753423 0.861719 0.258787
O O16 0.500000 0.850057 0.000000
O O17 0.000000 0.907687 0.500000
O O18 0.144030 0.000000 0.747914
#
# Coordination Sequence:
#
# PCOD9147317 Si02
#       8
#     4   4   4   2   4   4   4   4
#     4  10  21  35  58  86 114 150 207 243 290 350
#     4  11  23  40  58  80 120 159 194 252 314 356
#     4  10  19  34  60  87 114 153 192 239 282 347
#     4  10  20  34  61  80 111 148 198 254 282 356
#     4  10  20  36  56  89 114 149 199 241 298 354
#     4  10  20  36  58  88 114 153 201 246 291 351
#     4  11  20  36  63  87 117 153 199 248 287 352
#     4  10  23  39  59  91 126 157 188 236 306 359
#
# _framework density 18.654154999999999
#
# number of rings (size 3 to 8) (size 9 to 14) (size 15 to 20)
#    0.000    1.733    4.000    0.800    6.533    2.933 
#    0.000    8.000    0.000    0.400    0.000    0.000 
#    0.000    0.000    0.000    0.000    0.000    0.000 
#
# Total GULP energy -167064.858418 kJ/mol
# GULP energy per Si atom -5568.828614 kJ/mol
# Density = 1.861170 g / cm^3
# Si number density = 18.654155 Si / 1000 Ang^3
#
#
#
# Elastic Constant Matrix: (Units=GPa)
#
#
# Indices 1 2 3 4 5 6 
#
# 1 102.8085 33.0461 41.6880 0.0000 -8.7774 0.0000
# 2 33.0461 91.4504 38.3222 0.0000 -13.9081 0.0000
# 3 41.6880 38.3222 85.9621 0.0000 -8.1956 0.0000
# 4 0.0000 0.0000 0.0000 5.7881 0.0000 -12.3095
# 5 -8.7774 -13.9081 -8.1956 0.0000 33.9100 0.0000
# 6 0.0000 0.0000 0.0000 -12.3095 0.0000 13.6378
#
#
#
# Elastic Compliance Matrix: (Units=1/GPa)
#
#
# Indices 1 2 3 4 5 6 
#
# 1 0.012574 -0.002292 -0.004970 0.000000 0.001114 0.000000
# 2 -0.002292 0.014464 -0.004942 0.000000 0.004145 0.000000
# 3 -0.004970 -0.004942 0.016306 0.000000 0.000628 0.000000
# 4 0.000000 0.000000 0.000000 -0.187885 0.000000 -0.169585
# 5 0.001114 0.004145 0.000628 0.000000 0.031630 0.000000
# 6 0.000000 0.000000 0.000000 -0.169585 0.000000 -0.079741
#
#
# Mechanical properties :
#
#
# Convention : Reuss Voigt Hill
#
# Bulk Modulus (GPa) = 52.80506 56.25927 54.53217
# Shear Modulus (GPa) = -30.87688 21.81148 -4.53270
#
# Velocity S-wave (km/s) = -4.07286 3.42315 -1.56049
# Velocity P-wave (km/s) = 2.50025 6.77115 5.10391
#
# Compressibility (1/GPa) = 0.01893758
#
# Stress axis : x y z
#
# Youngs Moduli (GPa) = 79.53054 69.13653 61.32658
#
# Poissons Ratio (x) = 0.15843 0.30479
# Poissons Ratio (y) = 0.18225 0.30306
# Poissons Ratio (z) = 0.39527 0.34165
#
# Static dielectric constant tensor:
#      x y z
#    x 1.695840 0.000000 0.000760 
#    y 0.000000 1.610200 0.000000 
#    z 0.000760 0.000000 1.708280 
# 
# From -- ./inp_files/25873.got.cif
#   From: 2010.05.17/outbox.cif.g08.bks.cpg/sg10_13_cif.got.tgz:25873.got - 2010.06.03 11:33:40.
