data_PCOD9147533
_publ_section_title
;
Structure prediction by ZEFSAII (Michael W. Deem and Ramdas Pophale) SiO2 
 PCOD9147533
Probable space group: P 2/M
;
_chemical_formula_sum "Si O2"
_cell_formula_units_Z 26
_cell_length_a 11.733170
_cell_length_b 16.093008
_cell_length_c 7.689273
_cell_angle_alpha 90.000000
_cell_angle_beta 65.731707
_cell_angle_gamma 90.000000
_cell_volume 1323.600406
_symmetry_space_group_name_H-M "P 2/M"
_symmetry_group_IT_number 10
_symmetry_cell_setting 'monoclinic'
loop_
_space_group_symop_operation_xyz
x,y,z
-x,y,-z
-x,-y,-z
x,-y,z
loop_
_atom_site_type_symbol
_atom_site_label
_atom_site_fract_x
_atom_site_fract_y
_atom_site_fract_z
Si Si1 0.110231 0.291716 0.061543
Si Si2 0.584571 0.096991 0.113879
Si Si3 0.058312 0.407841 0.653338
Si Si4 0.865194 0.090466 0.364836
Si Si5 0.245003 0.732148 0.656509
Si Si6 0.500000 0.796106 0.500000
Si Si7 0.146991 0.871219 0.220184
O O1 0.231681 0.293915 0.866404
O O2 0.127764 0.227880 0.207779
O O3 0.000000 0.259388 0.000000
O O4 0.057081 0.379299 0.153899
O O5 0.547937 0.148541 0.308068
O O6 0.558233 0.000000 0.163263
O O7 0.500000 0.122620 0.000000
O O8 0.729924 0.105708 0.965230
O O9 0.105174 0.500000 0.667043
O O10 0.160138 0.334741 0.609886
O O11 0.000000 0.408293 0.500000
O O12 0.806525 0.173457 0.323912
O O13 0.841589 0.100836 0.587262
O O14 0.014501 0.092222 0.240608
O O15 0.815629 0.000000 0.339325
O O16 0.385975 0.739378 0.508452
#
# Coordination Sequence:
#
# PCOD9147533 Si02
#       7
#     4   4   4   4   4   2   4
#     4  10  19  35  58  86 118 148 186 246 310 371
#     4  11  24  40  58  83 120 174 233 275 312 366
#     4  10  21  40  70 100 122 150 192 255 328 390
#     4  11  22  35  58  87 118 161 207 260 321 372
#     4  11  23  40  59  88 126 161 207 255 312 373
#     4  12  25  42  59  86 124 180 220 264 310 372
#     4  11  19  37  56  82 118 159 203 263 315 368
#
# _framework density 19.64339
#
# number of rings (size 3 to 8) (size 9 to 14) (size 15 to 20)
#    0.000    1.231    4.615    3.923    0.000    5.231 
#    0.000    1.154    0.000    0.000    0.000    2.154 
#    0.000    0.000    0.000    0.000    0.000    0.000 
#
# Total GULP energy -145102.767398 kJ/mol
# GULP energy per Si atom -5580.875669 kJ/mol
# Density = 1.959868 g / cm^3
# Si number density = 19.643390 Si / 1000 Ang^3
#
#
#
# Elastic Constant Matrix: (Units=GPa)
#
#
# Indices 1 2 3 4 5 6 
#
# 1 60.5008 47.1876 35.9460 0.0000 -15.6420 0.0000
# 2 47.1876 128.7325 35.2123 0.0000 -1.0346 0.0000
# 3 35.9460 35.2123 102.3018 0.0000 -16.6507 0.0000
# 4 0.0000 0.0000 0.0000 13.2498 0.0000 -1.9120
# 5 -15.6420 -1.0346 -16.6507 0.0000 31.0711 0.0000
# 6 0.0000 0.0000 0.0000 -1.9120 0.0000 7.3772
#
#
#
# Elastic Compliance Matrix: (Units=1/GPa)
#
#
# Indices 1 2 3 4 5 6 
#
# 1 0.030277 -0.009524 -0.005402 0.000000 0.012030 0.000000
# 2 -0.009524 0.011629 -0.001505 0.000000 -0.005214 0.000000
# 3 -0.005402 -0.001505 0.012862 0.000000 0.004123 0.000000
# 4 0.000000 0.000000 0.000000 0.078405 0.000000 0.020320
# 5 0.012030 -0.005214 0.004123 0.000000 0.040276 0.000000
# 6 0.000000 0.000000 0.000000 0.020320 0.000000 0.140819
#
#
# Mechanical properties :
#
#
# Convention : Reuss Voigt Hill
#
# Bulk Modulus (GPa) = 45.64975 58.69189 52.17082
# Shear Modulus (GPa) = 14.10710 21.88558 17.99634
#
# Velocity S-wave (km/s) = 2.68276 3.34150 3.03008
# Velocity P-wave (km/s) = 5.73463 6.69560 6.23366
#
# Compressibility (1/GPa) = 0.02190593
#
# Stress axis : x y z
#
# Youngs Moduli (GPa) = 33.02872 85.99400 77.74687
#
# Poissons Ratio (x) = 0.81898 0.42002
# Poissons Ratio (y) = 0.31456 0.11700
# Poissons Ratio (z) = 0.17843 0.12941
#
# Static dielectric constant tensor:
#      x y z
#    x 1.731130 0.000000 0.008040 
#    y 0.000000 1.698930 0.000000 
#    z 0.008040 0.000000 1.746260 
# 
# From -- ./inp_files/24802.got.cif
#   From: 2010.05.17/outbox.cif.g08.bks.cpg/sg10_13_cif.got.tgz:24802.got - 2010.06.03 11:33:40.
