data_PCOD9147890
_publ_section_title
;
Structure prediction by ZEFSAII (Michael W. Deem and Ramdas Pophale) SiO2 
 PCOD9147890
Probable space group: P 2/M
;
_chemical_formula_sum "Si O2"
_cell_formula_units_Z 32
_cell_length_a 30.690604
_cell_length_b 7.583018
_cell_length_c 12.882715
_cell_angle_alpha 90.000000
_cell_angle_beta 151.430845
_cell_angle_gamma 90.000000
_cell_volume 1433.777847
_symmetry_space_group_name_H-M "P 2/M"
_symmetry_group_IT_number 10
_symmetry_cell_setting 'monoclinic'
loop_
_space_group_symop_operation_xyz
x,y,z
-x,y,-z
-x,-y,-z
x,-y,z
loop_
_atom_site_type_symbol
_atom_site_label
_atom_site_fract_x
_atom_site_fract_y
_atom_site_fract_z
Si Si1 0.605646 0.285998 0.962311
Si Si2 0.794877 0.215971 0.094307
Si Si3 0.542190 0.293982 0.194185
Si Si4 0.777969 0.293736 0.459803
Si Si5 0.102179 0.784127 0.896234
Si Si6 0.400203 0.200954 0.283381
Si Si7 0.751030 0.201485 0.632078
Si Si8 0.897431 0.213155 0.515420
O O1 0.609080 0.500000 0.955360
O O2 0.510370 0.227455 0.814216
O O3 0.620802 0.201487 0.882869
O O4 0.685434 0.234591 0.208865
O O5 0.862467 0.267135 0.143469
O O6 0.833338 0.273955 0.286271
O O7 0.791453 0.000000 0.089004
O O8 0.691273 0.278231 0.857871
O O9 0.516768 0.500000 0.139560
O O10 0.650405 0.282011 0.422386
O O11 0.500000 0.215758 0.000000
O O12 0.766867 0.500000 0.458607
O O13 0.788853 0.206478 0.594113
O O14 0.857508 0.268216 0.542654
O O15 0.000247 0.726114 0.709480
O O16 0.100143 0.000000 0.894091
O O17 0.175462 0.722610 0.134557
O O18 0.500000 0.286706 0.500000
O O19 0.409352 0.000000 0.342233
O O20 0.736423 0.000000 0.633508
O O21 0.896870 0.000000 0.512254
#
# Coordination Sequence:
#
# PCOD9147890 Si02
#       8
#     4   4   4   4   4   4   4   4
#     4  10  21  37  57  78 109 152 192 228 276 339
#     4   9  17  33  57  85 114 147 185 227 283 344
#     4  10  20  38  58  78 109 150 187 224 274 333
#     4  11  22  39  60  82 115 154 191 238 287 336
#     4   9  20  36  56  85 119 149 183 236 297 342
#     4  10  21  34  54  86 119 145 179 235 288 332
#     4  11  23  37  57  87 118 150 189 237 285 340
#     4  10  19  36  63  88 108 143 196 243 281 340
#
# _framework density 22.318662
#
# number of rings (size 3 to 8) (size 9 to 14) (size 15 to 20)
#    0.000    2.000    2.500    1.125    1.750    3.500 
#    0.000    3.750    0.000    3.750    0.000    0.000 
#    0.000    0.000    0.000    0.000    0.000    0.000 
#
# Total GULP energy -178771.623133 kJ/mol
# GULP energy per Si atom -5586.613223 kJ/mol
# Density = 2.226786 g / cm^3
# Si number density = 22.318662 Si / 1000 Ang^3
#
#
#
# Elastic Constant Matrix: (Units=GPa)
#
#
# Indices 1 2 3 4 5 6 
#
# 1 117.2992 -14.0288 18.1917 0.0000 31.4514 0.0000
# 2 -14.0288 48.2898 -6.4374 0.0000 0.4977 0.0000
# 3 18.1917 -6.4374 79.0002 0.0000 24.5458 0.0000
# 4 0.0000 0.0000 0.0000 8.1900 0.0000 3.0704
# 5 31.4514 0.4977 24.5458 0.0000 40.5190 0.0000
# 6 0.0000 0.0000 0.0000 3.0704 0.0000 457.7916
#
#
#
# Elastic Compliance Matrix: (Units=1/GPa)
#
#
# Indices 1 2 3 4 5 6 
#
# 1 0.011306 0.003447 0.000514 0.000000 -0.009129 0.000000
# 2 0.003447 0.022070 0.002365 0.000000 -0.004380 0.000000
# 3 0.000514 0.002365 0.015849 0.000000 -0.010029 0.000000
# 4 0.000000 0.000000 0.000000 0.122407 0.000000 -0.000821
# 5 -0.009129 -0.004380 -0.010029 0.000000 0.037895 0.000000
# 6 0.000000 0.000000 0.000000 -0.000821 0.000000 0.002190
#
#
# Mechanical properties :
#
#
# Convention : Reuss Voigt Hill
#
# Bulk Modulus (GPa) = 16.16102 26.67112 21.41607
# Shear Modulus (GPa) = 22.75938 117.75771 70.25854
#
# Velocity S-wave (km/s) = 3.19681 7.27163 5.61677
# Velocity P-wave (km/s) = 4.56978 9.08175 7.18892
#
# Compressibility (1/GPa) = 0.06187730
#
# Stress axis : x y z
#
# Youngs Moduli (GPa) = 88.45194 45.31005 63.09695
#
# Poissons Ratio (x) = -0.15619 -0.03243
# Poissons Ratio (y) = -0.30490 -0.14925
# Poissons Ratio (z) = -0.04547 -0.10718
#
# Static dielectric constant tensor:
#      x y z
#    x 1.800240 0.000000 0.016420 
#    y 0.000000 1.850460 0.000000 
#    z 0.016420 0.000000 1.808560 
# 
# From -- ./inp_files/49807.got.cif
#   From: 2010.05.17/outbox.cif.g08.bks.cpg/sg10_25_cif.got.tgz:49807.got - 2010.06.03 11:33:40.
