data_PCOD9147361
_publ_section_title
;
Structure prediction by ZEFSAII (Michael W. Deem and Ramdas Pophale) SiO2 
 PCOD9147361
Probable space group: P 2/M
;
_chemical_formula_sum "Si O2"
_cell_formula_units_Z 32
_cell_length_a 19.747838
_cell_length_b 11.474604
_cell_length_c 9.193300
_cell_angle_alpha 90.000000
_cell_angle_beta 60.661842
_cell_angle_gamma 90.000000
_cell_volume 1816.005848
_symmetry_space_group_name_H-M "P 2/M"
_symmetry_group_IT_number 10
_symmetry_cell_setting 'monoclinic'
loop_
_space_group_symop_operation_xyz
x,y,z
-x,y,-z
-x,-y,-z
x,-y,z
loop_
_atom_site_type_symbol
_atom_site_label
_atom_site_fract_x
_atom_site_fract_y
_atom_site_fract_z
Si Si1 0.585318 0.706453 0.733150
Si Si2 0.155811 0.135049 0.010726
Si Si3 0.162599 0.136492 0.654066
Si Si4 0.702252 0.291670 0.166639
Si Si5 0.741952 0.372892 0.432555
Si Si6 0.999689 0.140478 0.335181
Si Si7 0.586583 0.131259 0.472792
Si Si8 0.412902 0.631202 0.957436
O O1 0.655452 0.633362 0.590269
O O2 0.585851 0.823576 0.638250
O O3 0.499417 0.652188 0.804628
O O4 0.597819 0.715204 0.892775
O O5 0.075699 0.178124 0.166093
O O6 0.169223 0.000000 0.039765
O O7 0.150269 0.136681 0.841173
O O8 0.228267 0.216060 0.973926
O O9 0.217841 0.248931 0.565496
O O10 0.081355 0.162359 0.659990
O O11 0.186413 0.000000 0.592209
O O12 0.736075 0.368243 0.262980
O O13 0.643246 0.207296 0.314914
O O14 0.651707 0.353282 0.096914
O O15 0.776482 0.500000 0.438093
O O16 0.000000 0.185253 0.500000
O O17 0.005674 0.000000 0.335188
O O18 0.500000 0.138966 0.500000
O O19 0.614685 0.000000 0.436944
O O20 0.409673 0.500000 0.020011
#
# Coordination Sequence:
#
# PCOD9147361 Si02
#       8
#     4   4   4   4   4   4   4   4
#     4  10  21  36  53  75 100 138 182 220 272 318
#     4   9  17  31  51  75 104 134 170 213 257 311
#     4   9  18  33  55  78 104 136 171 211 263 318
#     4  10  20  33  53  79 103 137 180 219 270 317
#     4  10  20  34  54  79 107 137 180 226 269 318
#     4   9  17  30  51  79 105 132 170 214 257 307
#     4  10  19  35  54  74 104 137 173 219 269 321
#     4  11  21  36  53  71 102 138 180 229 271 318
#
# _framework density 17.621089000000001
#
# number of rings (size 3 to 8) (size 9 to 14) (size 15 to 20)
#    0.000    2.250    1.250    2.625    0.000    5.500 
#    0.000    4.375    0.000    7.125    0.000    0.000 
#    0.000    0.000    0.000    0.000    0.000    0.000 
#
# Total GULP energy -178204.185115 kJ/mol
# GULP energy per Si atom -5568.880785 kJ/mol
# Density = 1.758098 g / cm^3
# Si number density = 17.621089 Si / 1000 Ang^3
#
#
#
# Elastic Constant Matrix: (Units=GPa)
#
#
# Indices 1 2 3 4 5 6 
#
# 1 84.6706 23.3891 24.4729 0.0000 -9.5472 0.0000
# 2 23.3891 84.2052 20.4503 0.0000 -7.3727 0.0000
# 3 24.4729 20.4503 48.8977 0.0000 -7.7742 0.0000
# 4 0.0000 0.0000 0.0000 6.5477 0.0000 -0.4260
# 5 -9.5472 -7.3727 -7.7742 0.0000 17.1328 0.0000
# 6 0.0000 0.0000 0.0000 -0.4260 0.0000 11.1289
#
#
#
# Elastic Compliance Matrix: (Units=1/GPa)
#
#
# Indices 1 2 3 4 5 6 
#
# 1 0.014582 -0.002285 -0.005612 0.000000 0.004596 0.000000
# 2 -0.002285 0.013766 -0.004175 0.000000 0.002756 0.000000
# 3 -0.005612 -0.004175 0.026106 0.000000 0.006922 0.000000
# 4 0.000000 0.000000 0.000000 0.153108 0.000000 0.005861
# 5 0.004596 0.002756 0.006922 0.000000 0.065255 0.000000
# 6 0.000000 0.000000 0.000000 0.005861 0.000000 0.090081
#
#
# Mechanical properties :
#
#
# Convention : Reuss Voigt Hill
#
# Bulk Modulus (GPa) = 32.99288 39.37755 36.18522
# Shear Modulus (GPa) = 12.58986 16.92596 14.75791
#
# Velocity S-wave (km/s) = 2.67587 3.10264 2.89712
# Velocity P-wave (km/s) = 5.32083 5.93553 5.63656
#
# Compressibility (1/GPa) = 0.03030957
#
# Stress axis : x y z
#
# Youngs Moduli (GPa) = 68.57815 72.64386 38.30493
#
# Poissons Ratio (x) = 0.16599 0.21496
# Poissons Ratio (y) = 0.15670 0.15994
# Poissons Ratio (z) = 0.38484 0.30332
#
# Static dielectric constant tensor:
#      x y z
#    x 1.607010 0.000000 0.001090 
#    y 0.000000 1.618440 0.000000 
#    z 0.001090 0.000000 1.593590 
# 
# From -- ./inp_files/34604.got.cif
#   From: 2010.05.17/outbox.cif.g08.bks.cpg/sg10_18_cif.got.tgz:34604.got - 2010.06.03 11:33:40.
