data_PCOD9147805
_publ_section_title
;
Structure prediction by ZEFSAII (Michael W. Deem and Ramdas Pophale) SiO2 
 PCOD9147805
Probable space group: P 2/M
;
_chemical_formula_sum "Si O2"
_cell_formula_units_Z 32
_cell_length_a 9.450447
_cell_length_b 13.696232
_cell_length_c 27.727910
_cell_angle_alpha 90.000000
_cell_angle_beta 28.445061
_cell_angle_gamma 90.000000
_cell_volume 1709.486379
_symmetry_space_group_name_H-M "P 2/M"
_symmetry_group_IT_number 10
_symmetry_cell_setting 'monoclinic'
loop_
_space_group_symop_operation_xyz
x,y,z
-x,y,-z
-x,-y,-z
x,-y,z
loop_
_atom_site_type_symbol
_atom_site_label
_atom_site_fract_x
_atom_site_fract_y
_atom_site_fract_z
Si Si1 0.011310 0.388211 0.050387
Si Si2 0.585447 0.891238 0.030875
Si Si3 0.514974 0.886383 0.569443
Si Si4 0.466418 0.110054 0.691733
Si Si5 0.877524 0.114328 0.661943
Si Si6 0.873644 0.790385 0.759466
Si Si7 0.708992 0.613687 0.868469
Si Si8 0.990692 0.263328 0.136128
O O1 0.912141 0.500000 0.076090
O O2 0.353711 0.387029 0.966425
O O3 0.831614 0.335583 0.146514
O O4 0.000000 0.344952 0.000000
O O5 0.318657 0.852872 0.144199
O O6 0.678014 0.000000 0.018528
O O7 0.500000 0.896859 0.000000
O O8 0.834743 0.808626 0.952913
O O9 0.619470 0.881843 0.593896
O O10 0.785134 0.859128 0.453831
O O11 0.214673 0.825031 0.657084
O O12 0.441821 0.000000 0.581553
O O13 0.683808 0.120282 0.671684
O O14 0.220193 0.192975 0.770474
O O15 0.331914 0.000000 0.733977
O O16 0.762007 0.181314 0.739719
O O17 0.872935 0.000000 0.678518
O O18 0.839340 0.678330 0.785682
O O19 0.801847 0.500000 0.843448
O O20 0.814325 0.673277 0.884526
#
# Coordination Sequence:
#
# PCOD9147805 Si02
#       8
#     4   4   4   4   4   4   4   4
#     4  10  22  38  57  81 111 149 195 244 287 330
#     4  11  20  31  49  79 117 150 181 216 268 332
#     4  10  19  36  60  85 114 149 191 233 279 338
#     4  10  21  36  56  86 122 155 188 223 274 345
#     4  10  22  37  57  86 119 150 186 236 284 333
#     4  12  21  36  56  85 111 151 191 240 283 334
#     4  11  23  39  58  82 110 145 195 245 284 328
#     4  12  20  36  57  84 114 157 190 228 275 336
#
# _framework density 18.719073000000002
#
# number of rings (size 3 to 8) (size 9 to 14) (size 15 to 20)
#    0.000    1.250    3.750    3.000    1.750    5.500 
#    0.000    0.000    0.000    4.500    0.000    0.875 
#    0.000    0.000    0.000    0.000    0.000    0.000 
#
# Total GULP energy -178551.114459 kJ/mol
# GULP energy per Si atom -5579.722327 kJ/mol
# Density = 1.867647 g / cm^3
# Si number density = 18.719073 Si / 1000 Ang^3
#
#
#
# Elastic Constant Matrix: (Units=GPa)
#
#
# Indices 1 2 3 4 5 6 
#
# 1 89.0707 20.9731 14.2204 0.0000 23.6220 0.0000
# 2 20.9731 111.5857 36.1055 0.0000 14.2164 0.0000
# 3 14.2204 36.1055 69.3834 0.0000 18.8495 0.0000
# 4 0.0000 0.0000 0.0000 8.5345 0.0000 -0.3430
# 5 23.6220 14.2164 18.8495 0.0000 27.9804 0.0000
# 6 0.0000 0.0000 0.0000 -0.3430 0.0000 24.3375
#
#
#
# Elastic Compliance Matrix: (Units=1/GPa)
#
#
# Indices 1 2 3 4 5 6 
#
# 1 0.014697 -0.001561 0.001169 0.000000 -0.012403 0.000000
# 2 -0.001561 0.011041 -0.005214 0.000000 -0.000780 0.000000
# 3 0.001169 -0.005214 0.020116 0.000000 -0.011890 0.000000
# 4 0.000000 0.000000 0.000000 0.117239 0.000000 0.001652
# 5 -0.012403 -0.000780 -0.011890 0.000000 0.054616 0.000000
# 6 0.000000 0.000000 0.000000 0.001652 0.000000 0.041112
#
#
# Mechanical properties :
#
#
# Convention : Reuss Voigt Hill
#
# Bulk Modulus (GPa) = 28.86479 45.84864 37.35671
# Shear Modulus (GPa) = 17.75694 25.41988 21.58841
#
# Velocity S-wave (km/s) = 3.08328 3.68906 3.39969
# Velocity P-wave (km/s) = 5.30367 6.53389 5.95066
#
# Compressibility (1/GPa) = 0.03464429
#
# Stress axis : x y z
#
# Youngs Moduli (GPa) = 68.04097 90.56754 49.71087
#
# Poissons Ratio (x) = 0.14134 -0.05813
# Poissons Ratio (y) = 0.10619 0.25919
# Poissons Ratio (z) = -0.07956 0.47222
#
# Static dielectric constant tensor:
#      x y z
#    x 1.715660 0.000000 -0.000870 
#    y 0.000000 1.697120 0.000000 
#    z -0.000870 0.000000 1.646480 
# 
# From -- ./inp_files/92367.got.cif
#   From: 2010.05.17/outbox.cif.g08.bks.cpg/sg10_47_cif.got.tgz:92367.got - 2010.06.03 11:33:40.
