data_PCOD9147144
_publ_section_title
;
Structure prediction by ZEFSAII (Michael W. Deem and Ramdas Pophale) SiO2 
 PCOD9147144
Probable space group: P 2/M
;
_chemical_formula_sum "Si O2"
_cell_formula_units_Z 32
_cell_length_a 13.254859
_cell_length_b 8.516487
_cell_length_c 27.823576
_cell_angle_alpha 90.000000
_cell_angle_beta 148.008429
_cell_angle_gamma 90.000000
_cell_volume 1664.010227
_symmetry_space_group_name_H-M "P 2/M"
_symmetry_group_IT_number 10
_symmetry_cell_setting 'monoclinic'
loop_
_space_group_symop_operation_xyz
x,y,z
-x,y,-z
-x,-y,-z
x,-y,z
loop_
_atom_site_type_symbol
_atom_site_label
_atom_site_fract_x
_atom_site_fract_y
_atom_site_fract_z
Si Si1 0.344988 0.690611 0.574491
Si Si2 0.327043 0.317296 0.358910
Si Si3 0.430786 0.812182 0.714964
Si Si4 0.011820 0.318533 0.147403
Si Si5 0.930674 0.689691 0.373074
Si Si6 0.004421 0.310160 0.709916
Si Si7 0.286732 0.185398 0.904424
Si Si8 0.145984 0.810196 0.099908
O O1 0.356507 0.500000 0.579221
O O2 0.476759 0.748508 0.583333
O O3 0.417153 0.749791 0.654961
O O4 0.125991 0.736076 0.478502
O O5 0.365493 0.500000 0.386799
O O6 0.183453 0.312188 0.255367
O O7 0.198288 0.250647 0.350255
O O8 0.253974 0.752121 0.674536
O O9 0.634541 0.762953 0.819242
O O10 0.425106 0.000000 0.711138
O O11 0.953294 0.500000 0.120266
O O12 0.840384 0.218821 0.100122
O O13 0.081185 0.255432 0.124837
O O14 0.922286 0.500000 0.370023
O O15 0.949873 0.741952 0.325457
O O16 0.991730 0.500000 0.704794
O O17 0.172074 0.263507 0.814229
O O18 0.296328 0.000000 0.898808
O O19 0.500000 0.244945 0.000000
O O20 0.140077 0.000000 0.099276
O O21 0.000000 0.756974 0.000000
#
# Coordination Sequence:
#
# PCOD9147144 Si02
#       8
#     4   4   4   4   4   4   4   4
#     4  10  19  35  59  84 111 148 191 231 280 340
#     4   8  15  30  55  82 107 137 175 224 273 326
#     4  11  23  38  57  80 111 150 191 238 283 334
#     4  10  19  34  57  83 109 139 180 233 282 328
#     4  10  22  37  56  82 116 154 188 232 283 337
#     4   9  19  36  55  82 115 145 186 235 284 330
#     4  10  21  36  56  81 110 149 190 225 273 338
#     4  10  22  39  57  80 110 146 187 232 286 344
#
# _framework density 19.230651000000002
#
# number of rings (size 3 to 8) (size 9 to 14) (size 15 to 20)
#    0.000    2.250    1.250    2.250    0.000    5.750 
#    0.000    6.250    0.000    0.000    0.000    3.500 
#    0.000    0.000    0.000    0.000    0.000    0.000 
#
# Total GULP energy -178549.830716 kJ/mol
# GULP energy per Si atom -5579.682210 kJ/mol
# Density = 1.918688 g / cm^3
# Si number density = 19.230651 Si / 1000 Ang^3
#
#
#
# Elastic Constant Matrix: (Units=GPa)
#
#
# Indices 1 2 3 4 5 6 
#
# 1 94.0321 10.3992 47.4642 0.0000 14.9618 0.0000
# 2 10.3992 6.3374 17.8415 0.0000 0.9319 0.0000
# 3 47.4642 17.8415 110.7934 0.0000 16.3933 0.0000
# 4 0.0000 0.0000 0.0000 19.0307 0.0000 5.0379
# 5 14.9618 0.9319 16.3933 0.0000 24.5584 0.0000
# 6 0.0000 0.0000 0.0000 5.0379 0.0000 13.6633
#
#
#
# Elastic Compliance Matrix: (Units=1/GPa)
#
#
# Indices 1 2 3 4 5 6 
#
# 1 0.014827 -0.014987 -0.002980 0.000000 -0.006475 0.000000
# 2 -0.014987 0.315226 -0.048736 0.000000 0.029701 0.000000
# 3 -0.002980 -0.048736 0.019538 0.000000 -0.009377 0.000000
# 4 0.000000 0.000000 0.000000 0.058230 0.000000 -0.021471
# 5 -0.006475 0.029701 -0.009377 0.000000 0.049796 0.000000
# 6 0.000000 0.000000 0.000000 -0.021471 0.000000 0.081106
#
#
# Mechanical properties :
#
#
# Convention : Reuss Voigt Hill
#
# Bulk Modulus (GPa) = 4.62569 40.28584 22.45576
# Shear Modulus (GPa) = 6.71870 20.48101 13.59985
#
# Velocity S-wave (km/s) = 1.87118 3.26700 2.66220
# Velocity P-wave (km/s) = 2.66064 5.93509 4.59915
#
# Compressibility (1/GPa) = 0.21618403
#
# Stress axis : x y z
#
# Youngs Moduli (GPa) = 67.44578 3.17232 51.18165
#
# Poissons Ratio (x) = 0.04754 0.15254
# Poissons Ratio (y) = 1.01081 2.49440
# Poissons Ratio (z) = 0.20101 0.15461
#
# Static dielectric constant tensor:
#      x y z
#    x 1.659500 0.000000 0.015140 
#    y 0.000000 1.662170 0.000000 
#    z 0.015140 0.000000 1.674530 
# 
# From -- ./inp_files/95068.got.cif
#   From: 2010.05.17/outbox.cif.g08.bks.cpg/sg10_48_cif.got.tgz:95068.got - 2010.06.03 11:33:40.
