data_PCOD9147790
_publ_section_title
;
Structure prediction by ZEFSAII (Michael W. Deem and Ramdas Pophale) SiO2 
 PCOD9147790
Probable space group: P 2/M
;
_chemical_formula_sum "Si O2"
_cell_formula_units_Z 32
_cell_length_a 11.373731
_cell_length_b 19.396364
_cell_length_c 15.227378
_cell_angle_alpha 90.000000
_cell_angle_beta 28.482104
_cell_angle_gamma 90.000000
_cell_volume 1601.995827
_symmetry_space_group_name_H-M "P 2/M"
_symmetry_group_IT_number 10
_symmetry_cell_setting 'monoclinic'
loop_
_space_group_symop_operation_xyz
x,y,z
-x,y,-z
-x,-y,-z
x,-y,z
loop_
_atom_site_type_symbol
_atom_site_label
_atom_site_fract_x
_atom_site_fract_y
_atom_site_fract_z
Si Si1 0.380875 0.824014 0.664500
Si Si2 0.413319 0.688065 0.269129
Si Si3 0.247325 0.078169 0.898777
Si Si4 0.806151 0.279317 0.419780
Si Si5 0.282075 0.575445 0.214301
Si Si6 0.776741 0.422097 0.082524
Si Si7 0.145274 0.794378 0.067628
Si Si8 0.916580 0.425142 0.296739
O O1 0.500000 0.859188 0.500000
O O2 0.408456 0.875319 0.727758
O O3 0.556289 0.760328 0.564687
O O4 0.103631 0.795416 0.830474
O O5 0.195702 0.714895 0.473844
O O6 0.315530 0.641189 0.253674
O O7 0.560667 0.631957 0.230838
O O8 0.621836 0.745567 0.109095
O O9 0.325674 0.000000 0.864675
O O10 0.216347 0.125348 0.006011
O O11 0.000000 0.073759 0.000000
O O12 0.789535 0.351621 0.379371
O O13 0.034312 0.235723 0.230752
O O14 0.293408 0.500000 0.253232
O O15 0.042905 0.575746 0.309775
O O16 0.500000 0.576778 0.000000
O O17 0.700386 0.500000 0.154331
O O18 0.879789 0.421828 0.914894
O O19 0.000000 0.403564 0.000000
O O20 0.791064 0.500000 0.367738
#
# Coordination Sequence:
#
# PCOD9147790 Si02
#       8
#     4   4   4   4   4   4   4   4
#     4   9  19  32  53  81 116 158 193 231 291 346
#     4  12  22  33  60  78 107 152 189 235 292 347
#     4   9  17  32  55  81 113 156 195 232 280 343
#     4  11  22  34  53  82 108 151 197 233 289 348
#     4  10  19  36  60  81 107 148 197 246 306 353
#     4  10  21  34  52  77 105 144 189 234 284 335
#     4  10  20  36  52  77 116 148 189 235 279 347
#     4  10  21  39  56  77 113 151 193 254 295 334
#
# _framework density 19.975083000000001
#
# number of rings (size 3 to 8) (size 9 to 14) (size 15 to 20)
#    0.000    1.875    3.750    0.375    1.750    2.750 
#    0.000    3.125    0.000    5.625    0.000    0.000 
#    0.000    6.500    0.000    0.125    0.000    0.000 
#
# Total GULP energy -178294.768560 kJ/mol
# GULP energy per Si atom -5571.711518 kJ/mol
# Density = 1.992962 g / cm^3
# Si number density = 19.975083 Si / 1000 Ang^3
#
#
#
# Elastic Constant Matrix: (Units=GPa)
#
#
# Indices 1 2 3 4 5 6 
#
# 1 51.3636 27.2194 18.0886 0.0000 10.8965 0.0000
# 2 27.2194 152.6246 58.5708 0.0000 8.3497 0.0000
# 3 18.0886 58.5708 91.9369 0.0000 25.3187 0.0000
# 4 0.0000 0.0000 0.0000 47.6123 0.0000 10.5436
# 5 10.8965 8.3497 25.3187 0.0000 25.9241 0.0000
# 6 0.0000 0.0000 0.0000 10.5436 0.0000 23.1777
#
#
#
# Elastic Compliance Matrix: (Units=1/GPa)
#
#
# Indices 1 2 3 4 5 6 
#
# 1 0.023240 -0.003757 0.000243 0.000000 -0.008796 0.000000
# 2 -0.003757 0.009527 -0.006730 0.000000 0.005084 0.000000
# 3 0.000243 -0.006730 0.019900 0.000000 -0.017370 0.000000
# 4 0.000000 0.000000 0.000000 0.023356 0.000000 -0.010625
# 5 -0.008796 0.005084 -0.017370 0.000000 0.057599 0.000000
# 6 0.000000 0.000000 0.000000 -0.010625 0.000000 0.047978
#
#
# Mechanical properties :
#
#
# Convention : Reuss Voigt Hill
#
# Bulk Modulus (GPa) = 31.07522 55.96474 43.51998
# Shear Modulus (GPa) = 23.49472 32.14590 27.82031
#
# Velocity S-wave (km/s) = 3.43330 4.01596 3.73601
# Velocity P-wave (km/s) = 5.59531 7.04145 6.35962
#
# Compressibility (1/GPa) = 0.03217999
#
# Stress axis : x y z
#
# Youngs Moduli (GPa) = 43.02871 104.96921 50.25047
#
# Poissons Ratio (x) = 0.39435 -0.01222
# Poissons Ratio (y) = 0.16165 0.33819
# Poissons Ratio (z) = -0.01047 0.70644
#
# Static dielectric constant tensor:
#      x y z
#    x 1.768650 0.000000 0.038150 
#    y 0.000000 1.732540 0.000000 
#    z 0.038150 0.000000 1.798510 
# 
# From -- ./inp_files/65374.got.cif
#   From: 2010.05.17/outbox.cif.g08.bks.cpg/sg10_33_cif.got.tgz:65374.got - 2010.06.03 11:33:40.
