data_PCOD9147323
_publ_section_title
;
Structure prediction by ZEFSAII (Michael W. Deem and Ramdas Pophale) SiO2 
 PCOD9147323
Probable space group: P 2/M
;
_chemical_formula_sum "Si O2"
_cell_formula_units_Z 24
_cell_length_a 12.390516
_cell_length_b 9.064531
_cell_length_c 11.795985
_cell_angle_alpha 90.000000
_cell_angle_beta 111.056187
_cell_angle_gamma 90.000000
_cell_volume 1236.394195
_symmetry_space_group_name_H-M "P 2/M"
_symmetry_group_IT_number 10
_symmetry_cell_setting 'monoclinic'
loop_
_space_group_symop_operation_xyz
x,y,z
-x,y,-z
-x,-y,-z
x,-y,z
loop_
_atom_site_type_symbol
_atom_site_label
_atom_site_fract_x
_atom_site_fract_y
_atom_site_fract_z
Si Si1 0.720588 0.176543 0.397740
Si Si2 0.621632 0.328994 0.981594
Si Si3 0.470637 0.324979 0.304339
Si Si4 0.821899 0.824234 0.192849
Si Si5 0.251664 0.677175 0.361057
Si Si6 0.027936 0.677501 0.138788
O O1 0.589522 0.237073 0.344649
O O2 0.785575 0.220355 0.306583
O O3 0.775811 0.245270 0.531181
O O4 0.719787 0.000000 0.404001
O O5 0.658242 0.500000 0.011496
O O6 0.596250 0.306418 0.839898
O O7 0.500000 0.308828 0.000000
O O8 0.717866 0.225437 0.071210
O O9 0.496812 0.500000 0.326867
O O10 0.380068 0.281082 0.367333
O O11 0.936649 0.747317 0.190385
O O12 0.835211 0.000000 0.195412
O O13 0.250983 0.500000 0.374999
O O14 0.156680 0.713972 0.230026
O O15 0.016372 0.500000 0.136801
O O16 0.000000 0.726453 0.000000
#
# Coordination Sequence:
#
# PCOD9147323 Si02
#       6
#     4   4   4   4   4   4
#     4  11  24  39  56  84 123 161 196 238 289 348
#     4  10  19  34  60  89 116 151 194 242 294 344
#     4  10  20  37  61  89 119 151 195 247 296 347
#     4  11  24  39  58  87 124 160 195 240 292 350
#     4  10  22  39  61  87 115 152 197 246 294 344
#     4  10  22  43  68  90 115 148 194 248 296 349
#
# _framework density 19.411286
#
# number of rings (size 3 to 8) (size 9 to 14) (size 15 to 20)
#    0.000    1.667    1.667    2.500    0.000   10.000 
#    0.000    5.000    0.000    0.000    0.000    0.000 
#    0.000    0.000    0.000    0.000    0.000    0.000 
#
# Total GULP energy -134142.880710 kJ/mol
# GULP energy per Si atom -5589.286696 kJ/mol
# Density = 1.936710 g / cm^3
# Si number density = 19.411286 Si / 1000 Ang^3
#
#
#
# Elastic Constant Matrix: (Units=GPa)
#
#
# Indices 1 2 3 4 5 6 
#
# 1 104.6897 34.7559 53.6156 0.0000 -13.0332 0.0000
# 2 34.7559 20.8136 26.5444 0.0000 -2.9709 0.0000
# 3 53.6156 26.5444 87.2046 0.0000 -4.7612 0.0000
# 4 0.0000 0.0000 0.0000 8.2576 0.0000 -23.1431
# 5 -13.0332 -2.9709 -4.7612 0.0000 24.8990 0.0000
# 6 0.0000 0.0000 0.0000 -23.1431 0.0000 -3.8400
#
#
#
# Elastic Compliance Matrix: (Units=1/GPa)
#
#
# Indices 1 2 3 4 5 6 
#
# 1 0.023540 -0.033172 -0.003960 0.000000 0.007607 0.000000
# 2 -0.033172 0.125862 -0.018235 0.000000 -0.005833 0.000000
# 3 -0.003960 -0.018235 0.019423 0.000000 -0.000535 0.000000
# 4 0.000000 0.000000 0.000000 0.006769 0.000000 -0.040794
# 5 0.007607 -0.005833 -0.000535 0.000000 0.043346 0.000000
# 6 0.000000 0.000000 0.000000 -0.040794 0.000000 -0.014556
#
#
# Mechanical properties :
#
#
# Convention : Reuss Voigt Hill
#
# Bulk Modulus (GPa) = 17.21443 49.17106 33.19275
# Shear Modulus (GPa) = 14.94848 12.38278 13.66563
#
# Velocity S-wave (km/s) = 2.77806 2.52844 2.65619
# Velocity P-wave (km/s) = 4.37923 5.82324 5.15208
#
# Compressibility (1/GPa) = 0.05809078
#
# Stress axis : x y z
#
# Youngs Moduli (GPa) = 42.48061 7.94523 51.48406
#
# Poissons Ratio (x) = 0.26356 0.20390
# Poissons Ratio (y) = 1.40918 0.93879
# Poissons Ratio (z) = 0.16824 0.14488
#
# Static dielectric constant tensor:
#      x y z
#    x 1.666360 0.000000 -0.000970 
#    y 0.000000 1.646590 0.000000 
#    z -0.000970 0.000000 1.688570 
# 
# From -- ./inp_files/45305.got.cif
#   From: 2010.05.17/outbox.cif.g08.bks.cpg/sg10_23_cif.got.tgz:45305.got - 2010.06.03 11:33:40.
