data_PCOD9147526
_publ_section_title
;
Structure prediction by ZEFSAII (Michael W. Deem and Ramdas Pophale) SiO2 
 PCOD9147526
Probable space group: P 2/M
;
_chemical_formula_sum "Si O2"
_cell_formula_units_Z 28
_cell_length_a 19.335157
_cell_length_b 18.232256
_cell_length_c 10.997958
_cell_angle_alpha 90.000000
_cell_angle_beta 156.173138
_cell_angle_gamma 90.000000
_cell_volume 1566.223779
_symmetry_space_group_name_H-M "P 2/M"
_symmetry_group_IT_number 10
_symmetry_cell_setting 'monoclinic'
loop_
_space_group_symop_operation_xyz
x,y,z
-x,y,-z
-x,-y,-z
x,-y,z
loop_
_atom_site_type_symbol
_atom_site_label
_atom_site_fract_x
_atom_site_fract_y
_atom_site_fract_z
Si Si1 0.487848 0.641180 0.127130
Si Si2 0.990977 0.780239 0.781953
Si Si3 0.510237 0.915429 0.870469
Si Si4 0.084178 0.640267 0.503529
Si Si5 0.911171 0.914940 0.487286
Si Si6 0.994854 0.500000 0.787269
Si Si7 0.287343 0.779960 0.450063
Si Si8 0.289191 0.500000 0.456928
O O1 0.576498 0.714857 0.318215
O O2 0.593429 0.571718 0.345487
O O3 0.500000 0.641187 0.000000
O O4 0.289628 0.636843 0.843200
O O5 0.965160 0.714914 0.645191
O O6 0.982220 0.857482 0.698545
O O7 0.836716 0.776782 0.631668
O O8 0.165501 0.771503 0.137975
O O9 0.385358 0.857121 0.609049
O O10 0.464286 0.000000 0.770413
O O11 0.500000 0.905161 0.000000
O O12 0.706902 0.903134 0.149133
O O13 0.022439 0.571915 0.322966
O O14 0.000000 0.637654 0.500000
O O15 0.000000 0.904137 0.500000
O O16 0.936582 0.000000 0.565374
O O17 0.838952 0.500000 0.633441
O O18 0.168594 0.500000 0.144868
#
# Coordination Sequence:
#
# PCOD9147526 Si02
#       8
#     4   4   4   4   4   2   4   2
#     4  12  21  39  63  88 115 152 201 235 272 344
#     4  11  22  38  58  87 119 150 190 241 295 337
#     4  10  19  35  58  85 115 148 194 239 282 341
#     4  12  25  41  61  87 120 156 193 234 286 343
#     4  10  21  38  59  83 115 155 193 232 285 350
#     4  11  22  41  62  91 124 149 186 242 293 331
#     4  11  22  36  60  89 116 147 192 247 292 331
#     4  11  22  38  66  94 116 148 195 240 285 337
#
# _framework density 17.877393999999999
#
# number of rings (size 3 to 8) (size 9 to 14) (size 15 to 20)
#    0.000    1.000    4.286    3.429    0.000    2.857 
#    0.000    7.143    0.000    2.571    0.000    0.000 
#    0.000    0.000    0.000    0.000    0.000    0.000 
#
# Total GULP energy -156544.632376 kJ/mol
# GULP energy per Si atom -5590.879728 kJ/mol
# Density = 1.783670 g / cm^3
# Si number density = 17.877394 Si / 1000 Ang^3
#
#
#
# Elastic Constant Matrix: (Units=GPa)
#
#
# Indices 1 2 3 4 5 6 
#
# 1 117.0676 54.6756 82.2672 0.0000 8.4379 0.0000
# 2 54.6756 126.7667 92.9237 0.0000 -12.4546 0.0000
# 3 82.2672 92.9237 155.9155 0.0000 -0.6840 0.0000
# 4 0.0000 0.0000 0.0000 -13.7721 0.0000 8.0161
# 5 8.4379 -12.4546 -0.6840 0.0000 26.3209 0.0000
# 6 0.0000 0.0000 0.0000 8.0161 0.0000 -4.2515
#
#
#
# Elastic Compliance Matrix: (Units=1/GPa)
#
#
# Indices 1 2 3 4 5 6 
#
# 1 0.014430 -0.002119 -0.006377 0.000000 -0.005794 0.000000
# 2 -0.002119 0.015492 -0.008081 0.000000 0.007800 0.000000
# 3 -0.006377 -0.008081 0.014588 0.000000 -0.001400 0.000000
# 4 0.000000 0.000000 0.000000 0.745040 0.000000 1.404763
# 5 -0.005794 0.007800 -0.001400 0.000000 0.043505 0.000000
# 6 0.000000 0.000000 0.000000 1.404763 0.000000 2.413450
#
#
# Mechanical properties :
#
#
# Convention : Reuss Voigt Hill
#
# Bulk Modulus (GPa) = 88.04418 95.49810 91.77114
# Shear Modulus (GPa) = 1.52279 12.98501 7.25390
#
# Velocity S-wave (km/s) = 0.92393 2.69799 2.01653
# Velocity P-wave (km/s) = 7.10591 7.95235 7.54102
#
# Compressibility (1/GPa) = 0.01135793
#
# Stress axis : x y z
#
# Youngs Moduli (GPa) = 69.29803 64.54773 68.54826
#
# Poissons Ratio (x) = 0.13678 0.43710
# Poissons Ratio (y) = 0.14685 0.55394
# Poissons Ratio (z) = 0.44188 0.52161
#
# Static dielectric constant tensor:
#      x y z
#    x 1.581710 0.000000 0.007290 
#    y 0.000000 1.603110 0.000000 
#    z 0.007290 0.000000 1.585230 
# 
# From -- ./inp_files/56124.got.cif
#   From: 2010.05.17/outbox.cif.g08.bks.cpg/sg10_29_cif.got.tgz:56124.got - 2010.06.03 11:33:40.
