data_PCOD9147743
_publ_section_title
;
Structure prediction by ZEFSAII (Michael W. Deem and Ramdas Pophale) SiO2 
 PCOD9147743
Probable space group: P 2/M
;
_chemical_formula_sum "Si O2"
_cell_formula_units_Z 32
_cell_length_a 22.760777
_cell_length_b 8.739620
_cell_length_c 28.933151
_cell_angle_alpha 90.000000
_cell_angle_beta 161.436553
_cell_angle_gamma 90.000000
_cell_volume 1832.257432
_symmetry_space_group_name_H-M "P 2/M"
_symmetry_group_IT_number 10
_symmetry_cell_setting 'monoclinic'
loop_
_space_group_symop_operation_xyz
x,y,z
-x,y,-z
-x,-y,-z
x,-y,z
loop_
_atom_site_type_symbol
_atom_site_label
_atom_site_fract_x
_atom_site_fract_y
_atom_site_fract_z
Si Si1 0.808513 0.315496 0.381188
Si Si2 0.481109 0.815830 0.659018
Si Si3 0.778863 0.317470 0.723385
Si Si4 0.791080 0.815565 0.198387
Si Si5 0.185000 0.683031 0.507412
Si Si6 0.088968 0.184509 0.016680
Si Si7 0.564763 0.815818 0.121632
Si Si8 0.423039 0.184028 0.510451
O O1 0.807038 0.500000 0.379376
O O2 0.800811 0.264481 0.428570
O O3 0.641571 0.255186 0.225578
O O4 0.000000 0.263982 0.500000
O O5 0.352902 0.743363 0.602111
O O6 0.412697 0.774247 0.556493
O O7 0.471802 0.000000 0.655597
O O8 0.696182 0.772333 0.823852
O O9 0.765230 0.500000 0.713095
O O10 0.615053 0.247854 0.632988
O O11 0.736312 0.252634 0.640697
O O12 0.969619 0.262097 0.887673
O O13 0.700784 0.772465 0.180582
O O14 0.990936 0.743318 0.343022
O O15 0.805799 0.000000 0.208583
O O16 0.640598 0.770399 0.047577
O O17 0.183748 0.500000 0.506274
O O18 0.074988 0.000000 0.001817
O O19 0.000000 0.225365 0.000000
O O20 0.568275 0.000000 0.127413
O O21 0.425298 0.000000 0.508038
#
# Coordination Sequence:
#
# PCOD9147743 Si02
#       8
#     4   4   4   4   4   4   4   4
#     4  10  20  35  53  79 114 147 184 225 272 334
#     4  10  22  39  60  82 108 146 190 234 278 329
#     4  11  21  32  53  88 119 142 176 229 283 325
#     4   9  18  34  54  80 111 139 179 228 275 325
#     4  11  23  37  55  80 113 151 184 224 280 338
#     4  10  19  37  60  83 110 146 192 234 275 331
#     4   9  18  32  55  84 108 136 179 234 277 313
#     4  10  19  36  58  80 108 147 188 227 273 329
#
# _framework density 17.464794999999999
#
# number of rings (size 3 to 8) (size 9 to 14) (size 15 to 20)
#    0.000    2.000    2.500    3.375    0.000    3.500 
#    0.000    2.500    0.000    1.500    0.000    0.000 
#    0.000    0.000    0.000    0.000    0.000    0.000 
#
# Total GULP energy -178620.755590 kJ/mol
# GULP energy per Si atom -5581.898612 kJ/mol
# Density = 1.742504 g / cm^3
# Si number density = 17.464795 Si / 1000 Ang^3
#
#
#
# Elastic Constant Matrix: (Units=GPa)
#
#
# Indices 1 2 3 4 5 6 
#
# 1 125.8163 41.5177 89.9138 0.0000 -6.2535 0.0000
# 2 41.5177 37.7009 43.3475 0.0000 -3.5126 0.0000
# 3 89.9138 43.3475 156.5687 0.0000 -10.5895 0.0000
# 4 0.0000 0.0000 0.0000 28.5542 0.0000 3.2684
# 5 -6.2535 -3.5126 -10.5895 0.0000 30.1353 0.0000
# 6 0.0000 0.0000 0.0000 3.2684 0.0000 21.5401
#
#
#
# Elastic Compliance Matrix: (Units=1/GPa)
#
#
# Indices 1 2 3 4 5 6 
#
# 1 0.015766 -0.010201 -0.006237 0.000000 -0.000109 0.000000
# 2 -0.010201 0.045529 -0.006690 0.000000 0.000839 0.000000
# 3 -0.006237 -0.006690 0.011965 0.000000 0.002130 0.000000
# 4 0.000000 0.000000 0.000000 0.035640 0.000000 -0.005408
# 5 -0.000109 0.000839 0.002130 0.000000 0.034008 0.000000
# 6 0.000000 0.000000 0.000000 -0.005408 0.000000 0.047246
#
#
# Mechanical properties :
#
#
# Convention : Reuss Voigt Hill
#
# Bulk Modulus (GPa) = 37.03262 74.40488 55.71875
# Shear Modulus (GPa) = 20.37392 25.73304 23.05348
#
# Velocity S-wave (km/s) = 3.41922 3.84268 3.63712
# Velocity P-wave (km/s) = 6.06945 7.89833 7.04350
#
# Compressibility (1/GPa) = 0.02700322
#
# Stress axis : x y z
#
# Youngs Moduli (GPa) = 63.42588 21.96419 83.57551
#
# Poissons Ratio (x) = 0.22406 0.52129
# Poissons Ratio (y) = 0.64702 0.55912
# Poissons Ratio (z) = 0.39561 0.14694
#
# Static dielectric constant tensor:
#      x y z
#    x 1.580310 0.000000 -0.012990 
#    y 0.000000 1.585670 0.000000 
#    z -0.012990 0.000000 1.586470 
# 
# From -- ./inp_files/93757.got.cif
#   From: 2010.05.17/outbox.cif.g08.bks.cpg/sg10_47_cif.got.tgz:93757.got - 2010.06.03 11:33:40.
