data_PCOD9147557
_publ_section_title
;
Structure prediction by ZEFSAII (Michael W. Deem and Ramdas Pophale) SiO2 
 PCOD9147557
Probable space group: P 2/M
;
_chemical_formula_sum "Si O2"
_cell_formula_units_Z 32
_cell_length_a 13.225027
_cell_length_b 14.225665
_cell_length_c 18.547147
_cell_angle_alpha 90.000000
_cell_angle_beta 29.853483
_cell_angle_gamma 90.000000
_cell_volume 1736.948676
_symmetry_space_group_name_H-M "P 2/M"
_symmetry_group_IT_number 10
_symmetry_cell_setting 'monoclinic'
loop_
_space_group_symop_operation_xyz
x,y,z
-x,y,-z
-x,-y,-z
x,-y,z
loop_
_atom_site_type_symbol
_atom_site_label
_atom_site_fract_x
_atom_site_fract_y
_atom_site_fract_z
Si Si1 0.904262 0.208974 0.717186
Si Si2 0.667048 0.253111 0.232197
Si Si3 0.939799 0.393088 0.781915
Si Si4 0.681200 0.890234 0.560220
Si Si5 0.424329 0.393153 0.470480
Si Si6 0.255800 0.893221 0.053206
Si Si7 0.921780 0.267272 0.930866
Si Si8 0.714624 0.894210 0.711955
O O1 0.762110 0.143379 0.854580
O O2 0.842085 0.184872 0.674274
O O3 0.870924 0.314588 0.766442
O O4 0.134793 0.171664 0.586352
O O5 0.537257 0.157388 0.319526
O O6 0.511087 0.334035 0.351375
O O7 0.858692 0.262203 0.167311
O O8 0.756674 0.267669 0.096966
O O9 0.862893 0.500000 0.820856
O O10 0.182806 0.395446 0.622184
O O11 0.900474 0.351892 0.886527
O O12 0.711627 0.886213 0.627920
O O13 0.691226 0.000000 0.532312
O O14 0.500000 0.352063 0.500000
O O15 0.503344 0.500000 0.417412
O O16 0.115836 0.825769 0.092426
O O17 0.187966 0.000000 0.090840
O O18 0.483594 0.887225 0.882343
O O19 0.791910 0.000000 0.682805
#
# Coordination Sequence:
#
# PCOD9147557 Si02
#       8
#     4   4   4   4   4   4   4   4
#     4  11  21  35  59  84 109 144 183 237 283 328
#     4  11  21  36  54  84 113 151 185 224 278 327
#     4  10  21  38  59  83 111 143 182 233 284 336
#     4  11  22  36  54  83 118 148 186 228 273 330
#     4  10  19  35  59  82 107 141 184 231 280 331
#     4  10  20  36  55  82 112 146 191 230 268 326
#     4  10  22  35  56  80 115 149 187 226 273 334
#     4  10  20  36  58  82 111 148 190 231 274 325
#
# _framework density 18.423113000000001
#
# number of rings (size 3 to 8) (size 9 to 14) (size 15 to 20)
#    0.000    1.625    3.750    1.875    0.000    3.000 
#    0.000    2.500    0.000   10.875    0.000    0.000 
#    0.000    0.000    0.000    0.000    0.000    0.000 
#
# Total GULP energy -178542.203838 kJ/mol
# GULP energy per Si atom -5579.443870 kJ/mol
# Density = 1.838118 g / cm^3
# Si number density = 18.423113 Si / 1000 Ang^3
#
#
#
# Elastic Constant Matrix: (Units=GPa)
#
#
# Indices 1 2 3 4 5 6 
#
# 1 32.3571 21.2836 -5.6339 0.0000 11.5060 0.0000
# 2 21.2836 125.1729 30.0165 0.0000 9.6996 0.0000
# 3 -5.6339 30.0165 66.5748 0.0000 1.0803 0.0000
# 4 0.0000 0.0000 0.0000 222.8068 0.0000 -117.1579
# 5 11.5060 9.6996 1.0803 0.0000 17.8508 0.0000
# 6 0.0000 0.0000 0.0000 -117.1579 0.0000 88.6437
#
#
#
# Elastic Compliance Matrix: (Units=1/GPa)
#
#
# Indices 1 2 3 4 5 6 
#
# 1 0.046810 -0.007810 0.007911 0.000000 -0.026407 0.000000
# 2 -0.007810 0.010659 -0.005460 0.000000 -0.000427 0.000000
# 3 0.007911 -0.005460 0.018204 0.000000 -0.003234 0.000000
# 4 0.000000 0.000000 0.000000 0.014714 0.000000 0.019447
# 5 -0.026407 -0.000427 -0.003234 0.000000 0.073469 0.000000
# 6 0.000000 0.000000 0.000000 0.019447 0.000000 0.036984
#
#
# Mechanical properties :
#
#
# Convention : Reuss Voigt Hill
#
# Bulk Modulus (GPa) = 15.39503 35.04858 25.22180
# Shear Modulus (GPa) = 21.43987 77.75618 49.59802
#
# Velocity S-wave (km/s) = 3.41508 6.50365 5.19423
# Velocity P-wave (km/s) = 4.89130 8.68689 7.04936
#
# Compressibility (1/GPa) = 0.06495602
#
# Stress axis : x y z
#
# Youngs Moduli (GPa) = 21.36291 93.81432 54.93176
#
# Poissons Ratio (x) = 0.73270 -0.43457
# Poissons Ratio (y) = 0.16685 0.29993
# Poissons Ratio (z) = -0.16901 0.51222
#
# Static dielectric constant tensor:
#      x y z
#    x 1.658620 0.000000 0.009310 
#    y 0.000000 1.640940 0.000000 
#    z 0.009310 0.000000 1.658620 
# 
# From -- ./inp_files/78177.got.cif
#   From: 2010.05.17/outbox.cif.g08.bks.cpg/sg10_40_cif.got.tgz:78177.got - 2010.06.03 11:33:40.
