data_PCOD9147551
_publ_section_title
;
Structure prediction by ZEFSAII (Michael W. Deem and Ramdas Pophale) SiO2 
 PCOD9147551
Probable space group: P 2/M
;
_chemical_formula_sum "Si O2"
_cell_formula_units_Z 32
_cell_length_a 16.215579
_cell_length_b 18.182726
_cell_length_c 13.541186
_cell_angle_alpha 90.000000
_cell_angle_beta 27.464519
_cell_angle_gamma 90.000000
_cell_volume 1841.351652
_symmetry_space_group_name_H-M "P 2/M"
_symmetry_group_IT_number 10
_symmetry_cell_setting 'monoclinic'
loop_
_space_group_symop_operation_xyz
x,y,z
-x,y,-z
-x,-y,-z
x,-y,z
loop_
_atom_site_type_symbol
_atom_site_label
_atom_site_fract_x
_atom_site_fract_y
_atom_site_fract_z
Si Si1 0.805761 0.919202 0.255389
Si Si2 0.207161 0.309310 0.632568
Si Si3 0.483551 0.414172 0.637566
Si Si4 0.177468 0.304824 0.038391
Si Si5 0.419636 0.086536 0.974654
Si Si6 0.914634 0.196661 0.696361
Si Si7 0.243975 0.840644 0.488443
Si Si8 0.702059 0.226100 0.274398
O O1 0.820388 0.888079 0.349992
O O2 0.702884 0.858241 0.303170
O O3 0.724618 0.000000 0.341223
O O4 0.000000 0.922184 0.000000
O O5 0.340067 0.376706 0.504618
O O6 0.284129 0.242039 0.484861
O O7 0.188043 0.271811 0.760873
O O8 0.019390 0.330692 0.784584
O O9 0.500000 0.409997 0.500000
O O10 0.466784 0.500000 0.679988
O O11 0.320236 0.367260 0.857815
O O12 0.165557 0.266724 0.158191
O O13 0.225520 0.239169 0.911052
O O14 0.577333 0.121700 0.741532
O O15 0.388206 0.000000 0.984915
O O16 0.500000 0.090278 0.000000
O O17 0.240415 0.135450 0.153676
O O18 0.000000 0.216868 0.500000
O O19 0.080904 0.165913 0.584706
O O20 0.500000 0.253318 0.500000
#
# Coordination Sequence:
#
# PCOD9147551 Si02
#       8
#     4   4   4   4   4   4   4   4
#     4  10  21  36  52  76 111 149 192 239 286 342
#     4  10  19  35  59  80 115 152 183 223 268 329
#     4  11  22  36  57  93 127 149 178 217 271 345
#     4  11  21  37  61  83 111 154 188 226 283 330
#     4  11  23  37  57  80 112 151 188 244 309 346
#     4  11  23  39  59  84 109 144 201 249 285 335
#     4  10  21  39  59  81 109 148 196 240 284 342
#     4  11  19  33  54  78 111 144 189 233 272 337
#
# _framework density 17.378537999999999
#
# number of rings (size 3 to 8) (size 9 to 14) (size 15 to 20)
#    0.000    1.375    3.750    3.750    1.750    2.000 
#    0.000    1.875    0.000    0.375    0.000    3.500 
#    0.000    0.000    0.000    0.000    0.000    0.000 
#
# Total GULP energy -178508.982301 kJ/mol
# GULP energy per Si atom -5578.405697 kJ/mol
# Density = 1.733898 g / cm^3
# Si number density = 17.378538 Si / 1000 Ang^3
#
#
#
# Elastic Constant Matrix: (Units=GPa)
#
#
# Indices 1 2 3 4 5 6 
#
# 1 79.2422 61.5577 56.2885 0.0000 3.7846 0.0000
# 2 61.5577 139.1967 57.2744 0.0000 -1.5304 0.0000
# 3 56.2885 57.2744 118.9409 0.0000 10.4583 0.0000
# 4 0.0000 0.0000 0.0000 18.2850 0.0000 4.7137
# 5 3.7846 -1.5304 10.4583 0.0000 33.8647 0.0000
# 6 0.0000 0.0000 0.0000 4.7137 0.0000 14.3706
#
#
#
# Elastic Compliance Matrix: (Units=1/GPa)
#
#
# Indices 1 2 3 4 5 6 
#
# 1 0.023840 -0.007396 -0.007665 0.000000 -0.000631 0.000000
# 2 -0.007396 0.011360 -0.002146 0.000000 0.002003 0.000000
# 3 -0.007665 -0.002146 0.013365 0.000000 -0.003368 0.000000
# 4 0.000000 0.000000 0.000000 0.059741 0.000000 -0.019596
# 5 -0.000631 0.002003 -0.003368 0.000000 0.030730 0.000000
# 6 0.000000 0.000000 0.000000 -0.019596 0.000000 0.076014
#
#
# Mechanical properties :
#
#
# Convention : Reuss Voigt Hill
#
# Bulk Modulus (GPa) = 70.67240 76.40235 73.53738
# Shear Modulus (GPa) = 19.67095 24.12133 21.89614
#
# Velocity S-wave (km/s) = 3.36804 3.72962 3.55343
# Velocity P-wave (km/s) = 7.47527 7.91239 7.69693
#
# Compressibility (1/GPa) = 0.01414979
#
# Stress axis : x y z
#
# Youngs Moduli (GPa) = 41.94645 88.02911 74.82366
#
# Poissons Ratio (x) = 0.65104 0.57355
# Poissons Ratio (y) = 0.31023 0.16059
# Poissons Ratio (z) = 0.32153 0.18893
#
# Static dielectric constant tensor:
#      x y z
#    x 1.616810 0.000000 -0.010320 
#    y 0.000000 1.596490 0.000000 
#    z -0.010320 0.000000 1.615940 
# 
# From -- ./inp_files/51963.got.cif
#   From: 2010.05.17/outbox.cif.g08.bks.cpg/sg10_26_cif.got.tgz:51963.got - 2010.06.03 11:33:40.
