data_PCOD9147182
_publ_section_title
;
Structure prediction by ZEFSAII (Michael W. Deem and Ramdas Pophale) SiO2 
 PCOD9147182
Probable space group: P 2/M
;
_chemical_formula_sum "Si O2"
_cell_formula_units_Z 32
_cell_length_a 14.596980
_cell_length_b 7.533084
_cell_length_c 20.601092
_cell_angle_alpha 90.000000
_cell_angle_beta 140.058553
_cell_angle_gamma 90.000000
_cell_volume 1454.333752
_symmetry_space_group_name_H-M "P 2/M"
_symmetry_group_IT_number 10
_symmetry_cell_setting 'monoclinic'
loop_
_space_group_symop_operation_xyz
x,y,z
-x,y,-z
-x,-y,-z
x,-y,z
loop_
_atom_site_type_symbol
_atom_site_label
_atom_site_fract_x
_atom_site_fract_y
_atom_site_fract_z
Si Si1 0.144081 0.213026 0.045142
Si Si2 0.689516 0.211213 0.401755
Si Si3 0.660949 0.216211 0.605014
Si Si4 0.386099 0.714034 0.785064
Si Si5 0.301793 0.287678 0.006411
Si Si6 0.621932 0.217097 0.727725
Si Si7 0.110387 0.784830 0.378115
Si Si8 0.219448 0.291245 0.820436
O O1 0.278537 0.278756 0.159849
O O2 0.141819 0.000000 0.049751
O O3 0.172889 0.252432 0.985840
O O4 0.000000 0.280652 0.000000
O O5 0.683702 0.240412 0.321796
O O6 0.539943 0.279057 0.350068
O O7 0.822496 0.276076 0.516659
O O8 0.687648 0.000000 0.410663
O O9 0.500000 0.271929 0.500000
O O10 0.685003 0.269224 0.692465
O O11 0.779869 0.274561 0.618531
O O12 0.661205 0.000000 0.602632
O O13 0.389191 0.500000 0.788383
O O14 0.297038 0.780985 0.798549
O O15 0.549354 0.779030 0.881904
O O16 0.315107 0.500000 0.008902
O O17 0.272437 0.217069 0.918258
O O18 0.618805 0.000000 0.726949
O O19 0.950072 0.725093 0.278650
O O20 0.106826 0.000000 0.375181
O O21 0.255606 0.500000 0.841465
#
# Coordination Sequence:
#
# PCOD9147182 Si02
#       8
#     4   4   4   4   4   4   4   4
#     4  10  21  34  53  85 118 147 179 220 272 330
#     4  10  19  34  57  85 115 144 180 229 277 321
#     4   9  15  27  50  78 106 140 180 215 253 311
#     4  10  21  39  62  82 101 140 193 234 276 336
#     4  10  21  39  61  82 107 143 188 235 277 326
#     4   9  16  29  49  76 111 146 177 214 264 318
#     4  10  21  35  56  86 115 145 185 228 270 326
#     4  10  23  41  58  78 109 146 184 232 287 333
#
# _framework density 22.003204
#
# number of rings (size 3 to 8) (size 9 to 14) (size 15 to 20)
#    0.000    2.250    2.500    0.375    1.750    3.750 
#    0.000    2.500    0.000    3.375    0.000    0.000 
#    0.000    0.000    0.000    0.000    0.000    0.000 
#
# Total GULP energy -178732.817392 kJ/mol
# GULP energy per Si atom -5585.400543 kJ/mol
# Density = 2.195312 g / cm^3
# Si number density = 22.003204 Si / 1000 Ang^3
#
#
#
# Elastic Constant Matrix: (Units=GPa)
#
#
# Indices 1 2 3 4 5 6 
#
# 1 130.7356 -13.9605 25.3785 0.0000 -24.0872 0.0000
# 2 -13.9605 50.9630 -11.4095 0.0000 -1.0534 0.0000
# 3 25.3785 -11.4095 70.2238 0.0000 -27.4366 0.0000
# 4 0.0000 0.0000 0.0000 -7.5148 0.0000 -24.2462
# 5 -24.0872 -1.0534 -27.4366 0.0000 40.1908 0.0000
# 6 0.0000 0.0000 0.0000 -24.2462 0.0000 -3.1178
#
#
#
# Elastic Compliance Matrix: (Units=1/GPa)
#
#
# Indices 1 2 3 4 5 6 
#
# 1 0.008968 0.002329 -0.001008 0.000000 0.004748 0.000000
# 2 0.002329 0.021404 0.004637 0.000000 0.005123 0.000000
# 3 -0.001008 0.004637 0.020687 0.000000 0.013640 0.000000
# 4 0.000000 0.000000 0.000000 0.005524 0.000000 -0.042956
# 5 0.004748 0.005123 0.013640 0.000000 0.037172 0.000000
# 6 0.000000 0.000000 0.000000 -0.042956 0.000000 0.013313
#
#
# Mechanical properties :
#
#
# Convention : Reuss Voigt Hill
#
# Bulk Modulus (GPa) = 15.87876 27.99325 21.93601
# Shear Modulus (GPa) = 43.05039 22.70592 32.87816
#
# Velocity S-wave (km/s) = 4.42809 3.21586 3.86974
# Velocity P-wave (km/s) = 5.77722 5.15160 5.47335
#
# Compressibility (1/GPa) = 0.06297719
#
# Stress axis : x y z
#
# Youngs Moduli (GPa) = 111.50594 46.71981 48.34000
#
# Poissons Ratio (x) = -0.10882 0.04870
# Poissons Ratio (y) = -0.25973 -0.22417
# Poissons Ratio (z) = 0.11234 -0.21665
#
# Static dielectric constant tensor:
#      x y z
#    x 1.783780 0.000000 -0.017070 
#    y 0.000000 1.851460 0.000000 
#    z -0.017070 0.000000 1.787160 
# 
# From -- ./inp_files/84749.got.cif
#   From: 2010.05.17/outbox.cif.g08.bks.cpg/sg10_43_cif.got.tgz:84749.got - 2010.06.03 11:33:40.
