data_PCOD9147447
_publ_section_title
;
Structure prediction by ZEFSAII (Michael W. Deem and Ramdas Pophale) SiO2 
 PCOD9147447
Probable space group: P 2/M
;
_chemical_formula_sum "Si O2"
_cell_formula_units_Z 26
_cell_length_a 17.012295
_cell_length_b 17.666357
_cell_length_c 5.081903
_cell_angle_alpha 90.000000
_cell_angle_beta 69.437812
_cell_angle_gamma 90.000000
_cell_volume 1430.037322
_symmetry_space_group_name_H-M "P 2/M"
_symmetry_group_IT_number 10
_symmetry_cell_setting 'monoclinic'
loop_
_space_group_symop_operation_xyz
x,y,z
-x,y,-z
-x,-y,-z
x,-y,z
loop_
_atom_site_type_symbol
_atom_site_label
_atom_site_fract_x
_atom_site_fract_y
_atom_site_fract_z
Si Si1 0.677862 0.785876 0.216874
Si Si2 0.442564 0.913956 0.825914
Si Si3 0.939177 0.166055 0.321127
Si Si4 0.694158 0.415923 0.665264
Si Si5 0.060959 0.000000 0.678679
Si Si6 0.592570 0.627437 0.283393
Si Si7 0.776656 0.257106 0.606615
O O1 0.634438 0.861548 0.165695
O O2 0.611015 0.717453 0.264166
O O3 0.711942 0.781209 0.473912
O O4 0.753671 0.768191 0.928147
O O5 0.500000 0.916552 0.500000
O O6 0.416780 0.000000 0.925498
O O7 0.500000 0.884584 0.000000
O O8 0.868337 0.229388 0.420749
O O9 0.000000 0.169472 0.500000
O O10 0.895448 0.082086 0.369613
O O11 0.000000 0.172731 0.000000
O O12 0.728068 0.500000 0.668913
O O13 0.656126 0.408560 0.419113
O O14 0.759110 0.346903 0.617922
O O15 0.619085 0.401329 0.964325
O O16 0.000000 0.000000 0.500000
O O17 0.000000 0.000000 0.000000
O O18 0.500000 0.611629 0.500000
#
# Coordination Sequence:
#
# PCOD9147447 Si02
#       7
#     4   4   4   4   2   4   4
#     4  10  20  35  50  74 106 135 176 216 262 307
#     4  10  20  34  52  72 100 140 182 221 257 296
#     4  10  19  35  57  79 105 134 169 207 255 314
#     4  10  21  35  51  73 105 138 168 213 266 312
#     4   8  16  30  50  76 102 126 154 194 246 302
#     4  10  20  32  51  75 100 135 177 217 257 306
#     4  10  21  36  54  77 104 136 172 211 260 321
#
# _framework density 18.181346000000001
#
# number of rings (size 3 to 8) (size 9 to 14) (size 15 to 20)
#    0.000    2.154    0.000    3.231    0.000    4.308 
#    2.769    0.000    0.000    0.923    0.000    0.000 
#    0.000    0.000    0.000    0.000    0.000    0.000 
#
# Total GULP energy -144997.185078 kJ/mol
# GULP energy per Si atom -5576.814811 kJ/mol
# Density = 1.813996 g / cm^3
# Si number density = 18.181346 Si / 1000 Ang^3
#
#
#
# Elastic Constant Matrix: (Units=GPa)
#
#
# Indices 1 2 3 4 5 6 
#
# 1 36.5481 35.2370 14.3083 0.0000 -3.0663 0.0000
# 2 35.2370 107.2436 21.9303 0.0000 -23.9102 0.0000
# 3 14.3083 21.9303 78.0513 0.0000 9.0450 0.0000
# 4 0.0000 0.0000 0.0000 14.1225 0.0000 2.5826
# 5 -3.0663 -23.9102 9.0450 0.0000 34.8976 0.0000
# 6 0.0000 0.0000 0.0000 2.5826 0.0000 1.7684
#
#
#
# Elastic Compliance Matrix: (Units=1/GPa)
#
#
# Indices 1 2 3 4 5 6 
#
# 1 0.041940 -0.014356 -0.003033 0.000000 -0.005365 0.000000
# 2 -0.014356 0.017350 -0.003582 0.000000 0.011555 0.000000
# 3 -0.003033 -0.003582 0.015145 0.000000 -0.006646 0.000000
# 4 0.000000 0.000000 0.000000 0.096611 0.000000 -0.141091
# 5 -0.005365 0.011555 -0.006646 0.000000 0.037823 0.000000
# 6 0.000000 0.000000 0.000000 -0.141091 0.000000 0.771518
#
#
# Mechanical properties :
#
#
# Convention : Reuss Voigt Hill
#
# Bulk Modulus (GPa) = 30.77665 40.53269 35.65467
# Shear Modulus (GPa) = 4.83953 20.18220 12.51086
#
# Velocity S-wave (km/s) = 1.63327 3.33536 2.62604
# Velocity P-wave (km/s) = 4.53003 6.09711 5.37103
#
# Compressibility (1/GPa) = 0.03249216
#
# Stress axis : x y z
#
# Youngs Moduli (GPa) = 23.84385 57.63639 66.02933
#
# Poissons Ratio (x) = 0.82743 0.20027
# Poissons Ratio (y) = 0.34230 0.23653
# Poissons Ratio (z) = 0.07232 0.20646
#
# Static dielectric constant tensor:
#      x y z
#    x 1.595420 0.000000 0.009510 
#    y 0.000000 1.673960 0.000000 
#    z 0.009510 0.000000 1.598440 
# 
# From -- ./inp_files/9598.got.cif
#   From: 2010.05.17/outbox.cif.g08.bks.cpg/sg10_5_cif.got.tgz:9598.got - 2010.06.03 11:33:40.
