data_PCOD9147974
_publ_section_title
;
Structure prediction by ZEFSAII (Michael W. Deem and Ramdas Pophale) SiO2 
 PCOD9147974
Probable space group: P 2/M
;
_chemical_formula_sum "Si O2"
_cell_formula_units_Z 32
_cell_length_a 29.826781
_cell_length_b 7.818363
_cell_length_c 12.702341
_cell_angle_alpha 90.000000
_cell_angle_beta 149.981224
_cell_angle_gamma 90.000000
_cell_volume 1481.911947
_symmetry_space_group_name_H-M "P 2/M"
_symmetry_group_IT_number 10
_symmetry_cell_setting 'monoclinic'
loop_
_space_group_symop_operation_xyz
x,y,z
-x,y,-z
-x,-y,-z
x,-y,z
loop_
_atom_site_type_symbol
_atom_site_label
_atom_site_fract_x
_atom_site_fract_y
_atom_site_fract_z
Si Si1 0.599595 0.197161 0.215046
Si Si2 0.611217 0.205430 0.903571
Si Si3 0.746911 0.209975 0.350559
Si Si4 0.051344 0.203744 0.206677
Si Si5 0.347871 0.197674 0.237317
Si Si6 0.000507 0.705813 0.670681
Si Si7 0.578646 0.695216 0.393738
Si Si8 0.145716 0.707824 0.792427
O O1 0.679396 0.267656 0.305960
O O2 0.619629 0.202547 0.379656
O O3 0.591049 0.000000 0.162153
O O4 0.500000 0.275313 0.000000
O O5 0.605186 0.270880 0.771997
O O6 0.523147 0.248866 0.790313
O O7 0.616871 0.000000 0.907391
O O8 0.699154 0.264925 0.145016
O O9 0.847710 0.272173 0.572457
O O10 0.749777 0.000000 0.355529
O O11 0.999245 0.232202 0.209778
O O12 0.060132 0.000000 0.209069
O O13 0.000000 0.273452 0.000000
O O14 0.370386 0.285452 0.392577
O O15 0.375674 0.000000 0.307066
O O16 0.242781 0.211239 0.998672
O O17 0.999353 0.500000 0.669107
O O18 0.910784 0.761063 0.425509
O O19 0.084382 0.755848 0.768262
O O20 0.579856 0.500000 0.362876
O O21 0.154302 0.500000 0.808753
#
# Coordination Sequence:
#
# PCOD9147974 Si02
#       8
#     4   4   4   4   4   4   4   4
#     4  10  19  37  63  82 106 149 196 239 286 342
#     4  10  20  38  60  81 108 147 195 239 285 344
#     4   9  18  35  60  85 110 145 189 238 294 343
#     4  10  21  36  55  84 119 150 188 242 291 332
#     4  11  23  37  58  86 116 150 193 237 283 345
#     4   9  19  37  60  83 113 154 191 227 283 351
#     4  12  25  38  55  82 119 153 187 237 290 343
#     4   9  19  37  59  84 116 150 186 233 288 343
#
# _framework density 21.593724999999999
#
# number of rings (size 3 to 8) (size 9 to 14) (size 15 to 20)
#    0.000    2.000    1.250    3.375    0.000    6.000 
#    0.000    3.750    0.000    0.000    0.000    0.000 
#    0.000    0.000    0.000    0.000    0.000    0.000 
#
# Total GULP energy -178775.993783 kJ/mol
# GULP energy per Si atom -5586.749806 kJ/mol
# Density = 2.154458 g / cm^3
# Si number density = 21.593725 Si / 1000 Ang^3
#
#
#
# Elastic Constant Matrix: (Units=GPa)
#
#
# Indices 1 2 3 4 5 6 
#
# 1 79.3085 -5.7918 20.2904 0.0000 -21.7977 0.0000
# 2 -5.7918 30.0867 0.2745 0.0000 -1.7477 0.0000
# 3 20.2904 0.2745 70.0651 0.0000 -19.5001 0.0000
# 4 0.0000 0.0000 0.0000 -14.9676 0.0000 -57.9244
# 5 -21.7977 -1.7477 -19.5001 0.0000 29.7823 0.0000
# 6 0.0000 0.0000 0.0000 -57.9244 0.0000 -80.1826
#
#
#
# Elastic Compliance Matrix: (Units=1/GPa)
#
#
# Indices 1 2 3 4 5 6 
#
# 1 0.016367 0.003812 -0.001661 0.000000 0.011115 0.000000
# 2 0.003812 0.034253 0.000120 0.000000 0.004878 0.000000
# 3 -0.001661 0.000120 0.017629 0.000000 0.010334 0.000000
# 4 0.000000 0.000000 0.000000 0.037206 0.000000 -0.026878
# 5 0.011115 0.004878 0.010334 0.000000 0.048765 0.000000
# 6 0.000000 0.000000 0.000000 -0.026878 0.000000 0.006945
#
#
# Mechanical properties :
#
#
# Convention : Reuss Voigt Hill
#
# Bulk Modulus (GPa) = 13.73820 23.22295 18.48057
# Shear Modulus (GPa) = 27.64126 -2.09443 12.77341
#
# Velocity S-wave (km/s) = 3.58167 -0.98592 2.43478
# Velocity P-wave (km/s) = 4.84566 3.07925 4.05969
#
# Compressibility (1/GPa) = 0.07278976
#
# Stress axis : x y z
#
# Youngs Moduli (GPa) = 61.09729 29.19423 56.72427
#
# Poissons Ratio (x) = -0.11128 0.09424
# Poissons Ratio (y) = -0.23288 -0.00679
# Poissons Ratio (z) = 0.10150 -0.00349
#
# Static dielectric constant tensor:
#      x y z
#    x 1.786120 0.000000 -0.017630 
#    y 0.000000 1.796730 0.000000 
#    z -0.017630 0.000000 1.783390 
# 
# From -- ./inp_files/49821.got.cif
#   From: 2010.05.17/outbox.cif.g08.bks.cpg/sg10_25_cif.got.tgz:49821.got - 2010.06.03 11:33:40.
