data_PCOD9147607
_publ_section_title
;
Structure prediction by ZEFSAII (Michael W. Deem and Ramdas Pophale) SiO2 
 PCOD9147607
Probable space group: P 2/M
;
_chemical_formula_sum "Si O2"
_cell_formula_units_Z 26
_cell_length_a 19.447400
_cell_length_b 8.223456
_cell_length_c 9.528423
_cell_angle_alpha 90.000000
_cell_angle_beta 51.668747
_cell_angle_gamma 90.000000
_cell_volume 1195.351620
_symmetry_space_group_name_H-M "P 2/M"
_symmetry_group_IT_number 10
_symmetry_cell_setting 'monoclinic'
loop_
_space_group_symop_operation_xyz
x,y,z
-x,y,-z
-x,-y,-z
x,-y,z
loop_
_atom_site_type_symbol
_atom_site_label
_atom_site_fract_x
_atom_site_fract_y
_atom_site_fract_z
Si Si1 0.825359 0.809473 0.229317
Si Si2 0.372886 0.801742 0.571917
Si Si3 0.140078 0.306976 0.521427
Si Si4 0.292554 0.694542 0.133736
Si Si5 0.850132 0.316885 0.906725
Si Si6 0.549712 0.195126 0.224536
Si Si7 0.000000 0.252911 0.500000
O O1 0.724836 0.749208 0.339838
O O2 0.868929 0.717425 0.302843
O O3 0.824289 0.000000 0.264731
O O4 0.867962 0.783023 0.023696
O O5 0.403152 0.750146 0.689753
O O6 0.449071 0.749413 0.367465
O O7 0.371732 0.000000 0.575426
O O8 0.124146 0.500000 0.506629
O O9 0.238247 0.264984 0.342879
O O10 0.073457 0.194329 0.517826
O O11 0.293692 0.500000 0.123807
O O12 0.229880 0.753562 0.084748
O O13 0.390233 0.753865 0.981384
O O14 0.827029 0.500000 0.979548
O O15 0.932529 0.326775 0.698766
O O16 0.548480 0.000000 0.228425
#
# Coordination Sequence:
#
# PCOD9147607 Si02
#       7
#     4   4   4   4   4   4   2
#     4  11  22  37  55  82 116 147 175 219 277 325
#     4   8  16  30  50  77 109 144 184 221 257 313
#     4  10  21  39  60  80 107 143 184 226 268 322
#     4   9  18  32  52  81 111 139 178 229 277 315
#     4  10  19  35  60  84 107 138 181 226 268 320
#     4   9  15  29  54  78 103 144 190 225 256 308
#     4  10  21  42  67  84 101 140 191 226 259 324
#
# _framework density 21.750924000000001
#
# number of rings (size 3 to 8) (size 9 to 14) (size 15 to 20)
#    0.000    2.462    1.538    3.692    0.000    1.231 
#    0.000   10.000    0.000    4.615    0.000    0.000 
#    0.000    0.000    0.000    0.000    0.000    0.000 
#
# Total GULP energy -144795.603200 kJ/mol
# GULP energy per Si atom -5569.061662 kJ/mol
# Density = 2.170142 g / cm^3
# Si number density = 21.750924 Si / 1000 Ang^3
#
#
#
# Elastic Constant Matrix: (Units=GPa)
#
#
# Indices 1 2 3 4 5 6 
#
# 1 48.7673 10.9421 29.1573 0.0000 0.6132 0.0000
# 2 10.9421 24.6332 11.6457 0.0000 1.1767 0.0000
# 3 29.1573 11.6457 113.4810 0.0000 -6.6400 0.0000
# 4 0.0000 0.0000 0.0000 43.8373 0.0000 0.9213
# 5 0.6132 1.1767 -6.6400 0.0000 35.8289 0.0000
# 6 0.0000 0.0000 0.0000 0.9213 0.0000 -14.5314
#
#
#
# Elastic Compliance Matrix: (Units=1/GPa)
#
#
# Indices 1 2 3 4 5 6 
#
# 1 0.025975 -0.008712 -0.005853 0.000000 -0.001243 0.000000
# 2 -0.008712 0.045766 -0.002565 0.000000 -0.001829 0.000000
# 3 -0.005853 -0.002565 0.010706 0.000000 0.002168 0.000000
# 4 0.000000 0.000000 0.000000 0.022781 0.000000 0.001444
# 5 -0.001243 -0.001829 0.002168 0.000000 0.028394 0.000000
# 6 0.000000 0.000000 0.000000 0.001444 0.000000 -0.068725
#
#
# Mechanical properties :
#
#
# Convention : Reuss Voigt Hill
#
# Bulk Modulus (GPa) = 20.75240 32.26352 26.50796
# Shear Modulus (GPa) = 43.39580 22.03605 32.71593
#
# Velocity S-wave (km/s) = 4.47153 3.18639 3.88250
# Velocity P-wave (km/s) = 6.01839 5.32943 5.68436
#
# Compressibility (1/GPa) = 0.04818721
#
# Stress axis : x y z
#
# Youngs Moduli (GPa) = 38.49841 21.85045 93.40619
#
# Poissons Ratio (x) = 0.19036 0.54667
# Poissons Ratio (y) = 0.33539 0.23961
# Poissons Ratio (z) = 0.22532 0.05605
#
# Static dielectric constant tensor:
#      x y z
#    x 1.804540 0.000000 -0.019430 
#    y 0.000000 1.779510 0.000000 
#    z -0.019430 0.000000 1.801950 
# 
# From -- ./inp_files/34215.got.cif
#   From: 2010.05.17/outbox.cif.g08.bks.cpg/sg10_18_cif.got.tgz:34215.got - 2010.06.03 11:33:40.
