data_PCOD9147270
_publ_section_title
;
Structure prediction by ZEFSAII (Michael W. Deem and Ramdas Pophale) SiO2 
 PCOD9147270
Probable space group: P 2/M
;
_chemical_formula_sum "Si O2"
_cell_formula_units_Z 24
_cell_length_a 10.755118
_cell_length_b 13.382035
_cell_length_c 8.354468
_cell_angle_alpha 90.000000
_cell_angle_beta 113.997109
_cell_angle_gamma 90.000000
_cell_volume 1098.489877
_symmetry_space_group_name_H-M "P 2/M"
_symmetry_group_IT_number 10
_symmetry_cell_setting 'monoclinic'
loop_
_space_group_symop_operation_xyz
x,y,z
-x,y,-z
-x,-y,-z
x,-y,z
loop_
_atom_site_type_symbol
_atom_site_label
_atom_site_fract_x
_atom_site_fract_y
_atom_site_fract_z
Si Si1 0.175256 0.614099 0.401214
Si Si2 0.552429 0.284320 0.344362
Si Si3 0.158108 0.886597 0.214671
Si Si4 0.733361 0.886579 0.363761
Si Si5 0.068731 0.239716 0.753367
Si Si6 0.265670 0.306624 0.111342
O O1 0.144706 0.500000 0.420655
O O2 0.311112 0.650003 0.564640
O O3 0.050623 0.687735 0.368776
O O4 0.206150 0.629295 0.227471
O O5 0.500000 0.269392 0.500000
O O6 0.599111 0.180961 0.289524
O O7 0.424996 0.329428 0.183028
O O8 0.223064 0.888669 0.427150
O O9 0.247390 0.808963 0.159945
O O10 0.011099 0.836952 0.171170
O O11 0.153894 0.000000 0.152709
O O12 0.849700 0.829435 0.326176
O O13 0.283035 0.000000 0.700617
O O14 0.175190 0.308567 0.906096
#
# Coordination Sequence:
#
# PCOD9147270 Si02
#       6
#     4   4   4   4   4   4
#     4  10  21  40  67  90 112 153 204 248 296 355
#     4  10  20  40  59  86 118 156 203 245 285 348
#     4  10  19  34  59  84 115 161 204 240 281 344
#     4  11  22  37  62  88 121 163 201 240 289 349
#     4  11  22  37  56  90 125 151 191 248 302 345
#     4  10  22  37  59  88 123 153 194 246 295 346
#
# _framework density 21.848175999999999
#
# number of rings (size 3 to 8) (size 9 to 14) (size 15 to 20)
#    0.000    1.667    5.000    3.000    0.000    9.333 
#    0.000    2.500    0.000    0.000    0.000    7.000 
#    0.000    0.000    0.000    0.000    0.000    0.000 
#
# Total GULP energy -134102.140207 kJ/mol
# GULP energy per Si atom -5587.589175 kJ/mol
# Density = 2.179845 g / cm^3
# Si number density = 21.848176 Si / 1000 Ang^3
#
#
#
# Elastic Constant Matrix: (Units=GPa)
#
#
# Indices 1 2 3 4 5 6 
#
# 1 80.8323 21.1013 14.1715 0.0000 8.3683 0.0000
# 2 21.1013 109.2770 -5.5152 0.0000 -9.7059 0.0000
# 3 14.1715 -5.5152 27.1931 0.0000 12.9081 0.0000
# 4 0.0000 0.0000 0.0000 11.2415 0.0000 -1.3036
# 5 8.3683 -9.7059 12.9081 0.0000 27.5294 0.0000
# 6 0.0000 0.0000 0.0000 -1.3036 0.0000 4.1770
#
#
#
# Elastic Compliance Matrix: (Units=1/GPa)
#
#
# Indices 1 2 3 4 5 6 
#
# 1 0.014784 -0.003426 -0.007323 0.000000 -0.002268 0.000000
# 2 -0.003426 0.010245 0.002128 0.000000 0.003656 0.000000
# 3 -0.007323 0.002128 0.050949 0.000000 -0.020913 0.000000
# 4 0.000000 0.000000 0.000000 0.092297 0.000000 0.028806
# 5 -0.002268 0.003656 -0.020913 0.000000 0.048109 0.000000
# 6 0.000000 0.000000 0.000000 0.028806 0.000000 0.248396
#
#
# Mechanical properties :
#
#
# Convention : Reuss Voigt Hill
#
# Bulk Modulus (GPa) = 17.02526 30.75752 23.89139
# Shear Modulus (GPa) = 9.96810 21.09256 15.53033
#
# Velocity S-wave (km/s) = 2.13830 3.11048 2.66903
# Velocity P-wave (km/s) = 3.72906 5.19698 4.52297
#
# Compressibility (1/GPa) = 0.05873625
#
# Stress axis : x y z
#
# Youngs Moduli (GPa) = 67.63930 97.61169 19.62754
#
# Poissons Ratio (x) = 0.33441 0.14373
# Poissons Ratio (y) = 0.23173 -0.04177
# Poissons Ratio (z) = 0.49531 -0.20771
#
# Static dielectric constant tensor:
#      x y z
#    x 1.790450 0.000000 0.021480 
#    y 0.000000 1.767620 0.000000 
#    z 0.021480 0.000000 1.900980 
# 
# From -- ./inp_files/24692.got.cif
#   From: 2010.05.17/outbox.cif.g08.bks.cpg/sg10_13_cif.got.tgz:24692.got - 2010.06.03 11:33:40.
