data_PCOD9147982
_publ_section_title
;
Structure prediction by ZEFSAII (Michael W. Deem and Ramdas Pophale) SiO2 
 PCOD9147982
Probable space group: P 2/M
;
_chemical_formula_sum "Si O2"
_cell_formula_units_Z 32
_cell_length_a 11.514509
_cell_length_b 9.057761
_cell_length_c 29.340644
_cell_angle_alpha 90.000000
_cell_angle_beta 149.321482
_cell_angle_gamma 90.000000
_cell_volume 1561.326833
_symmetry_space_group_name_H-M "P 2/M"
_symmetry_group_IT_number 10
_symmetry_cell_setting 'monoclinic'
loop_
_space_group_symop_operation_xyz
x,y,z
-x,y,-z
-x,-y,-z
x,-y,z
loop_
_atom_site_type_symbol
_atom_site_label
_atom_site_fract_x
_atom_site_fract_y
_atom_site_fract_z
Si Si1 0.163902 0.175092 0.197096
Si Si2 0.249611 0.673487 0.393011
Si Si3 0.028534 0.675942 0.456066
Si Si4 0.452399 0.676882 0.367159
Si Si5 0.455121 0.675580 0.865563
Si Si6 0.068081 0.823572 0.971292
Si Si7 0.747251 0.673412 0.106815
Si Si8 0.160546 0.824756 0.692370
O O1 0.370109 0.252693 0.292594
O O2 0.123595 0.214082 0.130628
O O3 0.936037 0.228488 0.146303
O O4 0.188811 0.000000 0.209217
O O5 0.500000 0.683076 0.500000
O O6 0.180377 0.500000 0.371857
O O7 0.286138 0.717081 0.352709
O O8 0.065542 0.769061 0.357325
O O9 0.001236 0.500000 0.439097
O O10 0.289800 0.717284 0.533292
O O11 0.000000 0.704099 0.500000
O O12 0.863203 0.762424 0.366648
O O13 0.447543 0.500000 0.361399
O O14 0.462081 0.500000 0.861782
O O15 0.287832 0.706690 0.851653
O O16 0.366544 0.755095 0.790485
O O17 0.702365 0.736174 0.961974
O O18 0.110439 0.000000 0.981916
O O19 0.000000 0.790658 0.000000
O O20 0.811581 0.500000 0.124003
O O21 0.500000 0.691494 0.000000
O O22 0.176214 0.000000 0.697554
#
# Coordination Sequence:
#
# PCOD9147982 Si02
#       8
#     4   4   4   4   4   4   4   4
#     4  11  23  37  59  89 121 156 193 240 294 361
#     4  10  19  37  63  88 119 158 200 244 296 355
#     4  10  22  43  67  89 116 156 209 257 297 348
#     4  10  21  38  62  89 119 155 193 245 300 351
#     4  11  23  40  64  90 119 157 203 249 294 353
#     4  10  23  43  62  84 119 160 200 246 302 354
#     4  10  20  37  61  89 120 154 193 243 299 354
#     4  12  25  39  60  91 128 161 195 244 304 367
#
# _framework density 20.49539
#
# number of rings (size 3 to 8) (size 9 to 14) (size 15 to 20)
#    0.000    1.500    2.500    2.625    0.000    7.500 
#    0.000    2.500    0.000    0.000    0.000    0.000 
#    0.000    0.000    0.000    0.000    0.000    0.000 
#
# Total GULP energy -178956.482513 kJ/mol
# GULP energy per Si atom -5592.390079 kJ/mol
# Density = 2.044874 g / cm^3
# Si number density = 20.495390 Si / 1000 Ang^3
#
#
#
# Elastic Constant Matrix: (Units=GPa)
#
#
# Indices 1 2 3 4 5 6 
#
# 1 54.4323 23.5144 6.1964 0.0000 -28.0315 0.0000
# 2 23.5144 32.5039 19.9370 0.0000 -21.2176 0.0000
# 3 6.1964 19.9370 81.8089 0.0000 -38.7208 0.0000
# 4 0.0000 0.0000 0.0000 29.9101 0.0000 -4.8520
# 5 -28.0315 -21.2176 -38.7208 0.0000 36.6520 0.0000
# 6 0.0000 0.0000 0.0000 -4.8520 0.0000 27.8408
#
#
#
# Elastic Compliance Matrix: (Units=1/GPa)
#
#
# Indices 1 2 3 4 5 6 
#
# 1 0.055956 -0.016360 0.031044 0.000000 0.066121 0.000000
# 2 -0.016360 0.054607 -0.006058 0.000000 0.012699 0.000000
# 3 0.031044 -0.006058 0.041855 0.000000 0.064453 0.000000
# 4 0.000000 0.000000 0.000000 0.034406 0.000000 0.005996
# 5 0.066121 0.012699 0.064453 0.000000 0.153296 0.000000
# 6 0.000000 0.000000 0.000000 0.005996 0.000000 0.036963
#
#
# Mechanical properties :
#
#
# Convention : Reuss Voigt Hill
#
# Bulk Modulus (GPa) = 5.89381 29.78231 17.83806
# Shear Modulus (GPa) = 12.00805 26.82040 19.41422
#
# Velocity S-wave (km/s) = 2.42314 3.62139 3.08108
# Velocity P-wave (km/s) = 3.27273 5.66116 4.62382
#
# Compressibility (1/GPa) = 0.16966958
#
# Stress axis : x y z
#
# Youngs Moduli (GPa) = 17.87116 18.31280 23.89213
#
# Poissons Ratio (x) = 0.29960 -0.74172
# Poissons Ratio (y) = 0.29238 0.14474
# Poissons Ratio (z) = -0.55480 0.11094
#
# Static dielectric constant tensor:
#      x y z
#    x 1.743260 0.000000 -0.015220 
#    y 0.000000 1.673250 0.000000 
#    z -0.015220 0.000000 1.732930 
# 
# From -- ./inp_files/94950.got.cif
#   From: 2010.05.17/outbox.cif.g08.bks.cpg/sg10_48_cif.got.tgz:94950.got - 2010.06.03 11:33:40.
