data_PCOD9147664
_publ_section_title
;
Structure prediction by ZEFSAII (Michael W. Deem and Ramdas Pophale) SiO2 
 PCOD9147664
Probable space group: P 2/M
;
_chemical_formula_sum "Si O2"
_cell_formula_units_Z 16
_cell_length_a 17.973957
_cell_length_b 7.884875
_cell_length_c 12.972287
_cell_angle_alpha 90.000000
_cell_angle_beta 27.398044
_cell_angle_gamma 90.000000
_cell_volume 846.004878
_symmetry_space_group_name_H-M "P 2/M"
_symmetry_group_IT_number 10
_symmetry_cell_setting 'monoclinic'
loop_
_space_group_symop_operation_xyz
x,y,z
-x,y,-z
-x,-y,-z
x,-y,z
loop_
_atom_site_type_symbol
_atom_site_label
_atom_site_fract_x
_atom_site_fract_y
_atom_site_fract_z
Si Si1 0.810614 0.687507 0.449396
Si Si2 0.463192 0.193077 0.830206
Si Si3 0.370747 0.000000 0.750330
Si Si4 0.172859 0.206128 0.335326
Si Si5 0.007752 0.000000 0.113421
O O1 0.874264 0.500000 0.348764
O O2 0.627047 0.704056 0.635034
O O3 0.806900 0.718570 0.576570
O O4 0.916687 0.834892 0.268611
O O5 0.505525 0.000000 0.815388
O O6 0.400155 0.158463 0.791926
O O7 0.319296 0.256444 0.079761
O O8 0.500000 0.000000 0.500000
O O9 0.191257 0.000000 0.927390
O O10 0.000000 0.254115 0.500000
O O11 0.174845 0.000000 0.340376
O O12 0.000000 0.000000 0.000000
#
# Coordination Sequence:
#
# PCOD9147664 Si02
#       5
#     4   4   2   4   2
#     4  12  24  39  64  95 127 163 207 255 312 371
#     4   9  19  36  60  91 120 166 205 248 305 368
#     4  10  20  39  68  93 114 162 210 254 314 362
#     4  10  19  35  61  90 127 169 209 253 308 369
#     4  12  24  45  70  89 124 160 206 260 312 370
#
# _framework density 18.912420000000001
#
# number of rings (size 3 to 8) (size 9 to 14) (size 15 to 20)
#    0.750    0.750    2.500    3.750    0.000    5.000 
#    0.000    3.750    0.000    3.000    0.000    0.000 
#    0.000    0.000    0.000    0.000    0.000    0.000 
#
# Total GULP energy -89329.233789 kJ/mol
# GULP energy per Si atom -5583.077112 kJ/mol
# Density = 1.886937 g / cm^3
# Si number density = 18.912420 Si / 1000 Ang^3
#
#
#
# Elastic Constant Matrix: (Units=GPa)
#
#
# Indices 1 2 3 4 5 6 
#
# 1 162.8621 42.6342 79.9687 0.0000 -1.7689 0.0000
# 2 42.6342 96.5506 66.2324 0.0000 0.3993 0.0000
# 3 79.9687 66.2324 156.8281 0.0000 3.3543 0.0000
# 4 0.0000 0.0000 0.0000 -6.9929 0.0000 -0.9402
# 5 -1.7689 0.3993 3.3543 0.0000 43.5742 0.0000
# 6 0.0000 0.0000 0.0000 -0.9402 0.0000 -2.7990
#
#
#
# Elastic Compliance Matrix: (Units=1/GPa)
#
#
# Indices 1 2 3 4 5 6 
#
# 1 0.008286 -0.001061 -0.003791 0.000000 0.000638 0.000000
# 2 -0.001061 0.014723 -0.005682 0.000000 0.000259 0.000000
# 3 -0.003791 -0.005682 0.010729 0.000000 -0.000928 0.000000
# 4 0.000000 0.000000 0.000000 -0.149766 0.000000 0.050308
# 5 0.000638 0.000259 -0.000928 0.000000 0.023044 0.000000
# 6 0.000000 0.000000 0.000000 0.050308 0.000000 -0.374170
#
#
# Mechanical properties :
#
#
# Convention : Reuss Voigt Hill
#
# Bulk Modulus (GPa) = 78.92917 88.21236 83.57077
# Shear Modulus (GPa) = -11.31574 21.91682 5.30054
#
# Velocity S-wave (km/s) = -2.44872 3.40789 1.67594
# Velocity P-wave (km/s) = 5.81633 7.88852 6.93031
#
# Compressibility (1/GPa) = 0.01266959
#
# Stress axis : x y z
#
# Youngs Moduli (GPa) = 120.68230 67.92234 93.20621
#
# Poissons Ratio (x) = 0.07208 0.35332
# Poissons Ratio (y) = 0.12807 0.52961
# Poissons Ratio (z) = 0.45747 0.38595
#
# Static dielectric constant tensor:
#      x y z
#    x 1.636530 0.000000 -0.003100 
#    y 0.000000 1.690310 0.000000 
#    z -0.003100 0.000000 1.621300 
# 
# From -- ./inp_files/52543.got.cif
#   From: 2010.05.17/outbox.cif.g08.bks.cpg/sg10_27_cif.got.tgz:52543.got - 2010.06.03 11:33:40.
