data_PCOD9147034
_publ_section_title
;
Structure prediction by ZEFSAII (Michael W. Deem and Ramdas Pophale) SiO2 
 PCOD9147034
Probable space group: P 2/M
;
_chemical_formula_sum "Si O2"
_cell_formula_units_Z 32
_cell_length_a 14.828805
_cell_length_b 9.335751
_cell_length_c 21.578193
_cell_angle_alpha 90.000000
_cell_angle_beta 34.236485
_cell_angle_gamma 90.000000
_cell_volume 1680.652339
_symmetry_space_group_name_H-M "P 2/M"
_symmetry_group_IT_number 10
_symmetry_cell_setting 'monoclinic'
loop_
_space_group_symop_operation_xyz
x,y,z
-x,y,-z
-x,-y,-z
x,-y,z
loop_
_atom_site_type_symbol
_atom_site_label
_atom_site_fract_x
_atom_site_fract_y
_atom_site_fract_z
Si Si1 0.101172 0.670163 0.807806
Si Si2 0.017402 0.834384 0.381468
Si Si3 0.338158 0.168631 0.365010
Si Si4 0.939843 0.168399 0.787264
Si Si5 0.170027 0.162668 0.971789
Si Si6 0.353110 0.832362 0.738005
Si Si7 0.389573 0.835757 0.969618
Si Si8 0.329484 0.330059 0.243603
O O1 0.102734 0.500000 0.804371
O O2 0.269593 0.734654 0.734515
O O3 0.042416 0.738255 0.776511
O O4 0.969363 0.727340 0.932177
O O5 0.007144 0.816984 0.313364
O O6 0.153493 0.730136 0.328977
O O7 0.844554 0.811795 0.510105
O O8 0.065850 0.000000 0.366791
O O9 0.463052 0.199266 0.349128
O O10 0.372605 0.266326 0.286459
O O11 0.362056 0.000000 0.334702
O O12 0.952689 0.000000 0.797961
O O13 0.751233 0.205105 0.902654
O O14 0.257707 0.187142 0.857181
O O15 0.297396 0.168604 0.955627
O O16 0.103208 0.000000 0.009255
O O17 0.339613 0.000000 0.728435
O O18 0.542295 0.735228 0.877359
O O19 0.439872 0.000000 0.952681
O O20 0.334322 0.500000 0.240627
#
# Coordination Sequence:
#
# PCOD9147034 Si02
#       8
#     4   4   4   4   4   4   4   4
#     4  11  22  33  51  82 117 151 184 224 278 339
#     4  10  22  41  65  85 105 143 196 243 280 326
#     4  10  21  40  63  86 111 144 190 240 281 325
#     4   9  20  40  62  83 109 147 193 238 280 325
#     4   9  17  32  54  79 111 150 187 228 278 329
#     4  10  19  34  56  81 110 146 188 231 278 329
#     4   9  17  34  58  83 113 148 188 231 277 329
#     4  12  24  36  56  87 122 151 180 224 286 347
#
# _framework density 19.040227000000002
#
# number of rings (size 3 to 8) (size 9 to 14) (size 15 to 20)
#    0.000    2.000    1.250    3.750    0.000    7.500 
#    0.000    3.125    0.000    3.750    0.000    0.000 
#    0.000    0.000    0.000    0.000    0.000    0.000 
#
# Total GULP energy -178787.210535 kJ/mol
# GULP energy per Si atom -5587.100329 kJ/mol
# Density = 1.899689 g / cm^3
# Si number density = 19.040227 Si / 1000 Ang^3
#
#
#
# Elastic Constant Matrix: (Units=GPa)
#
#
# Indices 1 2 3 4 5 6 
#
# 1 48.8405 46.0822 19.4308 0.0000 -16.8418 0.0000
# 2 46.0822 183.3815 172.9174 0.0000 -31.6410 0.0000
# 3 19.4308 172.9174 271.0776 0.0000 -29.6147 0.0000
# 4 0.0000 0.0000 0.0000 -24.4446 0.0000 13.6587
# 5 -16.8418 -31.6410 -29.6147 0.0000 33.2354 0.0000
# 6 0.0000 0.0000 0.0000 13.6587 0.0000 1.4647
#
#
#
# Elastic Compliance Matrix: (Units=1/GPa)
#
#
# Indices 1 2 3 4 5 6 
#
# 1 0.034359 -0.013930 0.007618 0.000000 0.010937 0.000000
# 2 -0.013930 0.020428 -0.011830 0.000000 0.001847 0.000000
# 3 0.007618 -0.011830 0.010946 0.000000 0.002351 0.000000
# 4 0.000000 0.000000 0.000000 -0.006587 0.000000 0.061425
# 5 0.010937 0.001847 0.002351 0.000000 0.039484 0.000000
# 6 0.000000 0.000000 0.000000 0.061425 0.000000 0.109930
#
#
# Mechanical properties :
#
#
# Convention : Reuss Voigt Hill
#
# Bulk Modulus (GPa) = 33.95828 108.90670 71.43249
# Shear Modulus (GPa) = 19.63388 19.70905 19.67147
#
# Velocity S-wave (km/s) = 3.21468 3.22083 3.21776
# Velocity P-wave (km/s) = 5.62607 8.43529 7.16961
#
# Compressibility (1/GPa) = 0.02944790
#
# Stress axis : x y z
#
# Youngs Moduli (GPa) = 29.10421 48.95348 91.35625
#
# Poissons Ratio (x) = 0.68194 -0.69596
# Poissons Ratio (y) = 0.40543 1.08076
# Poissons Ratio (z) = -0.22172 0.57913
#
# Static dielectric constant tensor:
#      x y z
#    x 1.677450 0.000000 -0.013010 
#    y 0.000000 1.629860 0.000000 
#    z -0.013010 0.000000 1.666090 
# 
# From -- ./inp_files/89518.got.cif
#   From: 2010.05.17/outbox.cif.g08.bks.cpg/sg10_45_cif.got.tgz:89518.got - 2010.06.03 11:33:40.
