data_PCOD9147473
_publ_section_title
;
Structure prediction by ZEFSAII (Michael W. Deem and Ramdas Pophale) SiO2 
 PCOD9147473
Probable space group: P 2/M
;
_chemical_formula_sum "Si O2"
_cell_formula_units_Z 24
_cell_length_a 5.183261
_cell_length_b 18.983862
_cell_length_c 16.605057
_cell_angle_alpha 90.000000
_cell_angle_beta 124.318904
_cell_angle_gamma 90.000000
_cell_volume 1349.466047
_symmetry_space_group_name_H-M "P 2/M"
_symmetry_group_IT_number 10
_symmetry_cell_setting 'monoclinic'
loop_
_space_group_symop_operation_xyz
x,y,z
-x,y,-z
-x,-y,-z
x,-y,z
loop_
_atom_site_type_symbol
_atom_site_label
_atom_site_fract_x
_atom_site_fract_y
_atom_site_fract_z
Si Si1 0.881178 0.000000 0.570197
Si Si2 0.493051 0.500000 0.818137
Si Si3 0.046089 0.153824 0.606927
Si Si4 0.368475 0.352946 0.066640
Si Si5 0.750498 0.500000 0.683564
Si Si6 0.321563 0.283640 0.736423
Si Si7 0.500000 0.755208 0.500000
Si Si8 0.371432 0.653735 0.358490
O O1 0.500000 0.000000 0.500000
O O2 0.022358 0.072787 0.628864
O O3 0.000000 0.000000 0.500000
O O4 0.568233 0.429259 0.881253
O O5 0.681853 0.500000 0.767487
O O6 0.122273 0.500000 0.735624
O O7 0.734876 0.191881 0.582959
O O8 0.000000 0.157256 0.500000
O O9 0.300232 0.205798 0.691572
O O10 0.539199 0.293378 0.150432
O O11 0.500000 0.354036 0.000000
O O12 0.000000 0.340748 0.000000
O O13 0.609433 0.571369 0.623660
O O14 0.546436 0.329223 0.718625
O O15 0.976006 0.319202 0.679367
O O16 0.612910 0.700739 0.452431
#
# Coordination Sequence:
#
# PCOD9147473 Si02
#       8
#     2   2   4   4   2   4   2   4
#     4  10  20  32  54  90 118 144 172 212 256 324
#     4  12  22  37  54  77  99 136 174 238 304 331
#     4  10  19  35  57  83 118 144 176 212 266 321
#     4  12  23  38  55  79 103 138 186 232 283 333
#     4  12  20  36  54  72 105 142 185 236 275 325
#     4  11  22  37  56  78 108 146 179 226 273 327
#     4  10  20  32  54  76 110 152 184 218 260 314
#     4  11  21  35  53  74 106 143 193 224 271 315
#
# _framework density 17.784814000000001
#
# number of rings (size 3 to 8) (size 9 to 14) (size 15 to 20)
#    0.000    1.000    5.833    2.500    0.000    0.333 
#    0.000    0.000    0.000    4.000    0.000    1.167 
#    0.000    0.000    0.000    0.000    0.000    0.000 
#
# Total GULP energy -133703.991210 kJ/mol
# GULP energy per Si atom -5570.999634 kJ/mol
# Density = 1.774433 g / cm^3
# Si number density = 17.784814 Si / 1000 Ang^3
#
#
#
# Elastic Constant Matrix: (Units=GPa)
#
#
# Indices 1 2 3 4 5 6 
#
# 1 72.0006 11.4483 3.6845 0.0000 -2.1354 0.0000
# 2 11.4483 173.0680 41.1388 0.0000 3.9211 0.0000
# 3 3.6845 41.1388 53.3509 0.0000 -3.8681 0.0000
# 4 0.0000 0.0000 0.0000 20.0515 0.0000 1.4832
# 5 -2.1354 3.9211 -3.8681 0.0000 25.4506 0.0000
# 6 0.0000 0.0000 0.0000 1.4832 0.0000 16.2848
#
#
#
# Elastic Compliance Matrix: (Units=1/GPa)
#
#
# Indices 1 2 3 4 5 6 
#
# 1 0.014082 -0.000921 -0.000168 0.000000 0.001298 0.000000
# 2 -0.000921 0.007231 -0.005661 0.000000 -0.002052 0.000000
# 3 -0.000168 -0.005661 0.023441 0.000000 0.004421 0.000000
# 4 0.000000 0.000000 0.000000 0.050210 0.000000 -0.004573
# 5 0.001298 -0.002052 0.004421 0.000000 0.040389 0.000000
# 6 0.000000 0.000000 0.000000 -0.004573 0.000000 0.061823
#
#
# Mechanical properties :
#
#
# Convention : Reuss Voigt Hill
#
# Bulk Modulus (GPa) = 31.99591 45.66252 38.82921
# Shear Modulus (GPa) = 22.61471 28.50059 25.55765
#
# Velocity S-wave (km/s) = 3.56978 4.00750 3.79496
# Velocity P-wave (km/s) = 5.91783 6.86616 6.40956
#
# Compressibility (1/GPa) = 0.03125400
#
# Stress axis : x y z
#
# Youngs Moduli (GPa) = 71.01110 138.29102 42.65996
#
# Poissons Ratio (x) = 0.12736 0.00718
# Poissons Ratio (y) = 0.06540 0.24150
# Poissons Ratio (z) = 0.01195 0.78287
#
# Static dielectric constant tensor:
#      x y z
#    x 1.667530 0.000000 0.004630 
#    y 0.000000 1.632600 0.000000 
#    z 0.004630 0.000000 1.654060 
# 
# From -- ./inp_files/11563.got.cif
#   From: 2010.05.17/outbox.cif.g08.bks.cpg/sg10_6_cif.got.tgz:11563.got - 2010.06.03 11:33:40.
