data_PCOD9147077
_publ_section_title
;
Structure prediction by ZEFSAII (Michael W. Deem and Ramdas Pophale) SiO2 
 PCOD9147077
Probable space group: P 2/M
;
_chemical_formula_sum "Si O2"
_cell_formula_units_Z 32
_cell_length_a 12.267381
_cell_length_b 7.806956
_cell_length_c 29.624746
_cell_angle_alpha 90.000000
_cell_angle_beta 149.087496
_cell_angle_gamma 90.000000
_cell_volume 1457.544694
_symmetry_space_group_name_H-M "P 2/M"
_symmetry_group_IT_number 10
_symmetry_cell_setting 'monoclinic'
loop_
_space_group_symop_operation_xyz
x,y,z
-x,y,-z
-x,-y,-z
x,-y,z
loop_
_atom_site_type_symbol
_atom_site_label
_atom_site_fract_x
_atom_site_fract_y
_atom_site_fract_z
Si Si1 0.891731 0.209533 0.914527
Si Si2 0.976982 0.793056 0.196068
Si Si3 0.549193 0.301345 0.655706
Si Si4 0.688291 0.202330 0.169566
Si Si5 0.252764 0.208496 0.973503
Si Si6 0.557705 0.800112 0.282074
Si Si7 0.878169 0.300687 0.326870
Si Si8 0.359828 0.710211 0.493327
O O1 0.654553 0.269810 0.818364
O O2 0.051400 0.262220 0.931610
O O3 0.883560 0.000000 0.912147
O O4 0.000000 0.262720 0.000000
O O5 0.198043 0.715496 0.259390
O O6 0.892644 0.732881 0.214575
O O7 0.794681 0.749268 0.095042
O O8 0.006376 0.000000 0.205899
O O9 0.489020 0.500000 0.637517
O O10 0.474004 0.218889 0.675687
O O11 0.455314 0.232526 0.575289
O O12 0.720277 0.224034 0.233691
O O13 0.682245 0.000000 0.157767
O O14 0.469690 0.274399 0.072238
O O15 0.258012 0.000000 0.977663
O O16 0.770818 0.720724 0.337394
O O17 0.570294 0.000000 0.275787
O O18 0.891711 0.500000 0.321279
O O19 0.115522 0.230679 0.405243
O O20 0.500000 0.764871 0.500000
O O21 0.363263 0.500000 0.494508
#
# Coordination Sequence:
#
# PCOD9147077 Si02
#       8
#     4   4   4   4   4   4   4   4
#     4   9  16  28  52  80 107 147 196 237 271 324
#     4  10  19  34  56  85 118 154 195 240 290 346
#     4  11  22  38  62  88 116 153 198 246 294 346
#     4  10  20  34  57  86 116 152 197 244 290 343
#     4   9  16  30  52  81 114 152 198 236 277 342
#     4  11  22  39  61  86 119 153 193 242 292 349
#     4  11  23  40  61  85 116 151 193 242 293 347
#     4   9  20  40  64  87 113 153 199 235 280 352
#
# _framework density 21.954727999999999
#
# number of rings (size 3 to 8) (size 9 to 14) (size 15 to 20)
#    0.000    2.000    1.250    3.000    0.000    5.500 
#    0.000    5.625    0.000    7.500    0.000    0.000 
#    0.000    0.000    0.000    0.000    0.000    0.000 
#
# Total GULP energy -178733.968298 kJ/mol
# GULP energy per Si atom -5585.436509 kJ/mol
# Density = 2.190476 g / cm^3
# Si number density = 21.954728 Si / 1000 Ang^3
#
#
#
# Elastic Constant Matrix: (Units=GPa)
#
#
# Indices 1 2 3 4 5 6 
#
# 1 128.8419 -3.9318 42.5956 0.0000 7.7269 0.0000
# 2 -3.9318 24.3213 -2.8177 0.0000 1.5777 0.0000
# 3 42.5956 -2.8177 98.2808 0.0000 -0.9360 0.0000
# 4 0.0000 0.0000 0.0000 14.3810 0.0000 1.3482
# 5 7.7269 1.5777 -0.9360 0.0000 37.8446 0.0000
# 6 0.0000 0.0000 0.0000 1.3482 0.0000 16.4054
#
#
#
# Elastic Compliance Matrix: (Units=1/GPa)
#
#
# Indices 1 2 3 4 5 6 
#
# 1 0.009238 0.001163 -0.003990 0.000000 -0.002033 0.000000
# 2 0.001163 0.041508 0.000667 0.000000 -0.001951 0.000000
# 3 -0.003990 0.000667 0.011934 0.000000 0.001082 0.000000
# 4 0.000000 0.000000 0.000000 0.070076 0.000000 -0.005759
# 5 -0.002033 -0.001951 0.001082 0.000000 0.026947 0.000000
# 6 0.000000 0.000000 0.000000 -0.005759 0.000000 0.061429
#
#
# Mechanical properties :
#
#
# Convention : Reuss Voigt Hill
#
# Bulk Modulus (GPa) = 17.13473 35.90402 26.51938
# Shear Modulus (GPa) = 20.41616 28.09940 24.25778
#
# Velocity S-wave (km/s) = 3.05277 3.58142 3.32761
# Velocity P-wave (km/s) = 4.49971 5.78716 5.18356
#
# Compressibility (1/GPa) = 0.05836099
#
# Stress axis : x y z
#
# Youngs Moduli (GPa) = 108.24944 24.09162 83.79726
#
# Poissons Ratio (x) = -0.02802 0.33433
# Poissons Ratio (y) = -0.12590 -0.05592
# Poissons Ratio (z) = 0.43189 -0.01608
#
# Static dielectric constant tensor:
#      x y z
#    x 1.789050 0.000000 -0.005700 
#    y 0.000000 1.824440 0.000000 
#    z -0.005700 0.000000 1.802530 
# 
# From -- ./inp_files/63764.got.cif
#   From: 2010.05.17/outbox.cif.g08.bks.cpg/sg10_32_cif.got.tgz:63764.got - 2010.06.03 11:33:40.
