data_PCOD9147492
_publ_section_title
;
Structure prediction by ZEFSAII (Michael W. Deem and Ramdas Pophale) SiO2 
 PCOD9147492
Probable space group: P 2/M
;
_chemical_formula_sum "Si O2"
_cell_formula_units_Z 28
_cell_length_a 8.224323
_cell_length_b 13.009175
_cell_length_c 14.982514
_cell_angle_alpha 90.000000
_cell_angle_beta 69.308518
_cell_angle_gamma 90.000000
_cell_volume 1499.604746
_symmetry_space_group_name_H-M "P 2/M"
_symmetry_group_IT_number 10
_symmetry_cell_setting 'monoclinic'
loop_
_space_group_symop_operation_xyz
x,y,z
-x,y,-z
-x,-y,-z
x,-y,z
loop_
_atom_site_type_symbol
_atom_site_label
_atom_site_fract_x
_atom_site_fract_y
_atom_site_fract_z
Si Si1 0.917159 0.116991 0.427296
Si Si2 0.368553 0.000000 0.880039
Si Si3 0.421839 0.215365 0.791076
Si Si4 0.180449 0.817735 0.231409
Si Si5 0.169920 0.616286 0.909624
Si Si6 0.247069 0.000000 0.099185
Si Si7 0.962504 0.389077 0.267020
Si Si8 0.650414 0.724437 0.400541
O O1 0.755715 0.179198 0.420449
O O2 0.000000 0.165089 0.500000
O O3 0.073511 0.120925 0.326744
O O4 0.865319 0.000000 0.456622
O O5 0.343422 0.897506 0.826691
O O6 0.564065 0.000000 0.886257
O O7 0.255363 0.000000 0.991450
O O8 0.621967 0.203683 0.779954
O O9 0.321978 0.299112 0.872347
O O10 0.408555 0.246846 0.689192
O O11 0.167318 0.892394 0.148542
O O12 0.089381 0.707508 0.243957
O O13 0.224108 0.500000 0.928449
O O14 0.105795 0.607377 0.820564
O O15 0.000000 0.646427 0.000000
O O16 0.039949 0.500000 0.275249
O O17 0.795959 0.363546 0.360403
O O18 0.500000 0.698290 0.500000
#
# Coordination Sequence:
#
# PCOD9147492 Si02
#       8
#     4   2   4   4   4   2   4   4
#     4  10  20  34  54  80 110 147 185 227 278 328
#     4   9  20  34  51  79 115 143 185 225 273 332
#     4  10  21  36  57  84 113 148 186 232 279 332
#     4  10  19  35  58  80 114 145 191 230 277 336
#     4   9  19  37  56  77 110 147 187 232 283 329
#     4   9  18  34  52  76 110 154 178 224 281 321
#     4   9  20  37  57  81 111 146 185 234 281 331
#     4  10  21  37  57  82 113 146 185 231 278 335
#
# _framework density 18.671588
#
# number of rings (size 3 to 8) (size 9 to 14) (size 15 to 20)
#    0.000    2.429    0.714    0.857    3.000    1.143 
#    0.000    0.357    0.000   17.143    0.000    0.000 
#    0.000    0.000    0.000    0.000    0.000    0.000 
#
# Total GULP energy -155970.279623 kJ/mol
# GULP energy per Si atom -5570.367129 kJ/mol
# Density = 1.862909 g / cm^3
# Si number density = 18.671588 Si / 1000 Ang^3
#
#
#
# Elastic Constant Matrix: (Units=GPa)
#
#
# Indices 1 2 3 4 5 6 
#
# 1 43.1340 26.7636 12.3098 0.0000 -13.5604 0.0000
# 2 26.7636 119.6776 30.7537 0.0000 -8.2231 0.0000
# 3 12.3098 30.7537 100.1478 0.0000 -16.9506 0.0000
# 4 0.0000 0.0000 0.0000 18.9539 0.0000 6.6166
# 5 -13.5604 -8.2231 -16.9506 0.0000 20.7706 0.0000
# 6 0.0000 0.0000 0.0000 6.6166 0.0000 21.2238
#
#
#
# Elastic Compliance Matrix: (Units=1/GPa)
#
#
# Indices 1 2 3 4 5 6 
#
# 1 0.033085 -0.006347 0.001291 0.000000 0.020141 0.000000
# 2 -0.006347 0.010331 -0.002786 0.000000 -0.002327 0.000000
# 3 0.001291 -0.002786 0.012343 0.000000 0.009813 0.000000
# 4 0.000000 0.000000 0.000000 0.059203 0.000000 -0.018457
# 5 0.020141 -0.002327 0.009813 0.000000 0.068381 0.000000
# 6 0.000000 0.000000 0.000000 -0.018457 0.000000 0.052871
#
#
# Mechanical properties :
#
#
# Convention : Reuss Voigt Hill
#
# Bulk Modulus (GPa) = 24.95278 44.73484 34.84381
# Shear Modulus (GPa) = 18.84969 25.06514 21.95742
#
# Velocity S-wave (km/s) = 3.18077 3.66788 3.43298
# Velocity P-wave (km/s) = 5.18486 6.47677 5.86649
#
# Compressibility (1/GPa) = 0.04007570
#
# Stress axis : x y z
#
# Youngs Moduli (GPa) = 30.22522 96.79422 81.01725
#
# Poissons Ratio (x) = 0.61433 -0.10462
# Poissons Ratio (y) = 0.19183 0.22574
# Poissons Ratio (z) = -0.03903 0.26970
#
# Static dielectric constant tensor:
#      x y z
#    x 1.639900 0.000000 -0.015190 
#    y 0.000000 1.684880 0.000000 
#    z -0.015190 0.000000 1.658870 
# 
# From -- ./inp_files/61156.got.cif
#   From: 2010.05.17/outbox.cif.g08.bks.cpg/sg10_31_cif.got.tgz:61156.got - 2010.06.03 11:33:40.
