data_PCOD9147282
_publ_section_title
;
Structure prediction by ZEFSAII (Michael W. Deem and Ramdas Pophale) SiO2 
 PCOD9147282
Probable space group: P 2/M
;
_chemical_formula_sum "Si O2"
_cell_formula_units_Z 28
_cell_length_a 13.383718
_cell_length_b 8.700900
_cell_length_c 13.894229
_cell_angle_alpha 90.000000
_cell_angle_beta 59.802324
_cell_angle_gamma 90.000000
_cell_volume 1398.419626
_symmetry_space_group_name_H-M "P 2/M"
_symmetry_group_IT_number 10
_symmetry_cell_setting 'monoclinic'
loop_
_space_group_symop_operation_xyz
x,y,z
-x,y,-z
-x,-y,-z
x,-y,z
loop_
_atom_site_type_symbol
_atom_site_label
_atom_site_fract_x
_atom_site_fract_y
_atom_site_fract_z
Si Si1 0.460281 0.747585 0.119509
Si Si2 0.219543 0.181746 0.592644
Si Si3 0.790994 0.174524 0.825973
Si Si4 0.712079 0.174347 0.066965
Si Si5 0.351148 0.679755 0.707899
Si Si6 0.584423 0.183756 0.657559
Si Si7 0.992552 0.682229 0.614412
O O1 0.341884 0.827478 0.144518
O O2 0.579779 0.830163 0.091366
O O3 0.422789 0.702123 0.246441
O O4 0.500000 0.664730 0.000000
O O5 0.271857 0.270069 0.658119
O O6 0.303262 0.211175 0.460821
O O7 0.092093 0.236031 0.627258
O O8 0.221984 0.000000 0.611025
O O9 0.869377 0.277532 0.720388
O O10 0.834839 0.000000 0.801447
O O11 0.787052 0.226639 0.939259
O O12 0.710580 0.280806 0.160675
O O13 0.744333 0.000000 0.077606
O O14 0.378835 0.500000 0.689137
O O15 0.469082 0.779291 0.652868
O O16 0.584230 0.000000 0.684761
O O17 0.011747 0.500000 0.607131
O O18 0.000000 0.734922 0.500000
#
# Coordination Sequence:
#
# PCOD9147282 Si02
#       7
#     4   4   4   4   4   4   4
#     4   9  16  29  54  86 116 145 181 228 278 326
#     4  11  23  40  62  83 107 145 195 243 280 325
#     4  10  19  34  59  86 112 149 196 240 279 325
#     4   9  18  34  57  86 118 149 187 235 281 329
#     4  11  22  36  57  85 118 151 182 224 284 349
#     4  10  20  34  55  84 115 148 188 233 279 329
#     4  11  25  42  58  81 117 154 186 228 282 337
#
# _framework density 20.022601999999999
#
# number of rings (size 3 to 8) (size 9 to 14) (size 15 to 20)
#    0.000    1.857    0.000    5.571    0.000    8.857 
#    0.000    5.000    0.000   15.857    0.000    0.000 
#    0.000    0.000    0.000    0.000    0.000    0.000 
#
# Total GULP energy -155968.682969 kJ/mol
# GULP energy per Si atom -5570.310106 kJ/mol
# Density = 1.997703 g / cm^3
# Si number density = 20.022602 Si / 1000 Ang^3
#
#
#
# Elastic Constant Matrix: (Units=GPa)
#
#
# Indices 1 2 3 4 5 6 
#
# 1 69.9518 14.1381 31.9045 0.0000 11.8275 0.0000
# 2 14.1381 54.3323 31.1336 0.0000 4.4856 0.0000
# 3 31.9045 31.1336 106.4413 0.0000 3.5590 0.0000
# 4 0.0000 0.0000 0.0000 -1.5845 0.0000 -1.0004
# 5 11.8275 4.4856 3.5590 0.0000 21.3413 0.0000
# 6 0.0000 0.0000 0.0000 -1.0004 0.0000 -38.5724
#
#
#
# Elastic Compliance Matrix: (Units=1/GPa)
#
#
# Indices 1 2 3 4 5 6 
#
# 1 0.018274 -0.001252 -0.004808 0.000000 -0.009063 0.000000
# 2 -0.001252 0.022474 -0.006098 0.000000 -0.003013 0.000000
# 3 -0.004808 -0.006098 0.012558 0.000000 0.001852 0.000000
# 4 0.000000 0.000000 0.000000 -0.641606 0.000000 0.016641
# 5 -0.009063 -0.003013 0.001852 0.000000 0.052204 0.000000
# 6 0.000000 0.000000 0.000000 0.016641 0.000000 -0.026357
#
#
# Mechanical properties :
#
#
# Convention : Reuss Voigt Hill
#
# Bulk Modulus (GPa) = 34.49435 42.78643 38.64039
# Shear Modulus (GPa) = -9.46118 6.47349 -1.49385
#
# Velocity S-wave (km/s) = -2.17612 1.80003 -0.86470
# Velocity P-wave (km/s) = 3.30924 5.07303 4.28291
#
# Compressibility (1/GPa) = 0.02899026
#
# Stress axis : x y z
#
# Youngs Moduli (GPa) = 54.72307 44.49637 79.63280
#
# Poissons Ratio (x) = 0.05570 0.38289
# Poissons Ratio (y) = 0.06850 0.48556
# Poissons Ratio (z) = 0.26312 0.27132
#
# Static dielectric constant tensor:
#      x y z
#    x 1.677680 0.000000 0.025240 
#    y 0.000000 1.678790 0.000000 
#    z 0.025240 0.000000 1.743360 
# 
# From -- ./inp_files/63622.got.cif
#   From: 2010.05.17/outbox.cif.g08.bks.cpg/sg10_32_cif.got.tgz:63622.got - 2010.06.03 11:33:40.
