data_PCOD9147928
_publ_section_title
;
Structure prediction by ZEFSAII (Michael W. Deem and Ramdas Pophale) SiO2 
 PCOD9147928
Probable space group: P 2/M
;
_chemical_formula_sum "Si O2"
_cell_formula_units_Z 22
_cell_length_a 15.163587
_cell_length_b 15.243205
_cell_length_c 11.689067
_cell_angle_alpha 90.000000
_cell_angle_beta 28.250069
_cell_angle_gamma 90.000000
_cell_volume 1278.832337
_symmetry_space_group_name_H-M "P 2/M"
_symmetry_group_IT_number 10
_symmetry_cell_setting 'monoclinic'
loop_
_space_group_symop_operation_xyz
x,y,z
-x,y,-z
-x,-y,-z
x,-y,z
loop_
_atom_site_type_symbol
_atom_site_label
_atom_site_fract_x
_atom_site_fract_y
_atom_site_fract_z
Si Si1 0.651035 0.600831 0.141427
Si Si2 0.500000 0.734830 0.500000
Si Si3 0.586034 0.697671 0.776159
Si Si4 0.635475 0.852288 0.544154
Si Si5 0.052678 0.000000 0.808027
Si Si6 0.048437 0.398636 0.572863
Si Si7 0.621670 0.000000 0.240466
O O1 0.604278 0.500000 0.225962
O O2 0.608508 0.670454 0.289568
O O3 0.535038 0.631185 0.162692
O O4 0.865385 0.604264 0.859296
O O5 0.632491 0.795661 0.428874
O O6 0.603449 0.786591 0.684642
O O7 0.789389 0.657768 0.559355
O O8 0.500000 0.709034 0.000000
O O9 0.814941 0.914480 0.359733
O O10 0.457037 0.915101 0.733526
O O11 0.000000 0.000000 0.000000
O O12 0.845763 0.000000 0.989444
O O13 0.110838 0.500000 0.491282
O O14 0.000000 0.368172 0.500000
O O15 0.500000 0.000000 0.500000
#
# Coordination Sequence:
#
# PCOD9147928 Si02
#       7
#     4   2   4   4   2   4   2
#     4  10  21  36  56  80 117 158 194 235 280 332
#     4  10  19  37  56  86 122 148 184 239 289 332
#     4  11  22  37  57  84 114 149 191 239 283 326
#     4  10  22  36  57  89 111 142 187 229 281 340
#     4  11  19  36  63  82 111 146 178 225 280 341
#     4  10  20  35  55  82 111 149 202 240 271 324
#     4  11  19  40  59  82 108 141 183 221 273 345
#
# _framework density 17.203194
#
# number of rings (size 3 to 8) (size 9 to 14) (size 15 to 20)
#    0.000    1.636    4.545    0.818    0.000    5.091 
#    0.000    4.545    0.000   10.909    0.000    0.000 
#    0.000    0.000    0.000    0.000    0.000    0.000 
#
# Total GULP energy -122670.194703 kJ/mol
# GULP energy per Si atom -5575.917941 kJ/mol
# Density = 1.716404 g / cm^3
# Si number density = 17.203194 Si / 1000 Ang^3
#
#
#
# Elastic Constant Matrix: (Units=GPa)
#
#
# Indices 1 2 3 4 5 6 
#
# 1 110.9671 68.0833 53.1646 0.0000 -14.4348 0.0000
# 2 68.0833 122.9829 53.3476 0.0000 -16.3314 0.0000
# 3 53.1646 53.3476 80.0925 0.0000 -20.0776 0.0000
# 4 0.0000 0.0000 0.0000 14.9201 0.0000 -0.2784
# 5 -14.4348 -16.3314 -20.0776 0.0000 35.4244 0.0000
# 6 0.0000 0.0000 0.0000 -0.2784 0.0000 37.3171
#
#
#
# Elastic Compliance Matrix: (Units=1/GPa)
#
#
# Indices 1 2 3 4 5 6 
#
# 1 0.015755 -0.005886 -0.006537 0.000000 0.000001 0.000000
# 2 -0.005886 0.013672 -0.004920 0.000000 0.001116 0.000000
# 3 -0.006537 -0.004920 0.021990 0.000000 0.007531 0.000000
# 4 0.000000 0.000000 0.000000 0.067033 0.000000 0.000500
# 5 0.000001 0.001116 0.007531 0.000000 0.033013 0.000000
# 6 0.000000 0.000000 0.000000 0.000500 0.000000 0.026801
#
#
# Mechanical properties :
#
#
# Convention : Reuss Voigt Hill
#
# Bulk Modulus (GPa) = 59.76945 73.69261 66.73103
# Shear Modulus (GPa) = 22.88046 26.82879 24.85463
#
# Velocity S-wave (km/s) = 3.65089 3.95337 3.80513
# Velocity P-wave (km/s) = 7.25194 7.98551 7.62755
#
# Compressibility (1/GPa) = 0.01673095
#
# Stress axis : x y z
#
# Youngs Moduli (GPa) = 63.47066 73.14172 45.47598
#
# Poissons Ratio (x) = 0.43053 0.29729
# Poissons Ratio (y) = 0.37360 0.22372
# Poissons Ratio (z) = 0.41492 0.35983
#
# Static dielectric constant tensor:
#      x y z
#    x 1.436790 0.000000 0.066780 
#    y 0.000000 1.601040 0.000000 
#    z 0.066780 0.000000 1.530290 
# 
# From -- ./inp_files/51357.got.cif
#   From: 2010.05.17/outbox.cif.g08.bks.cpg/sg10_26_cif.got.tgz:51357.got - 2010.06.03 11:33:40.
