data_PCOD9147649
_publ_section_title
;
Structure prediction by ZEFSAII (Michael W. Deem and Ramdas Pophale) SiO2 
 PCOD9147649
Probable space group: P 2/M
;
_chemical_formula_sum "Si O2"
_cell_formula_units_Z 24
_cell_length_a 14.863577
_cell_length_b 7.560952
_cell_length_c 9.793529
_cell_angle_alpha 90.000000
_cell_angle_beta 72.273932
_cell_angle_gamma 90.000000
_cell_volume 1048.369865
_symmetry_space_group_name_H-M "P 2/M"
_symmetry_group_IT_number 10
_symmetry_cell_setting 'monoclinic'
loop_
_space_group_symop_operation_xyz
x,y,z
-x,y,-z
-x,-y,-z
x,-y,z
loop_
_atom_site_type_symbol
_atom_site_label
_atom_site_fract_x
_atom_site_fract_y
_atom_site_fract_z
Si Si1 0.785529 0.204424 0.925454
Si Si2 0.904673 0.712934 0.618935
Si Si3 0.209520 0.715736 0.586201
Si Si4 0.591777 0.212527 0.872930
Si Si5 0.092020 0.297493 0.886916
Si Si6 0.414562 0.287487 0.447449
O O1 0.872259 0.215632 0.778561
O O2 0.690595 0.275869 0.895800
O O3 0.768895 0.000000 0.968416
O O4 0.822560 0.297902 0.044141
O O5 0.911322 0.500000 0.629896
O O6 0.822264 0.759062 0.551280
O O7 0.000000 0.772476 0.500000
O O8 0.208620 0.500000 0.596952
O O9 0.133769 0.782979 0.729980
O O10 0.315671 0.778379 0.554627
O O11 0.582158 0.252731 0.716421
O O12 0.594258 0.000000 0.882277
O O13 0.500000 0.275729 0.000000
O O14 0.064409 0.500000 0.865057
O O15 0.000000 0.214984 0.000000
O O16 0.500000 0.218730 0.500000
O O17 0.414016 0.500000 0.460501
#
# Coordination Sequence:
#
# PCOD9147649 Si02
#       6
#     4   4   4   4   4   4
#     4  11  23  38  57  85 119 152 191 240 288 337
#     4  10  19  35  61  86 110 147 190 232 284 345
#     4   9  18  34  55  82 114 143 181 235 283 333
#     4  10  23  42  60  82 116 156 196 235 284 350
#     4  10  21  38  60  85 115 154 196 234 282 344
#     4  10  21  37  59  88 115 141 185 243 295 340
#
# _framework density 22.892685
#
# number of rings (size 3 to 8) (size 9 to 14) (size 15 to 20)
#    0.000    2.000    1.667    1.500    2.333    4.667 
#    0.000    1.667    0.000    0.000    0.000    0.000 
#    0.000    0.000    0.000    0.000    0.000    0.000 
#
# Total GULP energy -134080.684010 kJ/mol
# GULP energy per Si atom -5586.695167 kJ/mol
# Density = 2.284058 g / cm^3
# Si number density = 22.892685 Si / 1000 Ang^3
#
#
#
# Elastic Constant Matrix: (Units=GPa)
#
#
# Indices 1 2 3 4 5 6 
#
# 1 93.8498 -1.5103 2.9575 0.0000 -2.8979 0.0000
# 2 -1.5103 57.0667 -9.5440 0.0000 -1.4003 0.0000
# 3 2.9575 -9.5440 91.7360 0.0000 -7.5764 0.0000
# 4 0.0000 0.0000 0.0000 4.4662 0.0000 7.6738
# 5 -2.8979 -1.4003 -7.5764 0.0000 41.3512 0.0000
# 6 0.0000 0.0000 0.0000 7.6738 0.0000 9.0420
#
#
#
# Elastic Compliance Matrix: (Units=1/GPa)
#
#
# Indices 1 2 3 4 5 6 
#
# 1 0.010690 0.000257 -0.000259 0.000000 0.000710 0.000000
# 2 0.000257 0.017877 0.001932 0.000000 0.000977 0.000000
# 3 -0.000259 0.001932 0.011285 0.000000 0.002115 0.000000
# 4 0.000000 0.000000 0.000000 -0.488670 0.000000 0.414723
# 5 0.000710 0.000977 0.002115 0.000000 0.024653 0.000000
# 6 0.000000 0.000000 0.000000 0.414723 0.000000 -0.241372
#
#
# Mechanical properties :
#
#
# Convention : Reuss Voigt Hill
#
# Bulk Modulus (GPa) = 22.87700 25.16209 24.01955
# Shear Modulus (GPa) = -7.63561 27.68851 10.02645
#
# Velocity S-wave (km/s) = -1.82829 3.48155 2.09506
# Velocity P-wave (km/s) = 2.35754 5.21313 4.04566
#
# Compressibility (1/GPa) = 0.04371203
#
# Stress axis : x y z
#
# Youngs Moduli (GPa) = 93.54922 55.93685 88.61389
#
# Poissons Ratio (x) = -0.01438 0.02297
# Poissons Ratio (y) = -0.02404 -0.17123
# Poissons Ratio (z) = 0.02425 -0.10809
#
# Static dielectric constant tensor:
#      x y z
#    x 1.881710 0.000000 -0.013260 
#    y 0.000000 1.893550 0.000000 
#    z -0.013260 0.000000 1.802250 
# 
# From -- ./inp_files/27021.got.cif
#   From: 2010.05.17/outbox.cif.g08.bks.cpg/sg10_14_cif.got.tgz:27021.got - 2010.06.03 11:33:40.
