data_PCOD9147128
_publ_section_title
;
Structure prediction by ZEFSAII (Michael W. Deem and Ramdas Pophale) SiO2 
 PCOD9147128
Probable space group: P 2/M
;
_chemical_formula_sum "Si O2"
_cell_formula_units_Z 28
_cell_length_a 14.280085
_cell_length_b 7.496491
_cell_length_c 18.419957
_cell_angle_alpha 90.000000
_cell_angle_beta 141.991983
_cell_angle_gamma 90.000000
_cell_volume 1214.219422
_symmetry_space_group_name_H-M "P 2/M"
_symmetry_group_IT_number 10
_symmetry_cell_setting 'monoclinic'
loop_
_space_group_symop_operation_xyz
x,y,z
-x,y,-z
-x,-y,-z
x,-y,z
loop_
_atom_site_type_symbol
_atom_site_label
_atom_site_fract_x
_atom_site_fract_y
_atom_site_fract_z
Si Si1 0.978807 0.284959 0.326976
Si Si2 0.204862 0.704041 0.651124
Si Si3 0.426434 0.286085 0.378250
Si Si4 0.694879 0.282742 0.442798
Si Si5 0.502924 0.783501 0.917347
Si Si6 0.828742 0.792322 0.085842
Si Si7 0.925983 0.214632 0.877919
O O1 0.966056 0.500000 0.320653
O O2 0.154165 0.239536 0.418879
O O3 0.922932 0.220771 0.372334
O O4 0.876063 0.218062 0.198897
O O5 0.161251 0.500000 0.607713
O O6 0.260574 0.785689 0.609623
O O7 0.355330 0.705086 0.791096
O O8 0.500000 0.221646 0.500000
O O9 0.439836 0.500000 0.389121
O O10 0.539939 0.219368 0.384299
O O11 0.249987 0.252933 0.250242
O O12 0.684401 0.500000 0.432404
O O13 0.495917 0.000000 0.907817
O O14 0.500000 0.737603 0.000000
O O15 0.659025 0.718207 0.976263
O O16 0.961492 0.716512 0.116690
O O17 0.816302 0.000000 0.058582
O O18 0.932331 0.000000 0.883679
O O19 0.000000 0.276284 0.000000
#
# Coordination Sequence:
#
# PCOD9147128 Si02
#       7
#     4   4   4   4   4   4   4
#     4  10  19  34  57  82 109 144 182 219 264 325
#     4  10  20  33  53  81 111 141 179 222 265 319
#     4  10  21  39  62  86 114 149 192 238 285 339
#     4   9  19  35  55  81 113 144 175 221 278 325
#     4  10  20  35  54  76 107 145 179 217 269 325
#     4  10  21  37  56  78 109 146 181 221 273 327
#     4  10  23  41  60  84 115 149 190 240 289 337
#
# _framework density 23.060081
#
# number of rings (size 3 to 8) (size 9 to 14) (size 15 to 20)
#    0.000    2.143    1.429    1.286    2.000    4.857 
#    0.000    1.429    0.000    1.714    0.000    0.000 
#    0.000    0.000    0.000    0.000    0.000    0.000 
#
# Total GULP energy -156308.150691 kJ/mol
# GULP energy per Si atom -5582.433953 kJ/mol
# Density = 2.300760 g / cm^3
# Si number density = 23.060081 Si / 1000 Ang^3
#
#
#
# Elastic Constant Matrix: (Units=GPa)
#
#
# Indices 1 2 3 4 5 6 
#
# 1 191.3607 12.1725 70.0299 0.0000 30.4991 0.0000
# 2 12.1725 59.6833 6.1589 0.0000 4.6464 0.0000
# 3 70.0299 6.1589 125.0345 0.0000 21.8132 0.0000
# 4 0.0000 0.0000 0.0000 9.4131 0.0000 4.5026
# 5 30.4991 4.6464 21.8132 0.0000 46.7269 0.0000
# 6 0.0000 0.0000 0.0000 4.5026 0.0000 9.3759
#
#
#
# Elastic Compliance Matrix: (Units=1/GPa)
#
#
# Indices 1 2 3 4 5 6 
#
# 1 0.006970 -0.000850 -0.003356 0.000000 -0.002898 0.000000
# 2 -0.000850 0.017029 -0.000179 0.000000 -0.001055 0.000000
# 3 -0.003356 -0.000179 0.010344 0.000000 -0.002620 0.000000
# 4 0.000000 0.000000 0.000000 0.137916 0.000000 -0.066232
# 5 -0.002898 -0.001055 -0.002620 0.000000 0.024621 0.000000
# 6 0.000000 0.000000 0.000000 -0.066232 0.000000 0.138463
#
#
# Mechanical properties :
#
#
# Convention : Reuss Voigt Hill
#
# Bulk Modulus (GPa) = 39.10385 61.42234 50.26309
# Shear Modulus (GPa) = 14.17893 32.28432 23.23162
#
# Velocity S-wave (km/s) = 2.48235 3.74573 3.17746
# Velocity P-wave (km/s) = 5.02098 6.73802 5.94185
#
# Compressibility (1/GPa) = 0.02557293
#
# Stress axis : x y z
#
# Youngs Moduli (GPa) = 143.47326 58.72341 96.67887
#
# Poissons Ratio (x) = 0.04989 0.32448
# Poissons Ratio (y) = 0.12189 0.01729
# Poissons Ratio (z) = 0.48154 0.01050
#
# Static dielectric constant tensor:
#      x y z
#    x 1.880660 0.000000 -0.006430 
#    y 0.000000 1.889220 0.000000 
#    z -0.006430 0.000000 1.831140 
# 
# From -- ./inp_files/77815.got.cif
#   From: 2010.05.17/outbox.cif.g08.bks.cpg/sg10_39_cif.got.tgz:77815.got - 2010.06.03 11:33:40.
