data_PCOD9147823
_publ_section_title
;
Structure prediction by ZEFSAII (Michael W. Deem and Ramdas Pophale) SiO2 
 PCOD9147823
Probable space group: P 2/M
;
_chemical_formula_sum "Si O2"
_cell_formula_units_Z 12
_cell_length_a 24.072226
_cell_length_b 5.474433
_cell_length_c 13.347359
_cell_angle_alpha 90.000000
_cell_angle_beta 16.632643
_cell_angle_gamma 90.000000
_cell_volume 503.468635
_symmetry_space_group_name_H-M "P 2/M"
_symmetry_group_IT_number 10
_symmetry_cell_setting 'monoclinic'
loop_
_space_group_symop_operation_xyz
x,y,z
-x,y,-z
-x,-y,-z
x,-y,z
loop_
_atom_site_type_symbol
_atom_site_label
_atom_site_fract_x
_atom_site_fract_y
_atom_site_fract_z
Si Si1 0.422623 0.000000 0.855017
Si Si2 0.174972 0.500000 0.614192
Si Si3 0.762136 0.000000 0.420053
Si Si4 0.991539 0.000000 0.393839
Si Si5 0.913797 0.500000 0.876009
Si Si6 0.507334 0.500000 0.367933
O O1 0.402905 0.249515 0.826340
O O2 0.632978 0.000000 0.543201
O O3 0.233940 0.000000 0.251070
O O4 0.287479 0.749507 0.438792
O O5 0.085576 0.500000 0.658687
O O6 0.000000 0.500000 0.000000
O O7 0.000000 0.000000 0.000000
O O8 0.000000 0.000000 0.500000
O O9 0.081413 0.250674 0.196289
O O10 0.715860 0.500000 0.280797
O O11 0.500000 0.500000 0.500000
#
# Coordination Sequence:
#
# PCOD9147823 Si02
#       6
#     2   2   2   2   2   2
#     4  12  24  42  66  95 130 175 217 268 332 389
#     4  10  20  37  62  92 124 161 209 267 320 375
#     4  10  19  36  60  88 120 160 205 259 315 375
#     4  12  26  46  65  95 139 179 213 267 334 396
#     4  12  24  43  69  98 130 176 222 268 329 394
#     4  12  23  40  66  98 125 165 228 283 320 381
#
# _framework density 23.834651999999998
#
# number of rings (size 3 to 8) (size 9 to 14) (size 15 to 20)
#    0.000    0.667    0.000   11.000    0.000    0.000 
#    0.000    5.000    0.000    0.000    0.000    0.000 
#    0.000    0.000    0.000    0.000    0.000    0.000 
#
# Total GULP energy -67140.648238 kJ/mol
# GULP energy per Si atom -5595.054020 kJ/mol
# Density = 2.378040 g / cm^3
# Si number density = 23.834652 Si / 1000 Ang^3
#
#
#
# Elastic Constant Matrix: (Units=GPa)
#
#
# Indices 1 2 3 4 5 6 
#
# 1 101.3493 50.4228 -16.3078 0.0000 -18.0660 0.0000
# 2 50.4228 282.4402 24.8176 0.0000 12.1047 0.0000
# 3 -16.3078 24.8176 78.1698 0.0000 -7.8824 0.0000
# 4 0.0000 0.0000 0.0000 13.7381 0.0000 23.0125
# 5 -18.0660 12.1047 -7.8824 0.0000 29.5984 0.0000
# 6 0.0000 0.0000 0.0000 23.0125 0.0000 26.6923
#
#
#
# Elastic Compliance Matrix: (Units=1/GPa)
#
#
# Indices 1 2 3 4 5 6 
#
# 1 0.014630 -0.003592 0.005386 0.000000 0.011833 0.000000
# 2 -0.003592 0.004625 -0.002702 0.000000 -0.004804 0.000000
# 3 0.005386 -0.002702 0.015637 0.000000 0.008557 0.000000
# 4 0.000000 0.000000 0.000000 -0.163884 0.000000 0.141291
# 5 0.011833 -0.004804 0.008557 0.000000 0.045252 0.000000
# 6 0.000000 0.000000 0.000000 0.141291 0.000000 -0.084349
#
#
# Mechanical properties :
#
#
# Convention : Reuss Voigt Hill
#
# Bulk Modulus (GPa) = 30.23443 64.42494 47.32969
# Shear Modulus (GPa) = -32.20685 40.87421 4.33368
#
# Velocity S-wave (km/s) = -3.67994 4.14564 1.34988
# Velocity P-wave (km/s) = 2.31156 7.07133 4.72548
#
# Compressibility (1/GPa) = 0.03307488
#
# Stress axis : x y z
#
# Youngs Moduli (GPa) = 68.35288 216.20726 63.95088
#
# Poissons Ratio (x) = 0.77666 -0.34443
# Poissons Ratio (y) = 0.24554 0.17281
# Poissons Ratio (z) = -0.36813 0.58424
#
# Static dielectric constant tensor:
#      x y z
#    x 1.899570 0.000000 -0.051670 
#    y 0.000000 1.868090 0.000000 
#    z -0.051670 0.000000 1.893550 
# 
# From -- ./inp_files/54316.got.cif
#   From: 2010.05.17/outbox.cif.g08.bks.cpg/sg10_28_cif.got.tgz:54316.got - 2010.06.03 11:33:40.
