data_PCOD9147987
_publ_section_title
;
Structure prediction by ZEFSAII (Michael W. Deem and Ramdas Pophale) SiO2 
 PCOD9147987
Probable space group: P 2/M
;
_chemical_formula_sum "Si O2"
_cell_formula_units_Z 26
_cell_length_a 12.162735
_cell_length_b 8.038076
_cell_length_c 30.170581
_cell_angle_alpha 90.000000
_cell_angle_beta 154.013001
_cell_angle_gamma 90.000000
_cell_volume 1292.429554
_symmetry_space_group_name_H-M "P 2/M"
_symmetry_group_IT_number 10
_symmetry_cell_setting 'monoclinic'
loop_
_space_group_symop_operation_xyz
x,y,z
-x,y,-z
-x,-y,-z
x,-y,z
loop_
_atom_site_type_symbol
_atom_site_label
_atom_site_fract_x
_atom_site_fract_y
_atom_site_fract_z
Si Si1 0.583318 0.307238 0.335611
Si Si2 0.966467 0.184450 0.334547
Si Si3 0.569588 0.000000 0.773814
Si Si4 0.983001 0.688316 0.827861
Si Si5 0.253030 0.306866 0.513189
Si Si6 0.878841 0.000000 0.069315
Si Si7 0.758687 0.301702 0.652636
Si Si8 0.496721 0.000000 0.148269
O O1 0.647167 0.500000 0.345926
O O2 0.572769 0.166897 0.294048
O O3 0.299103 0.311887 0.253201
O O4 0.751847 0.244898 0.438313
O O5 0.018892 0.296744 0.395778
O O6 0.137354 0.227673 0.354739
O O7 0.683379 0.159776 0.214936
O O8 0.031272 0.000000 0.375016
O O9 0.612398 0.000000 0.841836
O O10 0.839012 0.000000 0.847854
O O11 0.081172 0.500000 0.868925
O O12 0.941682 0.724055 0.760835
O O13 0.138864 0.833207 0.907719
O O14 0.316285 0.500000 0.543089
O O15 0.488786 0.235428 0.570927
O O16 0.691326 0.000000 0.960222
O O17 0.736750 0.500000 0.637200
#
# Coordination Sequence:
#
# PCOD9147987 Si02
#       8
#     4   4   2   4   4   2   4   2
#     4   8  16  31  55  87 109 126 167 223 271 316
#     4  10  22  33  45  70 110 153 171 210 250 301
#     4  10  19  37  64  77  98 135 173 228 284 322
#     4   8  16  31  55  87 109 126 167 223 271 316
#     4   9  17  32  54  80 110 142 178 214 250 304
#     4  10  19  37  64  77  98 135 173 228 284 322
#     4   9  17  32  54  80 110 142 178 214 250 304
#     4  10  25  40  47  74 108 136 178 226 267 318
#
# _framework density 20.117149999999999
#
# number of rings (size 3 to 8) (size 9 to 14) (size 15 to 20)
#    0.462    2.462    0.000    3.000    2.154    2.462 
#    0.000    6.923    0.000    7.385    0.000    0.000 
#    0.000    0.000    0.000    0.000    0.000    0.000 
#
# Total GULP energy -144852.221553 kJ/mol
# GULP energy per Si atom -5571.239291 kJ/mol
# Density = 2.007136 g / cm^3
# Si number density = 20.117150 Si / 1000 Ang^3
#
#
#
# Elastic Constant Matrix: (Units=GPa)
#
#
# Indices 1 2 3 4 5 6 
#
# 1 1040.3807 63.0444 -307.6245 0.0000 15.9129 0.0000
# 2 63.0444 79.3630 37.1968 0.0000 -18.3094 0.0000
# 3 -307.6245 37.1968 204.3444 0.0000 -33.9750 0.0000
# 4 0.0000 0.0000 0.0000 56.8484 0.0000 -30.6409
# 5 15.9129 -18.3094 -33.9750 0.0000 20.1982 0.0000
# 6 0.0000 0.0000 0.0000 -30.6409 0.0000 17.6927
#
#
#
# Elastic Compliance Matrix: (Units=1/GPa)
#
#
# Indices 1 2 3 4 5 6 
#
# 1 0.002753 -0.003951 0.005424 0.000000 0.003374 0.000000
# 2 -0.003951 0.021673 -0.008481 0.000000 0.008494 0.000000
# 3 0.005424 -0.008481 0.017513 0.000000 0.017496 0.000000
# 4 0.000000 0.000000 0.000000 0.264320 0.000000 0.457761
# 5 0.003374 0.008494 0.017496 0.000000 0.083981 0.000000
# 6 0.000000 0.000000 0.000000 0.457761 0.000000 0.849290
#
#
# Mechanical properties :
#
#
# Convention : Reuss Voigt Hill
#
# Bulk Modulus (GPa) = 35.81047 101.03573 68.42310
# Shear Modulus (GPa) = 3.95929 121.04595 62.50262
#
# Velocity S-wave (km/s) = 1.40442 7.76538 5.58003
# Velocity P-wave (km/s) = 4.52432 11.43391 8.69493
#
# Compressibility (1/GPa) = 0.02792480
#
# Stress axis : x y z
#
# Youngs Moduli (GPa) = 363.24965 46.13986 57.10178
#
# Poissons Ratio (x) = 0.18229 -0.30975
# Poissons Ratio (y) = 1.43514 0.48426
# Poissons Ratio (z) = -1.97045 0.39129
#
# Static dielectric constant tensor:
#      x y z
#    x 1.723560 0.000000 0.029850 
#    y 0.000000 1.720120 0.000000 
#    z 0.029850 0.000000 1.703500 
# 
# From -- ./inp_files/92708.got.cif
#   From: 2010.05.17/outbox.cif.g08.bks.cpg/sg10_47_cif.got.tgz:92708.got - 2010.06.03 11:33:40.
