data_PCOD9147815
_publ_section_title
;
Structure prediction by ZEFSAII (Michael W. Deem and Ramdas Pophale) SiO2 
 PCOD9147815
Probable space group: P 2/M
;
_chemical_formula_sum "Si O2"
_cell_formula_units_Z 22
_cell_length_a 19.697137
_cell_length_b 9.805814
_cell_length_c 9.377486
_cell_angle_alpha 90.000000
_cell_angle_beta 143.183604
_cell_angle_gamma 90.000000
_cell_volume 1085.383440
_symmetry_space_group_name_H-M "P 2/M"
_symmetry_group_IT_number 10
_symmetry_cell_setting 'monoclinic'
loop_
_space_group_symop_operation_xyz
x,y,z
-x,y,-z
-x,-y,-z
x,-y,z
loop_
_atom_site_type_symbol
_atom_site_label
_atom_site_fract_x
_atom_site_fract_y
_atom_site_fract_z
Si Si1 0.462502 0.844478 0.272881
Si Si2 0.000000 0.747019 0.000000
Si Si3 0.191255 0.843779 0.785721
Si Si4 0.192549 0.652969 0.524780
Si Si5 0.823929 0.843028 0.924851
Si Si6 0.354843 0.336001 0.547228
O O1 0.500000 0.823046 0.500000
O O2 0.525123 0.734130 0.280395
O O3 0.495603 0.000000 0.288825
O O4 0.327399 0.835719 0.035584
O O5 0.910409 0.659619 0.760237
O O6 0.927651 0.833864 0.990359
O O7 0.164670 0.750542 0.607797
O O8 0.159562 0.000000 0.701785
O O9 0.141457 0.805146 0.856090
O O10 0.209599 0.500000 0.605898
O O11 0.302252 0.693505 0.614947
O O12 0.729477 0.739841 0.705795
O O13 0.781038 0.000000 0.858371
O O14 0.355903 0.500000 0.530151
#
# Coordination Sequence:
#
# PCOD9147815 Si02
#       6
#     4   2   4   4   4   4
#     4  10  19  36  60  86 120 160 194 234 287 342
#     4  10  22  40  66  88 108 152 200 242 296 352
#     4  10  22  38  59  88 121 152 192 242 290 345
#     4  10  23  42  60  83 119 156 194 243 293 347
#     4  10  20  38  61  88 118 151 194 244 292 347
#     4  10  21  36  58  87 119 158 199 238 283 343
#
# _framework density 20.269334000000001
#
# number of rings (size 3 to 8) (size 9 to 14) (size 15 to 20)
#    0.000    2.000    1.818    1.091    0.000    8.364 
#    0.000    6.364    0.000    0.000    0.000    0.000 
#    0.000    0.000    0.000    0.000    0.000    0.000 
#
# Total GULP energy -122868.127307 kJ/mol
# GULP energy per Si atom -5584.914878 kJ/mol
# Density = 2.022320 g / cm^3
# Si number density = 20.269334 Si / 1000 Ang^3
#
#
#
# Elastic Constant Matrix: (Units=GPa)
#
#
# Indices 1 2 3 4 5 6 
#
# 1 127.1313 59.1138 28.1063 0.0000 -21.5928 0.0000
# 2 59.1138 81.0493 16.7797 0.0000 -25.5759 0.0000
# 3 28.1063 16.7797 41.8614 0.0000 -20.4257 0.0000
# 4 0.0000 0.0000 0.0000 13.2577 0.0000 -7.1336
# 5 -21.5928 -25.5759 -20.4257 0.0000 36.1647 0.0000
# 6 0.0000 0.0000 0.0000 -7.1336 0.0000 133.6645
#
#
#
# Elastic Compliance Matrix: (Units=1/GPa)
#
#
# Indices 1 2 3 4 5 6 
#
# 1 0.012994 -0.008820 -0.006138 0.000000 -0.001947 0.000000
# 2 -0.008820 0.021916 0.002941 0.000000 0.011893 0.000000
# 3 -0.006138 0.002941 0.035970 0.000000 0.018730 0.000000
# 4 0.000000 0.000000 0.000000 0.077658 0.000000 0.004145
# 5 -0.001947 0.011893 0.018730 0.000000 0.045479 0.000000
# 6 0.000000 0.000000 0.000000 0.004145 0.000000 0.007703
#
#
# Mechanical properties :
#
#
# Convention : Reuss Voigt Hill
#
# Bulk Modulus (GPa) = 21.34777 50.89351 36.12064
# Shear Modulus (GPa) = 20.71509 46.35354 33.53432
#
# Velocity S-wave (km/s) = 3.20033 4.78732 4.07189
# Velocity P-wave (km/s) = 4.92047 7.46465 6.32187
#
# Compressibility (1/GPa) = 0.04684330
#
# Stress axis : x y z
#
# Youngs Moduli (GPa) = 76.96040 45.62941 27.80076
#
# Poissons Ratio (x) = 0.40247 0.17065
# Poissons Ratio (y) = 0.67883 -0.08175
# Poissons Ratio (z) = 0.47241 -0.13418
#
# Static dielectric constant tensor:
#      x y z
#    x 1.737430 0.000000 0.026200 
#    y 0.000000 1.686600 0.000000 
#    z 0.026200 0.000000 1.728320 
# 
# From -- ./inp_files/34070.got.cif
#   From: 2010.05.17/outbox.cif.g08.bks.cpg/sg10_18_cif.got.tgz:34070.got - 2010.06.03 11:33:40.
