data_PCOD9147816
_publ_section_title
;
Structure prediction by ZEFSAII (Michael W. Deem and Ramdas Pophale) SiO2 
 PCOD9147816
Probable space group: P 2/M
;
_chemical_formula_sum "Si O2"
_cell_formula_units_Z 32
_cell_length_a 12.354351
_cell_length_b 16.616001
_cell_length_c 20.441294
_cell_angle_alpha 90.000000
_cell_angle_beta 23.035180
_cell_angle_gamma 90.000000
_cell_volume 1641.952228
_symmetry_space_group_name_H-M "P 2/M"
_symmetry_group_IT_number 10
_symmetry_cell_setting 'monoclinic'
loop_
_space_group_symop_operation_xyz
x,y,z
-x,y,-z
-x,-y,-z
x,-y,z
loop_
_atom_site_type_symbol
_atom_site_label
_atom_site_fract_x
_atom_site_fract_y
_atom_site_fract_z
Si Si1 0.281507 0.591212 0.571617
Si Si2 0.795522 0.176688 0.024933
Si Si3 0.194007 0.315435 0.485357
Si Si4 0.419028 0.158976 0.722474
Si Si5 0.299276 0.374984 0.053265
Si Si6 0.585542 0.333693 0.772049
Si Si7 0.281606 0.090243 0.563173
Si Si8 0.761838 0.818778 0.896942
O O1 0.500000 0.630075 0.500000
O O2 0.372911 0.500000 0.505307
O O3 0.233302 0.638858 0.531494
O O4 0.997102 0.588560 0.769473
O O5 0.655819 0.128901 0.162866
O O6 0.632582 0.261505 0.117100
O O7 0.763033 0.144919 0.969476
O O8 0.120987 0.186548 0.859323
O O9 0.364869 0.232655 0.393211
O O10 0.320316 0.362210 0.351970
O O11 0.868745 0.303247 0.649975
O O12 0.556486 0.098894 0.594897
O O13 0.257568 0.277880 0.083510
O O14 0.500000 0.400288 0.000000
O O15 0.439535 0.391422 0.905488
O O16 0.500000 0.103036 0.500000
O O17 0.039506 0.154848 0.706076
O O18 0.166779 0.000000 0.633519
O O19 0.500000 0.844273 0.000000
#
# Coordination Sequence:
#
# PCOD9147816 Si02
#       8
#     4   4   4   4   4   4   4   4
#     4  11  25  40  54  79 116 154 188 227 274 328
#     4   9  19  35  54  90 114 137 184 230 282 328
#     4  10  20  37  60  84 114 145 182 232 279 330
#     4  10  20  35  60  84 111 147 184 231 281 327
#     4  10  19  36  60  87 109 139 188 230 278 328
#     4   9  19  35  57  91 113 137 181 233 285 324
#     4  11  23  38  54  80 115 151 192 230 273 329
#     4  10  21  36  60  85 111 142 184 233 281 333
#
# _framework density 19.488994999999999
#
# number of rings (size 3 to 8) (size 9 to 14) (size 15 to 20)
#    0.000    2.000    2.500    0.750    7.000    1.500 
#    0.000    3.750    0.000    2.250    0.000    0.000 
#    0.000    0.000    0.000    0.000    0.000    0.000 
#
# Total GULP energy -178429.548192 kJ/mol
# GULP energy per Si atom -5575.923381 kJ/mol
# Density = 1.944464 g / cm^3
# Si number density = 19.488995 Si / 1000 Ang^3
#
#
#
# Elastic Constant Matrix: (Units=GPa)
#
#
# Indices 1 2 3 4 5 6 
#
# 1 124.9203 12.8839 49.7084 0.0000 6.9054 0.0000
# 2 12.8839 23.3160 13.6236 0.0000 -0.4047 0.0000
# 3 49.7084 13.6236 106.0127 0.0000 6.8879 0.0000
# 4 0.0000 0.0000 0.0000 4.7067 0.0000 -4.7365
# 5 6.9054 -0.4047 6.8879 0.0000 38.2476 0.0000
# 6 0.0000 0.0000 0.0000 -4.7365 0.0000 -3.4940
#
#
#
# Elastic Compliance Matrix: (Units=1/GPa)
#
#
# Indices 1 2 3 4 5 6 
#
# 1 0.010079 -0.003101 -0.004257 0.000000 -0.001086 0.000000
# 2 -0.003101 0.047420 -0.004765 0.000000 0.001920 0.000000
# 3 -0.004257 -0.004765 0.012136 0.000000 -0.001467 0.000000
# 4 0.000000 0.000000 0.000000 0.089868 0.000000 -0.121825
# 5 -0.001086 0.001920 -0.001467 0.000000 0.026626 0.000000
# 6 0.000000 0.000000 0.000000 -0.121825 0.000000 -0.121059
#
#
# Mechanical properties :
#
#
# Convention : Reuss Voigt Hill
#
# Bulk Modulus (GPa) = 22.03113 45.18676 33.60894
# Shear Modulus (GPa) = 47.87245 19.76094 33.81669
#
# Velocity S-wave (km/s) = 4.96157 3.18772 4.17005
# Velocity P-wave (km/s) = 6.64468 6.06505 6.36147
#
# Compressibility (1/GPa) = 0.04539032
#
# Stress axis : x y z
#
# Youngs Moduli (GPa) = 99.21796 21.08829 82.39639
#
# Poissons Ratio (x) = 0.06539 0.35075
# Poissons Ratio (y) = 0.30767 0.39259
# Poissons Ratio (z) = 0.42235 0.10048
#
# Static dielectric constant tensor:
#      x y z
#    x 1.712800 0.000000 0.029170 
#    y 0.000000 1.667120 0.000000 
#    z 0.029170 0.000000 1.680360 
# 
# From -- ./inp_files/84249.got.cif
#   From: 2010.05.17/outbox.cif.g08.bks.cpg/sg10_43_cif.got.tgz:84249.got - 2010.06.03 11:33:40.
