data_PCOD9147162
_publ_section_title
;
Structure prediction by ZEFSAII (Michael W. Deem and Ramdas Pophale) SiO2 
 PCOD9147162
Probable space group: P 2/M
;
_chemical_formula_sum "Si O2"
_cell_formula_units_Z 24
_cell_length_a 15.479248
_cell_length_b 7.549087
_cell_length_c 15.289416
_cell_angle_alpha 90.000000
_cell_angle_beta 39.444376
_cell_angle_gamma 90.000000
_cell_volume 1135.098987
_symmetry_space_group_name_H-M "P 2/M"
_symmetry_group_IT_number 10
_symmetry_cell_setting 'monoclinic'
loop_
_space_group_symop_operation_xyz
x,y,z
-x,y,-z
-x,-y,-z
x,-y,z
loop_
_atom_site_type_symbol
_atom_site_label
_atom_site_fract_x
_atom_site_fract_y
_atom_site_fract_z
Si Si1 0.621812 0.214822 0.677566
Si Si2 0.648136 0.709141 0.857012
Si Si3 0.171773 0.204581 0.629154
Si Si4 0.144816 0.783352 0.846654
Si Si5 0.684757 0.785475 0.122853
Si Si6 0.873290 0.294080 0.811975
O O1 0.665599 0.270072 0.740227
O O2 0.723025 0.280964 0.523127
O O3 0.467361 0.273755 0.780299
O O4 0.622483 0.000000 0.676498
O O5 0.644072 0.500000 0.882027
O O6 0.773284 0.781952 0.815741
O O7 0.500000 0.783371 0.000000
O O8 0.166659 0.281872 0.730954
O O9 0.019735 0.208159 0.709768
O O10 0.213495 0.000000 0.608010
O O11 0.261525 0.732187 0.823814
O O12 0.140438 0.000000 0.847213
O O13 0.000000 0.727141 0.000000
O O14 0.686880 0.000000 0.118038
O O15 0.789384 0.721323 0.967593
O O16 0.900255 0.500000 0.771796
#
# Coordination Sequence:
#
# PCOD9147162 Si02
#       6
#     4   4   4   4   4   4
#     4  10  22  36  56  86 114 143 180 229 279 320
#     4  10  21  38  58  79 108 147 186 225 272 329
#     4  10  21  38  56  81 117 147 179 225 276 326
#     4   9  16  30  56  83 108 146 184 217 268 328
#     4  10  19  34  57  84 111 143 183 225 271 325
#     4  11  22  36  57  83 107 143 189 228 272 324
#
# _framework density 21.143532
#
# number of rings (size 3 to 8) (size 9 to 14) (size 15 to 20)
#    0.000    2.000    3.333    0.500    0.000    3.667 
#    0.000    8.333    0.000    0.000    0.000    3.500 
#    0.000    0.000    0.000    0.000    0.000    0.000 
#
# Total GULP energy -134067.380789 kJ/mol
# GULP energy per Si atom -5586.140866 kJ/mol
# Density = 2.109541 g / cm^3
# Si number density = 21.143532 Si / 1000 Ang^3
#
#
#
# Elastic Constant Matrix: (Units=GPa)
#
#
# Indices 1 2 3 4 5 6 
#
# 1 109.6115 -12.3733 9.6060 0.0000 13.7180 0.0000
# 2 -12.3733 47.0454 -16.5463 0.0000 0.0797 0.0000
# 3 9.6060 -16.5463 96.4498 0.0000 11.7498 0.0000
# 4 0.0000 0.0000 0.0000 157.5343 0.0000 -130.9294
# 5 13.7180 0.0797 11.7498 0.0000 32.9163 0.0000
# 6 0.0000 0.0000 0.0000 -130.9294 0.0000 170.0909
#
#
#
# Elastic Compliance Matrix: (Units=1/GPa)
#
#
# Indices 1 2 3 4 5 6 
#
# 1 0.009938 0.002607 -0.000039 0.000000 -0.004134 0.000000
# 2 0.002607 0.023376 0.004067 0.000000 -0.002595 0.000000
# 3 -0.000039 0.004067 0.011572 0.000000 -0.004124 0.000000
# 4 0.000000 0.000000 0.000000 0.017621 0.000000 0.013564
# 5 -0.004134 -0.002595 -0.004124 0.000000 0.033582 0.000000
# 6 0.000000 0.000000 0.000000 0.013564 0.000000 0.016320
#
#
# Mechanical properties :
#
#
# Convention : Reuss Voigt Hill
#
# Bulk Modulus (GPa) = 17.19489 23.83107 20.51298
# Shear Modulus (GPa) = 42.18504 90.26967 66.22735
#
# Velocity S-wave (km/s) = 4.47158 6.54113 5.60274
# Velocity P-wave (km/s) = 5.90002 8.26705 7.18172
#
# Compressibility (1/GPa) = 0.05815682
#
# Stress axis : x y z
#
# Youngs Moduli (GPa) = 100.62137 42.77808 86.41496
#
# Poissons Ratio (x) = -0.11153 0.00336
# Poissons Ratio (y) = -0.26234 -0.35143
# Poissons Ratio (z) = 0.00391 -0.17397
#
# Static dielectric constant tensor:
#      x y z
#    x 1.747020 0.000000 -0.000330 
#    y 0.000000 1.811760 0.000000 
#    z -0.000330 0.000000 1.718700 
# 
# From -- ./inp_files/27000.got.cif
#   From: 2010.05.17/outbox.cif.g08.bks.cpg/sg10_14_cif.got.tgz:27000.got - 2010.06.03 11:33:40.
