data_PCOD9147770
_publ_section_title
;
Structure prediction by ZEFSAII (Michael W. Deem and Ramdas Pophale) SiO2 
 PCOD9147770
Probable space group: P 2/M
;
_chemical_formula_sum "Si O2"
_cell_formula_units_Z 24
_cell_length_a 9.314233
_cell_length_b 15.690597
_cell_length_c 16.804542
_cell_angle_alpha 90.000000
_cell_angle_beta 27.554377
_cell_angle_gamma 90.000000
_cell_volume 1136.082061
_symmetry_space_group_name_H-M "P 2/M"
_symmetry_group_IT_number 10
_symmetry_cell_setting 'monoclinic'
loop_
_space_group_symop_operation_xyz
x,y,z
-x,y,-z
-x,-y,-z
x,-y,z
loop_
_atom_site_type_symbol
_atom_site_label
_atom_site_fract_x
_atom_site_fract_y
_atom_site_fract_z
Si Si1 0.054206 0.772779 0.139287
Si Si2 0.411556 0.211555 0.237915
Si Si3 0.702175 0.096978 0.206372
Si Si4 0.378903 0.500000 0.309743
Si Si5 0.962971 0.688406 0.350753
Si Si6 0.362138 0.333853 0.737644
Si Si7 0.730349 0.500000 0.812888
O O1 0.801252 0.841200 0.230770
O O2 0.970852 0.683377 0.136000
O O3 0.040433 0.747813 0.237575
O O4 0.379936 0.802990 0.943128
O O5 0.412884 0.128085 0.293467
O O6 0.120220 0.265429 0.350074
O O7 0.596153 0.271079 0.208830
O O8 0.660539 0.000000 0.253219
O O9 0.000000 0.100569 0.000000
O O10 0.528528 0.421690 0.281092
O O11 0.451583 0.500000 0.181110
O O12 0.000000 0.500000 0.500000
O O13 0.081722 0.590625 0.280446
O O14 0.601682 0.685584 0.548653
O O15 0.500000 0.500000 0.000000
#
# Coordination Sequence:
#
# PCOD9147770 Si02
#       7
#     4   4   4   2   4   4   2
#     4  10  22  36  56  87 115 143 188 237 286 334
#     4  10  19  36  59  83 109 145 195 232 275 337
#     4   8  16  34  59  84 113 146 183 232 287 340
#     4  12  20  39  58  81 108 156 200 236 275 336
#     4  12  22  37  58  81 117 153 188 233 286 337
#     4  11  21  37  57  80 109 152 193 229 279 340
#     4  12  24  37  55  84 117 152 189 238 287 312
#
# _framework density 21.125235
#
# number of rings (size 3 to 8) (size 9 to 14) (size 15 to 20)
#    0.000    1.500    3.333    4.000    0.000    0.667 
#    0.000    5.000    0.000   20.000    0.000    0.000 
#    0.000    0.000    0.000    0.000    0.000    0.000 
#
# Total GULP energy -133787.387147 kJ/mol
# GULP energy per Si atom -5574.474464 kJ/mol
# Density = 2.107715 g / cm^3
# Si number density = 21.125235 Si / 1000 Ang^3
#
#
#
# Elastic Constant Matrix: (Units=GPa)
#
#
# Indices 1 2 3 4 5 6 
#
# 1 87.5948 31.6341 7.5439 0.0000 20.8765 0.0000
# 2 31.6341 122.0789 14.4382 0.0000 5.0101 0.0000
# 3 7.5439 14.4382 63.7903 0.0000 17.7184 0.0000
# 4 0.0000 0.0000 0.0000 11.2526 0.0000 7.2028
# 5 20.8765 5.0101 17.7184 0.0000 32.9935 0.0000
# 6 0.0000 0.0000 0.0000 7.2028 0.0000 11.6274
#
#
#
# Elastic Compliance Matrix: (Units=1/GPa)
#
#
# Indices 1 2 3 4 5 6 
#
# 1 0.014941 -0.003680 0.001806 0.000000 -0.009865 0.000000
# 2 -0.003680 0.009326 -0.002267 0.000000 0.002130 0.000000
# 3 0.001806 -0.002267 0.019037 0.000000 -0.011022 0.000000
# 4 0.000000 0.000000 0.000000 0.147261 0.000000 -0.091224
# 5 -0.009865 0.002130 -0.011022 0.000000 0.042147 0.000000
# 6 0.000000 0.000000 0.000000 -0.091224 0.000000 0.142514
#
#
# Mechanical properties :
#
#
# Convention : Reuss Voigt Hill
#
# Bulk Modulus (GPa) = 28.55401 42.29959 35.42680
# Shear Modulus (GPa) = 12.65237 25.83121 19.24179
#
# Velocity S-wave (km/s) = 2.44994 3.50060 3.02129
# Velocity P-wave (km/s) = 4.64207 6.03371 5.38305
#
# Compressibility (1/GPa) = 0.03502135
#
# Stress axis : x y z
#
# Youngs Moduli (GPa) = 66.93041 107.22901 52.52797
#
# Poissons Ratio (x) = 0.39464 -0.09487
# Poissons Ratio (y) = 0.24633 0.11909
# Poissons Ratio (z) = -0.12089 0.24311
#
# Static dielectric constant tensor:
#      x y z
#    x 1.766730 0.000000 -0.028780 
#    y 0.000000 1.986520 0.000000 
#    z -0.028780 0.000000 1.803390 
# 
# From -- ./inp_files/61708.got.cif
#   From: 2010.05.17/outbox.cif.g08.bks.cpg/sg10_31_cif.got.tgz:61708.got - 2010.06.03 11:33:40.
