data_PCOD9147017
_publ_section_title
;
Structure prediction by ZEFSAII (Michael W. Deem and Ramdas Pophale) SiO2 
 PCOD9147017
Probable space group: P 2/M
;
_chemical_formula_sum "Si O2"
_cell_formula_units_Z 28
_cell_length_a 31.649719
_cell_length_b 7.543826
_cell_length_c 10.192109
_cell_angle_alpha 90.000000
_cell_angle_beta 36.336966
_cell_angle_gamma 90.000000
_cell_volume 1441.909955
_symmetry_space_group_name_H-M "P 2/M"
_symmetry_group_IT_number 10
_symmetry_cell_setting 'monoclinic'
loop_
_space_group_symop_operation_xyz
x,y,z
-x,y,-z
-x,-y,-z
x,-y,z
loop_
_atom_site_type_symbol
_atom_site_label
_atom_site_fract_x
_atom_site_fract_y
_atom_site_fract_z
Si Si1 0.067804 0.000000 0.736377
Si Si2 0.813983 0.708814 0.558269
Si Si3 0.329716 0.295341 0.217771
Si Si4 0.931810 0.000000 0.577318
Si Si5 0.425540 0.795967 0.738444
Si Si6 0.580084 0.717316 0.766609
Si Si7 0.185488 0.293403 0.130596
Si Si8 0.341567 0.285325 0.691210
O O1 0.117551 0.170836 0.638879
O O2 0.050119 0.000000 0.624166
O O3 0.000000 0.000000 0.000000
O O4 0.826017 0.500000 0.500121
O O5 0.744276 0.776522 0.654938
O O6 0.799314 0.721270 0.751067
O O7 0.313905 0.500000 0.287209
O O8 0.365180 0.218364 0.259038
O O9 0.388915 0.290676 0.955252
O O10 0.881447 0.830333 0.730107
O O11 0.000000 0.000000 0.500000
O O12 0.500000 0.717694 0.500000
O O13 0.371422 0.786687 0.752630
O O14 0.439124 0.000000 0.741149
O O15 0.579795 0.500000 0.770036
O O16 0.608064 0.770234 0.554070
O O17 0.500000 0.774412 0.000000
O O18 0.171288 0.500000 0.136872
O O19 0.258973 0.236556 0.877670
O O20 0.343034 0.500000 0.697350
#
# Coordination Sequence:
#
# PCOD9147017 Si02
#       8
#     2   4   4   2   4   4   4   4
#     4  10  22  40  62  86 117 148 176 222 277 338
#     4   9  18  34  59  88 113 146 188 229 277 331
#     4  10  19  34  56  80 107 144 191 233 278 335
#     4  10  22  40  62  86 117 148 176 222 277 338
#     4  11  23  33  49  79 111 144 189 241 282 326
#     4   9  18  32  51  77 111 148 185 233 288 331
#     4   9  18  34  59  88 113 146 188 229 277 331
#     4  10  19  34  56  80 107 144 191 233 278 335
#
# _framework density 19.418688
#
# number of rings (size 3 to 8) (size 9 to 14) (size 15 to 20)
#    0.000    2.286    1.429    1.286    2.000    2.857 
#    2.571    0.714    0.000    2.571    0.000    0.000 
#    0.000    0.000    0.000    0.000    0.000    0.000 
#
# Total GULP energy -156301.455946 kJ/mol
# GULP energy per Si atom -5582.194855 kJ/mol
# Density = 1.937449 g / cm^3
# Si number density = 19.418688 Si / 1000 Ang^3
#
#
#
# Elastic Constant Matrix: (Units=GPa)
#
#
# Indices 1 2 3 4 5 6 
#
# 1 46.4727 9.7155 -16.0377 0.0000 -17.1956 0.0000
# 2 9.7155 62.9012 17.6797 0.0000 -13.5366 0.0000
# 3 -16.0377 17.6797 86.1368 0.0000 -15.1398 0.0000
# 4 0.0000 0.0000 0.0000 17.2359 0.0000 -15.6533
# 5 -17.1956 -13.5366 -15.1398 0.0000 32.3157 0.0000
# 6 0.0000 0.0000 0.0000 -15.6533 0.0000 16.5432
#
#
#
# Elastic Compliance Matrix: (Units=1/GPa)
#
#
# Indices 1 2 3 4 5 6 
#
# 1 0.034086 -0.003659 0.010915 0.000000 0.021718 0.000000
# 2 -0.003659 0.018377 -0.003751 0.000000 0.003994 0.000000
# 3 0.010915 -0.003751 0.016516 0.000000 0.011974 0.000000
# 4 0.000000 0.000000 0.000000 0.412426 0.000000 0.390240
# 5 0.021718 0.003994 0.011974 0.000000 0.049784 0.000000
# 6 0.000000 0.000000 0.000000 0.390240 0.000000 0.429694
#
#
# Mechanical properties :
#
#
# Convention : Reuss Voigt Hill
#
# Bulk Modulus (GPa) = 13.15996 24.24730 18.70363
# Shear Modulus (GPa) = 5.10620 25.49584 15.30102
#
# Velocity S-wave (km/s) = 1.62334 3.62740 2.81010
# Velocity P-wave (km/s) = 3.21019 5.48249 4.49239
#
# Compressibility (1/GPa) = 0.07598809
#
# Stress axis : x y z
#
# Youngs Moduli (GPa) = 29.33798 54.41634 60.54673
#
# Poissons Ratio (x) = 0.19909 -0.66084
# Poissons Ratio (y) = 0.10734 0.22712
# Poissons Ratio (z) = -0.32021 0.20412
#
# Static dielectric constant tensor:
#      x y z
#    x 1.660700 0.000000 0.001200 
#    y 0.000000 1.779750 0.000000 
#    z 0.001200 0.000000 1.701680 
# 
# From -- ./inp_files/37157.got.cif
#   From: 2010.05.17/outbox.cif.g08.bks.cpg/sg10_19_cif.got.tgz:37157.got - 2010.06.03 11:33:40.
