data_PCOD9147568
_publ_section_title
;
Structure prediction by ZEFSAII (Michael W. Deem and Ramdas Pophale) SiO2 
 PCOD9147568
Probable space group: P 2/M
;
_chemical_formula_sum "Si O2"
_cell_formula_units_Z 28
_cell_length_a 28.206916
_cell_length_b 7.825921
_cell_length_c 9.551315
_cell_angle_alpha 90.000000
_cell_angle_beta 37.770939
_cell_angle_gamma 90.000000
_cell_volume 1291.411716
_symmetry_space_group_name_H-M "P 2/M"
_symmetry_group_IT_number 10
_symmetry_cell_setting 'monoclinic'
loop_
_space_group_symop_operation_xyz
x,y,z
-x,y,-z
-x,-y,-z
x,-y,z
loop_
_atom_site_type_symbol
_atom_site_label
_atom_site_fract_x
_atom_site_fract_y
_atom_site_fract_z
Si Si1 0.132737 0.293000 0.039640
Si Si2 0.424141 0.799795 0.274166
Si Si3 0.264799 0.303132 0.518318
Si Si4 0.007925 0.702882 0.823003
Si Si5 0.302646 0.198402 0.128536
Si Si6 0.841367 0.796880 0.698183
Si Si7 0.475683 0.204959 0.715325
O O1 0.131641 0.500000 0.046328
O O2 0.204952 0.238523 0.774444
O O3 0.140734 0.237348 0.181351
O O4 0.055956 0.230757 0.138087
O O5 0.350845 0.708307 0.380017
O O6 0.456487 0.727592 0.343927
O O7 0.401450 0.000000 0.339601
O O8 0.500000 0.792008 0.000000
O O9 0.244634 0.500000 0.535305
O O10 0.264736 0.208240 0.370404
O O11 0.993272 0.500000 0.867589
O O12 0.091573 0.728021 0.559305
O O13 0.000000 0.772451 0.000000
O O14 0.242150 0.272229 0.158059
O O15 0.315118 0.000000 0.060133
O O16 0.388974 0.274546 0.938672
O O17 0.839779 0.000000 0.681349
O O18 0.500000 0.225965 0.500000
O O19 0.472958 0.000000 0.754993
#
# Coordination Sequence:
#
# PCOD9147568 Si02
#       7
#     4   4   4   4   4   4   4
#     4  10  23  41  60  85 118 158 196 233 284 353
#     4  10  19  35  59  83 111 152 196 238 289 347
#     4  11  23  38  59  86 117 151 196 247 291 338
#     4  10  21  41  67  88 114 158 203 233 277 351
#     4  10  21  39  58  83 116 152 195 238 289 351
#     4  11  24  38  60  92 123 151 188 245 299 340
#     4   9  18  33  56  81 108 148 196 236 276 343
#
# _framework density 21.681699999999999
#
# number of rings (size 3 to 8) (size 9 to 14) (size 15 to 20)
#    0.000    1.857    1.429    2.143    2.000    6.286 
#    0.000    0.000    0.000    0.857    0.000    0.000 
#    0.000    0.000    0.000    0.000    0.000    0.000 
#
# Total GULP energy -156383.652745 kJ/mol
# GULP energy per Si atom -5585.130455 kJ/mol
# Density = 2.163235 g / cm^3
# Si number density = 21.681700 Si / 1000 Ang^3
#
#
#
# Elastic Constant Matrix: (Units=GPa)
#
#
# Indices 1 2 3 4 5 6 
#
# 1 139.2778 1.6683 17.6691 0.0000 7.7740 0.0000
# 2 1.6683 18.7006 -7.7944 0.0000 -2.9418 0.0000
# 3 17.6691 -7.7944 59.1498 0.0000 -1.6173 0.0000
# 4 0.0000 0.0000 0.0000 -67.3940 0.0000 31.4964
# 5 7.7740 -2.9418 -1.6173 0.0000 29.4681 0.0000
# 6 0.0000 0.0000 0.0000 31.4964 0.0000 15.0612
#
#
#
# Elastic Compliance Matrix: (Units=1/GPa)
#
#
# Indices 1 2 3 4 5 6 
#
# 1 0.007674 -0.002161 -0.002642 0.000000 -0.002385 0.000000
# 2 -0.002161 0.058295 0.008515 0.000000 0.006857 0.000000
# 3 -0.002642 0.008515 0.018888 0.000000 0.002584 0.000000
# 4 0.000000 0.000000 0.000000 -0.007504 0.000000 0.015693
# 5 -0.002385 0.006857 0.002584 0.000000 0.035391 0.000000
# 6 0.000000 0.000000 0.000000 0.015693 0.000000 0.033578
#
#
# Mechanical properties :
#
#
# Convention : Reuss Voigt Hill
#
# Bulk Modulus (GPa) = 10.83666 26.69048 18.76357
# Shear Modulus (GPa) = 29.47080 9.13274 19.30177
#
# Velocity S-wave (km/s) = 3.69080 2.05459 2.98691
# Velocity P-wave (km/s) = 4.81369 4.23855 4.53524
#
# Compressibility (1/GPa) = 0.09227933
#
# Stress axis : x y z
#
# Youngs Moduli (GPa) = 130.30770 17.15424 52.94300
#
# Poissons Ratio (x) = 0.03707 0.13990
# Poissons Ratio (y) = 0.28162 -0.45080
# Poissons Ratio (z) = 0.34433 -0.14606
#
# Static dielectric constant tensor:
#      x y z
#    x 1.826970 0.000000 -0.006710 
#    y 0.000000 1.819900 0.000000 
#    z -0.006710 0.000000 1.756630 
# 
# From -- ./inp_files/37079.got.cif
#   From: 2010.05.17/outbox.cif.g08.bks.cpg/sg10_19_cif.got.tgz:37079.got - 2010.06.03 11:33:40.
