data_PCOD9147807
_publ_section_title
;
Structure prediction by ZEFSAII (Michael W. Deem and Ramdas Pophale) SiO2 
 PCOD9147807
Probable space group: P 2/M
;
_chemical_formula_sum "Si O2"
_cell_formula_units_Z 32
_cell_length_a 14.251019
_cell_length_b 17.631490
_cell_length_c 12.019392
_cell_angle_alpha 90.000000
_cell_angle_beta 31.937539
_cell_angle_gamma 90.000000
_cell_volume 1597.601829
_symmetry_space_group_name_H-M "P 2/M"
_symmetry_group_IT_number 10
_symmetry_cell_setting 'monoclinic'
loop_
_space_group_symop_operation_xyz
x,y,z
-x,y,-z
-x,-y,-z
x,-y,z
loop_
_atom_site_type_symbol
_atom_site_label
_atom_site_fract_x
_atom_site_fract_y
_atom_site_fract_z
Si Si1 0.698381 0.844604 0.015980
Si Si2 0.800877 0.287958 0.748688
Si Si3 0.311408 0.787824 0.361609
Si Si4 0.178925 0.588347 0.101150
Si Si5 0.867856 0.334009 0.315634
Si Si6 0.696734 0.633079 0.273620
Si Si7 0.023583 0.915765 0.607394
Si Si8 0.855525 0.214588 0.068359
O O1 0.491959 0.834292 0.199007
O O2 0.742189 0.835215 0.100814
O O3 0.788683 0.775187 0.857139
O O4 0.821958 0.913015 0.854000
O O5 0.692202 0.254029 0.754350
O O6 0.743225 0.362758 0.874803
O O7 0.000000 0.296257 0.500000
O O8 0.282971 0.718542 0.477306
O O9 0.150486 0.849185 0.526485
O O10 0.196185 0.500000 0.104033
O O11 0.973451 0.615221 0.297782
O O12 0.255300 0.606315 0.899447
O O13 0.816148 0.385901 0.261724
O O14 0.011965 0.272441 0.128971
O O15 0.500000 0.608885 0.500000
O O16 0.720087 0.724765 0.256977
O O17 0.000000 0.902548 0.500000
O O18 0.099488 0.000000 0.549708
O O19 0.000000 0.173017 0.000000
#
# Coordination Sequence:
#
# PCOD9147807 Si02
#       8
#     4   4   4   4   4   4   4   4
#     4  12  20  37  65  92 118 164 208 253 314 364
#     4  12  20  40  61  87 121 159 217 260 307 366
#     4  12  22  37  66  94 122 167 210 260 310 367
#     4  11  23  39  60  83 119 169 210 254 326 391
#     4  10  19  36  60  85 116 156 212 261 309 366
#     4  10  20  35  57  89 117 150 206 271 319 366
#     4  11  23  39  57  89 133 166 203 251 306 375
#     4   9  17  33  58  89 120 148 201 262 306 357
#
# _framework density 20.030021999999999
#
# number of rings (size 3 to 8) (size 9 to 14) (size 15 to 20)
#    0.000    1.125    7.500    2.250    0.000    2.000 
#    0.000    1.250    0.000    1.875    0.000    0.875 
#    0.000    0.000    0.000    0.000    0.000    0.000 
#
# Total GULP energy -178151.146986 kJ/mol
# GULP energy per Si atom -5567.223343 kJ/mol
# Density = 1.998443 g / cm^3
# Si number density = 20.030022 Si / 1000 Ang^3
#
#
#
# Elastic Constant Matrix: (Units=GPa)
#
#
# Indices 1 2 3 4 5 6 
#
# 1 105.3798 26.4548 22.2710 0.0000 -9.9576 0.0000
# 2 26.4548 83.9508 23.7080 0.0000 1.0095 0.0000
# 3 22.2710 23.7080 70.3556 0.0000 -15.7256 0.0000
# 4 0.0000 0.0000 0.0000 10.8439 0.0000 2.8975
# 5 -9.9576 1.0095 -15.7256 0.0000 27.1162 0.0000
# 6 0.0000 0.0000 0.0000 2.8975 0.0000 14.9749
#
#
#
# Elastic Compliance Matrix: (Units=1/GPa)
#
#
# Indices 1 2 3 4 5 6 
#
# 1 0.010900 -0.002976 -0.001756 0.000000 0.003095 0.000000
# 2 -0.002976 0.014276 -0.004862 0.000000 -0.004444 0.000000
# 3 -0.001756 -0.004862 0.018732 0.000000 0.010400 0.000000
# 4 0.000000 0.000000 0.000000 0.097245 0.000000 -0.018816
# 5 0.003095 -0.004444 0.010400 0.000000 0.044212 0.000000
# 6 0.000000 0.000000 0.000000 -0.018816 0.000000 0.070419
#
#
# Mechanical properties :
#
#
# Convention : Reuss Voigt Hill
#
# Bulk Modulus (GPa) = 40.45179 44.95044 42.70111
# Shear Modulus (GPa) = 17.65463 23.07051 20.36257
#
# Velocity S-wave (km/s) = 2.97207 3.39749 3.19188
# Velocity P-wave (km/s) = 5.65836 6.15474 5.91176
#
# Compressibility (1/GPa) = 0.02472079
#
# Stress axis : x y z
#
# Youngs Moduli (GPa) = 91.74145 70.04720 53.38443
#
# Poissons Ratio (x) = 0.20848 0.09372
# Poissons Ratio (y) = 0.27305 0.25955
# Poissons Ratio (z) = 0.16106 0.34056
#
# Static dielectric constant tensor:
#      x y z
#    x 1.807140 0.000000 0.023760 
#    y 0.000000 1.714860 0.000000 
#    z 0.023760 0.000000 1.785830 
# 
# From -- ./inp_files/51950.got.cif
#   From: 2010.05.17/outbox.cif.g08.bks.cpg/sg10_26_cif.got.tgz:51950.got - 2010.06.03 11:33:40.
