data_PCOD9147937
_publ_section_title
;
Structure prediction by ZEFSAII (Michael W. Deem and Ramdas Pophale) SiO2 
 PCOD9147937
Probable space group: P 2/M
;
_chemical_formula_sum "Si O2"
_cell_formula_units_Z 32
_cell_length_a 19.598432
_cell_length_b 11.533784
_cell_length_c 15.261106
_cell_angle_alpha 90.000000
_cell_angle_beta 27.093653
_cell_angle_gamma 90.000000
_cell_volume 1571.145182
_symmetry_space_group_name_H-M "P 2/M"
_symmetry_group_IT_number 10
_symmetry_cell_setting 'monoclinic'
loop_
_space_group_symop_operation_xyz
x,y,z
-x,y,-z
-x,-y,-z
x,-y,z
loop_
_atom_site_type_symbol
_atom_site_label
_atom_site_fract_x
_atom_site_fract_y
_atom_site_fract_z
Si Si1 0.172496 0.805728 0.523076
Si Si2 0.677576 0.246112 0.045426
Si Si3 0.872431 0.870778 0.962066
Si Si4 0.516402 0.869086 0.886101
Si Si5 0.914364 0.369636 0.005607
Si Si6 0.238290 0.624417 0.574719
Si Si7 0.025662 0.365267 0.366362
Si Si8 0.482318 0.363715 0.422103
O O1 0.042506 0.864471 0.729830
O O2 0.304313 0.878921 0.331034
O O3 0.273371 0.726591 0.471318
O O4 0.088062 0.722017 0.551664
O O5 0.808134 0.327549 0.855589
O O6 0.764935 0.147878 0.001450
O O7 0.576447 0.195567 0.083454
O O8 0.579475 0.310093 0.232658
O O9 0.847173 0.754632 0.051667
O O10 0.848935 0.000000 0.027938
O O11 0.454116 0.000000 0.960746
O O12 0.500000 0.810903 0.000000
O O13 0.839533 0.500000 0.087690
O O14 0.059316 0.380439 0.777122
O O15 0.000000 0.359703 0.000000
O O16 0.299411 0.500000 0.476855
O O17 0.309668 0.647050 0.588175
O O18 0.999809 0.500000 0.371766
O O19 0.000000 0.354605 0.500000
O O20 0.500000 0.315746 0.500000
O O21 0.517071 0.500000 0.386077
#
# Coordination Sequence:
#
# PCOD9147937 Si02
#       8
#     4   4   4   4   4   4   4   4
#     4  10  19  37  59  80 114 154 195 240 302 365
#     4  11  22  39  61  85 123 161 203 250 313 369
#     4  10  22  37  58  85 116 158 201 246 304 365
#     4  11  23  39  61  87 114 151 202 256 309 370
#     4   9  19  34  57  85 114 150 197 251 303 356
#     4   9  17  32  53  80 112 146 190 244 293 345
#     4  10  21  37  59  89 123 158 199 250 312 380
#     4  10  21  35  57  87 120 157 202 250 300 361
#
# _framework density 20.36731
#
# number of rings (size 3 to 8) (size 9 to 14) (size 15 to 20)
#    0.000    2.000    1.250    2.250    1.750    3.750 
#    0.000    0.000    0.000   10.500    0.000    0.000 
#    0.000    0.000    0.000    0.000    0.000    0.000 
#
# Total GULP energy -178159.070967 kJ/mol
# GULP energy per Si atom -5567.470968 kJ/mol
# Density = 2.032095 g / cm^3
# Si number density = 20.367310 Si / 1000 Ang^3
#
#
#
# Elastic Constant Matrix: (Units=GPa)
#
#
# Indices 1 2 3 4 5 6 
#
# 1 130.6389 60.2554 31.9646 0.0000 -2.2795 0.0000
# 2 60.2554 131.2125 25.0960 0.0000 2.8375 0.0000
# 3 31.9646 25.0960 74.8914 0.0000 -2.5381 0.0000
# 4 0.0000 0.0000 0.0000 12.5198 0.0000 4.5947
# 5 -2.2795 2.8375 -2.5381 0.0000 34.5677 0.0000
# 6 0.0000 0.0000 0.0000 4.5947 0.0000 19.9031
#
#
#
# Elastic Compliance Matrix: (Units=1/GPa)
#
#
# Indices 1 2 3 4 5 6 
#
# 1 0.010331 -0.004192 -0.002977 0.000000 0.000807 0.000000
# 2 -0.004192 0.009870 -0.001559 0.000000 -0.001201 0.000000
# 3 -0.002977 -0.001559 0.015181 0.000000 0.001046 0.000000
# 4 0.000000 0.000000 0.000000 0.087267 0.000000 -0.020146
# 5 0.000807 -0.001201 0.001046 0.000000 0.029157 0.000000
# 6 0.000000 0.000000 0.000000 -0.020146 0.000000 0.054894
#
#
# Mechanical properties :
#
#
# Convention : Reuss Voigt Hill
#
# Bulk Modulus (GPa) = 55.78545 63.48609 59.63577
# Shear Modulus (GPa) = 21.72656 28.02659 24.87657
#
# Velocity S-wave (km/s) = 3.26964 3.71355 3.49864
# Velocity P-wave (km/s) = 6.45780 7.04454 6.75754
#
# Compressibility (1/GPa) = 0.01792582
#
# Stress axis : x y z
#
# Youngs Moduli (GPa) = 96.79820 101.31211 65.87066
#
# Poissons Ratio (x) = 0.42471 0.19611
# Poissons Ratio (y) = 0.40579 0.10270
# Poissons Ratio (z) = 0.28819 0.15795
#
# Static dielectric constant tensor:
#      x y z
#    x 1.743930 0.000000 0.006600 
#    y 0.000000 1.747650 0.000000 
#    z 0.006600 0.000000 1.807330 
# 
# From -- ./inp_files/69153.got.cif
#   From: 2010.05.17/outbox.cif.g08.bks.cpg/sg10_35_cif.got.tgz:69153.got - 2010.06.03 11:33:40.
