data_PCOD9147959
_publ_section_title
;
Structure prediction by ZEFSAII (Michael W. Deem and Ramdas Pophale) SiO2 
 PCOD9147959
Probable space group: P 2/M
;
_chemical_formula_sum "Si O2"
_cell_formula_units_Z 20
_cell_length_a 9.087412
_cell_length_b 9.075213
_cell_length_c 20.641871
_cell_angle_alpha 90.000000
_cell_angle_beta 29.725702
_cell_angle_gamma 90.000000
_cell_volume 844.101963
_symmetry_space_group_name_H-M "P 2/M"
_symmetry_group_IT_number 10
_symmetry_cell_setting 'monoclinic'
loop_
_space_group_symop_operation_xyz
x,y,z
-x,y,-z
-x,-y,-z
x,-y,z
loop_
_atom_site_type_symbol
_atom_site_label
_atom_site_fract_x
_atom_site_fract_y
_atom_site_fract_z
Si Si1 0.203695 0.000000 0.697028
Si Si2 0.605072 0.662253 0.027195
Si Si3 0.104505 0.665197 0.534425
Si Si4 0.086024 0.000000 0.597381
Si Si5 0.360058 0.833788 0.857435
Si Si6 0.269166 0.280620 0.754154
O O1 0.151333 0.137461 0.762639
O O2 0.032539 0.000000 0.694909
O O3 0.556005 0.000000 0.548599
O O4 0.463640 0.500000 0.084895
O O5 0.959787 0.643133 0.887756
O O6 0.500000 0.732079 0.000000
O O7 0.537285 0.750699 0.117889
O O8 0.011733 0.500000 0.596660
O O9 0.018613 0.829949 0.595903
O O10 0.465609 0.661026 0.391881
O O11 0.000000 0.666444 0.500000
O O12 0.412109 0.754833 0.769428
O O13 0.478966 0.000000 0.809753
O O14 0.000000 0.842390 0.000000
#
# Coordination Sequence:
#
# PCOD9147959 Si02
#       6
#     2   4   4   2   4   4
#     4   9  18  36  60  86 114 148 193 242 294 357
#     4  10  22  38  54  81 120 154 190 237 288 344
#     4  10  21  38  61  89 120 155 200 245 292 355
#     4   9  19  38  60  86 120 157 191 249 302 342
#     4   9  18  34  59  85 110 147 192 238 283 342
#     4  10  19  37  62  83 113 154 191 239 291 346
#
# _framework density 23.693819999999999
#
# number of rings (size 3 to 8) (size 9 to 14) (size 15 to 20)
#    0.000    2.400    1.000    0.900    1.400    4.800 
#    3.600    9.000    0.000    0.000    0.000    0.000 
#    0.000    0.000    0.000    0.000    0.000    0.000 
#
# Total GULP energy -111446.679241 kJ/mol
# GULP energy per Si atom -5572.333962 kJ/mol
# Density = 2.363989 g / cm^3
# Si number density = 23.693820 Si / 1000 Ang^3
#
#
#
# Elastic Constant Matrix: (Units=GPa)
#
#
# Indices 1 2 3 4 5 6 
#
# 1 148.3517 70.3902 13.8199 0.0000 31.4864 0.0000
# 2 70.3902 177.4988 41.4324 0.0000 21.6932 0.0000
# 3 13.8199 41.4324 79.3561 0.0000 3.9259 0.0000
# 4 0.0000 0.0000 0.0000 35.0670 0.0000 4.5500
# 5 31.4864 21.6932 3.9259 0.0000 39.2031 0.0000
# 6 0.0000 0.0000 0.0000 4.5500 0.0000 -5.7289
#
#
#
# Elastic Compliance Matrix: (Units=1/GPa)
#
#
# Indices 1 2 3 4 5 6 
#
# 1 0.009429 -0.003079 0.000257 0.000000 -0.005895 0.000000
# 2 -0.003079 0.007856 -0.003490 0.000000 -0.001525 0.000000
# 3 0.000257 -0.003490 0.014365 0.000000 0.000286 0.000000
# 4 0.000000 0.000000 0.000000 0.025853 0.000000 0.020533
# 5 -0.005895 -0.001525 0.000286 0.000000 0.031058 0.000000
# 6 0.000000 0.000000 0.000000 0.020533 0.000000 -0.158246
#
#
# Mechanical properties :
#
#
# Convention : Reuss Voigt Hill
#
# Bulk Modulus (GPa) = 52.55994 72.94351 62.75173
# Shear Modulus (GPa) = -98.57755 32.34583 -33.11586
#
# Velocity S-wave (km/s) = -6.45717 3.69881 -3.74258
# Velocity P-wave (km/s) = 5.77601 7.00674 2.80464
#
# Compressibility (1/GPa) = 0.01902590
#
# Stress axis : x y z
#
# Youngs Moduli (GPa) = 106.05897 127.29555 69.61537
#
# Poissons Ratio (x) = 0.39190 -0.01789
# Poissons Ratio (y) = 0.32652 0.24295
# Poissons Ratio (z) = -0.02726 0.44426
#
# Static dielectric constant tensor:
#      x y z
#    x 1.873030 0.000000 -0.068250 
#    y 0.000000 1.966310 0.000000 
#    z -0.068250 0.000000 1.938930 
# 
# From -- ./inp_files/31453.got.cif
#   From: 2010.05.17/outbox.cif.g08.bks.cpg/sg10_16_cif.got.tgz:31453.got - 2010.06.03 11:33:40.
