data_PCOD9147173
_publ_section_title
;
Structure prediction by ZEFSAII (Michael W. Deem and Ramdas Pophale) SiO2 
 PCOD9147173
Probable space group: P 2/M
;
_chemical_formula_sum "Si O2"
_cell_formula_units_Z 28
_cell_length_a 6.011218
_cell_length_b 13.531137
_cell_length_c 18.740050
_cell_angle_alpha 90.000000
_cell_angle_beta 107.940799
_cell_angle_gamma 90.000000
_cell_volume 1450.171571
_symmetry_space_group_name_H-M "P 2/M"
_symmetry_group_IT_number 10
_symmetry_cell_setting 'monoclinic'
loop_
_space_group_symop_operation_xyz
x,y,z
-x,y,-z
-x,-y,-z
x,-y,z
loop_
_atom_site_type_symbol
_atom_site_label
_atom_site_fract_x
_atom_site_fract_y
_atom_site_fract_z
Si Si1 0.134922 0.742213 0.360190
Si Si2 0.326968 0.226591 0.759704
Si Si3 0.000000 0.767666 0.500000
Si Si4 0.068379 0.277595 0.880525
Si Si5 0.448514 0.890202 0.578941
Si Si6 0.500000 0.226493 0.000000
Si Si7 0.689368 0.115568 0.879663
Si Si8 0.295482 0.615270 0.246124
O O1 0.348614 0.818877 0.372338
O O2 0.182423 0.653624 0.309311
O O3 0.894712 0.793805 0.311374
O O4 0.107965 0.713033 0.441168
O O5 0.212226 0.257073 0.823050
O O6 0.509371 0.140539 0.797375
O O7 0.475938 0.317939 0.744044
O O8 0.799383 0.836430 0.447030
O O9 0.919048 0.181246 0.887877
O O10 0.879804 0.358837 0.837092
O O11 0.271320 0.291656 0.958738
O O12 0.500000 0.900325 0.500000
O O13 0.445709 0.000000 0.610732
O O14 0.427180 0.157221 0.059249
O O15 0.738177 0.000000 0.889435
O O16 0.345307 0.500000 0.253597
#
# Coordination Sequence:
#
# PCOD9147173 Si02
#       8
#     4   4   2   4   4   2   4   4
#     4  10  20  36  57  84 113 145 185 233 283 338
#     4   9  20  37  55  78 110 148 188 232 278 325
#     4  10  19  34  57  84 120 152 181 224 279 334
#     4   9  20  36  55  82 113 146 186 231 273 325
#     4   9  18  32  52  79 111 147 182 214 256 316
#     4  10  19  34  57  84 122 156 183 222 271 322
#     4  10  20  34  55  85 120 157 192 223 264 323
#     4  10  21  40  62  80 103 141 188 237 292 347
#
# _framework density 19.308060999999999
#
# number of rings (size 3 to 8) (size 9 to 14) (size 15 to 20)
#    0.000    2.429    0.000    1.714    0.000    6.857 
#    0.000   10.714    0.000   19.286    0.000    0.000 
#    0.000    0.000    0.000    0.000    0.000    0.000 
#
# Total GULP energy -155995.687669 kJ/mol
# GULP energy per Si atom -5571.274560 kJ/mol
# Density = 1.926411 g / cm^3
# Si number density = 19.308061 Si / 1000 Ang^3
#
#
#
# Elastic Constant Matrix: (Units=GPa)
#
#
# Indices 1 2 3 4 5 6 
#
# 1 108.4951 32.7065 42.3333 0.0000 11.3566 0.0000
# 2 32.7065 73.7087 43.2490 0.0000 -5.8840 0.0000
# 3 42.3333 43.2490 93.5849 0.0000 13.5078 0.0000
# 4 0.0000 0.0000 0.0000 15.0339 0.0000 -7.8455
# 5 11.3566 -5.8840 13.5078 0.0000 52.1129 0.0000
# 6 0.0000 0.0000 0.0000 -7.8455 0.0000 0.8132
#
#
#
# Elastic Compliance Matrix: (Units=1/GPa)
#
#
# Indices 1 2 3 4 5 6 
#
# 1 0.011805 -0.003350 -0.003497 0.000000 -0.002044 0.000000
# 2 -0.003350 0.020639 -0.008794 0.000000 0.005340 0.000000
# 3 -0.003497 -0.008794 0.017001 0.000000 -0.004637 0.000000
# 4 0.000000 0.000000 0.000000 -0.016487 0.000000 -0.159053
# 5 -0.002044 0.005340 -0.004637 0.000000 0.021440 0.000000
# 6 0.000000 0.000000 0.000000 -0.159053 0.000000 -0.304783
#
#
# Mechanical properties :
#
#
# Convention : Reuss Voigt Hill
#
# Bulk Modulus (GPa) = 55.05260 56.92960 55.99110
# Shear Modulus (GPa) = -23.46875 24.09200 0.31163
#
# Velocity S-wave (km/s) = -3.49017 3.53621 0.40218
# Velocity P-wave (km/s) = 3.51183 6.79867 5.41086
#
# Compressibility (1/GPa) = 0.01816445
#
# Stress axis : x y z
#
# Youngs Moduli (GPa) = 84.70794 48.45147 58.82138
#
# Poissons Ratio (x) = 0.16229 0.20570
# Poissons Ratio (y) = 0.28374 0.51725
# Poissons Ratio (z) = 0.29623 0.42607
#
# Static dielectric constant tensor:
#      x y z
#    x 1.701050 0.000000 -0.000710 
#    y 0.000000 1.620770 0.000000 
#    z -0.000710 0.000000 1.743340 
# 
# From -- ./inp_files/81230.got.cif
#   From: 2010.05.17/outbox.cif.g08.bks.cpg/sg10_41_cif.got.tgz:81230.got - 2010.06.03 11:33:40.
