data_PCOD9147096
_publ_section_title
;
Structure prediction by ZEFSAII (Michael W. Deem and Ramdas Pophale) SiO2 
 PCOD9147096
Probable space group: P 2/M
;
_chemical_formula_sum "Si O2"
_cell_formula_units_Z 16
_cell_length_a 6.007749
_cell_length_b 16.019165
_cell_length_c 9.745398
_cell_angle_alpha 90.000000
_cell_angle_beta 128.058858
_cell_angle_gamma 90.000000
_cell_volume 738.472709
_symmetry_space_group_name_H-M "P 2/M"
_symmetry_group_IT_number 10
_symmetry_cell_setting 'monoclinic'
loop_
_space_group_symop_operation_xyz
x,y,z
-x,y,-z
-x,-y,-z
x,-y,z
loop_
_atom_site_type_symbol
_atom_site_label
_atom_site_fract_x
_atom_site_fract_y
_atom_site_fract_z
Si Si1 0.187108 0.907869 0.811497
Si Si2 0.000000 0.174873 0.000000
Si Si3 0.398478 0.750000 0.750000
Si Si4 0.935885 0.407869 0.311497
Si Si5 0.500000 0.325127 0.500000
O O1 0.215541 0.831180 0.718436
O O2 0.121237 0.000000 0.731630
O O3 0.500000 0.912452 0.000000
O O4 0.979444 0.881935 0.856439
O O5 0.720837 0.229685 0.910743
O O6 0.278671 0.668820 0.781564
O O7 0.399353 0.729686 0.589258
O O8 0.842024 0.500000 0.231630
O O9 0.000000 0.412452 0.500000
O O10 0.233433 0.381934 0.356439
#
# Coordination Sequence:
#
# PCOD9147096 Si02
#       5
#     4   2   4   4   2
#     4   9  18  33  54  79 106 140 183 223 261 314
#     4  10  19  34  57  80 108 144 177 220 271 316
#     4  10  20  34  54  82 112 140 178 222 266 318
#     4   9  18  33  54  79 106 140 183 223 261 314
#     4  10  19  34  57  80 108 144 177 220 271 316
#
# _framework density 21.666340999999999
#
# number of rings (size 3 to 8) (size 9 to 14) (size 15 to 20)
#    0.000    2.500    0.000    2.250    0.000    2.000 
#    0.000    1.250    0.000   28.500    0.000    0.000 
#    0.000    0.000    0.000    0.000    0.000    0.000 
#
# Total GULP energy -89324.109011 kJ/mol
# GULP energy per Si atom -5582.756813 kJ/mol
# Density = 2.161703 g / cm^3
# Si number density = 21.666341 Si / 1000 Ang^3
#
#
#
# Elastic Constant Matrix: (Units=GPa)
#
#
# Indices 1 2 3 4 5 6 
#
# 1 122.4380 92.2895 11.7240 0.0000 -0.0003 0.0000
# 2 92.2895 241.7330 34.3907 0.0000 -0.0005 0.0000
# 3 11.7240 34.3907 26.4619 0.0000 0.0000 0.0000
# 4 0.0000 0.0000 0.0000 21.7867 0.0000 0.0001
# 5 -0.0003 -0.0005 0.0000 0.0000 36.2656 0.0000
# 6 0.0000 0.0000 0.0000 0.0001 0.0000 13.9308
#
#
#
# Elastic Compliance Matrix: (Units=1/GPa)
#
#
# Indices 1 2 3 4 5 6 
#
# 1 0.011479 -0.004489 0.000748 0.000000 0.000000 0.000000
# 2 -0.004489 0.006831 -0.006888 0.000000 0.000000 0.000000
# 3 0.000748 -0.006888 0.046411 0.000000 0.000000 0.000000
# 4 0.000000 0.000000 0.000000 0.045900 0.000000 0.000000
# 5 0.000000 0.000000 0.000000 0.000000 0.027574 0.000000
# 6 0.000000 0.000000 0.000000 0.000000 0.000000 0.071783
#
#
# Mechanical properties :
#
#
# Convention : Reuss Voigt Hill
#
# Bulk Modulus (GPa) = 23.00833 74.16014 48.58423
# Shear Modulus (GPa) = 20.34800 31.21189 25.77994
#
# Velocity S-wave (km/s) = 3.06788 3.79960 3.45318
# Velocity P-wave (km/s) = 4.81577 7.31791 6.19450
#
# Compressibility (1/GPa) = 0.04346252
#
# Stress axis : x y z
#
# Youngs Moduli (GPa) = 87.11185 146.39879 21.54658
#
# Poissons Ratio (x) = 0.65720 -0.01612
# Poissons Ratio (y) = 0.39106 0.14842
# Poissons Ratio (z) = -0.06518 1.00846
#
# Static dielectric constant tensor:
#      x y z
#    x 1.808000 0.000000 0.000000 
#    y 0.000000 1.823160 0.000000 
#    z 0.000000 0.000000 1.846750 
# 
# From -- ./inp_files/6184.got.cif
#   From: 2010.05.17/outbox.cif.g08.bks.cpg/sg10_4_cif.got.tgz:6184.got - 2010.06.03 11:33:40.
