data_PCOD9147365
_publ_section_title
;
Structure prediction by ZEFSAII (Michael W. Deem and Ramdas Pophale) SiO2 
 PCOD9147365
Probable space group: P 2/M
;
_chemical_formula_sum "Si O2"
_cell_formula_units_Z 32
_cell_length_a 24.554540
_cell_length_b 9.154318
_cell_length_c 11.870179
_cell_angle_alpha 90.000000
_cell_angle_beta 136.916020
_cell_angle_gamma 90.000000
_cell_volume 1822.552377
_symmetry_space_group_name_H-M "P 2/M"
_symmetry_group_IT_number 10
_symmetry_cell_setting 'monoclinic'
loop_
_space_group_symop_operation_xyz
x,y,z
-x,y,-z
-x,-y,-z
x,-y,z
loop_
_atom_site_type_symbol
_atom_site_label
_atom_site_fract_x
_atom_site_fract_y
_atom_site_fract_z
Si Si1 0.319640 0.174816 0.295348
Si Si2 0.475422 0.332071 0.595325
Si Si3 0.154147 0.674430 0.420720
Si Si4 0.965075 0.328285 0.133915
Si Si5 0.366919 0.175037 0.112922
Si Si6 0.217130 0.825322 0.738986
Si Si7 0.914369 0.328557 0.312313
Si Si8 0.164407 0.825704 0.202381
O O1 0.391110 0.250574 0.471523
O O2 0.329013 0.215641 0.177793
O O3 0.234363 0.211421 0.219271
O O4 0.329770 0.000000 0.317359
O O5 0.500000 0.328175 0.500000
O O6 0.468193 0.500000 0.618885
O O7 0.547890 0.252521 0.767554
O O8 0.165103 0.500000 0.436465
O O9 0.197217 0.745504 0.592583
O O10 0.181510 0.747089 0.345942
O O11 0.058886 0.703153 0.285555
O O12 0.956676 0.500000 0.091951
O O13 0.925802 0.304246 0.196964
O O14 0.918506 0.233216 0.972800
O O15 0.378377 0.000000 0.131328
O O16 0.303598 0.211800 0.920819
O O17 0.151670 0.771442 0.730400
O O18 0.212130 0.000000 0.718182
O O19 0.894308 0.500000 0.300899
O O20 0.000000 0.303247 0.500000
O O21 0.161889 0.000000 0.212897
#
# Coordination Sequence:
#
# PCOD9147365 Si02
#       8
#     4   4   4   4   4   4   4   4
#     4   9  18  34  54  77 110 143 169 206 263 321
#     4   9  17  29  50  81 111 137 171 211 252 306
#     4  11  23  40  56  72 102 145 186 222 270 323
#     4  10  21  37  56  76 103 141 182 221 268 323
#     4   9  18  33  53  79 111 143 171 205 261 323
#     4  11  22  35  54  81 109 140 181 225 267 314
#     4  10  19  35  54  75 106 143 178 213 263 322
#     4  11  23  37  55  80 106 135 180 230 270 311
#
# _framework density 17.557794000000001
#
# number of rings (size 3 to 8) (size 9 to 14) (size 15 to 20)
#    0.000    2.000    1.250    2.625    0.000    7.750 
#    0.000    2.500    0.000    0.750    0.000    5.250 
#    0.000    0.000    0.000    0.000    0.000    0.000 
#
# Total GULP energy -178670.199649 kJ/mol
# GULP energy per Si atom -5583.443739 kJ/mol
# Density = 1.751783 g / cm^3
# Si number density = 17.557794 Si / 1000 Ang^3
#
#
#
# Elastic Constant Matrix: (Units=GPa)
#
#
# Indices 1 2 3 4 5 6 
#
# 1 35.3561 28.9967 39.5135 0.0000 -4.1027 0.0000
# 2 28.9967 51.0742 63.6888 0.0000 0.4781 0.0000
# 3 39.5135 63.6888 133.7814 0.0000 6.4703 0.0000
# 4 0.0000 0.0000 0.0000 48.0302 0.0000 1.0965
# 5 -4.1027 0.4781 6.4703 0.0000 15.7929 0.0000
# 6 0.0000 0.0000 0.0000 1.0965 0.0000 25.9179
#
#
#
# Elastic Compliance Matrix: (Units=1/GPa)
#
#
# Indices 1 2 3 4 5 6 
#
# 1 0.058119 -0.026246 -0.005550 0.000000 0.018167 0.000000
# 2 -0.026246 0.061073 -0.021326 0.000000 0.000070 0.000000
# 3 -0.005550 -0.021326 0.019696 0.000000 -0.008865 0.000000
# 4 0.000000 0.000000 0.000000 0.020840 0.000000 -0.000882
# 5 0.018167 0.000070 -0.008865 0.000000 0.071669 0.000000
# 6 0.000000 0.000000 0.000000 -0.000882 0.000000 0.038621
#
#
# Mechanical properties :
#
#
# Convention : Reuss Voigt Hill
#
# Bulk Modulus (GPa) = 30.63363 53.84550 42.23957
# Shear Modulus (GPa) = 12.91513 23.81572 18.36543
#
# Velocity S-wave (km/s) = 2.71510 3.68695 3.23770
# Velocity P-wave (km/s) = 5.22630 6.98992 6.17143
#
# Compressibility (1/GPa) = 0.03264386
#
# Stress axis : x y z
#
# Youngs Moduli (GPa) = 17.20601 16.37387 50.77281
#
# Poissons Ratio (x) = 0.42974 0.28179
# Poissons Ratio (y) = 0.45158 1.08279
# Poissons Ratio (z) = 0.09549 0.34919
#
# Static dielectric constant tensor:
#      x y z
#    x 1.587720 0.000000 -0.005030 
#    y 0.000000 1.584530 0.000000 
#    z -0.005030 0.000000 1.583960 
# 
# From -- ./inp_files/54771.got.cif
#   From: 2010.05.17/outbox.cif.g08.bks.cpg/sg10_28_cif.got.tgz:54771.got - 2010.06.03 11:33:40.
