data_PCOD9147598
_publ_section_title
;
Structure prediction by ZEFSAII (Michael W. Deem and Ramdas Pophale) SiO2 
 PCOD9147598
Probable space group: P 2/M
;
_chemical_formula_sum "Si O2"
_cell_formula_units_Z 30
_cell_length_a 8.069202
_cell_length_b 9.741122
_cell_length_c 22.776630
_cell_angle_alpha 90.000000
_cell_angle_beta 128.307366
_cell_angle_gamma 90.000000
_cell_volume 1404.852908
_symmetry_space_group_name_H-M "P 2/M"
_symmetry_group_IT_number 10
_symmetry_cell_setting 'monoclinic'
loop_
_space_group_symop_operation_xyz
x,y,z
-x,y,-z
-x,-y,-z
x,-y,z
loop_
_atom_site_type_symbol
_atom_site_label
_atom_site_fract_x
_atom_site_fract_y
_atom_site_fract_z
Si Si1 0.734456 0.346804 0.730399
Si Si2 0.906287 0.647799 0.895983
Si Si3 0.266130 0.156222 0.942677
Si Si4 0.737841 0.658772 0.527506
Si Si5 0.078598 0.155896 0.657350
Si Si6 0.796253 0.268654 0.194994
Si Si7 0.566226 0.500000 0.889476
Si Si8 0.368392 0.840959 0.605361
O O1 0.647854 0.500000 0.698899
O O2 0.756612 0.331652 0.805870
O O3 0.588428 0.230978 0.670665
O O4 0.971990 0.336120 0.759244
O O5 0.019548 0.500000 0.909272
O O6 0.751869 0.617635 0.915765
O O7 0.081572 0.762805 0.934860
O O8 0.214663 0.165820 0.862356
O O9 0.274146 0.000000 0.965044
O O10 0.500000 0.219193 0.000000
O O11 0.500000 0.660097 0.500000
O O12 0.799660 0.500000 0.531421
O O13 0.736077 0.749603 0.468285
O O14 0.893146 0.734836 0.606501
O O15 0.210805 0.195406 0.743864
O O16 0.224927 0.162175 0.631968
O O17 0.996461 0.000000 0.645013
O O18 0.615460 0.380575 0.147331
O O19 0.392354 0.000000 0.592272
#
# Coordination Sequence:
#
# PCOD9147598 Si02
#       8
#     4   4   4   4   4   4   2   4
#     4  10  19  35  59  88 119 157 207 258 303 366
#     4   8  19  37  61  93 122 166 209 258 314 374
#     4  10  22  42  67  95 130 172 217 264 316 380
#     4  11  25  43  63  89 121 162 213 264 315 374
#     4  11  25  41  61  91 126 164 205 260 323 382
#     4  11  22  39  65  94 127 163 212 264 318 378
#     4  10  20  38  61  94 128 162 204 264 322 372
#     4  11  24  40  60  89 126 165 208 258 316 380
#
# _framework density 21.354548000000001
#
# number of rings (size 3 to 8) (size 9 to 14) (size 15 to 20)
#    0.400    1.333    0.667    3.200    1.867    8.800 
#    0.000    2.667    0.000    1.600    0.000    0.000 
#    0.000    0.000    0.000    0.000    0.000    0.000 
#
# Total GULP energy -167097.754778 kJ/mol
# GULP energy per Si atom -5569.925159 kJ/mol
# Density = 2.130594 g / cm^3
# Si number density = 21.354548 Si / 1000 Ang^3
#
#
#
# Elastic Constant Matrix: (Units=GPa)
#
#
# Indices 1 2 3 4 5 6 
#
# 1 64.9704 32.2734 23.9973 0.0000 16.5751 0.0000
# 2 32.2734 133.7114 37.8155 0.0000 14.1934 0.0000
# 3 23.9973 37.8155 70.2147 0.0000 -6.4736 0.0000
# 4 0.0000 0.0000 0.0000 35.7989 0.0000 7.4356
# 5 16.5751 14.1934 -6.4736 0.0000 43.9595 0.0000
# 6 0.0000 0.0000 0.0000 7.4356 0.0000 4.3076
#
#
#
# Elastic Compliance Matrix: (Units=1/GPa)
#
#
# Indices 1 2 3 4 5 6 
#
# 1 0.021123 -0.002326 -0.006723 0.000000 -0.008203 0.000000
# 2 -0.002326 0.009678 -0.004688 0.000000 -0.002938 0.000000
# 3 -0.006723 -0.004688 0.019705 0.000000 0.006950 0.000000
# 4 0.000000 0.000000 0.000000 0.043547 0.000000 -0.075168
# 5 -0.008203 -0.002938 0.006950 0.000000 0.027814 0.000000
# 6 0.000000 0.000000 0.000000 -0.075168 0.000000 0.361899
#
#
# Mechanical properties :
#
#
# Convention : Reuss Voigt Hill
#
# Bulk Modulus (GPa) = 43.41746 50.78544 47.10145
# Shear Modulus (GPa) = 9.63545 28.46722 19.05134
#
# Velocity S-wave (km/s) = 2.12648 3.65509 2.99012
# Velocity P-wave (km/s) = 5.13859 6.45342 5.83317
#
# Compressibility (1/GPa) = 0.02303221
#
# Stress axis : x y z
#
# Youngs Moduli (GPa) = 47.34145 103.32687 50.74772
#
# Poissons Ratio (x) = 0.24037 0.34116
# Poissons Ratio (y) = 0.11013 0.23791
# Poissons Ratio (z) = 0.31826 0.48441
#
# Static dielectric constant tensor:
#      x y z
#    x 1.767670 0.000000 -0.034390 
#    y 0.000000 1.768540 0.000000 
#    z -0.034390 0.000000 1.807340 
# 
# From -- ./inp_files/91854.got.cif
#   From: 2010.05.17/outbox.cif.g08.bks.cpg/sg10_46_cif.got.tgz:91854.got - 2010.06.03 11:33:40.
