data_PCOD9147624
_publ_section_title
;
Structure prediction by ZEFSAII (Michael W. Deem and Ramdas Pophale) SiO2 
 PCOD9147624
Probable space group: P 2/M
;
_chemical_formula_sum "Si O2"
_cell_formula_units_Z 24
_cell_length_a 9.244755
_cell_length_b 7.621177
_cell_length_c 22.529153
_cell_angle_alpha 90.000000
_cell_angle_beta 129.246505
_cell_angle_gamma 90.000000
_cell_volume 1229.264050
_symmetry_space_group_name_H-M "P 2/M"
_symmetry_group_IT_number 10
_symmetry_cell_setting 'monoclinic'
loop_
_space_group_symop_operation_xyz
x,y,z
-x,y,-z
-x,-y,-z
x,-y,z
loop_
_atom_site_type_symbol
_atom_site_label
_atom_site_fract_x
_atom_site_fract_y
_atom_site_fract_z
Si Si1 0.854022 0.297564 0.178053
Si Si2 0.791383 0.288827 0.815114
Si Si3 0.203398 0.000000 0.082757
Si Si4 0.474579 0.296320 0.359825
Si Si5 0.136779 0.797827 0.487800
Si Si6 0.550286 0.000000 0.082312
Si Si7 0.128692 0.787735 0.352180
O O1 0.801022 0.500000 0.155845
O O2 0.016184 0.254541 0.171563
O O3 0.954655 0.274602 0.267763
O O4 0.680748 0.168338 0.128363
O O5 0.782619 0.500000 0.823133
O O6 0.782716 0.170732 0.871103
O O7 0.622068 0.237957 0.726631
O O8 0.367735 0.000000 0.076592
O O9 0.000000 0.000000 0.000000
O O10 0.522829 0.500000 0.365304
O O11 0.657586 0.203114 0.431143
O O12 0.313265 0.277571 0.366874
O O13 0.129634 0.722844 0.419898
O O14 0.000000 0.712977 0.500000
O O15 0.075294 0.000000 0.463938
O O16 0.500000 0.000000 0.000000
O O17 0.132920 0.000000 0.351700
#
# Coordination Sequence:
#
# PCOD9147624 Si02
#       7
#     4   4   2   4   4   2   4
#     4  10  21  41  68  95 126 162 204 257 310 365
#     4   9  21  41  65  95 125 158 204 255 306 365
#     4  12  26  42  68  95 122 167 200 244 305 366
#     4  10  21  36  57  86 115 156 204 248 304 358
#     4  10  22  36  51  78 118 160 204 254 305 353
#     4  12  26  44  66  95 130 161 204 246 305 374
#     4  10  19  35  60  87 116 156 206 252 299 357
#
# _framework density 19.523876000000001
#
# number of rings (size 3 to 8) (size 9 to 14) (size 15 to 20)
#    0.000    1.833    0.833    4.000    4.667    6.333 
#    0.000    1.667    0.000    0.000    0.000    0.000 
#    0.000    0.000    0.000    0.000    0.000    0.000 
#
# Total GULP energy -134037.976045 kJ/mol
# GULP energy per Si atom -5584.915669 kJ/mol
# Density = 1.947944 g / cm^3
# Si number density = 19.523876 Si / 1000 Ang^3
#
#
#
# Elastic Constant Matrix: (Units=GPa)
#
#
# Indices 1 2 3 4 5 6 
#
# 1 106.6016 28.7071 103.2285 0.0000 -6.7503 0.0000
# 2 28.7071 65.5739 35.5081 0.0000 -2.5359 0.0000
# 3 103.2285 35.5081 150.3174 0.0000 -11.3250 0.0000
# 4 0.0000 0.0000 0.0000 -25.1042 0.0000 20.5962
# 5 -6.7503 -2.5359 -11.3250 0.0000 31.9758 0.0000
# 6 0.0000 0.0000 0.0000 20.5962 0.0000 51.2948
#
#
#
# Elastic Compliance Matrix: (Units=1/GPa)
#
#
# Indices 1 2 3 4 5 6 
#
# 1 0.028288 -0.002136 -0.018991 0.000000 -0.000924 0.000000
# 2 -0.002136 0.017648 -0.002703 0.000000 -0.000008 0.000000
# 3 -0.018991 -0.002703 0.020564 0.000000 0.003060 0.000000
# 4 0.000000 0.000000 0.000000 -0.029963 0.000000 0.012031
# 5 -0.000924 -0.000008 0.003060 0.000000 0.032162 0.000000
# 6 0.000000 0.000000 0.000000 0.012031 0.000000 0.014664
#
#
# Mechanical properties :
#
#
# Convention : Reuss Voigt Hill
#
# Bulk Modulus (GPa) = 53.07934 73.04224 63.06079
# Shear Modulus (GPa) = 36.41609 21.96990 29.19299
#
# Velocity S-wave (km/s) = 4.32349 3.35816 3.87104
# Velocity P-wave (km/s) = 7.22283 7.24771 7.23528
#
# Compressibility (1/GPa) = 0.01883972
#
# Stress axis : x y z
#
# Youngs Moduli (GPa) = 35.35090 56.66297 48.62961
#
# Poissons Ratio (x) = 0.12102 0.92354
# Poissons Ratio (y) = 0.07550 0.13143
# Poissons Ratio (z) = 0.67136 0.15315
#
# Static dielectric constant tensor:
#      x y z
#    x 1.668070 0.000000 -0.015220 
#    y 0.000000 1.707170 0.000000 
#    z -0.015220 0.000000 1.674260 
# 
# From -- ./inp_files/66728.got.cif
#   From: 2010.05.17/outbox.cif.g08.bks.cpg/sg10_34_cif.got.tgz:66728.got - 2010.06.03 11:33:40.
