data_PCOD9147343
_publ_section_title
;
Structure prediction by ZEFSAII (Michael W. Deem and Ramdas Pophale) SiO2 
 PCOD9147343
Probable space group: P 2/M
;
_chemical_formula_sum "Si O2"
_cell_formula_units_Z 30
_cell_length_a 12.001467
_cell_length_b 13.495968
_cell_length_c 9.877455
_cell_angle_alpha 90.000000
_cell_angle_beta 117.430354
_cell_angle_gamma 90.000000
_cell_volume 1419.994828
_symmetry_space_group_name_H-M "P 2/M"
_symmetry_group_IT_number 10
_symmetry_cell_setting 'monoclinic'
loop_
_space_group_symop_operation_xyz
x,y,z
-x,y,-z
-x,-y,-z
x,-y,z
loop_
_atom_site_type_symbol
_atom_site_label
_atom_site_fract_x
_atom_site_fract_y
_atom_site_fract_z
Si Si1 0.820247 0.252297 0.532053
Si Si2 0.645417 0.613155 0.625286
Si Si3 0.562359 0.299160 0.850013
Si Si4 0.696874 0.680511 0.202243
Si Si5 0.834350 0.110339 0.769178
Si Si6 0.043140 0.612114 0.747003
Si Si7 0.000000 0.277108 0.000000
Si Si8 0.543846 0.889729 0.674660
O O1 0.726104 0.316271 0.574728
O O2 0.760319 0.248880 0.350152
O O3 0.833843 0.146991 0.613302
O O4 0.949977 0.313767 0.615007
O O5 0.500000 0.617324 0.500000
O O6 0.689169 0.500000 0.639586
O O7 0.644160 0.649395 0.779622
O O8 0.433832 0.360462 0.807294
O O9 0.514265 0.194652 0.764651
O O10 0.643396 0.280094 0.029550
O O11 0.815376 0.612989 0.230890
O O12 0.898793 0.199923 0.884983
O O13 0.693502 0.105117 0.745473
O O14 0.890342 0.000000 0.813808
O O15 0.994653 0.500000 0.714839
O O16 0.043698 0.654830 0.900134
O O17 0.500000 0.860437 0.500000
O O18 0.494095 0.000000 0.676280
#
# Coordination Sequence:
#
# PCOD9147343 Si02
#       8
#     4   4   4   4   4   4   2   4
#     4  11  22  42  65  91 129 167 211 267 313 369
#     4  11  22  38  64  92 122 165 216 259 312 377
#     4  11  22  42  61  90 130 168 207 263 314 373
#     4  11  25  40  62  86 130 175 205 256 320 375
#     4  10  20  36  65  97 124 162 211 260 317 376
#     4  11  25  42  65  93 124 169 217 259 319 384
#     4  10  22  42  66  92 128 158 208 274 316 364
#     4  10  19  34  63  97 125 160 209 261 315 371
#
# _framework density 21.126837999999999
#
# number of rings (size 3 to 8) (size 9 to 14) (size 15 to 20)
#    0.000    1.333    2.667    3.200    1.867    2.667 
#    0.000    3.333    0.000   11.200    0.000    0.000 
#    0.000    0.000    0.000    0.000    0.000    0.000 
#
# Total GULP energy -167494.996933 kJ/mol
# GULP energy per Si atom -5583.166564 kJ/mol
# Density = 2.107875 g / cm^3
# Si number density = 21.126838 Si / 1000 Ang^3
#
#
#
# Elastic Constant Matrix: (Units=GPa)
#
#
# Indices 1 2 3 4 5 6 
#
# 1 92.7415 24.5287 21.8811 0.0000 3.5485 0.0000
# 2 24.5287 89.9200 5.4875 0.0000 -3.8184 0.0000
# 3 21.8811 5.4875 112.6070 0.0000 2.7650 0.0000
# 4 0.0000 0.0000 0.0000 0.7094 0.0000 14.8427
# 5 3.5485 -3.8184 2.7650 0.0000 28.1516 0.0000
# 6 0.0000 0.0000 0.0000 14.8427 0.0000 15.2620
#
#
#
# Elastic Compliance Matrix: (Units=1/GPa)
#
#
# Indices 1 2 3 4 5 6 
#
# 1 0.012230 -0.003279 -0.002173 0.000000 -0.001773 0.000000
# 2 -0.003279 0.012103 -0.000003 0.000000 0.002055 0.000000
# 3 -0.002173 -0.000003 0.009319 0.000000 -0.000642 0.000000
# 4 0.000000 0.000000 0.000000 -0.072857 0.000000 0.070855
# 5 -0.001773 0.002055 -0.000642 0.000000 0.036087 0.000000
# 6 0.000000 0.000000 0.000000 0.070855 0.000000 -0.003386
#
#
# Mechanical properties :
#
#
# Convention : Reuss Voigt Hill
#
# Bulk Modulus (GPa) = 43.97256 44.34035 44.15645
# Shear Modulus (GPa) = 417.13321 25.04935 221.09128
#
# Velocity S-wave (km/s) = 14.06666 3.44708 10.24093
# Velocity P-wave (km/s) = 16.87266 6.07260 12.67997
#
# Compressibility (1/GPa) = 0.02274145
#
# Stress axis : x y z
#
# Youngs Moduli (GPa) = 81.76301 82.62486 107.31179
#
# Poissons Ratio (x) = 0.27092 0.23321
# Poissons Ratio (y) = 0.26810 0.00033
# Poissons Ratio (z) = 0.17769 0.00026
#
# Static dielectric constant tensor:
#      x y z
#    x 1.791150 0.000000 0.011900 
#    y 0.000000 1.758820 0.000000 
#    z 0.011900 0.000000 1.797170 
# 
# From -- ./inp_files/25374.got.cif
#   From: 2010.05.17/outbox.cif.g08.bks.cpg/sg10_13_cif.got.tgz:25374.got - 2010.06.03 11:33:40.
