data_PCOD9147871
_publ_section_title
;
Structure prediction by ZEFSAII (Michael W. Deem and Ramdas Pophale) SiO2 
 PCOD9147871
Probable space group: P 2/M
;
_chemical_formula_sum "Si O2"
_cell_formula_units_Z 28
_cell_length_a 27.870227
_cell_length_b 9.164030
_cell_length_c 9.403767
_cell_angle_alpha 90.000000
_cell_angle_beta 38.501159
_cell_angle_gamma 90.000000
_cell_volume 1495.166230
_symmetry_space_group_name_H-M "P 2/M"
_symmetry_group_IT_number 10
_symmetry_cell_setting 'monoclinic'
loop_
_space_group_symop_operation_xyz
x,y,z
-x,y,-z
-x,-y,-z
x,-y,z
loop_
_atom_site_type_symbol
_atom_site_label
_atom_site_fract_x
_atom_site_fract_y
_atom_site_fract_z
Si Si1 0.272898 0.323037 0.022422
Si Si2 0.151532 0.324588 0.817612
Si Si3 0.435656 0.332441 0.772143
Si Si4 0.014404 0.824797 0.300292
Si Si5 0.301550 0.675330 0.636189
Si Si6 0.123968 0.323577 0.550052
Si Si7 0.536003 0.164664 0.760990
O O1 0.273958 0.500000 0.020474
O O2 0.354716 0.276725 0.898449
O O3 0.268830 0.279060 0.866963
O O4 0.200712 0.279275 0.285578
O O5 0.142035 0.500000 0.856952
O O6 0.238933 0.288614 0.660970
O O7 0.133400 0.289361 0.695341
O O8 0.093423 0.242752 0.057472
O O9 0.500000 0.334781 0.500000
O O10 0.424356 0.500000 0.846925
O O11 0.472205 0.237384 0.809875
O O12 0.947591 0.755346 0.357720
O O13 0.000000 0.788179 0.500000
O O14 0.014877 0.000000 0.286109
O O15 0.311131 0.500000 0.615792
O O16 0.384604 0.746464 0.424455
O O17 0.114678 0.500000 0.560139
O O18 0.552130 0.000000 0.675350
O O19 0.500000 0.162092 0.000000
#
# Coordination Sequence:
#
# PCOD9147871 Si02
#       7
#     4   4   4   4   4   4   4
#     4   9  18  34  58  88 117 146 187 242 293 341
#     4  10  22  38  62  93 120 149 189 238 291 345
#     4  10  19  36  62  88 113 147 196 248 294 340
#     4  11  24  41  61  86 118 157 199 234 278 342
#     4  10  20  38  61  86 115 151 196 242 289 341
#     4  10  21  38  61  91 122 149 187 238 291 346
#     4  11  25  40  54  80 120 160 198 239 290 348
#
# _framework density 18.727015000000002
#
# number of rings (size 3 to 8) (size 9 to 14) (size 15 to 20)
#    0.000    1.857    1.429    2.143    2.000    6.571 
#    0.000    1.429    0.000    0.000    0.000    0.000 
#    0.000    0.000    0.000    0.000    0.000    0.000 
#
# Total GULP energy -156349.233826 kJ/mol
# GULP energy per Si atom -5583.901208 kJ/mol
# Density = 1.868439 g / cm^3
# Si number density = 18.727015 Si / 1000 Ang^3
#
#
#
# Elastic Constant Matrix: (Units=GPa)
#
#
# Indices 1 2 3 4 5 6 
#
# 1 125.0792 38.2391 9.4698 0.0000 4.6455 0.0000
# 2 38.2391 33.1685 12.0598 0.0000 7.7792 0.0000
# 3 9.4698 12.0598 52.3608 0.0000 5.0492 0.0000
# 4 0.0000 0.0000 0.0000 19.5698 0.0000 7.5302
# 5 4.6455 7.7792 5.0492 0.0000 33.2919 0.0000
# 6 0.0000 0.0000 0.0000 7.5302 0.0000 13.9375
#
#
#
# Elastic Compliance Matrix: (Units=1/GPa)
#
#
# Indices 1 2 3 4 5 6 
#
# 1 0.012493 -0.015180 0.001079 0.000000 0.001640 0.000000
# 2 -0.015180 0.052860 -0.008568 0.000000 -0.008934 0.000000
# 3 0.001079 -0.008568 0.021005 0.000000 -0.001334 0.000000
# 4 0.000000 0.000000 0.000000 0.064511 0.000000 -0.034854
# 5 0.001640 -0.008934 -0.001334 0.000000 0.032098 0.000000
# 6 0.000000 0.000000 0.000000 -0.034854 0.000000 0.090580
#
#
# Mechanical properties :
#
#
# Convention : Reuss Voigt Hill
#
# Bulk Modulus (GPa) = 24.37828 36.68288 30.53058
# Shear Modulus (GPa) = 15.03492 23.41584 19.22538
#
# Velocity S-wave (km/s) = 2.83653 3.53990 3.20755
# Velocity P-wave (km/s) = 4.87584 6.02815 5.48236
#
# Compressibility (1/GPa) = 0.04102013
#
# Stress axis : x y z
#
# Youngs Moduli (GPa) = 80.04404 18.91789 47.60721
#
# Poissons Ratio (x) = 0.28717 -0.05135
# Poissons Ratio (y) = 1.21506 0.40789
# Poissons Ratio (z) = -0.08634 0.16209
#
# Static dielectric constant tensor:
#      x y z
#    x 1.604520 0.000000 -0.000520 
#    y 0.000000 1.634770 0.000000 
#    z -0.000520 0.000000 1.629350 
# 
# From -- ./inp_files/36693.got.cif
#   From: 2010.05.17/outbox.cif.g08.bks.cpg/sg10_19_cif.got.tgz:36693.got - 2010.06.03 11:33:40.
