data_PCOD9147601
_publ_section_title
;
Structure prediction by ZEFSAII (Michael W. Deem and Ramdas Pophale) SiO2 
 PCOD9147601
Probable space group: P 2/M
;
_chemical_formula_sum "Si O2"
_cell_formula_units_Z 22
_cell_length_a 13.925374
_cell_length_b 14.537710
_cell_length_c 5.022723
_cell_angle_alpha 90.000000
_cell_angle_beta 115.704310
_cell_angle_gamma 90.000000
_cell_volume 916.195781
_symmetry_space_group_name_H-M "P 2/M"
_symmetry_group_IT_number 10
_symmetry_cell_setting 'monoclinic'
loop_
_space_group_symop_operation_xyz
x,y,z
-x,y,-z
-x,-y,-z
x,-y,z
loop_
_atom_site_type_symbol
_atom_site_label
_atom_site_fract_x
_atom_site_fract_y
_atom_site_fract_z
Si Si1 0.113154 0.598679 0.482699
Si Si2 0.895736 0.805976 0.559649
Si Si3 0.500000 0.325766 0.000000
Si Si4 0.618885 0.778025 0.523817
Si Si5 0.797891 0.893024 0.944382
Si Si6 0.318615 0.598879 0.117607
O O1 0.116547 0.500000 0.335352
O O2 0.111476 0.699882 0.354629
O O3 0.000000 0.596808 0.500000
O O4 0.216864 0.599377 0.799230
O O5 0.880147 0.864175 0.808849
O O6 0.000000 0.818699 0.500000
O O7 0.809514 0.836479 0.233178
O O8 0.592892 0.255149 0.197787
O O9 0.434264 0.390688 0.117335
O O10 0.500000 0.781926 0.500000
O O11 0.685483 0.866637 0.674168
O O12 0.683336 0.689595 0.708332
O O13 0.808899 0.000000 0.018686
O O14 0.317954 0.500000 0.259502
#
# Coordination Sequence:
#
# PCOD9147601 Si02
#       6
#     4   4   2   4   4   4
#     4   9  18  36  64  97 134 175 213 258 326 406
#     4  11  24  45  71 102 138 175 221 280 336 400
#     4  10  21  36  59  86 124 172 217 274 335 396
#     4  10  23  40  61  90 129 169 219 277 337 400
#     4  12  26  45  70  98 132 177 230 283 342 398
#     4  10  19  35  59  90 127 167 217 269 328 399
#
# _framework density 24.012336000000001
#
# number of rings (size 3 to 8) (size 9 to 14) (size 15 to 20)
#    0.000    1.636    1.818    2.455    2.545    6.545 
#    0.000    2.273    0.000    4.364    0.000    0.000 
#    0.000    0.000    0.000    0.000    0.000    0.000 
#
# Total GULP energy -122732.810825 kJ/mol
# GULP energy per Si atom -5578.764128 kJ/mol
# Density = 2.395768 g / cm^3
# Si number density = 24.012336 Si / 1000 Ang^3
#
#
#
# Elastic Constant Matrix: (Units=GPa)
#
#
# Indices 1 2 3 4 5 6 
#
# 1 141.2980 14.8496 7.2727 0.0000 10.8336 0.0000
# 2 14.8496 127.9025 8.0760 0.0000 2.5421 0.0000
# 3 7.2727 8.0760 65.7309 0.0000 10.0795 0.0000
# 4 0.0000 0.0000 0.0000 -22.4482 0.0000 28.2216
# 5 10.8336 2.5421 10.0795 0.0000 33.9375 0.0000
# 6 0.0000 0.0000 0.0000 28.2216 0.0000 28.9921
#
#
#
# Elastic Compliance Matrix: (Units=1/GPa)
#
#
# Indices 1 2 3 4 5 6 
#
# 1 0.007346 -0.000786 -0.000383 0.000000 -0.002172 0.000000
# 2 -0.000786 0.007967 -0.000879 0.000000 -0.000085 0.000000
# 3 -0.000383 -0.000879 0.016067 0.000000 -0.004584 0.000000
# 4 0.000000 0.000000 0.000000 -0.020032 0.000000 0.019500
# 5 -0.002172 -0.000085 -0.004584 0.000000 0.031527 0.000000
# 6 0.000000 0.000000 0.000000 0.019500 0.000000 0.015511
#
#
# Mechanical properties :
#
#
# Convention : Reuss Voigt Hill
#
# Bulk Modulus (GPa) = 36.65072 43.92532 40.28802
# Shear Modulus (GPa) = 69.85647 28.41184 49.13415
#
# Velocity S-wave (km/s) = 5.39954 3.44353 4.52841
# Velocity P-wave (km/s) = 7.36002 5.84320 6.64503
#
# Compressibility (1/GPa) = 0.02728460
#
# Stress axis : x y z
#
# Youngs Moduli (GPa) = 136.12713 125.52033 62.24007
#
# Poissons Ratio (x) = 0.09860 0.02385
# Poissons Ratio (y) = 0.10693 0.05470
# Poissons Ratio (z) = 0.05216 0.11032
#
# Static dielectric constant tensor:
#      x y z
#    x 2.016070 0.000000 -0.028250 
#    y 0.000000 1.880570 0.000000 
#    z -0.028250 0.000000 2.036430 
# 
# From -- ./inp_files/9345.got.cif
#   From: 2010.05.17/outbox.cif.g08.bks.cpg/sg10_5_cif.got.tgz:9345.got - 2010.06.03 11:33:40.
