data_PCOD9147904
_publ_section_title
;
Structure prediction by ZEFSAII (Michael W. Deem and Ramdas Pophale) SiO2 
 PCOD9147904
Probable space group: P 2/M
;
_chemical_formula_sum "Si O2"
_cell_formula_units_Z 32
_cell_length_a 12.770802
_cell_length_b 8.656013
_cell_length_c 14.837854
_cell_angle_alpha 90.000000
_cell_angle_beta 89.463121
_cell_angle_gamma 90.000000
_cell_volume 1640.167109
_symmetry_space_group_name_H-M "P 2/M"
_symmetry_group_IT_number 10
_symmetry_cell_setting 'monoclinic'
loop_
_space_group_symop_operation_xyz
x,y,z
-x,y,-z
-x,-y,-z
x,-y,z
loop_
_atom_site_type_symbol
_atom_site_label
_atom_site_fract_x
_atom_site_fract_y
_atom_site_fract_z
Si Si1 0.617909 0.813287 0.969026
Si Si2 0.611925 0.676488 0.451513
Si Si3 0.885844 0.186920 0.290445
Si Si4 0.894790 0.314612 0.675910
Si Si5 0.473590 0.180674 0.718907
Si Si6 0.680989 0.683430 0.774155
Si Si7 0.708713 0.812220 0.151109
Si Si8 0.819527 0.184966 0.495176
O O1 0.653965 0.752419 0.872155
O O2 0.615920 0.000000 0.964677
O O3 0.500000 0.765485 0.000000
O O4 0.698996 0.765300 0.047310
O O5 0.500000 0.678104 0.500000
O O6 0.634459 0.500000 0.423681
O O7 0.598334 0.788042 0.366625
O O8 0.705623 0.740000 0.510890
O O9 0.803256 0.239983 0.214791
O O10 0.851109 0.229855 0.392791
O O11 0.000789 0.255773 0.276521
O O12 0.890084 0.000000 0.287730
O O13 0.894404 0.500000 0.670470
O O14 0.789878 0.262133 0.729326
O O15 0.891884 0.246158 0.574773
O O16 0.581280 0.272217 0.713967
O O17 0.401814 0.231728 0.802698
O O18 0.497262 0.000000 0.727563
O O19 0.687092 0.500000 0.781649
O O20 0.711835 0.000000 0.153278
O O21 0.815270 0.000000 0.499450
#
# Coordination Sequence:
#
# PCOD9147904 Si02
#       8
#     4   4   4   4   4   4   4   4
#     4  10  19  36  64  92 118 152 193 239 295 358
#     4  11  23  36  51  80 123 162 195 237 291 352
#     4  10  21  40  63  87 117 152 198 250 294 346
#     4  11  25  42  58  82 120 161 201 247 297 349
#     4  11  20  36  60  85 116 153 195 241 291 350
#     4  11  24  40  57  85 124 159 195 244 298 354
#     4   9  18  36  60  89 119 144 182 242 296 341
#     4  11  22  38  62  89 115 152 202 251 296 347
#
# _framework density 19.510207999999999
#
# number of rings (size 3 to 8) (size 9 to 14) (size 15 to 20)
#    0.000    1.500    2.500    3.000    0.000    8.750 
#    0.000    1.250    0.000    3.750    0.000    0.000 
#    0.000    0.000    0.000    0.000    0.000    0.000 
#
# Total GULP energy -178720.777083 kJ/mol
# GULP energy per Si atom -5585.024284 kJ/mol
# Density = 1.946580 g / cm^3
# Si number density = 19.510208 Si / 1000 Ang^3
#
#
#
# Elastic Constant Matrix: (Units=GPa)
#
#
# Indices 1 2 3 4 5 6 
#
# 1 123.1019 18.0353 38.3819 0.0000 15.9950 0.0000
# 2 18.0353 23.5688 10.9147 0.0000 -0.5165 0.0000
# 3 38.3819 10.9147 84.3811 0.0000 12.9640 0.0000
# 4 0.0000 0.0000 0.0000 7.9407 0.0000 4.3668
# 5 15.9950 -0.5165 12.9640 0.0000 27.2061 0.0000
# 6 0.0000 0.0000 0.0000 4.3668 0.0000 32.8733
#
#
#
# Elastic Compliance Matrix: (Units=1/GPa)
#
#
# Indices 1 2 3 4 5 6 
#
# 1 0.010783 -0.006847 -0.003264 0.000000 -0.004914 0.000000
# 2 -0.006847 0.049873 -0.004424 0.000000 0.007081 0.000000
# 3 -0.003264 -0.004424 0.014702 0.000000 -0.005171 0.000000
# 4 0.000000 0.000000 0.000000 0.135857 0.000000 -0.018047
# 5 -0.004914 0.007081 -0.005171 0.000000 0.042244 0.000000
# 6 0.000000 0.000000 0.000000 -0.018047 0.000000 0.032817
#
#
# Mechanical properties :
#
#
# Convention : Reuss Voigt Hill
#
# Bulk Modulus (GPa) = 21.60448 40.63508 31.11978
# Shear Modulus (GPa) = 15.11596 24.51870 19.81733
#
# Velocity S-wave (km/s) = 2.78649 3.54886 3.19053
# Velocity P-wave (km/s) = 4.63143 6.13721 5.43670
#
# Compressibility (1/GPa) = 0.04628670
#
# Stress axis : x y z
#
# Youngs Moduli (GPa) = 92.74121 20.05101 68.01619
#
# Poissons Ratio (x) = 0.13729 0.22200
# Poissons Ratio (y) = 0.63502 0.30093
# Poissons Ratio (z) = 0.30271 0.08871
#
# Static dielectric constant tensor:
#      x y z
#    x 1.685210 0.000000 -0.002970 
#    y 0.000000 1.660660 0.000000 
#    z -0.002970 0.000000 1.697850 
# 
# From -- ./inp_files/49947.got.cif
#   From: 2010.05.17/outbox.cif.g08.bks.cpg/sg10_25_cif.got.tgz:49947.got - 2010.06.03 11:33:40.
