data_PCOD9147303
_publ_section_title
;
Structure prediction by ZEFSAII (Michael W. Deem and Ramdas Pophale) SiO2 
 PCOD9147303
Probable space group: P 2/M
;
_chemical_formula_sum "Si O2"
_cell_formula_units_Z 26
_cell_length_a 12.041652
_cell_length_b 16.394704
_cell_length_c 7.757997
_cell_angle_alpha 90.000000
_cell_angle_beta 60.076943
_cell_angle_gamma 90.000000
_cell_volume 1327.413072
_symmetry_space_group_name_H-M "P 2/M"
_symmetry_group_IT_number 10
_symmetry_cell_setting 'monoclinic'
loop_
_space_group_symop_operation_xyz
x,y,z
-x,y,-z
-x,-y,-z
x,-y,z
loop_
_atom_site_type_symbol
_atom_site_label
_atom_site_fract_x
_atom_site_fract_y
_atom_site_fract_z
Si Si1 0.145722 0.372107 0.931278
Si Si2 0.751153 0.191661 0.167813
Si Si3 0.856464 0.364297 0.673298
Si Si4 0.888199 0.096066 0.361121
Si Si5 0.337078 0.589185 0.474714
Si Si6 0.500000 0.724560 0.500000
Si Si7 0.160914 0.829456 0.255972
O O1 0.162321 0.273935 0.903710
O O2 0.247101 0.405741 0.715096
O O3 0.169013 0.393629 0.112428
O O4 0.000000 0.394594 0.000000
O O5 0.816772 0.130076 0.249543
O O6 0.613548 0.220976 0.338895
O O7 0.745153 0.160233 0.977429
O O8 0.755736 0.397766 0.615027
O O9 0.846189 0.265499 0.685645
O O10 0.000000 0.385169 0.500000
O O11 0.811424 0.118785 0.594840
O O12 0.023178 0.141909 0.287490
O O13 0.910444 0.000000 0.332417
O O14 0.398046 0.500000 0.418627
O O15 0.438066 0.662434 0.409521
#
# Coordination Sequence:
#
# PCOD9147303 Si02
#       7
#     4   4   4   4   4   2   4
#     4  10  19  35  59  88 118 153 197 241 301 370
#     4  10  21  37  60  82 112 159 208 248 281 341
#     4  11  19  35  61  88 118 155 197 239 297 364
#     4  11  21  34  59  96 128 150 183 240 307 366
#     4  11  24  40  59  85 122 155 195 258 311 354
#     4  10  23  44  65  80 108 168 224 248 285 346
#     4  10  19  34  59  89 123 153 191 238 296 360
#
# _framework density 19.586970999999998
#
# number of rings (size 3 to 8) (size 9 to 14) (size 15 to 20)
#    0.000    1.538    3.077    5.308    0.000    3.077 
#    0.000   12.692    0.000   10.154    0.000    0.000 
#    0.000    0.000    0.000    0.000    0.000    0.000 
#
# Total GULP energy -145274.111055 kJ/mol
# GULP energy per Si atom -5587.465810 kJ/mol
# Density = 1.954239 g / cm^3
# Si number density = 19.586971 Si / 1000 Ang^3
#
#
#
# Elastic Constant Matrix: (Units=GPa)
#
#
# Indices 1 2 3 4 5 6 
#
# 1 55.3634 2.3228 15.4720 0.0000 13.9676 0.0000
# 2 2.3228 72.3966 18.8664 0.0000 5.2328 0.0000
# 3 15.4720 18.8664 78.4702 0.0000 23.5379 0.0000
# 4 0.0000 0.0000 0.0000 -96.4596 0.0000 -56.8025
# 5 13.9676 5.2328 23.5379 0.0000 30.9347 0.0000
# 6 0.0000 0.0000 0.0000 -56.8025 0.0000 -14.4791
#
#
#
# Elastic Compliance Matrix: (Units=1/GPa)
#
#
# Indices 1 2 3 4 5 6 
#
# 1 0.020556 0.000373 -0.001736 0.000000 -0.008024 0.000000
# 2 0.000373 0.014745 -0.003654 0.000000 0.000118 0.000000
# 3 -0.001736 -0.003654 0.017549 0.000000 -0.011951 0.000000
# 4 0.000000 0.000000 0.000000 0.007913 0.000000 -0.031042
# 5 -0.008024 0.000118 -0.011951 0.000000 0.045023 0.000000
# 6 0.000000 0.000000 0.000000 -0.031042 0.000000 0.052714
#
#
# Mechanical properties :
#
#
# Convention : Reuss Voigt Hill
#
# Bulk Modulus (GPa) = 23.35562 31.06139 27.20851
# Shear Modulus (GPa) = 27.35155 -4.69621 11.32767
#
# Velocity S-wave (km/s) = 3.74092 -1.55010 2.40745
# Velocity P-wave (km/s) = 5.53256 3.56214 4.65285
#
# Compressibility (1/GPa) = 0.04281625
#
# Stress axis : x y z
#
# Youngs Moduli (GPa) = 48.64700 67.82190 56.98232
#
# Poissons Ratio (x) = -0.02528 0.09892
# Poissons Ratio (y) = -0.01814 0.20820
# Poissons Ratio (z) = 0.08445 0.24781
#
# Static dielectric constant tensor:
#      x y z
#    x 1.656090 0.000000 0.011010 
#    y 0.000000 1.692690 0.000000 
#    z 0.011010 0.000000 1.715910 
# 
# From -- ./inp_files/24803.got.cif
#   From: 2010.05.17/outbox.cif.g08.bks.cpg/sg10_13_cif.got.tgz:24803.got - 2010.06.03 11:33:40.
