data_PCOD9147754
_publ_section_title
;
Structure prediction by ZEFSAII (Michael W. Deem and Ramdas Pophale) SiO2 
 PCOD9147754
Probable space group: P 2/M
;
_chemical_formula_sum "Si O2"
_cell_formula_units_Z 24
_cell_length_a 14.589196
_cell_length_b 7.821681
_cell_length_c 16.054754
_cell_angle_alpha 90.000000
_cell_angle_beta 142.015117
_cell_angle_gamma 90.000000
_cell_volume 1127.535932
_symmetry_space_group_name_H-M "P 2/M"
_symmetry_group_IT_number 10
_symmetry_cell_setting 'monoclinic'
loop_
_space_group_symop_operation_xyz
x,y,z
-x,y,-z
-x,-y,-z
x,-y,z
loop_
_atom_site_type_symbol
_atom_site_label
_atom_site_fract_x
_atom_site_fract_y
_atom_site_fract_z
Si Si1 0.701964 0.790472 0.073305
Si Si2 0.528852 0.793062 0.617426
Si Si3 0.984518 0.802679 0.761589
Si Si4 0.859260 0.791036 0.844308
Si Si5 0.374556 0.793658 0.795060
Si Si6 0.749091 0.305802 0.469136
O O1 0.690536 0.739490 0.162138
O O2 0.853530 0.726519 0.140403
O O3 0.704080 0.000000 0.074489
O O4 0.548191 0.738882 0.918820
O O5 0.500000 0.748819 0.500000
O O6 0.696667 0.735390 0.758238
O O7 0.402024 0.724255 0.586938
O O8 0.520785 0.000000 0.617431
O O9 0.892329 0.731937 0.773721
O O10 0.880778 0.799475 0.606311
O O11 0.013080 0.000000 0.804836
O O12 0.852158 0.000000 0.840570
O O13 0.000000 0.738933 0.000000
O O14 0.285539 0.732661 0.651351
O O15 0.373792 0.000000 0.793044
O O16 0.796396 0.500000 0.512457
#
# Coordination Sequence:
#
# PCOD9147754 Si02
#       6
#     4   4   4   4   4   4
#     4   8  17  34  62  90 110 135 180 238 286 324
#     4  10  19  36  59  81 106 142 183 227 274 323
#     4  10  19  36  58  83 112 144 183 230 277 327
#     4   9  18  31  54  87 112 133 173 226 280 328
#     4   9  18  37  61  87 111 139 181 231 283 334
#     4  12  25  37  52  80 115 154 190 223 268 326
#
# _framework density 21.285350999999999
#
# number of rings (size 3 to 8) (size 9 to 14) (size 15 to 20)
#    0.000    2.333    1.667    2.500    2.333    1.000 
#    0.000    6.667    0.000    1.000    0.000    0.000 
#    0.000    0.000    0.000    0.000    0.000    0.000 
#
# Total GULP energy -133989.672709 kJ/mol
# GULP energy per Si atom -5582.903030 kJ/mol
# Density = 2.123690 g / cm^3
# Si number density = 21.285351 Si / 1000 Ang^3
#
#
#
# Elastic Constant Matrix: (Units=GPa)
#
#
# Indices 1 2 3 4 5 6 
#
# 1 26.0791 0.6502 -15.6399 0.0000 17.4676 0.0000
# 2 0.6502 24.8689 -10.6651 0.0000 0.1347 0.0000
# 3 -15.6399 -10.6651 55.9281 0.0000 -0.3081 0.0000
# 4 0.0000 0.0000 0.0000 -36.5470 0.0000 6.8426
# 5 17.4676 0.1347 -0.3081 0.0000 36.6505 0.0000
# 6 0.0000 0.0000 0.0000 6.8426 0.0000 -27.0276
#
#
#
# Elastic Compliance Matrix: (Units=1/GPa)
#
#
# Indices 1 2 3 4 5 6 
#
# 1 0.075663 0.007847 0.022457 0.000000 -0.035901 0.000000
# 2 0.007847 0.044606 0.010680 0.000000 -0.003814 0.000000
# 3 0.022457 0.010680 0.026139 0.000000 -0.010523 0.000000
# 4 0.000000 0.000000 0.000000 -0.028724 0.000000 -0.007272
# 5 -0.035901 -0.003814 -0.010523 0.000000 0.044321 0.000000
# 6 0.000000 0.000000 0.000000 -0.007272 0.000000 -0.038840
#
#
# Mechanical properties :
#
#
# Convention : Reuss Voigt Hill
#
# Bulk Modulus (GPa) = 4.37873 6.17405 5.27639
# Shear Modulus (GPa) = 42.61744 3.45058 23.03401
#
# Velocity S-wave (km/s) = 4.47944 1.27461 3.29318
# Velocity P-wave (km/s) = 5.36801 2.25235 4.11635
#
# Compressibility (1/GPa) = 0.22837676
#
# Stress axis : x y z
#
# Youngs Moduli (GPa) = 13.21641 22.41834 38.25746
#
# Poissons Ratio (x) = -0.17592 -0.85916
# Poissons Ratio (y) = -0.10371 -0.40857
# Poissons Ratio (z) = -0.29681 -0.23942
#
# Static dielectric constant tensor:
#      x y z
#    x 1.753810 0.000000 0.005180 
#    y 0.000000 1.799120 0.000000 
#    z 0.005180 0.000000 1.747730 
# 
# From -- ./inp_files/66679.got.cif
#   From: 2010.05.17/outbox.cif.g08.bks.cpg/sg10_34_cif.got.tgz:66679.got - 2010.06.03 11:33:40.
