data_PCOD9147088
_publ_section_title
;
Structure prediction by ZEFSAII (Michael W. Deem and Ramdas Pophale) SiO2 
 PCOD9147088
Probable space group: P 2/M
;
_chemical_formula_sum "Si O2"
_cell_formula_units_Z 32
_cell_length_a 24.423748
_cell_length_b 9.096184
_cell_length_c 18.617622
_cell_angle_alpha 90.000000
_cell_angle_beta 26.319424
_cell_angle_gamma 90.000000
_cell_volume 1833.863645
_symmetry_space_group_name_H-M "P 2/M"
_symmetry_group_IT_number 10
_symmetry_cell_setting 'monoclinic'
loop_
_space_group_symop_operation_xyz
x,y,z
-x,y,-z
-x,-y,-z
x,-y,z
loop_
_atom_site_type_symbol
_atom_site_label
_atom_site_fract_x
_atom_site_fract_y
_atom_site_fract_z
Si Si1 0.219126 0.169731 0.564342
Si Si2 0.315207 0.824295 0.039351
Si Si3 0.489225 0.826862 0.304261
Si Si4 0.399850 0.323261 0.554874
Si Si5 0.357034 0.168409 0.150080
Si Si6 0.174743 0.673098 0.470744
Si Si7 0.972662 0.827378 0.615923
Si Si8 0.856271 0.822758 0.184059
O O1 0.366972 0.179227 0.398751
O O2 0.174984 0.268554 0.551399
O O3 0.167132 0.208095 0.704014
O O4 0.186575 0.000000 0.587454
O O5 0.342808 0.767021 0.086853
O O6 0.170509 0.805607 0.198554
O O7 0.342749 0.000000 0.009985
O O8 0.398206 0.768928 0.876321
O O9 0.459706 0.737159 0.410676
O O10 0.507754 0.000000 0.301515
O O11 0.500000 0.286578 0.500000
O O12 0.386653 0.500000 0.568855
O O13 0.260225 0.252586 0.720802
O O14 0.285760 0.255458 0.294847
O O15 0.307567 0.000000 0.207036
O O16 0.500000 0.162736 0.000000
O O17 0.185133 0.500000 0.457422
O O18 0.054486 0.728282 0.570486
O O19 0.000000 0.795146 0.500000
O O20 0.002142 0.000000 0.592072
O O21 0.845419 0.000000 0.186238
O O22 0.000000 0.781504 0.000000
#
# Coordination Sequence:
#
# PCOD9147088 Si02
#       8
#     4   4   4   4   4   4   4   4
#     4   9  18  35  58  81 109 141 176 222 275 326
#     4   9  17  32  55  81 102 131 178 227 275 320
#     4   9  18  35  60  86 108 135 181 236 278 314
#     4  10  21  37  57  84 121 160 189 217 271 346
#     4  10  19  34  57  79 101 133 176 223 268 319
#     4  12  24  35  50  76 111 144 180 220 266 322
#     4  10  19  36  58  74 100 142 187 228 269 321
#     4   9  19  38  64  91 114 141 187 242 286 325
#
# _framework density 17.449497000000001
#
# number of rings (size 3 to 8) (size 9 to 14) (size 15 to 20)
#    0.000    2.250    1.250    3.000    0.000    5.750 
#    2.250    1.250    0.000    0.000    0.000    0.000 
#    0.000    0.000    0.000    0.000    0.000    0.000 
#
# Total GULP energy -178387.411862 kJ/mol
# GULP energy per Si atom -5574.606621 kJ/mol
# Density = 1.740978 g / cm^3
# Si number density = 17.449497 Si / 1000 Ang^3
#
#
#
# Elastic Constant Matrix: (Units=GPa)
#
#
# Indices 1 2 3 4 5 6 
#
# 1 91.3650 58.2270 35.5421 0.0000 -0.3758 0.0000
# 2 58.2270 64.6262 35.7049 0.0000 1.8206 0.0000
# 3 35.5421 35.7049 119.4564 0.0000 -3.1391 0.0000
# 4 0.0000 0.0000 0.0000 2.2560 0.0000 -12.8105
# 5 -0.3758 1.8206 -3.1391 0.0000 13.2724 0.0000
# 6 0.0000 0.0000 0.0000 -12.8105 0.0000 -18.9095
#
#
#
# Elastic Compliance Matrix: (Units=1/GPa)
#
#
# Indices 1 2 3 4 5 6 
#
# 1 0.025961 -0.023096 -0.000723 0.000000 0.003732 0.000000
# 2 -0.023096 0.039282 -0.005060 0.000000 -0.007239 0.000000
# 3 -0.000723 -0.005060 0.010180 0.000000 0.003081 0.000000
# 4 0.000000 0.000000 0.000000 0.091452 0.000000 -0.061956
# 5 0.003732 -0.007239 0.003081 0.000000 0.077172 0.000000
# 6 0.000000 0.000000 0.000000 -0.061956 0.000000 -0.010911
#
#
# Mechanical properties :
#
#
# Convention : Reuss Voigt Hill
#
# Bulk Modulus (GPa) = 56.60758 59.37730 57.99244
# Shear Modulus (GPa) = 16.84747 9.05534 12.95140
#
# Velocity S-wave (km/s) = 3.11062 2.28051 2.72733
# Velocity P-wave (km/s) = 6.73888 6.40595 6.57452
#
# Compressibility (1/GPa) = 0.01766548
#
# Stress axis : x y z
#
# Youngs Moduli (GPa) = 38.51972 25.45703 98.23592
#
# Poissons Ratio (x) = 0.58795 0.07101
# Poissons Ratio (y) = 0.88965 0.49704
# Poissons Ratio (z) = 0.02784 0.12880
#
# Static dielectric constant tensor:
#      x y z
#    x 1.580460 0.000000 -0.002900 
#    y 0.000000 1.590800 0.000000 
#    z -0.002900 0.000000 1.588870 
# 
# From -- ./inp_files/79926.got.cif
#   From: 2010.05.17/outbox.cif.g08.bks.cpg/sg10_40_cif.got.tgz:79926.got - 2010.06.03 11:33:40.
