data_PCOD9147507
_publ_section_title
;
Structure prediction by ZEFSAII (Michael W. Deem and Ramdas Pophale) SiO2 
 PCOD9147507
Probable space group: P 2/M
;
_chemical_formula_sum "Si O2"
_cell_formula_units_Z 30
_cell_length_a 14.298923
_cell_length_b 9.569041
_cell_length_c 12.359784
_cell_angle_alpha 90.000000
_cell_angle_beta 109.751580
_cell_angle_gamma 90.000000
_cell_volume 1591.655869
_symmetry_space_group_name_H-M "P 2/M"
_symmetry_group_IT_number 10
_symmetry_cell_setting 'monoclinic'
loop_
_space_group_symop_operation_xyz
x,y,z
-x,y,-z
-x,-y,-z
x,-y,z
loop_
_atom_site_type_symbol
_atom_site_label
_atom_site_fract_x
_atom_site_fract_y
_atom_site_fract_z
Si Si1 0.220468 0.831682 0.415756
Si Si2 0.280740 0.657938 0.887780
Si Si3 0.500000 0.744503 0.000000
Si Si4 0.937391 0.168428 0.816797
Si Si5 0.728097 0.161505 0.324498
Si Si6 0.150019 0.168427 0.986765
Si Si7 0.508592 0.155107 0.765287
Si Si8 0.403906 0.335168 0.384525
O O1 0.120961 0.789123 0.312986
O O2 0.217315 0.804640 0.542505
O O3 0.312521 0.749705 0.399536
O O4 0.235005 0.000000 0.408476
O O5 0.244102 0.500000 0.877909
O O6 0.400261 0.659588 0.937736
O O7 0.249632 0.736763 0.765707
O O8 0.240597 0.749270 0.971249
O O9 0.519668 0.831194 0.898531
O O10 0.050840 0.211275 0.881019
O O11 0.941503 0.000000 0.818713
O O12 0.873410 0.205672 0.898182
O O13 0.609651 0.169868 0.302017
O O14 0.748693 0.000000 0.301403
O O15 0.163221 0.000000 0.985005
O O16 0.566904 0.269948 0.719828
O O17 0.540109 0.000000 0.742102
O O18 0.500000 0.317775 0.500000
O O19 0.382140 0.500000 0.368237
#
# Coordination Sequence:
#
# PCOD9147507 Si02
#       8
#     4   4   2   4   4   4   4   4
#     4  10  19  35  58  83 107 140 190 239 278 325
#     4  11  23  38  57  80 112 152 189 225 276 337
#     4  10  24  40  54  82 114 148 190 236 274 324
#     4   8  17  35  61  88 111 140 179 233 289 332
#     4   9  19  35  55  78 106 140 184 233 276 321
#     4   9  18  37  61  85 114 144 181 227 282 339
#     4  10  20  36  56  77 105 144 190 235 274 322
#     4  11  23  35  50  78 117 155 186 221 277 339
#
# _framework density 18.848295
#
# number of rings (size 3 to 8) (size 9 to 14) (size 15 to 20)
#    0.000    2.267    1.333    2.000    1.867    5.333 
#    0.000    2.667    0.000    4.000    0.000    0.000 
#    0.000    0.000    0.000    0.000    0.000    0.000 
#
# Total GULP energy -167390.739689 kJ/mol
# GULP energy per Si atom -5579.691323 kJ/mol
# Density = 1.880540 g / cm^3
# Si number density = 18.848295 Si / 1000 Ang^3
#
#
#
# Elastic Constant Matrix: (Units=GPa)
#
#
# Indices 1 2 3 4 5 6 
#
# 1 38.4169 18.6315 10.5685 0.0000 -5.1796 0.0000
# 2 18.6315 63.7012 21.1758 0.0000 -8.2109 0.0000
# 3 10.5685 21.1758 103.9478 0.0000 10.8734 0.0000
# 4 0.0000 0.0000 0.0000 -10.5353 0.0000 11.4146
# 5 -5.1796 -8.2109 10.8734 0.0000 22.1548 0.0000
# 6 0.0000 0.0000 0.0000 11.4146 0.0000 4.2386
#
#
#
# Elastic Compliance Matrix: (Units=1/GPa)
#
#
# Indices 1 2 3 4 5 6 
#
# 1 0.031085 -0.007660 -0.002175 0.000000 0.005496 0.000000
# 2 -0.007660 0.020333 -0.004179 0.000000 0.007796 0.000000
# 3 -0.002175 -0.004179 0.011498 0.000000 -0.007700 0.000000
# 4 0.000000 0.000000 0.000000 -0.024228 0.000000 0.065246
# 5 0.005496 0.007796 -0.007700 0.000000 0.053090 0.000000
# 6 0.000000 0.000000 0.000000 0.065246 0.000000 0.060219
#
#
# Mechanical properties :
#
#
# Convention : Reuss Voigt Hill
#
# Bulk Modulus (GPa) = 28.66338 34.09085 31.37712
# Shear Modulus (GPa) = 26.08859 13.55094 19.81977
#
# Velocity S-wave (km/s) = 3.72443 2.68423 3.24627
# Velocity P-wave (km/s) = 5.80824 5.26621 5.54385
#
# Compressibility (1/GPa) = 0.03488772
#
# Stress axis : x y z
#
# Youngs Moduli (GPa) = 32.17024 49.18167 86.97105
#
# Poissons Ratio (x) = 0.37675 0.18914
# Poissons Ratio (y) = 0.24644 0.36343
# Poissons Ratio (z) = 0.06996 0.20552
#
# Static dielectric constant tensor:
#      x y z
#    x 1.639290 0.000000 0.023350 
#    y 0.000000 1.632740 0.000000 
#    z 0.023350 0.000000 1.672360 
# 
# From -- ./inp_files/50005.got.cif
#   From: 2010.05.17/outbox.cif.g08.bks.cpg/sg10_26_cif.got.tgz:50005.got - 2010.06.03 11:33:40.
