data_PCOD9147418
_publ_section_title
;
Structure prediction by ZEFSAII (Michael W. Deem and Ramdas Pophale) SiO2 
 PCOD9147418
Probable space group: P 2/M
;
_chemical_formula_sum "Si O2"
_cell_formula_units_Z 32
_cell_length_a 14.508094
_cell_length_b 7.542228
_cell_length_c 14.588393
_cell_angle_alpha 90.000000
_cell_angle_beta 60.958157
_cell_angle_gamma 90.000000
_cell_volume 1395.599394
_symmetry_space_group_name_H-M "P 2/M"
_symmetry_group_IT_number 10
_symmetry_cell_setting 'monoclinic'
loop_
_space_group_symop_operation_xyz
x,y,z
-x,y,-z
-x,-y,-z
x,-y,z
loop_
_atom_site_type_symbol
_atom_site_label
_atom_site_fract_x
_atom_site_fract_y
_atom_site_fract_z
Si Si1 0.323906 0.286757 0.838373
Si Si2 0.953096 0.711040 0.297764
Si Si3 0.428311 0.701195 0.613106
Si Si4 0.093150 0.283395 0.886699
Si Si5 0.275365 0.208728 0.544029
Si Si6 0.512105 0.787897 0.097226
Si Si7 0.906815 0.206713 0.608988
Si Si8 0.327798 0.216845 0.320348
O O1 0.322744 0.500000 0.828232
O O2 0.405282 0.214790 0.721897
O O3 0.206633 0.223951 0.870802
O O4 0.374528 0.247018 0.911706
O O5 0.963373 0.500000 0.288806
O O6 0.932964 0.776739 0.204099
O O7 0.848375 0.758407 0.405590
O O8 0.051870 0.781556 0.306988
O O9 0.500000 0.788452 0.500000
O O10 0.466470 0.500000 0.607510
O O11 0.315855 0.696555 0.615505
O O12 0.095580 0.500000 0.883590
O O13 0.000000 0.230425 0.000000
O O14 0.335925 0.268378 0.423362
O O15 0.291284 0.000000 0.548275
O O16 0.420740 0.719312 0.209589
O O17 0.498991 0.000000 0.099639
O O18 0.500000 0.718886 0.000000
O O19 0.788660 0.277665 0.654792
O O20 0.000000 0.285617 0.500000
O O21 0.898485 0.000000 0.586408
O O22 0.329702 0.000000 0.318222
#
# Coordination Sequence:
#
# PCOD9147418 Si02
#       8
#     4   4   4   4   4   4   4   4
#     4  10  20  37  59  83 111 146 184 224 276 333
#     4  11  21  35  55  82 114 145 184 233 282 328
#     4  10  20  34  53  82 117 148 180 228 285 329
#     4   9  19  37  59  81 111 150 185 223 277 337
#     4  11  20  33  55  80 110 149 189 224 273 338
#     4  10  22  40  60  82 110 146 187 233 279 321
#     4  10  19  35  56  78 110 153 190 225 277 338
#     4   9  19  36  56  79 111 149 187 226 277 336
#
# _framework density 22.929217000000001
#
# number of rings (size 3 to 8) (size 9 to 14) (size 15 to 20)
#    0.000    2.000    2.500    1.500    0.000    2.250 
#    0.000    1.250    0.000    2.625    0.000    0.000 
#    0.000    0.000    0.000    0.000    0.000    0.000 
#
# Total GULP energy -178800.662799 kJ/mol
# GULP energy per Si atom -5587.520712 kJ/mol
# Density = 2.287703 g / cm^3
# Si number density = 22.929217 Si / 1000 Ang^3
#
#
#
# Elastic Constant Matrix: (Units=GPa)
#
#
# Indices 1 2 3 4 5 6 
#
# 1 130.2790 -6.5887 48.0060 0.0000 19.3336 0.0000
# 2 -6.5887 52.3759 -7.5859 0.0000 -3.4919 0.0000
# 3 48.0060 -7.5859 128.2978 0.0000 13.7074 0.0000
# 4 0.0000 0.0000 0.0000 6.6667 0.0000 4.6333
# 5 19.3336 -3.4919 13.7074 0.0000 38.2866 0.0000
# 6 0.0000 0.0000 0.0000 4.6333 0.0000 22.5777
#
#
#
# Elastic Compliance Matrix: (Units=1/GPa)
#
#
# Indices 1 2 3 4 5 6 
#
# 1 0.009373 0.000492 -0.003095 0.000000 -0.003580 0.000000
# 2 0.000492 0.019356 0.000830 0.000000 0.001220 0.000000
# 3 -0.003095 0.000830 0.009178 0.000000 -0.001647 0.000000
# 4 0.000000 0.000000 0.000000 0.174951 0.000000 -0.035903
# 5 -0.003580 0.001220 -0.001647 0.000000 0.028627 0.000000
# 6 0.000000 0.000000 0.000000 -0.035903 0.000000 0.051659
#
#
# Mechanical properties :
#
#
# Convention : Reuss Voigt Hill
#
# Bulk Modulus (GPa) = 29.10385 42.06840 35.58613
# Shear Modulus (GPa) = 16.22616 31.98096 24.10356
#
# Velocity S-wave (km/s) = 2.66308 3.73871 3.24576
# Velocity P-wave (km/s) = 4.70919 6.08475 5.44062
#
# Compressibility (1/GPa) = 0.03435971
#
# Stress axis : x y z
#
# Youngs Moduli (GPa) = 106.69408 51.66309 108.96037
#
# Poissons Ratio (x) = -0.02542 0.33728
# Poissons Ratio (y) = -0.05250 -0.09044
# Poissons Ratio (z) = 0.33027 -0.04288
#
# Static dielectric constant tensor:
#      x y z
#    x 1.883330 0.000000 -0.004390 
#    y 0.000000 1.847680 0.000000 
#    z -0.004390 0.000000 1.857800 
# 
# From -- ./inp_files/66519.got.cif
#   From: 2010.05.17/outbox.cif.g08.bks.cpg/sg10_34_cif.got.tgz:66519.got - 2010.06.03 11:33:40.
