data_PCOD9147782
_publ_section_title
;
Structure prediction by ZEFSAII (Michael W. Deem and Ramdas Pophale) SiO2 
 PCOD9147782
Probable space group: P 2/M
;
_chemical_formula_sum "Si O2"
_cell_formula_units_Z 30
_cell_length_a 13.038670
_cell_length_b 11.411288
_cell_length_c 24.291015
_cell_angle_alpha 90.000000
_cell_angle_beta 22.705007
_cell_angle_gamma 90.000000
_cell_volume 1395.037615
_symmetry_space_group_name_H-M "P 2/M"
_symmetry_group_IT_number 10
_symmetry_cell_setting 'monoclinic'
loop_
_space_group_symop_operation_xyz
x,y,z
-x,y,-z
-x,-y,-z
x,-y,z
loop_
_atom_site_type_symbol
_atom_site_label
_atom_site_fract_x
_atom_site_fract_y
_atom_site_fract_z
Si Si1 0.626348 0.631472 0.819212
Si Si2 0.639022 0.500000 0.226866
Si Si3 0.018005 0.133380 0.883975
Si Si4 0.359174 0.268906 0.850107
Si Si5 0.754017 0.136057 0.580803
Si Si6 0.732486 0.772904 0.925443
Si Si7 0.520317 0.713020 0.611355
Si Si8 0.118166 0.365503 0.657985
O O1 0.584475 0.500000 0.820341
O O2 0.576897 0.711042 0.790812
O O3 0.902102 0.634681 0.714943
O O4 0.404431 0.665278 0.974045
O O5 0.683962 0.393506 0.158463
O O6 0.567740 0.601952 0.308857
O O7 0.283769 0.193517 0.730134
O O8 0.819439 0.139121 0.930006
O O9 0.053381 0.000000 0.884483
O O10 0.892805 0.214902 0.993610
O O11 0.489210 0.175676 0.744485
O O12 0.756933 0.220762 0.526998
O O13 0.000000 0.154576 0.500000
O O14 0.746821 0.000000 0.569045
O O15 0.983803 0.721658 0.768110
O O16 0.500000 0.817434 0.000000
O O17 0.614142 0.675631 0.504519
O O18 0.137419 0.500000 0.668604
#
# Coordination Sequence:
#
# PCOD9147782 Si02
#       8
#     4   2   4   4   4   4   4   4
#     4   9  16  31  58  93 125 155 190 240 300 362
#     4  10  22  39  57  89 121 155 197 248 303 361
#     4  11  25  43  63  86 118 162 208 257 301 361
#     4  10  20  37  61  89 120 157 202 247 312 360
#     4  10  21  37  58  85 120 163 210 253 295 353
#     4   9  20  39  64  92 120 151 199 251 302 364
#     4  11  23  40  57  88 126 162 205 252 302 361
#     4  10  19  36  59  88 127 161 196 239 303 371
#
# _framework density 21.504795999999999
#
# number of rings (size 3 to 8) (size 9 to 14) (size 15 to 20)
#    0.000    2.000    1.333    2.000    0.000    5.600 
#    2.400    8.000    0.000    0.800    0.000    0.000 
#    0.000    0.000    0.000    0.000    0.000    0.000 
#
# Total GULP energy -167032.979445 kJ/mol
# GULP energy per Si atom -5567.765981 kJ/mol
# Density = 2.145585 g / cm^3
# Si number density = 21.504796 Si / 1000 Ang^3
#
#
#
# Elastic Constant Matrix: (Units=GPa)
#
#
# Indices 1 2 3 4 5 6 
#
# 1 75.3524 22.6350 10.7591 0.0000 13.3117 0.0000
# 2 22.6350 124.2135 34.4646 0.0000 5.6963 0.0000
# 3 10.7591 34.4646 97.2215 0.0000 18.0815 0.0000
# 4 0.0000 0.0000 0.0000 10.5974 0.0000 -4.7771
# 5 13.3117 5.6963 18.0815 0.0000 33.1712 0.0000
# 6 0.0000 0.0000 0.0000 -4.7771 0.0000 24.2575
#
#
#
# Elastic Compliance Matrix: (Units=1/GPa)
#
#
# Indices 1 2 3 4 5 6 
#
# 1 0.015012 -0.002559 0.000317 0.000000 -0.005757 0.000000
# 2 -0.002559 0.009367 -0.003260 0.000000 0.001195 0.000000
# 3 0.000317 -0.003260 0.012603 0.000000 -0.006437 0.000000
# 4 0.000000 0.000000 0.000000 0.103556 0.000000 0.020394
# 5 -0.005757 0.001195 -0.006437 0.000000 0.035761 0.000000
# 6 0.000000 0.000000 0.000000 0.020394 0.000000 0.045241
#
#
# Mechanical properties :
#
#
# Convention : Reuss Voigt Hill
#
# Bulk Modulus (GPa) = 38.49481 48.05608 43.27545
# Shear Modulus (GPa) = 20.72950 28.86715 24.79832
#
# Velocity S-wave (km/s) = 3.10812 3.66780 3.39949
# Velocity P-wave (km/s) = 5.55157 6.35076 5.96457
#
# Compressibility (1/GPa) = 0.02597753
#
# Stress axis : x y z
#
# Youngs Moduli (GPa) = 66.61491 106.76211 79.34326
#
# Poissons Ratio (x) = 0.27325 -0.02514
# Poissons Ratio (y) = 0.17049 0.25862
# Poissons Ratio (z) = -0.02110 0.34799
#
# Static dielectric constant tensor:
#      x y z
#    x 1.850180 0.000000 -0.060700 
#    y 0.000000 1.709870 0.000000 
#    z -0.060700 0.000000 1.803130 
# 
# From -- ./inp_files/93242.got.cif
#   From: 2010.05.17/outbox.cif.g08.bks.cpg/sg10_47_cif.got.tgz:93242.got - 2010.06.03 11:33:40.
