data_PCOD9147529
_publ_section_title
;
Structure prediction by ZEFSAII (Michael W. Deem and Ramdas Pophale) SiO2 
 PCOD9147529
Probable space group: P 2/M
;
_chemical_formula_sum "Si O2"
_cell_formula_units_Z 27
_cell_length_a 17.576814
_cell_length_b 16.808755
_cell_length_c 5.228922
_cell_angle_alpha 90.000000
_cell_angle_beta 107.036731
_cell_angle_gamma 90.000000
_cell_volume 1477.062816
_symmetry_space_group_name_H-M "P 2/M"
_symmetry_group_IT_number 10
_symmetry_cell_setting 'monoclinic'
loop_
_space_group_symop_operation_xyz
x,y,z
-x,y,-z
-x,-y,-z
x,-y,z
loop_
_atom_site_type_symbol
_atom_site_label
_atom_site_fract_x
_atom_site_fract_y
_atom_site_fract_z
Si Si1 0.944643 0.411832 0.695259
Si Si2 0.555904 0.326132 0.305058
Si Si3 0.715564 0.907076 0.963375
Si Si4 0.900833 0.857790 0.149493
Si Si5 0.555482 0.500000 0.304651
Si Si6 0.129526 0.241479 0.381311
Si Si7 0.312666 0.809557 0.567167
Si Si8 0.000000 0.000000 0.000000
O O1 0.905699 0.500000 0.666560
O O2 0.889851 0.334452 0.626284
O O3 0.000000 0.410191 0.500000
O O4 0.000000 0.404936 0.000000
O O5 0.500000 0.320233 0.500000
O O6 0.596647 0.414054 0.345267
O O7 0.621293 0.258072 0.369218
O O8 0.500000 0.320306 0.000000
O O9 0.683754 0.863008 0.681979
O O10 0.698261 0.000000 0.940934
O O11 0.811439 0.895002 0.063493
O O12 0.680877 0.865003 0.178850
O O13 0.907847 0.808887 0.420393
O O14 0.901427 0.795917 0.914169
O O15 0.960302 0.929460 0.144629
O O16 0.500000 0.500000 0.500000
O O17 0.500000 0.500000 0.000000
O O18 0.224212 0.227905 0.486777
#
# Coordination Sequence:
#
# PCOD9147529 Si02
#       8
#     4   4   4   4   2   4   4   1
#     4  10  21  37  58  79 106 146 191 231 274 325
#     4  10  19  35  58  86 114 143 180 221 272 333
#     4  10  19  38  55  77 107 148 187 218 273 328
#     4  10  23  35  56  78 112 142 180 233 272 343
#     4   8  16  30  52  80 114 142 166 205 265 330
#     4  10  22  39  54  82 111 146 185 226 285 325
#     4  10  21  35  59  82 108 146 184 224 273 337
#     4  12  24  38  52  90 110 142 188 230 304 322
#
# _framework density 18.279520000000002
#
# number of rings (size 3 to 8) (size 9 to 14) (size 15 to 20)
#    0.000    2.074    0.741    2.222    3.111    1.185 
#    1.333    0.000    0.000    8.889    0.000    0.000 
#    0.000    0.000    0.000    0.000    0.000    0.000 
#
# Total GULP energy -150435.323386 kJ/mol
# GULP energy per Si atom -5571.678644 kJ/mol
# Density = 1.823792 g / cm^3
# Si number density = 18.279520 Si / 1000 Ang^3
#
#
#
# Elastic Constant Matrix: (Units=GPa)
#
#
# Indices 1 2 3 4 5 6 
#
# 1 98.8108 104.9858 50.7891 0.0000 -44.9114 0.0000
# 2 104.9858 259.9966 76.8095 0.0000 -46.0431 0.0000
# 3 50.7891 76.8095 139.3022 0.0000 -46.8158 0.0000
# 4 0.0000 0.0000 0.0000 14.9657 0.0000 -5.6776
# 5 -44.9114 -46.0431 -46.8158 0.0000 50.8601 0.0000
# 6 0.0000 0.0000 0.0000 -5.6776 0.0000 27.9663
#
#
#
# Elastic Compliance Matrix: (Units=1/GPa)
#
#
# Indices 1 2 3 4 5 6 
#
# 1 0.024880 -0.007361 0.000191 0.000000 0.015482 0.000000
# 2 -0.007361 0.007032 -0.001794 0.000000 -0.001785 0.000000
# 3 0.000191 -0.001794 0.011017 0.000000 0.008686 0.000000
# 4 0.000000 0.000000 0.000000 0.072395 0.000000 0.014697
# 5 0.015482 -0.001785 0.008686 0.000000 0.039712 0.000000
# 6 0.000000 0.000000 0.000000 0.014697 0.000000 0.038741
#
#
# Mechanical properties :
#
#
# Convention : Reuss Voigt Hill
#
# Bulk Modulus (GPa) = 39.99755 107.03096 73.51425
# Shear Modulus (GPa) = 22.72306 36.46010 29.59158
#
# Velocity S-wave (km/s) = 3.52957 4.47093 4.02784
# Velocity P-wave (km/s) = 6.20798 9.23752 7.86990
#
# Compressibility (1/GPa) = 0.02500153
#
# Stress axis : x y z
#
# Youngs Moduli (GPa) = 40.19229 142.19813 90.76790
#
# Poissons Ratio (x) = 1.04676 -0.01730
# Poissons Ratio (y) = 0.29587 0.16279
# Poissons Ratio (z) = -0.00766 0.25504
#
# Static dielectric constant tensor:
#      x y z
#    x 1.610970 0.000000 0.000490 
#    y 0.000000 1.625240 0.000000 
#    z 0.000490 0.000000 1.624610 
# 
# From -- ./inp_files/11188.got.cif
#   From: 2010.05.17/outbox.cif.g08.bks.cpg/sg10_6_cif.got.tgz:11188.got - 2010.06.03 11:33:40.
