data_PCOD9147547
_publ_section_title
;
Structure prediction by ZEFSAII (Michael W. Deem and Ramdas Pophale) SiO2 
 PCOD9147547
Probable space group: P 2/M
;
_chemical_formula_sum "Si O2"
_cell_formula_units_Z 32
_cell_length_a 17.728521
_cell_length_b 18.782532
_cell_length_c 5.492067
_cell_angle_alpha 90.000000
_cell_angle_beta 53.476220
_cell_angle_gamma 90.000000
_cell_volume 1469.629150
_symmetry_space_group_name_H-M "P 2/M"
_symmetry_group_IT_number 10
_symmetry_cell_setting 'monoclinic'
loop_
_space_group_symop_operation_xyz
x,y,z
-x,y,-z
-x,-y,-z
x,-y,z
loop_
_atom_site_type_symbol
_atom_site_label
_atom_site_fract_x
_atom_site_fract_y
_atom_site_fract_z
Si Si1 0.473887 0.816397 0.292013
Si Si2 0.200929 0.915992 0.215274
Si Si3 0.547930 0.654374 0.152378
Si Si4 0.108577 0.719467 0.820202
Si Si5 0.243548 0.655120 0.166757
Si Si6 0.903005 0.578048 0.835385
Si Si7 0.098526 0.085067 0.910708
Si Si8 0.268491 0.212246 0.799878
O O1 0.500000 0.850300 0.500000
O O2 0.530509 0.740696 0.186360
O O3 0.363793 0.800039 0.473413
O O4 0.500000 0.858392 0.000000
O O5 0.171794 0.900026 0.548479
O O6 0.230206 0.000000 0.143140
O O7 0.121405 0.906515 0.154955
O O8 0.267360 0.852082 0.995975
O O9 0.500000 0.630147 0.500000
O O10 0.500000 0.626684 0.000000
O O11 0.657568 0.636260 0.907123
O O12 0.169047 0.701281 0.465641
O O13 0.169733 0.777968 0.847256
O O14 0.104031 0.644221 0.970727
O O15 0.000000 0.738818 0.000000
O O16 0.184433 0.589720 0.177026
O O17 0.277391 0.709543 0.894760
O O18 0.900310 0.500000 0.957160
O O19 0.000000 0.583970 0.500000
O O20 0.092592 0.000000 0.904899
O O21 0.000000 0.113516 0.000000
#
# Coordination Sequence:
#
# PCOD9147547 Si02
#       8
#     4   4   4   4   4   4   4   4
#     4  10  19  35  58  89 115 155 203 258 314 382
#     4  10  22  38  57  82 117 163 210 256 317 385
#     4  10  19  35  60  90 118 157 202 262 313 372
#     4  11  23  39  59  91 129 165 207 257 314 368
#     4  11  22  39  62  92 123 161 210 264 317 370
#     4  10  22  41  63  91 129 174 215 250 297 372
#     4   9  18  36  56  76 105 151 210 258 297 362
#     4  11  24  37  60  89 124 160 206 267 324 378
#
# _framework density 21.7742
#
# number of rings (size 3 to 8) (size 9 to 14) (size 15 to 20)
#    0.000    1.750    3.750    1.875    3.500    2.750 
#    2.250    0.000    0.000    1.500    0.000    0.000 
#    0.000    0.500    0.000    0.000    0.000    0.000 
#
# Total GULP energy -178267.231080 kJ/mol
# GULP energy per Si atom -5570.850971 kJ/mol
# Density = 2.172464 g / cm^3
# Si number density = 21.774200 Si / 1000 Ang^3
#
#
#
# Elastic Constant Matrix: (Units=GPa)
#
#
# Indices 1 2 3 4 5 6 
#
# 1 127.8697 2.2492 25.1977 0.0000 -15.9393 0.0000
# 2 2.2492 84.9363 -6.6662 0.0000 1.2301 0.0000
# 3 25.1977 -6.6662 55.8733 0.0000 -1.5557 0.0000
# 4 0.0000 0.0000 0.0000 32.2439 0.0000 -13.3103
# 5 -15.9393 1.2301 -1.5557 0.0000 45.0798 0.0000
# 6 0.0000 0.0000 0.0000 -13.3103 0.0000 24.4113
#
#
#
# Elastic Compliance Matrix: (Units=1/GPa)
#
#
# Indices 1 2 3 4 5 6 
#
# 1 0.009011 -0.000601 -0.004050 0.000000 0.003063 0.000000
# 2 -0.000601 0.011928 0.001681 0.000000 -0.000480 0.000000
# 3 -0.004050 0.001681 0.019903 0.000000 -0.000791 0.000000
# 4 0.000000 0.000000 0.000000 0.040022 0.000000 0.021822
# 5 0.003063 -0.000480 -0.000791 0.000000 0.023252 0.000000
# 6 0.000000 0.000000 0.000000 0.021822 0.000000 0.052863
#
#
# Mechanical properties :
#
#
# Convention : Reuss Voigt Hill
#
# Bulk Modulus (GPa) = 28.65209 34.47116 31.56163
# Shear Modulus (GPa) = 28.64466 36.87357 32.75911
#
# Velocity S-wave (km/s) = 3.63096 4.11962 3.88299
# Velocity P-wave (km/s) = 5.54669 6.20435 5.88472
#
# Compressibility (1/GPa) = 0.03490147
#
# Stress axis : x y z
#
# Youngs Moduli (GPa) = 110.97655 83.83418 50.24450
#
# Poissons Ratio (x) = 0.05037 0.20350
# Poissons Ratio (y) = 0.06668 -0.08445
# Poissons Ratio (z) = 0.44947 -0.14091
#
# Static dielectric constant tensor:
#      x y z
#    x 1.816890 0.000000 0.135090 
#    y 0.000000 1.791800 0.000000 
#    z 0.135090 0.000000 1.437750 
# 
# From -- ./inp_files/11751.got.cif
#   From: 2010.05.17/outbox.cif.g08.bks.cpg/sg10_6_cif.got.tgz:11751.got - 2010.06.03 11:33:40.
