data_PCOD9147448
_publ_section_title
;
Structure prediction by ZEFSAII (Michael W. Deem and Ramdas Pophale) SiO2 
 PCOD9147448
Probable space group: P 2/M
;
_chemical_formula_sum "Si O2"
_cell_formula_units_Z 28
_cell_length_a 9.803855
_cell_length_b 9.274492
_cell_length_c 28.566271
_cell_angle_alpha 90.000000
_cell_angle_beta 141.749459
_cell_angle_gamma 90.000000
_cell_volume 1608.060275
_symmetry_space_group_name_H-M "P 2/M"
_symmetry_group_IT_number 10
_symmetry_cell_setting 'monoclinic'
loop_
_space_group_symop_operation_xyz
x,y,z
-x,y,-z
-x,-y,-z
x,-y,z
loop_
_atom_site_type_symbol
_atom_site_label
_atom_site_fract_x
_atom_site_fract_y
_atom_site_fract_z
Si Si1 0.160641 0.826896 0.639377
Si Si2 0.749400 0.833815 0.049650
Si Si3 0.507300 0.826504 0.354815
Si Si4 0.151045 0.329173 0.197695
Si Si5 0.490979 0.671056 0.204687
Si Si6 0.652721 0.824385 0.497983
Si Si7 0.754067 0.333118 0.954513
O O1 0.287922 0.793666 0.624960
O O2 0.302804 0.755911 0.718887
O O3 0.907324 0.778600 0.571003
O O4 0.164633 0.000000 0.645557
O O5 0.915278 0.742943 0.126521
O O6 0.823144 0.000000 0.068841
O O7 0.500000 0.827406 0.000000
O O8 0.750002 0.766691 0.998266
O O9 0.295783 0.746686 0.276664
O O10 0.560431 0.782869 0.422184
O O11 0.474860 0.000000 0.344649
O O12 0.133582 0.500000 0.200753
O O13 0.289431 0.306334 0.186793
O O14 0.536495 0.500000 0.216894
O O15 0.410907 0.712321 0.131429
O O16 0.500000 0.776251 0.500000
O O17 0.653797 0.000000 0.498899
O O18 0.705737 0.500000 0.954467
O O19 0.000000 0.331459 0.000000
#
# Coordination Sequence:
#
# PCOD9147448 Si02
#       7
#     4   4   4   4   4   4   4
#     4   9  17  30  51  77 102 133 174 214 254 309
#     4  11  24  39  54  79 112 144 182 227 270 315
#     4   9  17  31  53  78 102 131 173 219 259 308
#     4  10  19  35  57  79 106 140 179 219 266 322
#     4   9  18  33  54  80 107 135 172 221 267 311
#     4   9  17  31  51  75 104 137 169 209 263 315
#     4  10  19  36  59  81 107 143 183 222 268 321
#
# _framework density 17.412282999999999
#
# number of rings (size 3 to 8) (size 9 to 14) (size 15 to 20)
#    0.000    2.429    1.429    1.286    0.000    4.286 
#    2.571    0.714    0.000    4.286    0.000    0.000 
#    0.000    0.000    0.000    0.000    0.000    0.000 
#
# Total GULP energy -156182.374727 kJ/mol
# GULP energy per Si atom -5577.941955 kJ/mol
# Density = 1.737265 g / cm^3
# Si number density = 17.412283 Si / 1000 Ang^3
#
#
#
# Elastic Constant Matrix: (Units=GPa)
#
#
# Indices 1 2 3 4 5 6 
#
# 1 64.6702 33.2330 65.7803 0.0000 -1.1230 0.0000
# 2 33.2330 45.8910 53.9199 0.0000 4.8171 0.0000
# 3 65.7803 53.9199 162.1865 0.0000 -1.0355 0.0000
# 4 0.0000 0.0000 0.0000 41.0945 0.0000 -6.2871
# 5 -1.1230 4.8171 -1.0355 0.0000 16.9234 0.0000
# 6 0.0000 0.0000 0.0000 -6.2871 0.0000 14.6529
#
#
#
# Elastic Compliance Matrix: (Units=1/GPa)
#
#
# Indices 1 2 3 4 5 6 
#
# 1 0.030412 -0.013343 -0.007865 0.000000 0.005335 0.000000
# 2 -0.013343 0.043747 -0.009221 0.000000 -0.013902 0.000000
# 3 -0.007865 -0.009221 0.012439 0.000000 0.002864 0.000000
# 4 0.000000 0.000000 0.000000 0.026044 0.000000 0.011175
# 5 0.005335 -0.013902 0.002864 0.000000 0.063576 0.000000
# 6 0.000000 0.000000 0.000000 0.011175 0.000000 0.073041
#
#
# Mechanical properties :
#
#
# Convention : Reuss Voigt Hill
#
# Bulk Modulus (GPa) = 38.84826 64.29042 51.56934
# Shear Modulus (GPa) = 15.68890 22.52178 19.10534
#
# Velocity S-wave (km/s) = 3.00496 3.60035 3.31605
# Velocity P-wave (km/s) = 5.86507 7.36790 6.65902
#
# Compressibility (1/GPa) = 0.02574118
#
# Stress axis : x y z
#
# Youngs Moduli (GPa) = 32.88162 22.85874 80.38981
#
# Poissons Ratio (x) = 0.30500 0.63224
# Poissons Ratio (y) = 0.43874 0.74127
# Poissons Ratio (z) = 0.25860 0.21078
#
# Static dielectric constant tensor:
#      x y z
#    x 1.582390 0.000000 0.003370 
#    y 0.000000 1.580260 0.000000 
#    z 0.003370 0.000000 1.575240 
# 
# From -- ./inp_files/92106.got.cif
#   From: 2010.05.17/outbox.cif.g08.bks.cpg/sg10_47_cif.got.tgz:92106.got - 2010.06.03 11:33:40.
