data_PCOD9147459
_publ_section_title
;
Structure prediction by ZEFSAII (Michael W. Deem and Ramdas Pophale) SiO2 
 PCOD9147459
Probable space group: P 2/M
;
_chemical_formula_sum "Si O2"
_cell_formula_units_Z 24
_cell_length_a 13.964130
_cell_length_b 14.328366
_cell_length_c 7.643156
_cell_angle_alpha 90.000000
_cell_angle_beta 43.201901
_cell_angle_gamma 90.000000
_cell_volume 1046.892181
_symmetry_space_group_name_H-M "P 2/M"
_symmetry_group_IT_number 10
_symmetry_cell_setting 'monoclinic'
loop_
_space_group_symop_operation_xyz
x,y,z
-x,y,-z
-x,-y,-z
x,-y,z
loop_
_atom_site_type_symbol
_atom_site_label
_atom_site_fract_x
_atom_site_fract_y
_atom_site_fract_z
Si Si1 0.070924 0.607198 0.212418
Si Si2 0.161375 0.899521 0.725115
Si Si3 0.310658 0.721853 0.057938
Si Si4 0.190131 0.303126 0.610226
Si Si5 0.448913 0.398739 0.369680
Si Si6 0.844247 0.104683 0.686550
O O1 0.085810 0.500000 0.135022
O O2 0.216199 0.658481 0.056762
O O3 0.000000 0.604761 0.500000
O O4 0.967501 0.665443 0.225086
O O5 0.208975 0.793132 0.693751
O O6 0.173707 0.902707 0.497691
O O7 0.222299 0.000000 0.707537
O O8 0.000000 0.900566 0.000000
O O9 0.257126 0.707982 0.327116
O O10 0.271753 0.829471 0.074705
O O11 0.467209 0.685967 0.830537
O O12 0.284199 0.381809 0.573509
O O13 0.500000 0.399363 0.500000
O O14 0.485783 0.500000 0.242040
O O15 0.000000 0.147164 0.500000
O O16 0.846532 0.000000 0.758325
#
# Coordination Sequence:
#
# PCOD9147459 Si02
#       6
#     4   4   4   4   4   4
#     4   9  17  30  52  82 109 133 174 230 275 316
#     4   9  18  33  54  82 114 144 175 218 273 326
#     4  10  19  35  57  81 109 144 184 226 273 324
#     4  10  20  35  58  84 108 143 188 226 268 326
#     4  11  25  41  55  76 110 149 186 228 279 330
#     4   9  17  31  54  84 113 141 178 222 268 322
#
# _framework density 22.924997000000001
#
# number of rings (size 3 to 8) (size 9 to 14) (size 15 to 20)
#    0.000    2.333    0.000    4.000    0.000    5.333 
#    0.000    0.833    0.000    9.000    0.000    0.000 
#    0.000    0.000    0.000    0.000    0.000    0.000 
#
# Total GULP energy -133970.526044 kJ/mol
# GULP energy per Si atom -5582.105252 kJ/mol
# Density = 2.287282 g / cm^3
# Si number density = 22.924997 Si / 1000 Ang^3
#
#
#
# Elastic Constant Matrix: (Units=GPa)
#
#
# Indices 1 2 3 4 5 6 
#
# 1 78.5604 25.9351 12.5289 0.0000 -13.4163 0.0000
# 2 25.9351 153.3808 33.3610 0.0000 -7.0845 0.0000
# 3 12.5289 33.3610 50.5803 0.0000 5.1885 0.0000
# 4 0.0000 0.0000 0.0000 25.6292 0.0000 -8.5675
# 5 -13.4163 -7.0845 5.1885 0.0000 33.5234 0.0000
# 6 0.0000 0.0000 0.0000 -8.5675 0.0000 15.8556
#
#
#
# Elastic Compliance Matrix: (Units=1/GPa)
#
#
# Indices 1 2 3 4 5 6 
#
# 1 0.014796 -0.001501 -0.003302 0.000000 0.006115 0.000000
# 2 -0.001501 0.007963 -0.005072 0.000000 0.001867 0.000000
# 3 -0.003302 -0.005072 0.024569 0.000000 -0.006196 0.000000
# 4 0.000000 0.000000 0.000000 0.047620 0.000000 0.025731
# 5 0.006115 0.001867 -0.006196 0.000000 0.033631 0.000000
# 6 0.000000 0.000000 0.000000 0.025731 0.000000 0.076973
#
#
# Mechanical properties :
#
#
# Convention : Reuss Voigt Hill
#
# Bulk Modulus (GPa) = 36.26112 47.35239 41.80676
# Shear Modulus (GPa) = 21.32258 29.04808 25.18533
#
# Velocity S-wave (km/s) = 3.05307 3.56349 3.31810
# Velocity P-wave (km/s) = 5.31788 6.13445 5.74070
#
# Compressibility (1/GPa) = 0.02757775
#
# Stress axis : x y z
#
# Youngs Moduli (GPa) = 67.58783 125.58239 40.70137
#
# Poissons Ratio (x) = 0.18851 0.13440
# Poissons Ratio (y) = 0.10146 0.20643
# Poissons Ratio (z) = 0.22318 0.63692
#
# Static dielectric constant tensor:
#      x y z
#    x 1.853520 0.000000 0.038380 
#    y 0.000000 1.939400 0.000000 
#    z 0.038380 0.000000 1.838480 
# 
# From -- ./inp_files/29304.got.cif
#   From: 2010.05.17/outbox.cif.g08.bks.cpg/sg10_15_cif.got.tgz:29304.got - 2010.06.03 11:33:40.
