data_PCOD9147514
_publ_section_title
;
Structure prediction by ZEFSAII (Michael W. Deem and Ramdas Pophale) SiO2 
 PCOD9147514
Probable space group: P 2/M
;
_chemical_formula_sum "Si O2"
_cell_formula_units_Z 30
_cell_length_a 24.333886
_cell_length_b 12.962135
_cell_length_c 7.730417
_cell_angle_alpha 90.000000
_cell_angle_beta 146.840484
_cell_angle_gamma 90.000000
_cell_volume 1333.693100
_symmetry_space_group_name_H-M "P 2/M"
_symmetry_group_IT_number 10
_symmetry_cell_setting 'monoclinic'
loop_
_space_group_symop_operation_xyz
x,y,z
-x,y,-z
-x,-y,-z
x,-y,z
loop_
_atom_site_type_symbol
_atom_site_label
_atom_site_fract_x
_atom_site_fract_y
_atom_site_fract_z
Si Si1 0.757779 0.614485 0.359576
Si Si2 0.446169 0.330694 0.042350
Si Si3 0.085216 0.877151 0.859103
Si Si4 0.619596 0.112026 0.137306
Si Si5 0.639737 0.609606 0.687920
Si Si6 0.300148 0.831160 0.289657
Si Si7 0.155897 0.837225 0.408028
Si Si8 0.217826 0.000000 0.823878
O O1 0.802911 0.500000 0.501458
O O2 0.829901 0.713983 0.537513
O O3 0.669350 0.633638 0.266817
O O4 0.692884 0.613972 0.012808
O O5 0.519251 0.388610 0.364441
O O6 0.500000 0.342845 0.000000
O O7 0.440591 0.210876 0.082911
O O8 0.000000 0.844181 0.500000
O O9 0.101349 0.000000 0.870426
O O10 0.188582 0.824725 0.075231
O O11 0.079677 0.858470 0.049658
O O12 0.631623 0.124198 0.375744
O O13 0.733265 0.120309 0.362181
O O14 0.579877 0.000000 0.985536
O O15 0.671831 0.500000 0.690951
O O16 0.668398 0.716738 0.674924
O O17 0.288544 0.909259 0.100328
O O18 0.144446 0.908197 0.546287
#
# Coordination Sequence:
#
# PCOD9147514 Si02
#       8
#     4   4   4   4   4   4   4   2
#     4  10  22  38  57  77 110 152 187 228 279 324
#     4  11  22  36  51  80 106 144 193 242 272 313
#     4  10  20  38  59  85 120 147 169 216 280 334
#     4  10  19  36  52  73 112 149 185 224 282 329
#     4  11  23  39  55  77 112 147 187 233 282 324
#     4  11  20  36  58  84 109 147 184 226 274 328
#     4  10  19  35  58  83 110 143 183 223 268 326
#     4  12  18  32  61  86 113 140 179 231 264 333
#
# _framework density 22.493932000000001
#
# number of rings (size 3 to 8) (size 9 to 14) (size 15 to 20)
#    0.000    1.467    5.333    1.600    0.000    2.400 
#    1.200    1.333    0.000    4.800    0.000    1.867 
#    0.000    0.000    0.000    0.000    0.000    0.000 
#
# Total GULP energy -167064.695674 kJ/mol
# GULP energy per Si atom -5568.823189 kJ/mol
# Density = 2.244273 g / cm^3
# Si number density = 22.493932 Si / 1000 Ang^3
#
#
#
# Elastic Constant Matrix: (Units=GPa)
#
#
# Indices 1 2 3 4 5 6 
#
# 1 23.0673 15.9816 2.1121 0.0000 -8.1392 0.0000
# 2 15.9816 198.2553 32.6957 0.0000 -2.1447 0.0000
# 3 2.1121 32.6957 79.9050 0.0000 -5.8057 0.0000
# 4 0.0000 0.0000 0.0000 27.2534 0.0000 3.3950
# 5 -8.1392 -2.1447 -5.8057 0.0000 20.3019 0.0000
# 6 0.0000 0.0000 0.0000 3.3950 0.0000 39.1379
#
#
#
# Elastic Compliance Matrix: (Units=1/GPa)
#
#
# Indices 1 2 3 4 5 6 
#
# 1 0.053902 -0.004435 0.001967 0.000000 0.021703 0.000000
# 2 -0.004435 0.005774 -0.002380 0.000000 -0.001848 0.000000
# 3 0.001967 -0.002380 0.013762 0.000000 0.004472 0.000000
# 4 0.000000 0.000000 0.000000 0.037093 0.000000 -0.003218
# 5 0.021703 -0.001848 0.004472 0.000000 0.059041 0.000000
# 6 0.000000 0.000000 0.000000 -0.003218 0.000000 0.025830
#
#
# Mechanical properties :
#
#
# Convention : Reuss Voigt Hill
#
# Bulk Modulus (GPa) = 15.68821 44.75627 30.22224
# Shear Modulus (GPa) = 22.09025 34.03453 28.06239
#
# Velocity S-wave (km/s) = 3.13717 3.89402 3.53590
# Velocity P-wave (km/s) = 4.48464 6.33704 5.48954
#
# Compressibility (1/GPa) = 0.06374216
#
# Stress axis : x y z
#
# Youngs Moduli (GPa) = 18.55226 173.19199 72.66617
#
# Poissons Ratio (x) = 0.76805 -0.14292
# Poissons Ratio (y) = 0.08227 0.17292
# Poissons Ratio (z) = -0.03649 0.41214
#
# Static dielectric constant tensor:
#      x y z
#    x 2.032790 0.000000 -0.012710 
#    y 0.000000 1.822050 0.000000 
#    z -0.012710 0.000000 1.847050 
# 
# From -- ./inp_files/38199.got.cif
#   From: 2010.05.17/outbox.cif.g08.bks.cpg/sg10_20_cif.got.tgz:38199.got - 2010.06.03 11:33:40.
