data_PCOD9147848
_publ_section_title
;
Structure prediction by ZEFSAII (Michael W. Deem and Ramdas Pophale) SiO2 
 PCOD9147848
Probable space group: P 2/M
;
_chemical_formula_sum "Si O2"
_cell_formula_units_Z 32
_cell_length_a 27.239257
_cell_length_b 8.904352
_cell_length_c 21.301232
_cell_angle_alpha 90.000000
_cell_angle_beta 19.760421
_cell_angle_gamma 90.000000
_cell_volume 1746.754698
_symmetry_space_group_name_H-M "P 2/M"
_symmetry_group_IT_number 10
_symmetry_cell_setting 'monoclinic'
loop_
_space_group_symop_operation_xyz
x,y,z
-x,y,-z
-x,-y,-z
x,-y,z
loop_
_atom_site_type_symbol
_atom_site_label
_atom_site_fract_x
_atom_site_fract_y
_atom_site_fract_z
Si Si1 0.452874 0.181680 0.455752
Si Si2 0.339610 0.820423 0.217874
Si Si3 0.730646 0.817820 0.206363
Si Si4 0.995477 0.178177 0.808504
Si Si5 0.475688 0.320524 0.760398
Si Si6 0.294391 0.679119 0.409275
Si Si7 0.939003 0.679470 0.504734
Si Si8 0.157970 0.177219 0.141670
O O1 0.325078 0.226328 0.657735
O O2 0.603719 0.223012 0.309597
O O3 0.449133 0.257776 0.392952
O O4 0.451870 0.000000 0.450215
O O5 0.314082 0.756844 0.318293
O O6 0.217322 0.750943 0.320276
O O7 0.323603 0.000000 0.238559
O O8 0.500000 0.782974 0.000000
O O9 0.733534 0.000000 0.202324
O O10 0.887326 0.767509 0.993590
O O11 0.905099 0.194535 0.852600
O O12 0.145306 0.264693 0.620065
O O13 0.025023 0.000000 0.781270
O O14 0.461647 0.500000 0.773236
O O15 0.572917 0.284059 0.703971
O O16 0.317374 0.246777 0.954693
O O17 0.288772 0.500000 0.407227
O O18 0.929174 0.500000 0.510896
O O19 0.048856 0.742815 0.320615
O O20 0.000000 0.716701 0.500000
O O21 0.163782 0.000000 0.148249
#
# Coordination Sequence:
#
# PCOD9147848 Si02
#       8
#     4   4   4   4   4   4   4   4
#     4   9  16  32  57  84 115 152 193 243 297 347
#     4  11  25  44  65  91 119 154 200 247 293 345
#     4   8  15  30  56  86 115 147 190 243 297 351
#     4  10  19  36  61  89 115 148 196 247 296 350
#     4  11  24  39  56  85 123 159 199 244 295 355
#     4  11  25  42  60  83 118 163 200 238 294 356
#     4  11  25  43  64  92 125 159 193 235 292 354
#     4  11  22  38  64  91 117 152 199 250 294 340
#
# _framework density 18.319686999999998
#
# number of rings (size 3 to 8) (size 9 to 14) (size 15 to 20)
#    0.000    1.750    2.500    2.625    1.750    4.500 
#    0.000    2.500    0.000    3.750    0.000    0.000 
#    0.000    0.000    0.000    0.000    0.000    0.000 
#
# Total GULP energy -178747.610830 kJ/mol
# GULP energy per Si atom -5585.862838 kJ/mol
# Density = 1.827799 g / cm^3
# Si number density = 18.319687 Si / 1000 Ang^3
#
#
#
# Elastic Constant Matrix: (Units=GPa)
#
#
# Indices 1 2 3 4 5 6 
#
# 1 79.4778 40.7963 44.1847 0.0000 -9.6994 0.0000
# 2 40.7963 41.8113 40.9235 0.0000 -8.9204 0.0000
# 3 44.1847 40.9235 122.7753 0.0000 1.3774 0.0000
# 4 0.0000 0.0000 0.0000 15.5971 0.0000 -13.7424
# 5 -9.6994 -8.9204 1.3774 0.0000 26.9961 0.0000
# 6 0.0000 0.0000 0.0000 -13.7424 0.0000 18.2446
#
#
#
# Elastic Compliance Matrix: (Units=1/GPa)
#
#
# Indices 1 2 3 4 5 6 
#
# 1 0.025409 -0.022975 -0.001504 0.000000 0.001614 0.000000
# 2 -0.022975 0.060920 -0.012178 0.000000 0.012497 0.000000
# 3 -0.001504 -0.012178 0.012804 0.000000 -0.005218 0.000000
# 4 0.000000 0.000000 0.000000 0.190626 0.000000 0.143586
# 5 0.001614 0.012497 -0.005218 0.000000 0.042018 0.000000
# 6 0.000000 0.000000 0.000000 0.143586 0.000000 0.162964
#
#
# Mechanical properties :
#
#
# Convention : Reuss Voigt Hill
#
# Bulk Modulus (GPa) = 38.73237 55.09702 46.91470
# Shear Modulus (GPa) = 8.67063 20.04487 14.35775
#
# Velocity S-wave (km/s) = 2.17790 3.31141 2.80256
# Velocity P-wave (km/s) = 5.24525 6.69038 6.01140
#
# Compressibility (1/GPa) = 0.02581820
#
# Stress axis : x y z
#
# Youngs Moduli (GPa) = 39.35680 16.41509 78.10177
#
# Poissons Ratio (x) = 0.37714 0.11747
# Poissons Ratio (y) = 0.90423 0.95109
# Poissons Ratio (z) = 0.05920 0.19990
#
# Static dielectric constant tensor:
#      x y z
#    x 1.611650 0.000000 0.007630 
#    y 0.000000 1.611520 0.000000 
#    z 0.007630 0.000000 1.624700 
# 
# From -- ./inp_files/86829.got.cif
#   From: 2010.05.17/outbox.cif.g08.bks.cpg/sg10_44_cif.got.tgz:86829.got - 2010.06.03 11:33:40.
