data_PCOD9147733
_publ_section_title
;
Structure prediction by ZEFSAII (Michael W. Deem and Ramdas Pophale) SiO2 
 PCOD9147733
Probable space group: P 2/M
;
_chemical_formula_sum "Si O2"
_cell_formula_units_Z 24
_cell_length_a 11.377427
_cell_length_b 16.268914
_cell_length_c 14.688374
_cell_angle_alpha 90.000000
_cell_angle_beta 30.827924
_cell_angle_gamma 90.000000
_cell_volume 1393.277195
_symmetry_space_group_name_H-M "P 2/M"
_symmetry_group_IT_number 10
_symmetry_cell_setting 'monoclinic'
loop_
_space_group_symop_operation_xyz
x,y,z
-x,y,-z
-x,-y,-z
x,-y,z
loop_
_atom_site_type_symbol
_atom_site_label
_atom_site_fract_x
_atom_site_fract_y
_atom_site_fract_z
Si Si1 0.716780 0.500000 0.424157
Si Si2 0.625030 0.328396 0.137447
Si Si3 0.387658 0.316905 0.475188
Si Si4 0.916624 0.772872 0.803696
Si Si5 0.133594 0.500000 0.007033
Si Si6 0.751733 0.760944 0.710097
Si Si7 0.583020 0.091720 0.049220
O O1 0.500000 0.500000 0.500000
O O2 0.699994 0.411229 0.484762
O O3 0.945353 0.500000 0.211779
O O4 0.569645 0.296663 0.275558
O O5 0.710130 0.420446 0.089823
O O6 0.391444 0.314110 0.236399
O O7 0.818690 0.280689 0.951907
O O8 0.500000 0.316416 0.500000
O O9 0.177787 0.252946 0.614241
O O10 0.785497 0.753030 0.796042
O O11 0.833425 0.865506 0.881235
O O12 0.000000 0.500000 0.000000
O O13 0.595801 0.841468 0.791885
O O14 0.000000 0.768260 0.500000
O O15 0.579309 0.000000 0.091373
O O16 0.500000 0.084905 0.000000
#
# Coordination Sequence:
#
# PCOD9147733 Si02
#       7
#     2   4   4   4   2   4   4
#     4  10  20  36  51  75 106 135 182 238 267 305
#     4  11  22  36  56  78 108 148 183 229 274 321
#     4  11  21  35  55  81 109 141 189 231 272 321
#     4  10  20  36  57  79 113 147 174 225 277 331
#     4  12  22  36  55  77 111 146 189 236 274 305
#     4  10  19  36  57  81 114 145 180 222 276 329
#     4   8  16  31  54  83 111 139 178 221 270 325
#
# _framework density 17.225574999999999
#
# number of rings (size 3 to 8) (size 9 to 14) (size 15 to 20)
#    0.000    1.833    3.333    4.000    0.000    0.333 
#    0.000    2.917    0.000    0.500    0.000    4.667 
#    0.000    0.000    0.000    0.000    0.000    0.000 
#
# Total GULP energy -133704.874904 kJ/mol
# GULP energy per Si atom -5571.036454 kJ/mol
# Density = 1.718637 g / cm^3
# Si number density = 17.225575 Si / 1000 Ang^3
#
#
#
# Elastic Constant Matrix: (Units=GPa)
#
#
# Indices 1 2 3 4 5 6 
#
# 1 62.4735 38.1855 18.6034 0.0000 7.1416 0.0000
# 2 38.1855 114.1068 39.1153 0.0000 -16.4613 0.0000
# 3 18.6034 39.1153 108.8611 0.0000 8.1855 0.0000
# 4 0.0000 0.0000 0.0000 14.5334 0.0000 -2.6382
# 5 7.1416 -16.4613 8.1855 0.0000 33.4901 0.0000
# 6 0.0000 0.0000 0.0000 -2.6382 0.0000 8.7170
#
#
#
# Elastic Compliance Matrix: (Units=1/GPa)
#
#
# Indices 1 2 3 4 5 6 
#
# 1 0.022446 -0.008839 0.000027 0.000000 -0.009138 0.000000
# 2 -0.008839 0.014767 -0.004567 0.000000 0.010260 0.000000
# 3 0.000027 -0.004567 0.011197 0.000000 -0.004987 0.000000
# 4 0.000000 0.000000 0.000000 0.072807 0.000000 0.022035
# 5 -0.009138 0.010260 -0.004987 0.000000 0.038070 0.000000
# 6 0.000000 0.000000 0.000000 0.022035 0.000000 0.121388
#
#
# Mechanical properties :
#
#
# Convention : Reuss Voigt Hill
#
# Bulk Modulus (GPa) = 46.18299 53.02776 49.60537
# Shear Modulus (GPa) = 15.89063 23.98391 19.93727
#
# Velocity S-wave (km/s) = 3.04057 3.73546 3.40578
# Velocity P-wave (km/s) = 6.26064 7.03250 6.65776
#
# Compressibility (1/GPa) = 0.02165299
#
# Stress axis : x y z
#
# Youngs Moduli (GPa) = 44.55158 67.71713 89.30663
#
# Poissons Ratio (x) = 0.59855 -0.00244
# Poissons Ratio (y) = 0.39379 0.40787
# Poissons Ratio (z) = -0.00122 0.30927
#
# Static dielectric constant tensor:
#      x y z
#    x 1.582940 0.000000 0.013490 
#    y 0.000000 1.620120 0.000000 
#    z 0.013490 0.000000 1.613320 
# 
# From -- ./inp_files/51566.got.cif
#   From: 2010.05.17/outbox.cif.g08.bks.cpg/sg10_26_cif.got.tgz:51566.got - 2010.06.03 11:33:40.
