data_PCOD9147665
_publ_section_title
;
Structure prediction by ZEFSAII (Michael W. Deem and Ramdas Pophale) SiO2 
 PCOD9147665
Probable space group: P 2/M
;
_chemical_formula_sum "Si O2"
_cell_formula_units_Z 25
_cell_length_a 10.085020
_cell_length_b 18.910998
_cell_length_c 8.662149
_cell_angle_alpha 90.000000
_cell_angle_beta 135.736256
_cell_angle_gamma 90.000000
_cell_volume 1153.051767
_symmetry_space_group_name_H-M "P 2/M"
_symmetry_group_IT_number 10
_symmetry_cell_setting 'monoclinic'
loop_
_space_group_symop_operation_xyz
x,y,z
-x,y,-z
-x,-y,-z
x,-y,z
loop_
_atom_site_type_symbol
_atom_site_label
_atom_site_fract_x
_atom_site_fract_y
_atom_site_fract_z
Si Si1 0.202510 0.869980 0.847551
Si Si2 0.124179 0.079836 0.245770
Si Si3 0.895655 0.706639 0.188084
Si Si4 0.600031 0.847947 0.308604
Si Si5 0.617280 0.640104 0.730152
Si Si6 0.299632 0.685786 0.653793
Si Si7 0.500000 0.500000 0.500000
O O1 0.117396 0.791073 0.800655
O O2 0.281312 0.876377 0.740346
O O3 0.034362 0.921246 0.752057
O O4 0.386195 0.875117 0.111037
O O5 0.295503 0.127126 0.450468
O O6 0.186612 0.000000 0.260947
O O7 0.000000 0.109146 0.000000
O O8 0.775916 0.678117 0.235633
O O9 0.112718 0.683779 0.391097
O O10 0.795680 0.679466 0.950573
O O11 0.606217 0.763486 0.287360
O O12 0.500000 0.682549 0.500000
O O13 0.459392 0.631712 0.733645
O O14 0.645161 0.563517 0.679951
#
# Coordination Sequence:
#
# PCOD9147665 Si02
#       7
#     4   4   4   4   4   4   1
#     4  10  20  37  61  87 115 148 196 253 298 343
#     4  11  25  41  55  79 123 165 196 237 296 360
#     4  10  19  35  61  91 118 147 192 252 298 334
#     4  10  20  37  61  87 115 148 196 253 298 343
#     4  10  21  39  59  83 120 159 193 229 286 342
#     4  10  19  35  61  91 118 147 192 252 298 334
#     4   8  24  44  56  84 128 170 188 224 278 352
#
# _framework density 21.681591999999998
#
# number of rings (size 3 to 8) (size 9 to 14) (size 15 to 20)
#    0.480    1.440    3.200    0.960    0.000    4.480 
#    0.000    6.400    0.000    1.920    0.000    0.000 
#    0.000    0.000    0.000    0.000    0.000    0.000 
#
# Total GULP energy -139305.940757 kJ/mol
# GULP energy per Si atom -5572.237630 kJ/mol
# Density = 2.163224 g / cm^3
# Si number density = 21.681592 Si / 1000 Ang^3
#
#
#
# Elastic Constant Matrix: (Units=GPa)
#
#
# Indices 1 2 3 4 5 6 
#
# 1 31.5305 -2.1128 -7.1966 0.0000 8.2775 0.0000
# 2 -2.1128 25.8548 16.8013 0.0000 1.2833 0.0000
# 3 -7.1966 16.8013 156.1337 0.0000 4.7923 0.0000
# 4 0.0000 0.0000 0.0000 -26.8194 0.0000 2.0325
# 5 8.2775 1.2833 4.7923 0.0000 25.0478 0.0000
# 6 0.0000 0.0000 0.0000 2.0325 0.0000 -4.0245
#
#
#
# Elastic Compliance Matrix: (Units=1/GPa)
#
#
# Indices 1 2 3 4 5 6 
#
# 1 0.035471 0.002363 0.001754 0.000000 -0.012179 0.000000
# 2 0.002363 0.041784 -0.004323 0.000000 -0.002094 0.000000
# 3 0.001754 -0.004323 0.007003 0.000000 -0.001698 0.000000
# 4 0.000000 0.000000 0.000000 -0.038770 0.000000 -0.019580
# 5 -0.012179 -0.002094 -0.001698 0.000000 0.044381 0.000000
# 6 0.000000 0.000000 0.000000 -0.019580 0.000000 -0.258367
#
#
# Mechanical properties :
#
#
# Convention : Reuss Voigt Hill
#
# Bulk Modulus (GPa) = 11.92645 25.38920 18.65783
# Shear Modulus (GPa) = -35.67910 12.57591 -11.55160
#
# Velocity S-wave (km/s) = -4.06099 2.41099 -2.31071
# Velocity P-wave (km/s) = 4.05909 4.41429 1.22673
#
# Compressibility (1/GPa) = 0.08384723
#
# Stress axis : x y z
#
# Youngs Moduli (GPa) = 28.19170 23.93263 142.79675
#
# Poissons Ratio (x) = -0.05655 -0.25054
# Poissons Ratio (y) = -0.06662 0.61733
# Poissons Ratio (z) = -0.04946 0.10346
#
# Static dielectric constant tensor:
#      x y z
#    x 1.866970 0.000000 -0.039980 
#    y 0.000000 1.714890 0.000000 
#    z -0.039980 0.000000 1.857080 
# 
# From -- ./inp_files/25996.got.cif
#   From: 2010.05.17/outbox.cif.g08.bks.cpg/sg10_13_cif.got.tgz:25996.got - 2010.06.03 11:33:40.
