data_PCOD9147801
_publ_section_title
;
Structure prediction by ZEFSAII (Michael W. Deem and Ramdas Pophale) SiO2 
 PCOD9147801
Probable space group: P 2/M
;
_chemical_formula_sum "Si O2"
_cell_formula_units_Z 32
_cell_length_a 12.267011
_cell_length_b 7.554071
_cell_length_c 15.856298
_cell_angle_alpha 90.000000
_cell_angle_beta 90.855926
_cell_angle_gamma 90.000000
_cell_volume 1469.173732
_symmetry_space_group_name_H-M "P 2/M"
_symmetry_group_IT_number 10
_symmetry_cell_setting 'monoclinic'
loop_
_space_group_symop_operation_xyz
x,y,z
-x,y,-z
-x,-y,-z
x,-y,z
loop_
_atom_site_type_symbol
_atom_site_label
_atom_site_fract_x
_atom_site_fract_y
_atom_site_fract_z
Si Si1 0.899904 0.291731 0.255379
Si Si2 0.949496 0.283295 0.588473
Si Si3 0.515639 0.798621 0.407551
Si Si4 0.646697 0.207758 0.250804
Si Si5 0.038634 0.213724 0.090860
Si Si6 0.280282 0.297179 0.358842
Si Si7 0.263578 0.785679 0.168915
Si Si8 0.497151 0.216007 0.096869
O O1 0.888735 0.500000 0.269912
O O2 0.776806 0.221059 0.251981
O O3 0.976169 0.221731 0.332278
O O4 0.961101 0.263616 0.167630
O O5 0.945727 0.500000 0.592504
O O6 0.824320 0.223524 0.593817
O O7 0.000000 0.232584 0.500000
O O8 0.500000 0.715453 0.500000
O O9 0.593300 0.716932 0.336444
O O10 0.393984 0.801578 0.368929
O O11 0.556176 0.000000 0.423165
O O12 0.590278 0.276814 0.164027
O O13 0.616826 0.000000 0.252440
O O14 0.161991 0.269979 0.111097
O O15 0.038290 0.000000 0.087948
O O16 0.000000 0.280463 0.000000
O O17 0.299529 0.500000 0.385385
O O18 0.247241 0.291711 0.260992
O O19 0.380542 0.734421 0.134298
O O20 0.262380 0.000000 0.175667
O O21 0.503078 0.000000 0.093468
O O22 0.500000 0.277499 0.000000
#
# Coordination Sequence:
#
# PCOD9147801 Si02
#       8
#     4   4   4   4   4   4   4   4
#     4  11  23  39  59  83 118 155 190 236 292 346
#     4   9  20  38  57  80 113 153 191 232 284 341
#     4  10  22  40  60  84 117 153 190 238 291 339
#     4  10  21  38  58  81 114 150 189 233 281 341
#     4  10  22  38  61  89 116 151 197 242 284 344
#     4  11  21  36  61  86 113 148 192 239 285 341
#     4  10  19  36  60  84 113 147 188 236 287 336
#     4   9  18  33  58  85 108 142 186 232 280 332
#
# _framework density 21.780950000000001
#
# number of rings (size 3 to 8) (size 9 to 14) (size 15 to 20)
#    0.000    2.000    2.500    0.750    3.500    1.000 
#    0.000    0.000    0.000    3.750    0.000    0.000 
#    0.000    0.000    0.000    0.000    0.000    0.000 
#
# Total GULP energy -178717.281931 kJ/mol
# GULP energy per Si atom -5584.915060 kJ/mol
# Density = 2.173138 g / cm^3
# Si number density = 21.780950 Si / 1000 Ang^3
#
#
#
# Elastic Constant Matrix: (Units=GPa)
#
#
# Indices 1 2 3 4 5 6 
#
# 1 106.5036 -5.4537 16.0291 0.0000 -5.4146 0.0000
# 2 -5.4537 50.6386 -2.9346 0.0000 0.8724 0.0000
# 3 16.0291 -2.9346 100.8789 0.0000 -3.6723 0.0000
# 4 0.0000 0.0000 0.0000 66.9654 0.0000 294.2413
# 5 -5.4146 0.8724 -3.6723 0.0000 39.8036 0.0000
# 6 0.0000 0.0000 0.0000 294.2413 0.0000 1444.3860
#
#
#
# Elastic Compliance Matrix: (Units=1/GPa)
#
#
# Indices 1 2 3 4 5 6 
#
# 1 0.009719 0.000941 -0.001474 0.000000 0.001165 0.000000
# 2 0.000941 0.019878 0.000419 0.000000 -0.000269 0.000000
# 3 -0.001474 0.000419 0.010186 0.000000 0.000730 0.000000
# 4 0.000000 0.000000 0.000000 0.142361 0.000000 -0.029001
# 5 0.001165 -0.000269 0.000730 0.000000 0.025355 0.000000
# 6 0.000000 0.000000 0.000000 -0.029001 0.000000 0.006600
#
#
# Mechanical properties :
#
#
# Convention : Reuss Voigt Hill
#
# Bulk Modulus (GPa) = 25.28191 30.36696 27.82444
# Shear Modulus (GPa) = 21.97686 326.92302 174.44994
#
# Velocity S-wave (km/s) = 3.17991 12.26465 8.95917
# Velocity P-wave (km/s) = 5.01149 14.64700 10.94645
#
# Compressibility (1/GPa) = 0.03955397
#
# Stress axis : x y z
#
# Youngs Moduli (GPa) = 102.89437 50.30674 98.17469
#
# Poissons Ratio (x) = -0.04735 0.14475
# Poissons Ratio (y) = -0.09684 -0.04113
# Poissons Ratio (z) = 0.15171 -0.02107
#
# Static dielectric constant tensor:
#      x y z
#    x 1.772710 0.000000 0.018880 
#    y 0.000000 1.843450 0.000000 
#    z 0.018880 0.000000 1.793210 
# 
# From -- ./inp_files/55294.got.cif
#   From: 2010.05.17/outbox.cif.g08.bks.cpg/sg10_28_cif.got.tgz:55294.got - 2010.06.03 11:33:40.
