data_PCOD9147833
_publ_section_title
;
Structure prediction by ZEFSAII (Michael W. Deem and Ramdas Pophale) SiO2 
 PCOD9147833
Probable space group: P 2/M
;
_chemical_formula_sum "Si O2"
_cell_formula_units_Z 28
_cell_length_a 12.909454
_cell_length_b 8.264409
_cell_length_c 16.063161
_cell_angle_alpha 90.000000
_cell_angle_beta 124.172144
_cell_angle_gamma 90.000000
_cell_volume 1417.888004
_symmetry_space_group_name_H-M "P 2/M"
_symmetry_group_IT_number 10
_symmetry_cell_setting 'monoclinic'
loop_
_space_group_symop_operation_xyz
x,y,z
-x,y,-z
-x,-y,-z
x,-y,z
loop_
_atom_site_type_symbol
_atom_site_label
_atom_site_fract_x
_atom_site_fract_y
_atom_site_fract_z
Si Si1 0.074098 0.195810 0.450292
Si Si2 0.459761 0.811257 0.279407
Si Si3 0.238620 0.803813 0.287208
Si Si4 0.028230 0.196722 0.776201
Si Si5 0.464824 0.684934 0.861581
Si Si6 0.663957 0.689055 0.490591
Si Si7 0.694688 0.189367 0.069456
O O1 0.210224 0.275007 0.505025
O O2 0.000000 0.239887 0.500000
O O3 0.999850 0.241225 0.332478
O O4 0.090175 0.000000 0.456460
O O5 0.323111 0.752424 0.247486
O O6 0.517913 0.720825 0.227286
O O7 0.551456 0.787800 0.399044
O O8 0.451145 0.000000 0.253440
O O9 0.302633 0.741973 0.400847
O O10 0.093551 0.752294 0.226029
O O11 0.241279 0.000000 0.290883
O O12 0.163704 0.252774 0.867337
O O13 0.032481 0.000000 0.780059
O O14 0.429143 0.500000 0.859306
O O15 0.362825 0.792360 0.863791
O O16 0.597629 0.720466 0.965928
O O17 0.632853 0.500000 0.474594
O O18 0.693468 0.000000 0.045993
#
# Coordination Sequence:
#
# PCOD9147833 Si02
#       7
#     4   4   4   4   4   4   4
#     4   9  18  33  53  78 109 146 187 228 265 315
#     4  11  22  37  59  81 106 144 192 233 271 324
#     4   9  19  38  59  81 108 144 188 230 269 322
#     4   8  16  32  56  83 106 136 180 227 273 316
#     4  11  23  38  55  81 114 143 178 229 282 328
#     4  11  22  34  51  80 116 150 181 222 276 329
#     4  10  19  36  61  84 109 143 183 223 272 335
#
# _framework density 19.747679999999999
#
# number of rings (size 3 to 8) (size 9 to 14) (size 15 to 20)
#    0.000    2.143    0.000    5.571    2.000    3.143 
#    0.000    6.429    0.000    4.286    0.000    0.000 
#    0.000    0.000    0.000    0.000    0.000    0.000 
#
# Total GULP energy -156328.258328 kJ/mol
# GULP energy per Si atom -5583.152083 kJ/mol
# Density = 1.970273 g / cm^3
# Si number density = 19.747680 Si / 1000 Ang^3
#
#
#
# Elastic Constant Matrix: (Units=GPa)
#
#
# Indices 1 2 3 4 5 6 
#
# 1 54.1695 -9.9059 14.3033 0.0000 10.4892 0.0000
# 2 -9.9059 24.5037 -6.2080 0.0000 -2.9125 0.0000
# 3 14.3033 -6.2080 24.5536 0.0000 14.3490 0.0000
# 4 0.0000 0.0000 0.0000 94.5171 0.0000 52.1657
# 5 10.4892 -2.9125 14.3490 0.0000 26.6649 0.0000
# 6 0.0000 0.0000 0.0000 52.1657 0.0000 39.8422
#
#
#
# Elastic Compliance Matrix: (Units=1/GPa)
#
#
# Indices 1 2 3 4 5 6 
#
# 1 0.022823 0.006350 -0.009990 0.000000 -0.002908 0.000000
# 2 0.006350 0.045423 0.009257 0.000000 -0.002518 0.000000
# 3 -0.009990 0.009257 0.067101 0.000000 -0.031168 0.000000
# 4 0.000000 0.000000 0.000000 0.038144 0.000000 -0.049943
# 5 -0.002908 -0.002518 -0.031168 0.000000 0.055144 0.000000
# 6 0.000000 0.000000 0.000000 -0.049943 0.000000 0.090489
#
#
# Mechanical properties :
#
#
# Convention : Reuss Voigt Hill
#
# Bulk Modulus (GPa) = 6.82216 11.06728 8.94472
# Shear Modulus (GPa) = 14.01537 39.20735 26.61136
#
# Velocity S-wave (km/s) = 2.66695 4.46063 3.67491
# Velocity P-wave (km/s) = 3.59801 5.66976 4.74826
#
# Compressibility (1/GPa) = 0.14658115
#
# Stress axis : x y z
#
# Youngs Moduli (GPa) = 43.81596 22.01523 14.90282
#
# Poissons Ratio (x) = -0.13979 0.14888
# Poissons Ratio (y) = -0.27822 -0.13796
# Poissons Ratio (z) = 0.43771 -0.20380
#
# Static dielectric constant tensor:
#      x y z
#    x 1.714670 0.000000 0.004210 
#    y 0.000000 1.678940 0.000000 
#    z 0.004210 0.000000 1.672360 
# 
# From -- ./inp_files/63904.got.cif
#   From: 2010.05.17/outbox.cif.g08.bks.cpg/sg10_32_cif.got.tgz:63904.got - 2010.06.03 11:33:40.
