data_PCOD9147995
_publ_section_title
;
Structure prediction by ZEFSAII (Michael W. Deem and Ramdas Pophale) SiO2 
 PCOD9147995
Probable space group: P 2/M
;
_chemical_formula_sum "Si O2"
_cell_formula_units_Z 32
_cell_length_a 29.626975
_cell_length_b 8.757966
_cell_length_c 12.803558
_cell_angle_alpha 90.000000
_cell_angle_beta 149.946193
_cell_angle_gamma 90.000000
_cell_volume 1663.783814
_symmetry_space_group_name_H-M "P 2/M"
_symmetry_group_IT_number 10
_symmetry_cell_setting 'monoclinic'
loop_
_space_group_symop_operation_xyz
x,y,z
-x,y,-z
-x,-y,-z
x,-y,z
loop_
_atom_site_type_symbol
_atom_site_label
_atom_site_fract_x
_atom_site_fract_y
_atom_site_fract_z
Si Si1 0.478025 0.684491 0.076115
Si Si2 0.276881 0.684993 0.737656
Si Si3 0.208005 0.682554 0.038773
Si Si4 0.348159 0.820267 0.484686
Si Si5 0.989365 0.179171 0.313348
Si Si6 0.823751 0.316321 0.256337
Si Si7 0.053921 0.173064 0.000951
Si Si8 0.227783 0.677399 0.413120
O O1 0.479925 0.500000 0.079974
O O2 0.553985 0.745531 0.306592
O O3 0.500000 0.732256 0.000000
O O4 0.378930 0.734188 0.915950
O O5 0.279194 0.500000 0.750503
O O6 0.231091 0.741349 0.752288
O O7 0.220922 0.720992 0.520749
O O8 0.207362 0.500000 0.050964
O O9 0.224086 0.719618 0.949010
O O10 0.107902 0.746115 0.861821
O O11 0.283369 0.751987 0.265523
O O12 0.299482 0.778535 0.496206
O O13 0.355208 0.000000 0.485016
O O14 0.074740 0.252020 0.540951
O O15 0.984146 0.000000 0.327672
O O16 0.004773 0.197459 0.219483
O O17 0.830794 0.500000 0.277333
O O18 0.133633 0.293972 0.167939
O O19 0.092596 0.000000 0.068807
O O20 0.000000 0.180606 0.000000
O O21 0.255445 0.500000 0.462035
#
# Coordination Sequence:
#
# PCOD9147995 Si02
#       8
#     4   4   4   4   4   4   4   4
#     4  10  19  37  64  91 119 152 190 234 286 349
#     4   9  19  37  61  89 119 150 190 240 291 344
#     4  11  23  40  62  85 113 155 204 248 287 336
#     4  12  24  38  58  87 120 151 189 240 295 348
#     4  11  22  36  57  85 118 157 196 240 291 344
#     4  10  22  40  61  86 116 153 199 246 288 339
#     4  10  21  35  50  77 119 160 193 232 286 347
#     4  11  20  34  58  85 114 152 193 236 289 345
#
# _framework density 19.233267000000001
#
# number of rings (size 3 to 8) (size 9 to 14) (size 15 to 20)
#    0.000    1.500    2.500    3.375    0.000    3.500 
#    0.000    1.875    0.000    3.750    0.000    0.000 
#    0.000    0.000    0.000    0.000    0.000    0.000 
#
# Total GULP energy -178689.395855 kJ/mol
# GULP energy per Si atom -5584.043620 kJ/mol
# Density = 1.918949 g / cm^3
# Si number density = 19.233267 Si / 1000 Ang^3
#
#
#
# Elastic Constant Matrix: (Units=GPa)
#
#
# Indices 1 2 3 4 5 6 
#
# 1 72.5854 19.6280 42.3913 0.0000 -15.0267 0.0000
# 2 19.6280 36.3843 32.1318 0.0000 -6.2177 0.0000
# 3 42.3913 32.1318 121.0736 0.0000 -8.2688 0.0000
# 4 0.0000 0.0000 0.0000 -2.8834 0.0000 -3.7900
# 5 -15.0267 -6.2177 -8.2688 0.0000 30.0716 0.0000
# 6 0.0000 0.0000 0.0000 -3.7900 0.0000 13.4251
#
#
#
# Elastic Compliance Matrix: (Units=1/GPa)
#
#
# Indices 1 2 3 4 5 6 
#
# 1 0.019570 -0.004818 -0.005069 0.000000 0.007389 0.000000
# 2 -0.004818 0.037805 -0.008129 0.000000 0.003174 0.000000
# 3 -0.005069 -0.008129 0.012132 0.000000 -0.000878 0.000000
# 4 0.000000 0.000000 0.000000 -0.252952 0.000000 -0.071409
# 5 0.007389 0.003174 -0.000878 0.000000 0.037361 0.000000
# 6 0.000000 0.000000 0.000000 -0.071409 0.000000 0.054328
#
#
# Mechanical properties :
#
#
# Convention : Reuss Voigt Hill
#
# Bulk Modulus (GPa) = 29.87387 46.48283 38.17835
# Shear Modulus (GPa) = -112.19357 17.18215 -47.50571
#
# Velocity S-wave (km/s) = -7.64590 2.99215 -4.97528
# Velocity P-wave (km/s) = 7.89811 6.01312 3.62095
#
# Compressibility (1/GPa) = 0.03347407
#
# Stress axis : x y z
#
# Youngs Moduli (GPa) = 51.09977 26.45136 82.42947
#
# Poissons Ratio (x) = 0.12745 0.41779
# Poissons Ratio (y) = 0.24621 0.67010
# Poissons Ratio (z) = 0.25900 0.21503
#
# Static dielectric constant tensor:
#      x y z
#    x 1.698390 0.000000 -0.011140 
#    y 0.000000 1.659470 0.000000 
#    z -0.011140 0.000000 1.662860 
# 
# From -- ./inp_files/58106.got.cif
#   From: 2010.05.17/outbox.cif.g08.bks.cpg/sg10_30_cif.got.tgz:58106.got - 2010.06.03 11:33:40.
