data_PCOD9147119
_publ_section_title
;
Structure prediction by ZEFSAII (Michael W. Deem and Ramdas Pophale) SiO2 
 PCOD9147119
Probable space group: P 2/M
;
_chemical_formula_sum "Si O2"
_cell_formula_units_Z 30
_cell_length_a 11.779183
_cell_length_b 8.404842
_cell_length_c 23.143264
_cell_angle_alpha 90.000000
_cell_angle_beta 136.382917
_cell_angle_gamma 90.000000
_cell_volume 1580.573976
_symmetry_space_group_name_H-M "P 2/M"
_symmetry_group_IT_number 10
_symmetry_cell_setting 'monoclinic'
loop_
_space_group_symop_operation_xyz
x,y,z
-x,y,-z
-x,-y,-z
x,-y,z
loop_
_atom_site_type_symbol
_atom_site_label
_atom_site_fract_x
_atom_site_fract_y
_atom_site_fract_z
Si Si1 0.117955 0.179937 0.864086
Si Si2 0.248266 0.690318 0.606678
Si Si3 0.449904 0.186191 0.861513
Si Si4 0.415864 0.309527 0.207351
Si Si5 0.940634 0.811448 0.568386
Si Si6 0.905882 0.684737 0.266737
Si Si7 0.056242 0.807669 0.084303
Si Si8 0.500000 0.244067 0.000000
O O1 0.059523 0.281999 0.787835
O O2 0.316263 0.171852 0.934250
O O3 0.061036 0.240102 0.905697
O O4 0.055107 0.000000 0.833460
O O5 0.230569 0.500000 0.604621
O O6 0.430086 0.734461 0.695101
O O7 0.202502 0.743811 0.525310
O O8 0.110127 0.766358 0.597383
O O9 0.551465 0.229244 0.842595
O O10 0.256978 0.212530 0.778606
O O11 0.491896 0.302809 0.930714
O O12 0.479414 0.000000 0.888420
O O13 0.417098 0.500000 0.201173
O O14 0.239591 0.252415 0.164143
O O15 0.954870 0.736373 0.637027
O O16 0.927369 0.000000 0.567241
O O17 0.866755 0.500000 0.261239
O O18 0.055038 0.000000 0.081789
O O19 0.000000 0.750398 0.000000
#
# Coordination Sequence:
#
# PCOD9147119 Si02
#       8
#     4   4   4   4   4   4   4   2
#     4  10  20  36  57  82 109 144 190 235 283 337
#     4  10  20  34  53  80 118 153 183 230 287 341
#     4  11  20  33  54  78 108 145 188 231 279 335
#     4  11  23  37  56  82 115 151 189 232 284 339
#     4  11  20  32  54  84 115 149 190 231 279 340
#     4  11  21  34  52  78 115 151 183 226 285 341
#     4  10  22  40  61  83 111 151 197 241 284 332
#     4  10  19  34  57  82 107 138 181 236 285 334
#
# _framework density 18.980447000000002
#
# number of rings (size 3 to 8) (size 9 to 14) (size 15 to 20)
#    0.000    1.467    1.333    7.200    0.000    3.467 
#    0.000   11.000    0.000    0.800    0.000    5.600 
#    0.000    0.000    0.000    0.000    0.000    0.000 
#
# Total GULP energy -167293.651633 kJ/mol
# GULP energy per Si atom -5576.455054 kJ/mol
# Density = 1.893725 g / cm^3
# Si number density = 18.980447 Si / 1000 Ang^3
#
#
#
# Elastic Constant Matrix: (Units=GPa)
#
#
# Indices 1 2 3 4 5 6 
#
# 1 108.5837 17.4941 46.6572 0.0000 -8.4680 0.0000
# 2 17.4941 43.4512 15.0179 0.0000 -7.6247 0.0000
# 3 46.6572 15.0179 124.9690 0.0000 -17.7650 0.0000
# 4 0.0000 0.0000 0.0000 -36.9135 0.0000 101.5865
# 5 -8.4680 -7.6247 -17.7650 0.0000 29.6265 0.0000
# 6 0.0000 0.0000 0.0000 101.5865 0.0000 -140.6328
#
#
#
# Elastic Compliance Matrix: (Units=1/GPa)
#
#
# Indices 1 2 3 4 5 6 
#
# 1 0.011394 -0.003237 -0.003848 0.000000 0.000116 0.000000
# 2 -0.003237 0.025590 -0.001161 0.000000 0.004965 0.000000
# 3 -0.003848 -0.001161 0.010253 0.000000 0.004750 0.000000
# 4 0.000000 0.000000 0.000000 0.027422 0.000000 0.019808
# 5 0.000116 0.004965 0.004750 0.000000 0.037912 0.000000
# 6 0.000000 0.000000 0.000000 0.019808 0.000000 0.007198
#
#
# Mechanical properties :
#
#
# Convention : Reuss Voigt Hill
#
# Bulk Modulus (GPa) = 32.52596 48.37136 40.44866
# Shear Modulus (GPa) = 34.12758 -16.39498 8.86630
#
# Velocity S-wave (km/s) = 4.24493 -2.94221 2.16366
# Velocity P-wave (km/s) = 6.41870 3.74140 5.25346
#
# Compressibility (1/GPa) = 0.03074467
#
# Stress axis : x y z
#
# Youngs Moduli (GPa) = 87.76853 39.07785 97.52798
#
# Poissons Ratio (x) = 0.12649 0.37532
# Poissons Ratio (y) = 0.28409 0.11323
# Poissons Ratio (z) = 0.33776 0.04537
#
# Static dielectric constant tensor:
#      x y z
#    x 1.641150 0.000000 -0.032720 
#    y 0.000000 1.657500 0.000000 
#    z -0.032720 0.000000 1.680780 
# 
# From -- ./inp_files/88734.got.cif
#   From: 2010.05.17/outbox.cif.g08.bks.cpg/sg10_45_cif.got.tgz:88734.got - 2010.06.03 11:33:40.
