data_PCOD9147515
_publ_section_title
;
Structure prediction by ZEFSAII (Michael W. Deem and Ramdas Pophale) SiO2 
 PCOD9147515
Probable space group: P 2/M
;
_chemical_formula_sum "Si O2"
_cell_formula_units_Z 32
_cell_length_a 21.774344
_cell_length_b 8.588550
_cell_length_c 20.718067
_cell_angle_alpha 90.000000
_cell_angle_beta 26.188098
_cell_angle_gamma 90.000000
_cell_volume 1709.886314
_symmetry_space_group_name_H-M "P 2/M"
_symmetry_group_IT_number 10
_symmetry_cell_setting 'monoclinic'
loop_
_space_group_symop_operation_xyz
x,y,z
-x,y,-z
-x,-y,-z
x,-y,z
loop_
_atom_site_type_symbol
_atom_site_label
_atom_site_fract_x
_atom_site_fract_y
_atom_site_fract_z
Si Si1 0.404829 0.683311 0.783629
Si Si2 0.347010 0.816829 0.377130
Si Si3 0.171481 0.184941 0.673758
Si Si4 0.125045 0.187999 0.245355
Si Si5 0.168441 0.188021 0.419452
Si Si6 0.440033 0.811026 0.487965
Si Si7 0.341420 0.686045 0.136329
Si Si8 0.115185 0.811428 0.105321
O O1 0.392734 0.500000 0.787173
O O2 0.515500 0.722087 0.735702
O O3 0.466103 0.756671 0.660310
O O4 0.258369 0.756644 0.940102
O O5 0.244683 0.798880 0.534847
O O6 0.264705 0.774388 0.390425
O O7 0.383888 0.000000 0.338634
O O8 0.283031 0.245868 0.620228
O O9 0.016931 0.248596 0.810891
O O10 0.158321 0.000000 0.698822
O O11 0.267505 0.248417 0.142054
O O12 0.106269 0.237635 0.188781
O O13 0.989419 0.237258 0.414888
O O14 0.126903 0.000000 0.244785
O O15 0.240430 0.261560 0.289601
O O16 0.166614 0.000000 0.413336
O O17 0.500000 0.759476 0.500000
O O18 0.438326 0.000000 0.488915
O O19 0.344917 0.500000 0.129210
O O20 0.500000 0.741439 0.000000
O O21 0.109959 0.000000 0.110519
#
# Coordination Sequence:
#
# PCOD9147515 Si02
#       8
#     4   4   4   4   4   4   4   4
#     4  11  23  35  51  81 120 154 183 221 270 325
#     4   9  17  34  58  83 107 138 181 231 278 325
#     4   8  14  30  57  85 111 136 175 228 273 316
#     4  10  21  38  61  85 105 137 186 236 283 330
#     4  10  20  37  62  86 106 134 183 238 284 332
#     4   9  18  36  63  89 112 145 189 231 270 318
#     4  11  26  42  53  74 113 152 184 225 279 341
#     4  10  19  35  58  83 111 144 182 230 280 324
#
# _framework density 18.714696
#
# number of rings (size 3 to 8) (size 9 to 14) (size 15 to 20)
#    0.000    2.250    1.250    2.625    1.750    4.250 
#    0.000    3.125    0.000    3.750    0.000    0.000 
#    0.000    0.000    0.000    0.000    0.000    0.000 
#
# Total GULP energy -178556.474737 kJ/mol
# GULP energy per Si atom -5579.889836 kJ/mol
# Density = 1.867210 g / cm^3
# Si number density = 18.714696 Si / 1000 Ang^3
#
#
#
# Elastic Constant Matrix: (Units=GPa)
#
#
# Indices 1 2 3 4 5 6 
#
# 1 103.1436 20.0525 49.9892 0.0000 -31.9822 0.0000
# 2 20.0525 10.4366 17.8541 0.0000 -7.4854 0.0000
# 3 49.9892 17.8541 125.4630 0.0000 -28.2106 0.0000
# 4 0.0000 0.0000 0.0000 -33.4850 0.0000 -3.1946
# 5 -31.9822 -7.4854 -28.2106 0.0000 24.1259 0.0000
# 6 0.0000 0.0000 0.0000 -3.1946 0.0000 0.7359
#
#
#
# Elastic Compliance Matrix: (Units=1/GPa)
#
#
# Indices 1 2 3 4 5 6 
#
# 1 0.020797 -0.025614 -0.000311 0.000000 0.019259 0.000000
# 2 -0.025614 0.170081 -0.013251 0.000000 0.003320 0.000000
# 3 -0.000311 -0.013251 0.012160 0.000000 0.009695 0.000000
# 4 0.000000 0.000000 0.000000 -0.021118 0.000000 -0.091672
# 5 0.019259 0.003320 0.009695 0.000000 0.079347 0.000000
# 6 0.000000 0.000000 0.000000 -0.091672 0.000000 0.960885
#
#
# Mechanical properties :
#
#
# Convention : Reuss Voigt Hill
#
# Bulk Modulus (GPa) = 8.02018 46.09275 27.05646
# Shear Modulus (GPa) = 3.72560 8.35186 6.03873
#
# Velocity S-wave (km/s) = 1.41246 2.11481 1.79826
# Velocity P-wave (km/s) = 2.63721 5.53587 4.33594
#
# Compressibility (1/GPa) = 0.12468552
#
# Stress axis : x y z
#
# Youngs Moduli (GPa) = 48.08291 5.87956 82.23613
#
# Poissons Ratio (x) = 0.15060 0.02558
# Poissons Ratio (y) = 1.23160 1.08973
# Poissons Ratio (z) = 0.01495 0.07791
#
# Static dielectric constant tensor:
#      x y z
#    x 1.655860 0.000000 -0.028430 
#    y 0.000000 1.632020 0.000000 
#    z -0.028430 0.000000 1.636380 
# 
# From -- ./inp_files/90593.got.cif
#   From: 2010.05.17/outbox.cif.g08.bks.cpg/sg10_46_cif.got.tgz:90593.got - 2010.06.03 11:33:40.
