data_PCOD9147921
_publ_section_title
;
Structure prediction by ZEFSAII (Michael W. Deem and Ramdas Pophale) SiO2 
 PCOD9147921
Probable space group: P 2/M
;
_chemical_formula_sum "Si O2"
_cell_formula_units_Z 26
_cell_length_a 18.253861
_cell_length_b 12.856624
_cell_length_c 7.416211
_cell_angle_alpha 90.000000
_cell_angle_beta 139.143211
_cell_angle_gamma 90.000000
_cell_volume 1138.556979
_symmetry_space_group_name_H-M "P 2/M"
_symmetry_group_IT_number 10
_symmetry_cell_setting 'monoclinic'
loop_
_space_group_symop_operation_xyz
x,y,z
-x,y,-z
-x,-y,-z
x,-y,z
loop_
_atom_site_type_symbol
_atom_site_label
_atom_site_fract_x
_atom_site_fract_y
_atom_site_fract_z
Si Si1 0.870881 0.000000 0.849361
Si Si2 0.956407 0.389201 0.121155
Si Si3 0.269564 0.000000 0.725731
Si Si4 0.619833 0.777838 0.125230
Si Si5 0.338525 0.777132 0.212589
Si Si6 0.074125 0.176485 0.791441
Si Si7 0.693725 0.381839 0.551574
Si Si8 0.332591 0.000000 0.260190
O O1 0.848648 0.000000 0.596474
O O2 0.751568 0.000000 0.730384
O O3 0.922453 0.104735 0.026103
O O4 0.994712 0.500000 0.270717
O O5 0.987000 0.284947 0.279881
O O6 0.822334 0.389567 0.853186
O O7 0.000000 0.383337 0.000000
O O8 0.329160 0.106035 0.772411
O O9 0.274447 0.000000 0.952341
O O10 0.625099 0.752955 0.922438
O O11 0.687459 0.690418 0.362936
O O12 0.500000 0.778725 0.000000
O O13 0.202910 0.799674 0.971522
O O14 0.364359 0.684283 0.397705
O O15 0.390240 0.887556 0.374743
O O16 0.000000 0.123830 0.500000
O O17 0.651606 0.500000 0.446137
#
# Coordination Sequence:
#
# PCOD9147921 Si02
#       8
#     2   4   2   4   4   4   4   2
#     4  10  19  37  54  80 122 158 185 232 284 345
#     4   9  19  36  57  83 113 147 195 242 288 342
#     4  10  19  37  63  84 117 150 190 246 296 343
#     4  11  23  38  62  91 116 152 198 244 296 346
#     4   9  20  38  58  83 118 151 192 241 289 347
#     4  10  20  34  56  83 115 154 192 234 288 346
#     4  10  22  40  60  84 118 158 195 239 293 349
#     4   8  16  32  58  83 104 146 190 233 288 339
#
# _framework density 22.835923999999999
#
# number of rings (size 3 to 8) (size 9 to 14) (size 15 to 20)
#    0.000    2.308    0.000    3.231    2.154    1.846 
#    2.769    1.154    0.000    8.308    0.000    0.000 
#    0.000    0.000    0.000    0.000    0.000    0.000 
#
# Total GULP energy -145183.244304 kJ/mol
# GULP energy per Si atom -5583.970935 kJ/mol
# Density = 2.278395 g / cm^3
# Si number density = 22.835924 Si / 1000 Ang^3
#
#
#
# Elastic Constant Matrix: (Units=GPa)
#
#
# Indices 1 2 3 4 5 6 
#
# 1 110.7077 31.9238 9.7519 0.0000 -13.3908 0.0000
# 2 31.9238 171.8213 11.4467 0.0000 -28.5484 0.0000
# 3 9.7519 11.4467 18.5630 0.0000 -0.8299 0.0000
# 4 0.0000 0.0000 0.0000 72.1610 0.0000 -60.6828
# 5 -13.3908 -28.5484 -0.8299 0.0000 34.4859 0.0000
# 6 0.0000 0.0000 0.0000 -60.6828 0.0000 46.3544
#
#
#
# Elastic Compliance Matrix: (Units=1/GPa)
#
#
# Indices 1 2 3 4 5 6 
#
# 1 0.010096 -0.001093 -0.004500 0.000000 0.002907 0.000000
# 2 -0.001093 0.007163 -0.003601 0.000000 0.005419 0.000000
# 3 -0.004500 -0.003601 0.058306 0.000000 -0.003325 0.000000
# 4 0.000000 0.000000 0.000000 -0.137379 0.000000 -0.179843
# 5 0.002907 0.005419 -0.003325 0.000000 0.034532 0.000000
# 6 0.000000 0.000000 0.000000 -0.179843 0.000000 -0.213861
#
#
# Mechanical properties :
#
#
# Convention : Reuss Voigt Hill
#
# Bulk Modulus (GPa) = 17.48910 45.25963 31.37436
# Shear Modulus (GPa) = -24.54649 47.13157 11.29254
#
# Velocity S-wave (km/s) = -3.28213 4.54797 2.22617
# Velocity P-wave (km/s) = 2.58611 6.88776 4.51405
#
# Compressibility (1/GPa) = 0.05717846
#
# Stress axis : x y z
#
# Youngs Moduli (GPa) = 99.04919 139.60003 17.15077
#
# Poissons Ratio (x) = 0.15258 0.07718
# Poissons Ratio (y) = 0.10826 0.06176
# Poissons Ratio (z) = 0.44571 0.50266
#
# Static dielectric constant tensor:
#      x y z
#    x 1.825990 0.000000 0.027730 
#    y 0.000000 1.888960 0.000000 
#    z 0.027730 0.000000 1.913010 
# 
# From -- ./inp_files/34938.got.cif
#   From: 2010.05.17/outbox.cif.g08.bks.cpg/sg10_18_cif.got.tgz:34938.got - 2010.06.03 11:33:40.
