data_PCOD9147799
_publ_section_title
;
Structure prediction by ZEFSAII (Michael W. Deem and Ramdas Pophale) SiO2 
 PCOD9147799
Probable space group: P 2/M
;
_chemical_formula_sum "Si O2"
_cell_formula_units_Z 32
_cell_length_a 28.696166
_cell_length_b 8.884222
_cell_length_c 22.267254
_cell_angle_alpha 90.000000
_cell_angle_beta 161.251009
_cell_angle_gamma 90.000000
_cell_volume 1824.679560
_symmetry_space_group_name_H-M "P 2/M"
_symmetry_group_IT_number 10
_symmetry_cell_setting 'monoclinic'
loop_
_space_group_symop_operation_xyz
x,y,z
-x,y,-z
-x,-y,-z
x,-y,z
loop_
_atom_site_type_symbol
_atom_site_label
_atom_site_fract_x
_atom_site_fract_y
_atom_site_fract_z
Si Si1 0.829053 0.319941 0.791050
Si Si2 0.686309 0.320646 0.859670
Si Si3 0.161628 0.180053 0.844939
Si Si4 0.452096 0.820681 0.125073
Si Si5 0.908675 0.819414 0.447772
Si Si6 0.673044 0.820774 0.716238
Si Si7 0.401198 0.180918 0.572981
Si Si8 0.408073 0.320160 0.945442
O O1 0.809974 0.500000 0.767006
O O2 0.753451 0.251817 0.757846
O O3 0.745700 0.248154 0.632725
O O4 0.000000 0.286356 0.000000
O O5 0.672957 0.500000 0.841164
O O6 0.721616 0.254043 0.837731
O O7 0.534461 0.248531 0.697024
O O8 0.802919 0.269159 0.051517
O O9 0.009985 0.215543 0.628383
O O10 0.168974 0.000000 0.865603
O O11 0.292465 0.213029 0.957779
O O12 0.563645 0.782059 0.314694
O O13 0.458192 0.000000 0.122802
O O14 0.471090 0.739370 0.085288
O O15 0.754846 0.740397 0.259709
O O16 0.000000 0.778087 0.500000
O O17 0.886981 0.000000 0.419222
O O18 0.500000 0.795117 0.500000
O O19 0.697263 0.000000 0.746703
O O20 0.403669 0.000000 0.569605
O O21 0.407015 0.500000 0.945354
O O22 0.500000 0.268983 0.000000
#
# Coordination Sequence:
#
# PCOD9147799 Si02
#       8
#     4   4   4   4   4   4   4   4
#     4  11  24  40  59  87 120 153 190 234 289 346
#     4  11  21  33  55  86 119 150 186 236 292 341
#     4   9  18  34  56  83 115 144 183 237 288 340
#     4   9  18  35  58  82 109 144 189 236 278 333
#     4  10  19  36  60  84 109 143 187 235 283 331
#     4  11  22  37  60  86 113 150 194 237 280 331
#     4  10  20  36  58  84 113 148 192 236 281 338
#     4  11  24  38  53  81 119 154 189 232 283 340
#
# _framework density 17.537326
#
# number of rings (size 3 to 8) (size 9 to 14) (size 15 to 20)
#    0.000    1.750    2.500    3.375    0.000    5.750 
#    0.000    1.250    0.000    3.000    0.000    0.000 
#    0.000    0.000    0.000    0.000    0.000    0.000 
#
# Total GULP energy -178714.997699 kJ/mol
# GULP energy per Si atom -5584.843678 kJ/mol
# Density = 1.749741 g / cm^3
# Si number density = 17.537326 Si / 1000 Ang^3
#
#
#
# Elastic Constant Matrix: (Units=GPa)
#
#
# Indices 1 2 3 4 5 6 
#
# 1 132.5867 64.1210 79.6626 0.0000 -15.4002 0.0000
# 2 64.1210 72.7144 63.3545 0.0000 -7.9762 0.0000
# 3 79.6626 63.3545 125.8642 0.0000 -15.9974 0.0000
# 4 0.0000 0.0000 0.0000 25.7772 0.0000 4.6012
# 5 -15.4002 -7.9762 -15.9974 0.0000 25.9862 0.0000
# 6 0.0000 0.0000 0.0000 4.6012 0.0000 21.3327
#
#
#
# Elastic Compliance Matrix: (Units=1/GPa)
#
#
# Indices 1 2 3 4 5 6 
#
# 1 0.014959 -0.008809 -0.004612 0.000000 0.003322 0.000000
# 2 -0.008809 0.029682 -0.009624 0.000000 -0.002034 0.000000
# 3 -0.004612 -0.009624 0.016258 0.000000 0.004321 0.000000
# 4 0.000000 0.000000 0.000000 0.040347 0.000000 -0.008702
# 5 0.003322 -0.002034 0.004321 0.000000 0.042487 0.000000
# 6 0.000000 0.000000 0.000000 -0.008702 0.000000 0.048753
#
#
# Mechanical properties :
#
#
# Convention : Reuss Voigt Hill
#
# Bulk Modulus (GPa) = 67.52281 82.82682 75.17482
# Shear Modulus (GPa) = 20.53290 22.88769 21.71029
#
# Velocity S-wave (km/s) = 3.42542 3.61651 3.52227
# Velocity P-wave (km/s) = 7.36414 8.04800 7.71365
#
# Compressibility (1/GPa) = 0.01480981
#
# Stress axis : x y z
#
# Youngs Moduli (GPa) = 66.84931 33.69038 61.50975
#
# Poissons Ratio (x) = 0.29676 0.28367
# Poissons Ratio (y) = 0.58884 0.59197
# Poissons Ratio (z) = 0.30830 0.32424
#
# Static dielectric constant tensor:
#      x y z
#    x 1.583170 0.000000 -0.021150 
#    y 0.000000 1.582640 0.000000 
#    z -0.021150 0.000000 1.593250 
# 
# From -- ./inp_files/86921.got.cif
#   From: 2010.05.17/outbox.cif.g08.bks.cpg/sg10_44_cif.got.tgz:86921.got - 2010.06.03 11:33:40.
