data_PCOD9147678
_publ_section_title
;
Structure prediction by ZEFSAII (Michael W. Deem and Ramdas Pophale) SiO2 
 PCOD9147678
Probable space group: P 2/M
;
_chemical_formula_sum "Si O2"
_cell_formula_units_Z 16
_cell_length_a 8.217260
_cell_length_b 7.880013
_cell_length_c 11.221674
_cell_angle_alpha 90.000000
_cell_angle_beta 95.434949
_cell_angle_gamma 90.000000
_cell_volume 723.360490
_symmetry_space_group_name_H-M "P 2/M"
_symmetry_group_IT_number 10
_symmetry_cell_setting 'monoclinic'
loop_
_space_group_symop_operation_xyz
x,y,z
-x,y,-z
-x,-y,-z
x,-y,z
loop_
_atom_site_type_symbol
_atom_site_label
_atom_site_fract_x
_atom_site_fract_y
_atom_site_fract_z
Si Si1 0.631641 0.813669 0.699322
Si Si2 0.111367 0.500000 0.683918
Si Si3 0.347195 0.693902 0.841455
Si Si4 0.824256 0.706659 0.937297
Si Si5 0.257218 0.500000 0.435656
O O1 0.465338 0.794962 0.763819
O O2 0.771511 0.783734 0.808718
O O3 0.650260 0.665338 0.604947
O O4 0.644778 0.000000 0.647025
O O5 0.171215 0.659306 0.766676
O O6 0.222058 0.500000 0.573179
O O7 0.923906 0.500000 0.636319
O O8 0.417218 0.500000 0.853347
O O9 0.308992 0.754917 0.971090
O O10 0.823920 0.500000 0.927846
O O11 0.000000 0.757943 0.000000
#
# Coordination Sequence:
#
# PCOD9147678 Si02
#       5
#     4   2   4   4   2
#     4  12  24  37  61  92 125 162 195 243 301 360
#     4   9  21  40  71  86 109 165 199 253 310 339
#     4   9  19  37  60  89 116 155 201 239 299 353
#     4  10  19  35  62  90 121 157 199 247 296 353
#     4  11  21  44  65  88 119 151 209 253 296 359
#
# _framework density 22.118987000000001
#
# number of rings (size 3 to 8) (size 9 to 14) (size 15 to 20)
#    0.750    1.000    2.500    2.250    0.000    6.500 
#    0.000    8.750    0.000    0.000    0.000    0.000 
#    0.000    0.000    0.000    0.000    0.000    0.000 
#
# Total GULP energy -89438.461391 kJ/mol
# GULP energy per Si atom -5589.903837 kJ/mol
# Density = 2.206864 g / cm^3
# Si number density = 22.118987 Si / 1000 Ang^3
#
#
#
# Elastic Constant Matrix: (Units=GPa)
#
#
# Indices 1 2 3 4 5 6 
#
# 1 78.2322 8.3145 -3.4309 0.0000 2.3361 0.0000
# 2 8.3145 109.7220 29.6734 0.0000 -20.6409 0.0000
# 3 -3.4309 29.6734 92.4991 0.0000 -16.2887 0.0000
# 4 0.0000 0.0000 0.0000 -12.9464 0.0000 5.0433
# 5 2.3361 -20.6409 -16.2887 0.0000 40.3920 0.0000
# 6 0.0000 0.0000 0.0000 5.0433 0.0000 -5.1618
#
#
#
# Elastic Compliance Matrix: (Units=1/GPa)
#
#
# Indices 1 2 3 4 5 6 
#
# 1 0.012998 -0.001402 0.000725 0.000000 -0.001176 0.000000
# 2 -0.001402 0.010804 -0.002725 0.000000 0.004503 0.000000
# 3 0.000725 -0.002725 0.012335 0.000000 0.003540 0.000000
# 4 0.000000 0.000000 0.000000 -0.124705 0.000000 -0.121842
# 5 -0.001176 0.004503 0.003540 0.000000 0.028554 0.000000
# 6 0.000000 0.000000 0.000000 -0.121842 0.000000 -0.312774
#
#
# Mechanical properties :
#
#
# Convention : Reuss Voigt Hill
#
# Bulk Modulus (GPa) = 34.09092 38.84082 36.46587
# Shear Modulus (GPa) = -14.03688 20.84983 3.40647
#
# Velocity S-wave (km/s) = -2.52188 3.07354 1.24234
# Velocity P-wave (km/s) = 2.63935 5.49487 4.31044
#
# Compressibility (1/GPa) = 0.02933332
#
# Stress axis : x y z
#
# Youngs Moduli (GPa) = 76.93255 92.55547 81.06782
#
# Poissons Ratio (x) = 0.12979 -0.05876
# Poissons Ratio (y) = 0.10788 0.22091
# Poissons Ratio (z) = -0.05577 0.25221
#
# Static dielectric constant tensor:
#      x y z
#    x 1.864810 0.000000 0.012720 
#    y 0.000000 1.806010 0.000000 
#    z 0.012720 0.000000 1.775610 
# 
# From -- ./inp_files/40443.got.cif
#   From: 2010.05.17/outbox.cif.g08.bks.cpg/sg10_21_cif.got.tgz:40443.got - 2010.06.03 11:33:40.
