data_PCOD9147309
_publ_section_title
;
Structure prediction by ZEFSAII (Michael W. Deem and Ramdas Pophale) SiO2 
 PCOD9147309
Probable space group: P 2/M
;
_chemical_formula_sum "Si O2"
_cell_formula_units_Z 30
_cell_length_a 15.736654
_cell_length_b 7.588767
_cell_length_c 12.155765
_cell_angle_alpha 90.000000
_cell_angle_beta 113.166718
_cell_angle_gamma 90.000000
_cell_volume 1334.607043
_symmetry_space_group_name_H-M "P 2/M"
_symmetry_group_IT_number 10
_symmetry_cell_setting 'monoclinic'
loop_
_space_group_symop_operation_xyz
x,y,z
-x,y,-z
-x,-y,-z
x,-y,z
loop_
_atom_site_type_symbol
_atom_site_label
_atom_site_fract_x
_atom_site_fract_y
_atom_site_fract_z
Si Si1 0.762731 0.200265 0.433533
Si Si2 0.106014 0.713931 0.054248
Si Si3 0.200974 0.803052 0.875493
Si Si4 0.431860 0.796677 0.775739
Si Si5 0.926574 0.696055 0.378196
Si Si6 0.442788 0.286897 0.362227
Si Si7 0.351316 0.500000 0.880394
Si Si8 0.236291 0.713078 0.314932
O O1 0.658666 0.243396 0.346289
O O2 0.833565 0.315958 0.402393
O O3 0.776553 0.219041 0.569149
O O4 0.780795 0.000000 0.408225
O O5 0.106571 0.500000 0.049982
O O6 0.157087 0.769043 0.191512
O O7 0.164783 0.777707 0.980373
O O8 0.000000 0.772489 0.000000
O O9 0.110029 0.783603 0.751170
O O10 0.276096 0.655559 0.881376
O O11 0.238851 0.000000 0.879252
O O12 0.515475 0.773820 0.732366
O O13 0.421152 0.654867 0.865797
O O14 0.428847 0.000000 0.810272
O O15 0.962282 0.500000 0.368376
O O16 0.000000 0.780261 0.500000
O O17 0.500000 0.227576 0.500000
O O18 0.446973 0.500000 0.363663
O O19 0.337001 0.231974 0.323207
O O20 0.236487 0.500000 0.320785
#
# Coordination Sequence:
#
# PCOD9147309 Si02
#       8
#     4   4   4   4   4   4   2   4
#     4  11  22  35  54  89 131 165 209 264 319 383
#     4  10  23  45  68  93 128 174 227 276 323 386
#     4  12  24  42  69  94 125 170 218 274 333 388
#     4  11  22  36  62  97 133 175 211 257 326 398
#     4  11  23  39  61  89 127 169 213 267 334 398
#     4  10  19  34  59  93 135 176 213 264 332 397
#     4  12  22  42  65  91 130 166 217 273 315 400
#     4  10  22  38  63  91 127 176 219 263 327 392
#
# _framework density 22.478525999999999
#
# number of rings (size 3 to 8) (size 9 to 14) (size 15 to 20)
#    0.000    1.200    4.667    1.200    2.800    2.667 
#    0.000    0.000    0.000    1.600    0.000    1.867 
#    0.000    0.000    0.000    0.000    0.000    0.000 
#
# Total GULP energy -167249.540651 kJ/mol
# GULP energy per Si atom -5574.984688 kJ/mol
# Density = 2.242736 g / cm^3
# Si number density = 22.478526 Si / 1000 Ang^3
#
#
#
# Elastic Constant Matrix: (Units=GPa)
#
#
# Indices 1 2 3 4 5 6 
#
# 1 43.7578 14.4528 21.5337 0.0000 -6.1421 0.0000
# 2 14.4528 108.2787 19.3420 0.0000 -2.3628 0.0000
# 3 21.5337 19.3420 69.0768 0.0000 -2.4538 0.0000
# 4 0.0000 0.0000 0.0000 23.4845 0.0000 -5.3481
# 5 -6.1421 -2.3628 -2.4538 0.0000 29.3526 0.0000
# 6 0.0000 0.0000 0.0000 -5.3481 0.0000 4.5777
#
#
#
# Elastic Compliance Matrix: (Units=1/GPa)
#
#
# Indices 1 2 3 4 5 6 
#
# 1 0.028236 -0.002230 -0.007998 0.000000 0.005060 0.000000
# 2 -0.002230 0.009907 -0.002073 0.000000 0.000158 0.000000
# 3 -0.007998 -0.002073 0.017537 0.000000 -0.000374 0.000000
# 4 0.000000 0.000000 0.000000 0.058018 0.000000 0.067782
# 5 0.005060 0.000158 -0.000374 0.000000 0.035109 0.000000
# 6 0.000000 0.000000 0.000000 0.067782 0.000000 0.297642
#
#
# Mechanical properties :
#
#
# Convention : Reuss Voigt Hill
#
# Bulk Modulus (GPa) = 32.17743 36.86336 34.52040
# Shear Modulus (GPa) = 10.38616 22.53526 16.46071
#
# Velocity S-wave (km/s) = 2.15186 3.16970 2.70901
# Velocity P-wave (km/s) = 4.52988 5.46177 5.01751
#
# Compressibility (1/GPa) = 0.03107768
#
# Stress axis : x y z
#
# Youngs Moduli (GPa) = 35.41609 100.94038 57.02180
#
# Poissons Ratio (x) = 0.22507 0.45606
# Poissons Ratio (y) = 0.07897 0.11822
# Poissons Ratio (z) = 0.28326 0.20928
#
# Static dielectric constant tensor:
#      x y z
#    x 1.802720 0.000000 0.033680 
#    y 0.000000 1.872600 0.000000 
#    z 0.033680 0.000000 1.842330 
# 
# From -- ./inp_files/49986.got.cif
#   From: 2010.05.17/outbox.cif.g08.bks.cpg/sg10_25_cif.got.tgz:49986.got - 2010.06.03 11:33:40.
