data_PCOD9147399
_publ_section_title
;
Structure prediction by ZEFSAII (Michael W. Deem and Ramdas Pophale) SiO2 
 PCOD9147399
Probable space group: P 2/M
;
_chemical_formula_sum "Si O2"
_cell_formula_units_Z 32
_cell_length_a 11.950187
_cell_length_b 15.265086
_cell_length_c 17.741164
_cell_angle_alpha 90.000000
_cell_angle_beta 30.611620
_cell_angle_gamma 90.000000
_cell_volume 1648.003322
_symmetry_space_group_name_H-M "P 2/M"
_symmetry_group_IT_number 10
_symmetry_cell_setting 'monoclinic'
loop_
_space_group_symop_operation_xyz
x,y,z
-x,y,-z
-x,-y,-z
x,-y,z
loop_
_atom_site_type_symbol
_atom_site_label
_atom_site_fract_x
_atom_site_fract_y
_atom_site_fract_z
Si Si1 0.064251 0.905173 0.830497
Si Si2 0.585846 0.099503 0.864044
Si Si3 0.241390 0.675862 0.134314
Si Si4 0.476366 0.104439 0.367564
Si Si5 0.341648 0.402162 0.918049
Si Si6 0.673985 0.205184 0.110596
Si Si7 0.994553 0.147779 0.299192
Si Si8 0.860312 0.598538 0.647192
O O1 0.322501 0.888881 0.690113
O O2 0.002197 0.908487 0.778756
O O3 0.015840 0.000000 0.893355
O O4 0.914453 0.834655 0.958186
O O5 0.471110 0.171675 0.877605
O O6 0.843984 0.116640 0.727604
O O7 0.545383 0.000000 0.859216
O O8 0.500000 0.103460 0.000000
O O9 0.143194 0.635945 0.267358
O O10 0.094691 0.761546 0.210503
O O11 0.500000 0.695040 0.000000
O O12 0.244646 0.615479 0.058335
O O13 0.559155 0.157848 0.247151
O O14 0.252111 0.145749 0.527911
O O15 0.442638 0.000000 0.372075
O O16 0.271687 0.500000 0.932187
O O17 0.303180 0.310220 0.897417
O O18 0.606066 0.404631 0.771178
O O19 0.949140 0.500000 0.602665
O O20 0.000000 0.644268 0.500000
#
# Coordination Sequence:
#
# PCOD9147399 Si02
#       8
#     4   4   4   4   4   4   4   4
#     4  11  22  42  67  86 115 161 211 252 290 352
#     4  11  20  33  57  87 123 160 196 238 292 364
#     4  10  19  35  55  86 121 162 204 241 295 359
#     4  11  26  42  60  90 124 159 203 255 302 347
#     4  10  20  36  58  85 117 154 201 252 299 358
#     4  12  23  40  62  92 120 158 203 248 303 365
#     4  12  22  37  60  91 125 161 198 243 298 361
#     4   9  18  31  53  84 119 158 197 241 299 363
#
# _framework density 19.417437
#
# number of rings (size 3 to 8) (size 9 to 14) (size 15 to 20)
#    0.000    1.250    2.500    5.250    1.750    4.000 
#    0.000    1.250    0.000    1.500    0.000    0.875 
#    0.000    0.000    0.000    0.000    0.000    0.000 
#
# Total GULP energy -178524.087368 kJ/mol
# GULP energy per Si atom -5578.877730 kJ/mol
# Density = 1.937324 g / cm^3
# Si number density = 19.417437 Si / 1000 Ang^3
#
#
#
# Elastic Constant Matrix: (Units=GPa)
#
#
# Indices 1 2 3 4 5 6 
#
# 1 43.8878 18.4120 21.9128 0.0000 -6.2014 0.0000
# 2 18.4120 116.8683 44.2115 0.0000 -7.9736 0.0000
# 3 21.9128 44.2115 113.8669 0.0000 8.8791 0.0000
# 4 0.0000 0.0000 0.0000 9.7898 0.0000 -39.9985
# 5 -6.2014 -7.9736 8.8791 0.0000 31.8494 0.0000
# 6 0.0000 0.0000 0.0000 -39.9985 0.0000 -157.3040
#
#
#
# Elastic Compliance Matrix: (Units=1/GPa)
#
#
# Indices 1 2 3 4 5 6 
#
# 1 0.026919 -0.001974 -0.004890 0.000000 0.006110 0.000000
# 2 -0.001974 0.010614 -0.004006 0.000000 0.003390 0.000000
# 3 -0.004890 -0.004006 0.011685 0.000000 -0.005213 0.000000
# 4 0.000000 0.000000 0.000000 0.050099 0.000000 -0.012739
# 5 0.006110 0.003390 -0.005213 0.000000 0.034889 0.000000
# 6 0.000000 0.000000 0.000000 -0.012739 0.000000 -0.003118
#
#
# Mechanical properties :
#
#
# Convention : Reuss Voigt Hill
#
# Bulk Modulus (GPa) = 36.39275 49.29949 42.84612
# Shear Modulus (GPa) = 30.86656 -10.46049 10.20304
#
# Velocity S-wave (km/s) = 3.99134 -2.32354 2.29477
# Velocity P-wave (km/s) = 6.32646 4.27153 5.39769
#
# Compressibility (1/GPa) = 0.02747800
#
# Stress axis : x y z
#
# Youngs Moduli (GPa) = 37.14901 94.21296 85.57942
#
# Poissons Ratio (x) = 0.18597 0.41851
# Poissons Ratio (y) = 0.07333 0.34280
# Poissons Ratio (z) = 0.18167 0.37739
#
# Static dielectric constant tensor:
#      x y z
#    x 1.712750 0.000000 0.020490 
#    y 0.000000 1.744130 0.000000 
#    z 0.020490 0.000000 1.694660 
# 
# From -- ./inp_files/76973.got.cif
#   From: 2010.05.17/outbox.cif.g08.bks.cpg/sg10_39_cif.got.tgz:76973.got - 2010.06.03 11:33:40.
