data_PCOD9147405
_publ_section_title
;
Structure prediction by ZEFSAII (Michael W. Deem and Ramdas Pophale) SiO2 
 PCOD9147405
Probable space group: P 2/M
;
_chemical_formula_sum "Si O2"
_cell_formula_units_Z 32
_cell_length_a 15.152156
_cell_length_b 25.479230
_cell_length_c 8.714015
_cell_angle_alpha 90.000000
_cell_angle_beta 29.609526
_cell_angle_gamma 90.000000
_cell_volume 1662.194935
_symmetry_space_group_name_H-M "P 2/M"
_symmetry_group_IT_number 10
_symmetry_cell_setting 'monoclinic'
loop_
_space_group_symop_operation_xyz
x,y,z
-x,y,-z
-x,-y,-z
x,-y,z
loop_
_atom_site_type_symbol
_atom_site_label
_atom_site_fract_x
_atom_site_fract_y
_atom_site_fract_z
Si Si1 0.537015 0.942858 0.126957
Si Si2 0.189187 0.246299 0.121626
Si Si3 0.663232 0.833309 0.872338
Si Si4 0.163972 0.942858 0.873042
Si Si5 0.534332 0.440110 0.127839
Si Si6 0.035570 0.833309 0.127661
Si Si7 0.162171 0.559890 0.872162
Si Si8 0.813815 0.633380 0.872371
O O1 0.349429 0.938880 0.500000
O O2 0.617463 0.000000 0.044911
O O3 0.500000 0.943948 0.000000
O O4 0.643691 0.889250 0.987736
O O5 0.323443 0.213578 0.025977
O O6 0.150580 0.213578 0.025977
O O7 0.241730 0.306353 0.016540
O O8 0.000000 0.246673 0.500000
O O9 0.845275 0.834530 0.500000
O O10 0.500000 0.827245 0.000000
O O11 0.162374 0.000000 0.955089
O O12 0.131427 0.889250 0.012263
O O13 0.000000 0.943948 0.000000
O O14 0.603437 0.500000 0.042840
O O15 0.347879 0.436753 0.500001
O O16 0.500000 0.431810 0.000000
O O17 0.669539 0.398181 0.991473
O O18 0.000000 0.827244 0.000000
O O19 0.146276 0.500000 0.957163
O O20 0.161011 0.601820 0.008528
O O21 0.000000 0.568190 0.000000
O O22 0.000000 0.633539 0.500000
#
# Coordination Sequence:
#
# PCOD9147405 Si02
#       8
#     4   4   4   4   4   4   4   4
#     4   9  16  27  46  74 104 132 166 211 265 323
#     4   9  22  40  55  76 108 145 184 225 266 317
#     4  10  19  35  56  76 102 137 177 220 268 319
#     4   9  16  27  46  74 104 132 166 211 265 323
#     4  10  21  38  60  88 120 151 186 228 275 329
#     4  10  19  35  56  76 102 137 177 220 268 319
#     4  10  21  38  60  88 120 151 186 228 275 329
#     4  11  22  38  59  83 115 152 190 233 280 327
#
# _framework density 19.251653000000001
#
# number of rings (size 3 to 8) (size 9 to 14) (size 15 to 20)
#    0.000    2.250    0.000    4.500    0.000    5.500 
#    0.000   10.625    0.000    3.750    0.000    0.000 
#    0.000    0.000    0.000    0.000    0.000    0.000 
#
# Total GULP energy -178608.236783 kJ/mol
# GULP energy per Si atom -5581.507399 kJ/mol
# Density = 1.920784 g / cm^3
# Si number density = 19.251653 Si / 1000 Ang^3
#
#
#
# Elastic Constant Matrix: (Units=GPa)
#
#
# Indices 1 2 3 4 5 6 
#
# 1 101.9418 102.5069 30.9620 0.0000 -0.7668 0.0000
# 2 102.5069 225.5733 55.6879 0.0000 -1.5740 0.0000
# 3 30.9620 55.6879 63.2070 0.0000 -0.5358 0.0000
# 4 0.0000 0.0000 0.0000 28.7773 0.0000 3.9547
# 5 -0.7668 -1.5740 -0.5358 0.0000 24.0974 0.0000
# 6 0.0000 0.0000 0.0000 3.9547 0.0000 -88.8187
#
#
#
# Elastic Compliance Matrix: (Units=1/GPa)
#
#
# Indices 1 2 3 4 5 6 
#
# 1 0.018277 -0.007790 -0.002090 0.000000 0.000026 0.000000
# 2 -0.007790 0.008987 -0.004100 0.000000 0.000248 0.000000
# 3 -0.002090 -0.004100 0.020458 0.000000 0.000121 0.000000
# 4 0.000000 0.000000 0.000000 0.034538 0.000000 0.001538
# 5 0.000026 0.000248 0.000121 0.000000 0.041518 0.000000
# 6 0.000000 0.000000 0.000000 0.001538 0.000000 -0.011190
#
#
# Mechanical properties :
#
#
# Convention : Reuss Voigt Hill
#
# Bulk Modulus (GPa) = 50.59921 85.44840 68.02380
# Shear Modulus (GPa) = 33.98249 6.24888 20.11569
#
# Velocity S-wave (km/s) = 4.20595 1.80359 3.23597
# Velocity P-wave (km/s) = 7.06589 6.98703 7.02657
#
# Compressibility (1/GPa) = 0.01976316
#
# Stress axis : x y z
#
# Youngs Moduli (GPa) = 54.71293 111.27395 48.88049
#
# Poissons Ratio (x) = 0.86677 0.10216
# Poissons Ratio (y) = 0.42619 0.20041
# Poissons Ratio (z) = 0.11435 0.45622
#
# Static dielectric constant tensor:
#      x y z
#    x 1.803970 0.000000 -0.005180 
#    y 0.000000 1.690240 0.000000 
#    z -0.005180 0.000000 1.649860 
# 
# From -- ./inp_files/30550.got.cif
#   From: 2010.05.17/outbox.cif.g08.bks.cpg/sg10_16_cif.got.tgz:30550.got - 2010.06.03 11:33:40.
