data_PCOD9147651
_publ_section_title
;
Structure prediction by ZEFSAII (Michael W. Deem and Ramdas Pophale) SiO2 
 PCOD9147651
Probable space group: P 2/M
;
_chemical_formula_sum "Si O2"
_cell_formula_units_Z 32
_cell_length_a 20.663725
_cell_length_b 8.583070
_cell_length_c 26.743842
_cell_angle_alpha 90.000000
_cell_angle_beta 159.363889
_cell_angle_gamma 90.000000
_cell_volume 1671.667225
_symmetry_space_group_name_H-M "P 2/M"
_symmetry_group_IT_number 10
_symmetry_cell_setting 'monoclinic'
loop_
_space_group_symop_operation_xyz
x,y,z
-x,y,-z
-x,-y,-z
x,-y,z
loop_
_atom_site_type_symbol
_atom_site_label
_atom_site_fract_x
_atom_site_fract_y
_atom_site_fract_z
Si Si1 0.687114 0.188567 0.661428
Si Si2 0.872865 0.811759 0.292761
Si Si3 0.041161 0.315330 0.860132
Si Si4 0.256205 0.188125 0.621451
Si Si5 0.178707 0.185798 0.859166
Si Si6 0.587726 0.684454 0.163403
Si Si7 0.626122 0.188255 0.833054
Si Si8 0.786549 0.810176 0.843624
O O1 0.500000 0.241191 0.500000
O O2 0.701986 0.240411 0.729816
O O3 0.863904 0.245410 0.759105
O O4 0.689674 0.000000 0.663120
O O5 0.875860 0.768857 0.236599
O O6 0.702359 0.735608 0.197858
O O7 0.061096 0.767645 0.456867
O O8 0.854005 0.000000 0.282101
O O9 0.037170 0.500000 0.860725
O O10 0.057626 0.263326 0.814639
O O11 0.221537 0.252644 0.019032
O O12 0.298405 0.262327 0.705541
O O13 0.424019 0.231329 0.705992
O O14 0.257297 0.000000 0.628084
O O15 0.162018 0.000000 0.851712
O O16 0.390033 0.233436 0.020726
O O17 0.560591 0.500000 0.144730
O O18 0.678436 0.240700 0.814939
O O19 0.637571 0.000000 0.842416
O O20 0.785792 0.000000 0.843478
O O21 0.000000 0.761697 0.000000
#
# Coordination Sequence:
#
# PCOD9147651 Si02
#       8
#     4   4   4   4   4   4   4   4
#     4  10  21  38  62  90 119 154 198 243 289 348
#     4  10  23  41  61  88 119 154 203 254 302 354
#     4  12  24  38  59  87 122 157 195 242 299 361
#     4  10  21  38  62  89 118 156 201 250 299 352
#     4  11  23  41  65  89 117 156 205 254 297 351
#     4  12  24  38  60  90 123 160 200 241 299 365
#     4  10  19  35  61  86 114 153 199 245 293 346
#     4   9  16  30  57  89 115 144 191 243 287 333
#
# _framework density 19.142567
#
# number of rings (size 3 to 8) (size 9 to 14) (size 15 to 20)
#    0.000    1.500    2.500    3.375    0.000    5.750 
#    0.000    5.000    0.000    1.500    0.000    0.000 
#    0.000    0.000    0.000    0.000    0.000    0.000 
#
# Total GULP energy -178871.208301 kJ/mol
# GULP energy per Si atom -5589.725259 kJ/mol
# Density = 1.909900 g / cm^3
# Si number density = 19.142567 Si / 1000 Ang^3
#
#
#
# Elastic Constant Matrix: (Units=GPa)
#
#
# Indices 1 2 3 4 5 6 
#
# 1 96.9867 6.9924 -9.9627 0.0000 -12.5099 0.0000
# 2 6.9924 9.1143 2.6115 0.0000 -1.7177 0.0000
# 3 -9.9627 2.6115 38.2239 0.0000 -14.5458 0.0000
# 4 0.0000 0.0000 0.0000 -18.7089 0.0000 -2.6697
# 5 -12.5099 -1.7177 -14.5458 0.0000 34.9335 0.0000
# 6 0.0000 0.0000 0.0000 -2.6697 0.0000 -19.7591
#
#
#
# Elastic Compliance Matrix: (Units=1/GPa)
#
#
# Indices 1 2 3 4 5 6 
#
# 1 0.012591 -0.010267 0.006544 0.000000 0.006729 0.000000
# 2 -0.010267 0.120504 -0.011946 0.000000 -0.002725 0.000000
# 3 0.006544 -0.011946 0.034878 0.000000 0.016279 0.000000
# 4 0.000000 0.000000 0.000000 -0.054501 0.000000 0.007364
# 5 0.006729 -0.002725 0.016279 0.000000 0.037680 0.000000
# 6 0.000000 0.000000 0.000000 0.007364 0.000000 -0.051604
#
#
# Mechanical properties :
#
#
# Convention : Reuss Voigt Hill
#
# Bulk Modulus (GPa) = 7.31874 15.95636 11.63755
# Shear Modulus (GPa) = 28.33994 8.93868 18.63931
#
# Velocity S-wave (km/s) = 3.85186 2.16325 3.12382
# Velocity P-wave (km/s) = 4.85942 3.82010 4.37077
#
# Compressibility (1/GPa) = 0.13663557
#
# Stress axis : x y z
#
# Youngs Moduli (GPa) = 79.42196 8.29849 28.67127
#
# Poissons Ratio (x) = 0.08520 -0.18762
# Poissons Ratio (y) = 0.81539 0.34250
# Poissons Ratio (z) = -0.51972 0.09913
#
# Static dielectric constant tensor:
#      x y z
#    x 1.658440 0.000000 -0.010480 
#    y 0.000000 1.650650 0.000000 
#    z -0.010480 0.000000 1.636580 
# 
# From -- ./inp_files/93789.got.cif
#   From: 2010.05.17/outbox.cif.g08.bks.cpg/sg10_47_cif.got.tgz:93789.got - 2010.06.03 11:33:40.
