data_PCOD9147889
_publ_section_title
;
Structure prediction by ZEFSAII (Michael W. Deem and Ramdas Pophale) SiO2 
 PCOD9147889
Probable space group: P 2/M
;
_chemical_formula_sum "Si O2"
_cell_formula_units_Z 24
_cell_length_a 8.772640
_cell_length_b 15.339180
_cell_length_c 14.974567
_cell_angle_alpha 90.000000
_cell_angle_beta 35.729472
_cell_angle_gamma 90.000000
_cell_volume 1176.708727
_symmetry_space_group_name_H-M "P 2/M"
_symmetry_group_IT_number 10
_symmetry_cell_setting 'monoclinic'
loop_
_space_group_symop_operation_xyz
x,y,z
-x,y,-z
-x,-y,-z
x,-y,z
loop_
_atom_site_type_symbol
_atom_site_label
_atom_site_fract_x
_atom_site_fract_y
_atom_site_fract_z
Si Si1 0.862832 0.500000 0.326592
Si Si2 0.412147 0.234335 0.664059
Si Si3 0.313580 0.102840 0.347612
Si Si4 0.281916 0.645228 0.879128
Si Si5 0.452517 0.500000 0.353922
Si Si6 0.901527 0.304447 0.339028
Si Si7 0.558126 0.230974 0.870449
O O1 0.655751 0.500000 0.342122
O O2 0.802640 0.500000 0.463016
O O3 0.963734 0.400370 0.270380
O O4 0.554931 0.147137 0.627721
O O5 0.273907 0.274300 0.815007
O O6 0.640421 0.301679 0.523954
O O7 0.195425 0.236327 0.690524
O O8 0.433465 0.152256 0.204376
O O9 0.000000 0.117156 0.500000
O O10 0.361045 0.000000 0.321676
O O11 0.495739 0.580166 0.737142
O O12 0.366491 0.690413 0.930701
O O13 0.000000 0.601853 0.000000
O O14 0.151388 0.270464 0.270723
O O15 0.500000 0.205563 0.000000
#
# Coordination Sequence:
#
# PCOD9147889 Si02
#       7
#     2   4   4   4   2   4   4
#     4  11  20  35  63  90 126 159 216 266 295 351
#     4  10  19  36  63  86 121 155 204 248 298 371
#     4  10  21  41  67  94 122 156 202 256 312 374
#     4  11  22  37  58  84 121 165 211 251 308 364
#     4  11  19  37  57  91 115 167 211 264 307 350
#     4  11  20  38  61  92 124 165 208 250 304 356
#     4  11  25  41  62  90 126 165 203 258 313 371
#
# _framework density 20.395871
#
# number of rings (size 3 to 8) (size 9 to 14) (size 15 to 20)
#    0.000    1.333    5.000    2.250    0.000    1.000 
#    0.000    4.167    0.000   17.000    0.000    0.000 
#    0.000    0.000    0.000    0.000    0.000    0.000 
#
# Total GULP energy -133601.197747 kJ/mol
# GULP energy per Si atom -5566.716573 kJ/mol
# Density = 2.034945 g / cm^3
# Si number density = 20.395871 Si / 1000 Ang^3
#
#
#
# Elastic Constant Matrix: (Units=GPa)
#
#
# Indices 1 2 3 4 5 6 
#
# 1 80.4956 51.8834 16.5144 0.0000 2.8913 0.0000
# 2 51.8834 123.8385 14.2785 0.0000 10.5934 0.0000
# 3 16.5144 14.2785 55.3937 0.0000 13.7193 0.0000
# 4 0.0000 0.0000 0.0000 17.2913 0.0000 3.0908
# 5 2.8913 10.5934 13.7193 0.0000 32.4786 0.0000
# 6 0.0000 0.0000 0.0000 3.0908 0.0000 21.5515
#
#
#
# Elastic Compliance Matrix: (Units=1/GPa)
#
#
# Indices 1 2 3 4 5 6 
#
# 1 0.017813 -0.007206 -0.004068 0.000000 0.002483 0.000000
# 2 -0.007206 0.011358 -0.000023 0.000000 -0.003053 0.000000
# 3 -0.004068 -0.000023 0.021421 0.000000 -0.008679 0.000000
# 4 0.000000 0.000000 0.000000 0.059354 0.000000 -0.008512
# 5 0.002483 -0.003053 -0.008679 0.000000 0.035230 0.000000
# 6 0.000000 0.000000 0.000000 -0.008512 0.000000 0.047621
#
#
# Mechanical properties :
#
#
# Convention : Reuss Voigt Hill
#
# Bulk Modulus (GPa) = 35.71804 47.23118 41.47461
# Shear Modulus (GPa) = 22.24937 26.06772 24.15854
#
# Velocity S-wave (km/s) = 3.30642 3.57891 3.44536
# Velocity P-wave (km/s) = 5.66807 6.34710 6.01717
#
# Compressibility (1/GPa) = 0.02799706
#
# Stress axis : x y z
#
# Youngs Moduli (GPa) = 56.13757 88.04290 46.68367
#
# Poissons Ratio (x) = 0.63448 0.18991
# Poissons Ratio (y) = 0.40455 0.00108
# Poissons Ratio (z) = 0.22837 0.00203
#
# Static dielectric constant tensor:
#      x y z
#    x 1.752260 0.000000 -0.000890 
#    y 0.000000 1.720170 0.000000 
#    z -0.000890 0.000000 1.826480 
# 
# From -- ./inp_files/61712.got.cif
#   From: 2010.05.17/outbox.cif.g08.bks.cpg/sg10_31_cif.got.tgz:61712.got - 2010.06.03 11:33:40.
