data_PCOD9147728
_publ_section_title
;
Structure prediction by ZEFSAII (Michael W. Deem and Ramdas Pophale) SiO2 
 PCOD9147728
Probable space group: P 2/M
;
_chemical_formula_sum "Si O2"
_cell_formula_units_Z 32
_cell_length_a 17.195443
_cell_length_b 14.088491
_cell_length_c 13.846792
_cell_angle_alpha 90.000000
_cell_angle_beta 35.990686
_cell_angle_gamma 90.000000
_cell_volume 1971.280899
_symmetry_space_group_name_H-M "P 2/M"
_symmetry_group_IT_number 10
_symmetry_cell_setting 'monoclinic'
loop_
_space_group_symop_operation_xyz
x,y,z
-x,y,-z
-x,-y,-z
x,-y,z
loop_
_atom_site_type_symbol
_atom_site_label
_atom_site_fract_x
_atom_site_fract_y
_atom_site_fract_z
Si Si1 0.533918 0.385679 0.265154
Si Si2 0.599337 0.614821 0.982059
Si Si3 0.097931 0.612573 0.311889
Si Si4 0.986681 0.710075 0.799443
Si Si5 0.090866 0.110735 0.003842
Si Si6 0.212192 0.387301 0.858781
Si Si7 0.735045 0.289448 0.396978
Si Si8 0.349103 0.889320 0.623281
O O1 0.524025 0.500000 0.275580
O O2 0.656075 0.361441 0.212554
O O3 0.397159 0.342542 0.438319
O O4 0.564574 0.353469 0.125312
O O5 0.587723 0.500000 0.994841
O O6 0.752248 0.635691 0.808089
O O7 0.500000 0.651071 0.000000
O O8 0.094673 0.500000 0.286874
O O9 0.059589 0.675982 0.258735
O O10 0.000000 0.625143 0.500000
O O11 0.143996 0.700361 0.651578
O O12 0.946309 0.815687 0.875231
O O13 0.912569 0.643486 0.952078
O O14 0.243032 0.122676 0.816628
O O15 0.069435 0.000000 0.050319
O O16 0.000000 0.130952 0.000000
O O17 0.211881 0.500000 0.843411
O O18 0.217420 0.333587 0.752452
O O19 0.699284 0.180443 0.411595
O O20 0.500000 0.865602 0.500000
O O21 0.344413 0.000000 0.600318
#
# Coordination Sequence:
#
# PCOD9147728 Si02
#       8
#     4   4   4   4   4   4   4   4
#     4  10  21  35  50  72 104 144 181 219 264 314
#     4   9  18  35  56  74  96 133 183 229 272 318
#     4  10  22  38  56  78 107 139 175 230 283 321
#     4  12  22  35  53  80 107 140 184 222 267 323
#     4  10  19  36  57  79 110 145 180 219 266 320
#     4  11  21  35  49  69 108 150 180 212 258 315
#     4  12  23  32  49  78 110 145 181 216 258 319
#     4  10  20  34  53  77 107 142 182 225 263 306
#
# _framework density 16.2331
#
# number of rings (size 3 to 8) (size 9 to 14) (size 15 to 20)
#    0.000    1.500    3.750    2.250    1.750    3.500 
#    0.000    0.000    0.000    0.375    0.000    0.000 
#    0.000    1.000    0.000    0.000    0.000    0.000 
#
# Total GULP energy -178641.400324 kJ/mol
# GULP energy per Si atom -5582.543760 kJ/mol
# Density = 1.619615 g / cm^3
# Si number density = 16.233100 Si / 1000 Ang^3
#
#
#
# Elastic Constant Matrix: (Units=GPa)
#
#
# Indices 1 2 3 4 5 6 
#
# 1 99.2565 37.3951 29.5789 0.0000 -10.1766 0.0000
# 2 37.3951 58.5462 21.4660 0.0000 -1.5058 0.0000
# 3 29.5789 21.4660 61.8089 0.0000 -8.8868 0.0000
# 4 0.0000 0.0000 0.0000 16.3604 0.0000 -0.3443
# 5 -10.1766 -1.5058 -8.8868 0.0000 30.1961 0.0000
# 6 0.0000 0.0000 0.0000 -0.3443 0.0000 18.6317
#
#
#
# Elastic Compliance Matrix: (Units=1/GPa)
#
#
# Indices 1 2 3 4 5 6 
#
# 1 0.014468 -0.007785 -0.003733 0.000000 0.003389 0.000000
# 2 -0.007785 0.023795 -0.004955 0.000000 -0.002895 0.000000
# 3 -0.003733 -0.004955 0.020330 0.000000 0.004478 0.000000
# 4 0.000000 0.000000 0.000000 0.061147 0.000000 0.001130
# 5 0.003389 -0.002895 0.004478 0.000000 0.035433 0.000000
# 6 0.000000 0.000000 0.000000 0.001130 0.000000 0.053693
#
#
# Mechanical properties :
#
#
# Convention : Reuss Voigt Hill
#
# Bulk Modulus (GPa) = 38.98950 44.05464 41.52207
# Shear Modulus (GPa) = 19.97126 21.78241 20.87683
#
# Velocity S-wave (km/s) = 3.51134 3.66710 3.59007
# Velocity P-wave (km/s) = 6.36475 6.71773 6.54362
#
# Compressibility (1/GPa) = 0.02564793
#
# Stress axis : x y z
#
# Youngs Moduli (GPa) = 69.11882 42.02494 49.18910
#
# Poissons Ratio (x) = 0.32718 0.18360
# Poissons Ratio (y) = 0.53811 0.24371
# Poissons Ratio (z) = 0.25799 0.20822
#
# Static dielectric constant tensor:
#      x y z
#    x 1.538890 0.000000 -0.022470 
#    y 0.000000 1.547690 0.000000 
#    z -0.022470 0.000000 1.541270 
# 
# From -- ./inp_files/35118.got.cif
#   From: 2010.05.17/outbox.cif.g08.bks.cpg/sg10_18_cif.got.tgz:35118.got - 2010.06.03 11:33:40.
