data_PCOD9147051
_publ_section_title
;
Structure prediction by ZEFSAII (Michael W. Deem and Ramdas Pophale) SiO2 
 PCOD9147051
Probable space group: P 2/M
;
_chemical_formula_sum "Si O2"
_cell_formula_units_Z 28
_cell_length_a 15.791477
_cell_length_b 19.871386
_cell_length_c 8.680367
_cell_angle_alpha 90.000000
_cell_angle_beta 148.939704
_cell_angle_gamma 90.000000
_cell_volume 1405.361542
_symmetry_space_group_name_H-M "P 2/M"
_symmetry_group_IT_number 10
_symmetry_cell_setting 'monoclinic'
loop_
_space_group_symop_operation_xyz
x,y,z
-x,y,-z
-x,-y,-z
x,-y,z
loop_
_atom_site_type_symbol
_atom_site_label
_atom_site_fract_x
_atom_site_fract_y
_atom_site_fract_z
Si Si1 0.666438 0.709738 0.828967
Si Si2 0.998864 0.922595 0.810255
Si Si3 0.659562 0.080548 0.350728
Si Si4 0.958957 0.500000 0.188048
Si Si5 0.716912 0.500000 0.105428
Si Si6 0.491561 0.635519 0.169085
Si Si7 0.142348 0.361175 0.115701
Si Si8 0.664911 0.140005 0.692799
O O1 0.500000 0.676219 0.500000
O O2 0.626033 0.694287 0.942678
O O3 0.821518 0.675662 0.990541
O O4 0.665616 0.785296 0.764248
O O5 0.815892 0.898998 0.490657
O O6 0.011639 0.000000 0.787889
O O7 0.157000 0.887972 0.988402
O O8 0.000000 0.917521 0.000000
O O9 0.652226 0.127699 0.489423
O O10 0.680410 0.000000 0.428127
O O11 0.500000 0.085311 0.000000
O O12 0.828267 0.500000 0.125365
O O13 0.145293 0.500000 0.544006
O O14 0.921368 0.434339 0.030287
O O15 0.600932 0.565682 0.932388
O O16 0.681070 0.637384 0.523443
O O17 0.500000 0.641251 0.000000
O O18 0.000000 0.329093 0.000000
O O19 0.500000 0.105565 0.500000
#
# Coordination Sequence:
#
# PCOD9147051 Si02
#       8
#     4   4   4   2   2   4   4   4
#     4   9  21  39  57  80 115 157 203 243 292 352
#     4   8  15  29  53  85 115 147 189 233 283 344
#     4   9  18  34  58  88 121 154 192 246 304 350
#     4  11  22  37  60  94 124 148 190 243 303 365
#     4  11  22  37  64  94 118 150 190 251 313 363
#     4  11  22  40  63  87 116 152 201 250 306 364
#     4  11  22  38  60  87 119 157 195 240 296 362
#     4  10  19  34  56  82 114 155 199 241 287 354
#
# _framework density 19.923698000000002
#
# number of rings (size 3 to 8) (size 9 to 14) (size 15 to 20)
#    0.000    2.143    1.429    3.000    0.000    3.429 
#    0.000    7.143    0.000   18.000    0.000    0.000 
#    0.000    0.000    0.000    0.000    0.000    0.429 
#
# Total GULP energy -155891.361602 kJ/mol
# GULP energy per Si atom -5567.548629 kJ/mol
# Density = 1.987835 g / cm^3
# Si number density = 19.923698 Si / 1000 Ang^3
#
#
#
# Elastic Constant Matrix: (Units=GPa)
#
#
# Indices 1 2 3 4 5 6 
#
# 1 117.9690 44.2674 47.8330 0.0000 36.5420 0.0000
# 2 44.2674 62.1601 30.0073 0.0000 14.9108 0.0000
# 3 47.8330 30.0073 118.8696 0.0000 35.9383 0.0000
# 4 0.0000 0.0000 0.0000 1306.4617 0.0000 712.5916
# 5 36.5420 14.9108 35.9383 0.0000 41.5351 0.0000
# 6 0.0000 0.0000 0.0000 712.5916 0.0000 398.3346
#
#
#
# Elastic Compliance Matrix: (Units=1/GPa)
#
#
# Indices 1 2 3 4 5 6 
#
# 1 0.014668 -0.007678 -0.001214 0.000000 -0.009099 0.000000
# 2 -0.007678 0.022719 -0.003009 0.000000 0.001202 0.000000
# 3 -0.001214 -0.003009 0.012204 0.000000 -0.008411 0.000000
# 4 0.000000 0.000000 0.000000 0.031559 0.000000 -0.056456
# 5 -0.009099 0.001202 -0.008411 0.000000 0.038927 0.000000
# 6 0.000000 0.000000 0.000000 -0.056456 0.000000 0.103507
#
#
# Mechanical properties :
#
#
# Convention : Reuss Voigt Hill
#
# Bulk Modulus (GPa) = 38.77422 60.35713 49.56567
# Shear Modulus (GPa) = 19.53267 361.05900 190.29584
#
# Velocity S-wave (km/s) = 3.13449 13.47643 9.78364
# Velocity P-wave (km/s) = 5.70996 16.50795 12.35144
#
# Compressibility (1/GPa) = 0.02579033
#
# Stress axis : x y z
#
# Youngs Moduli (GPa) = 68.17440 44.01519 81.94335
#
# Poissons Ratio (x) = 0.33793 0.09944
# Poissons Ratio (y) = 0.52342 0.24659
# Poissons Ratio (z) = 0.08273 0.13246
#
# Static dielectric constant tensor:
#      x y z
#    x 1.761780 0.000000 -0.000270 
#    y 0.000000 1.722140 0.000000 
#    z -0.000270 0.000000 1.751890 
# 
# From -- ./inp_files/30528.got.cif
#   From: 2010.05.17/outbox.cif.g08.bks.cpg/sg10_16_cif.got.tgz:30528.got - 2010.06.03 11:33:40.
