data_PCOD9147370
_publ_section_title
;
Structure prediction by ZEFSAII (Michael W. Deem and Ramdas Pophale) SiO2 
 PCOD9147370
Probable space group: P 2/M
;
_chemical_formula_sum "Si O2"
_cell_formula_units_Z 28
_cell_length_a 12.776376
_cell_length_b 8.542308
_cell_length_c 15.425615
_cell_angle_alpha 90.000000
_cell_angle_beta 58.202927
_cell_angle_gamma 90.000000
_cell_volume 1430.880117
_symmetry_space_group_name_H-M "P 2/M"
_symmetry_group_IT_number 10
_symmetry_cell_setting 'monoclinic'
loop_
_space_group_symop_operation_xyz
x,y,z
-x,y,-z
-x,-y,-z
x,-y,z
loop_
_atom_site_type_symbol
_atom_site_label
_atom_site_fract_x
_atom_site_fract_y
_atom_site_fract_z
Si Si1 0.385696 0.691211 0.489997
Si Si2 0.117892 0.689696 0.677036
Si Si3 0.344819 0.313762 0.313005
Si Si4 0.869820 0.817855 0.700726
Si Si5 0.790976 0.177807 0.926282
Si Si6 0.018819 0.679323 0.898130
Si Si7 0.482875 0.183205 0.910774
O O1 0.500000 0.743882 0.500000
O O2 0.389348 0.500000 0.488868
O O3 0.251518 0.737090 0.584789
O O4 0.387704 0.743504 0.388925
O O5 0.112196 0.500000 0.681087
O O6 0.099874 0.746941 0.784414
O O7 0.001840 0.745848 0.669934
O O8 0.338655 0.500000 0.319148
O O9 0.210082 0.255011 0.341568
O O10 0.442926 0.263843 0.197539
O O11 0.784704 0.804474 0.824909
O O12 0.888736 0.000000 0.674689
O O13 0.883245 0.309687 0.917157
O O14 0.840935 0.000000 0.917429
O O15 0.664277 0.187993 0.032871
O O16 0.060014 0.500000 0.894134
O O17 0.000000 0.756634 0.000000
O O18 0.521475 0.000000 0.896315
O O19 0.500000 0.250708 0.000000
#
# Coordination Sequence:
#
# PCOD9147370 Si02
#       7
#     4   4   4   4   4   4   4
#     4   9  20  39  59  79 109 150 190 229 279 335
#     4   9  18  35  58  80 107 145 184 227 276 330
#     4  11  22  34  55  86 112 143 191 238 274 323
#     4  10  19  35  56  80 112 145 178 222 282 340
#     4   9  18  32  51  73 103 145 179 209 260 331
#     4   9  18  31  50  79 109 136 173 226 277 316
#     4  10  19  35  54  76 111 151 179 210 272 338
#
# _framework density 19.568376000000001
#
# number of rings (size 3 to 8) (size 9 to 14) (size 15 to 20)
#    0.000    2.429    1.429    0.857    0.000    3.429 
#    0.000    7.143    0.000    3.857    0.000    0.000 
#    0.000    0.000    0.000    0.000    0.000    0.000 
#
# Total GULP energy -155960.586183 kJ/mol
# GULP energy per Si atom -5570.020935 kJ/mol
# Density = 1.952384 g / cm^3
# Si number density = 19.568376 Si / 1000 Ang^3
#
#
#
# Elastic Constant Matrix: (Units=GPa)
#
#
# Indices 1 2 3 4 5 6 
#
# 1 112.7037 21.4742 86.2888 0.0000 5.4483 0.0000
# 2 21.4742 27.1361 24.2801 0.0000 2.6713 0.0000
# 3 86.2888 24.2801 137.8489 0.0000 5.6742 0.0000
# 4 0.0000 0.0000 0.0000 8.0743 0.0000 -14.4901
# 5 5.4483 2.6713 5.6742 0.0000 34.4324 0.0000
# 6 0.0000 0.0000 0.0000 -14.4901 0.0000 -25.7006
#
#
#
# Elastic Compliance Matrix: (Units=1/GPa)
#
#
# Indices 1 2 3 4 5 6 
#
# 1 0.017573 -0.004770 -0.010129 0.000000 -0.000741 0.000000
# 2 -0.004770 0.045197 -0.004895 0.000000 -0.001945 0.000000
# 3 -0.010129 -0.004895 0.014474 0.000000 -0.000403 0.000000
# 4 0.000000 0.000000 0.000000 0.061562 0.000000 -0.034709
# 5 -0.000741 -0.001945 -0.000403 0.000000 0.029377 0.000000
# 6 0.000000 0.000000 0.000000 -0.034709 0.000000 -0.019341
#
#
# Mechanical properties :
#
#
# Convention : Reuss Voigt Hill
#
# Bulk Modulus (GPa) = 26.55674 60.19721 43.37697
# Shear Modulus (GPa) = 24.87787 13.07093 18.97440
#
# Velocity S-wave (km/s) = 3.56944 2.58730 3.11729
# Velocity P-wave (km/s) = 5.53069 6.30514 5.93057
#
# Compressibility (1/GPa) = 0.03765523
#
# Stress axis : x y z
#
# Youngs Moduli (GPa) = 56.90635 22.12522 69.09115
#
# Poissons Ratio (x) = 0.10554 0.69984
# Poissons Ratio (y) = 0.27145 0.33820
# Poissons Ratio (z) = 0.57642 0.10830
#
# Static dielectric constant tensor:
#      x y z
#    x 1.709550 0.000000 0.023130 
#    y 0.000000 1.698340 0.000000 
#    z 0.023130 0.000000 1.719170 
# 
# From -- ./inp_files/63672.got.cif
#   From: 2010.05.17/outbox.cif.g08.bks.cpg/sg10_32_cif.got.tgz:63672.got - 2010.06.03 11:33:40.
