data_PCOD9147210
_publ_section_title
;
Structure prediction by ZEFSAII (Michael W. Deem and Ramdas Pophale) SiO2 
 PCOD9147210
Probable space group: P 2/M
;
_chemical_formula_sum "Si O2"
_cell_formula_units_Z 28
_cell_length_a 26.819245
_cell_length_b 8.877632
_cell_length_c 8.231514
_cell_angle_alpha 90.000000
_cell_angle_beta 39.194668
_cell_angle_gamma 90.000000
_cell_volume 1238.542922
_symmetry_space_group_name_H-M "P 2/M"
_symmetry_group_IT_number 10
_symmetry_cell_setting 'monoclinic'
loop_
_space_group_symop_operation_xyz
x,y,z
-x,y,-z
-x,-y,-z
x,-y,z
loop_
_atom_site_type_symbol
_atom_site_label
_atom_site_fract_x
_atom_site_fract_y
_atom_site_fract_z
Si Si1 0.599689 0.179039 0.590029
Si Si2 0.457292 0.673762 0.785700
Si Si3 0.830779 0.179583 0.481185
Si Si4 0.737704 0.677735 0.418347
Si Si5 0.889386 0.321088 0.841901
Si Si6 0.680074 0.178536 0.044555
Si Si7 0.974657 0.819619 0.318932
O O1 0.512278 0.240314 0.775023
O O2 0.653410 0.248389 0.595062
O O3 0.647315 0.220107 0.303689
O O4 0.596838 0.000000 0.614440
O O5 0.500000 0.684121 0.500000
O O6 0.452302 0.500000 0.844413
O O7 0.372164 0.740951 0.960752
O O8 0.786399 0.258141 0.446383
O O9 0.919054 0.224067 0.308270
O O10 0.832269 0.000000 0.447387
O O11 0.771607 0.208258 0.781973
O O12 0.727404 0.500000 0.461988
O O13 0.798794 0.705902 0.115455
O O14 0.900701 0.500000 0.784166
O O15 0.922209 0.224526 0.609303
O O16 0.944386 0.268314 0.854097
O O17 0.666802 0.000000 0.060408
O O18 0.988214 0.000000 0.279903
#
# Coordination Sequence:
#
# PCOD9147210 Si02
#       7
#     4   4   4   4   4   4   4
#     4  10  19  34  58  82 107 140 178 223 270 316
#     4   9  17  30  51  81 112 139 173 218 266 317
#     4  10  22  38  55  78 109 143 180 222 267 316
#     4  11  24  38  53  77 110 146 182 219 264 320
#     4  10  21  37  57  82 111 142 176 218 269 320
#     4   9  18  34  56  81 107 138 178 221 268 319
#     4  10  20  36  60  86 108 136 179 225 266 314
#
# _framework density 22.607209000000001
#
# number of rings (size 3 to 8) (size 9 to 14) (size 15 to 20)
#    0.000    2.143    0.000    3.857    0.000    8.000 
#    0.000    3.571    0.000    4.286    0.000    0.000 
#    0.000    0.000    0.000    0.000    0.000    0.000 
#
# Total GULP energy -156534.904369 kJ/mol
# GULP energy per Si atom -5590.532299 kJ/mol
# Density = 2.255575 g / cm^3
# Si number density = 22.607209 Si / 1000 Ang^3
#
#
#
# Elastic Constant Matrix: (Units=GPa)
#
#
# Indices 1 2 3 4 5 6 
#
# 1 153.4581 17.4095 24.4326 0.0000 -31.4703 0.0000
# 2 17.4095 -60.2650 24.6996 0.0000 -13.4206 0.0000
# 3 24.4326 24.6996 55.3925 0.0000 -19.1812 0.0000
# 4 0.0000 0.0000 0.0000 17.8158 0.0000 3.6262
# 5 -31.4703 -13.4206 -19.1812 0.0000 43.9721 0.0000
# 6 0.0000 0.0000 0.0000 3.6262 0.0000 -54.1708
#
#
#
# Elastic Compliance Matrix: (Units=1/GPa)
#
#
# Indices 1 2 3 4 5 6 
#
# 1 0.007772 0.000380 -0.001921 0.000000 0.004840 0.000000
# 2 0.000380 -0.013887 0.005479 0.000000 -0.001577 0.000000
# 3 -0.001921 0.005479 0.019507 0.000000 0.008806 0.000000
# 4 0.000000 0.000000 0.000000 0.055376 0.000000 0.003707
# 5 0.004840 -0.001577 0.008806 0.000000 0.029566 0.000000
# 6 0.000000 0.000000 0.000000 0.003707 0.000000 -0.018212
#
#
# Mechanical properties :
#
#
# Convention : Reuss Voigt Hill
#
# Bulk Modulus (GPa) = 47.02344 31.29654 39.15999
# Shear Modulus (GPa) = 63.02364 6.99299 35.00832
#
# Velocity S-wave (km/s) = 5.28566 1.76067 3.93943
# Velocity P-wave (km/s) = 7.62209 4.24346 6.16860
#
# Compressibility (1/GPa) = 0.02126599
#
# Stress axis : x y z
#
# Youngs Moduli (GPa) = 128.66998 -72.00950 51.26402
#
# Poissons Ratio (x) = 0.02735 0.09850
# Poissons Ratio (y) = -0.04887 -0.28086
# Poissons Ratio (z) = 0.24722 0.39452
#
# Static dielectric constant tensor:
#      x y z
#    x 1.862900 0.000000 0.038300 
#    y 0.000000 1.745310 0.000000 
#    z 0.038300 0.000000 1.903290 
# 
# From -- ./inp_files/36685.got.cif
#   From: 2010.05.17/outbox.cif.g08.bks.cpg/sg10_19_cif.got.tgz:36685.got - 2010.06.03 11:33:40.
