data_PCOD9147818
_publ_section_title
;
Structure prediction by ZEFSAII (Michael W. Deem and Ramdas Pophale) SiO2 
 PCOD9147818
Probable space group: P 2/M
;
_chemical_formula_sum "Si O2"
_cell_formula_units_Z 32
_cell_length_a 24.066173
_cell_length_b 8.237449
_cell_length_c 14.006157
_cell_angle_alpha 90.000000
_cell_angle_beta 33.197337
_cell_angle_gamma 90.000000
_cell_volume 1520.275116
_symmetry_space_group_name_H-M "P 2/M"
_symmetry_group_IT_number 10
_symmetry_cell_setting 'monoclinic'
loop_
_space_group_symop_operation_xyz
x,y,z
-x,y,-z
-x,-y,-z
x,-y,z
loop_
_atom_site_type_symbol
_atom_site_label
_atom_site_fract_x
_atom_site_fract_y
_atom_site_fract_z
Si Si1 0.765870 0.302664 0.940538
Si Si2 0.478945 0.187981 0.232398
Si Si3 0.557818 0.303321 0.322688
Si Si4 0.675914 0.690795 0.865238
Si Si5 0.910970 0.301951 0.056216
Si Si6 0.963104 0.696670 0.764718
Si Si7 0.741185 0.687353 0.436425
Si Si8 0.175326 0.814254 0.500114
O O1 0.767720 0.500000 0.937266
O O2 0.729463 0.254244 0.887398
O O3 0.875608 0.248104 0.817954
O O4 0.675834 0.254940 0.142885
O O5 0.504211 0.242521 0.303929
O O6 0.360501 0.220173 0.389629
O O7 0.502286 0.000000 0.186781
O O8 0.556246 0.283304 0.052819
O O9 0.500000 0.246100 0.500000
O O10 0.554431 0.500000 0.326658
O O11 0.696329 0.500000 0.822221
O O12 0.726745 0.785101 0.705856
O O13 0.910366 0.500000 0.059574
O O14 0.803169 0.250379 0.255763
O O15 0.930857 0.254583 0.918825
O O16 0.000000 0.247382 0.000000
O O17 0.968496 0.500000 0.753657
O O18 0.074539 0.766332 0.587381
O O19 0.713440 0.500000 0.460053
O O20 0.816297 0.702367 0.418504
O O21 0.169147 0.000000 0.540069
#
# Coordination Sequence:
#
# PCOD9147818 Si02
#       8
#     4   4   4   4   4   4   4   4
#     4   8  17  33  58  88 114 145 195 251 291 328
#     4  11  23  39  58  87 125 157 189 239 304 362
#     4   9  18  34  58  86 116 156 208 251 284 336
#     4  10  21  42  65  86 112 151 202 250 292 344
#     4   9  17  32  58  88 115 148 195 244 285 331
#     4  10  19  36  60  87 118 154 196 241 289 345
#     4  11  22  39  63  89 116 155 202 244 287 347
#     4  12  25  40  58  86 119 154 193 242 302 357
#
# _framework density 21.048822000000001
#
# number of rings (size 3 to 8) (size 9 to 14) (size 15 to 20)
#    0.000    2.000    1.250    3.750    1.750    1.250 
#    0.000   10.000    0.000    0.000    0.000    0.000 
#    0.000    0.000    0.000    0.000    0.000    0.000 
#
# Total GULP energy -178746.933128 kJ/mol
# GULP energy per Si atom -5585.841660 kJ/mol
# Density = 2.100091 g / cm^3
# Si number density = 21.048822 Si / 1000 Ang^3
#
#
#
# Elastic Constant Matrix: (Units=GPa)
#
#
# Indices 1 2 3 4 5 6 
#
# 1 16.9480 -1.5355 8.2026 0.0000 -11.0913 0.0000
# 2 -1.5355 26.8500 2.4056 0.0000 2.0254 0.0000
# 3 8.2026 2.4056 80.3537 0.0000 -2.9549 0.0000
# 4 0.0000 0.0000 0.0000 -20.4960 0.0000 8.2556
# 5 -11.0913 2.0254 -2.9549 0.0000 34.8614 0.0000
# 6 0.0000 0.0000 0.0000 8.2556 0.0000 0.4511
#
#
#
# Elastic Compliance Matrix: (Units=1/GPa)
#
#
# Indices 1 2 3 4 5 6 
#
# 1 0.078658 0.003320 -0.007238 0.000000 0.024219 0.000000
# 2 0.003320 0.037664 -0.001513 0.000000 -0.001260 0.000000
# 3 -0.007238 -0.001513 0.013189 0.000000 -0.001097 0.000000
# 4 0.000000 0.000000 0.000000 -0.005828 0.000000 0.106661
# 5 0.024219 -0.001260 -0.001097 0.000000 0.036371 0.000000
# 6 0.000000 0.000000 0.000000 0.106661 0.000000 0.264803
#
#
# Mechanical properties :
#
#
# Convention : Reuss Voigt Hill
#
# Bulk Modulus (GPa) = 8.42824 15.81079 12.11952
# Shear Modulus (GPa) = 10.52037 10.63524 10.57780
#
# Velocity S-wave (km/s) = 2.23806 2.25025 2.24416
# Velocity P-wave (km/s) = 3.26977 3.77879 3.53346
#
# Compressibility (1/GPa) = 0.11864868
#
# Stress axis : x y z
#
# Youngs Moduli (GPa) = 12.71329 26.55026 75.82187
#
# Poissons Ratio (x) = -0.08814 0.54882
# Poissons Ratio (y) = -0.04221 0.11471
# Poissons Ratio (z) = 0.09202 0.04017
#
# Static dielectric constant tensor:
#      x y z
#    x 1.740140 0.000000 -0.014840 
#    y 0.000000 1.724650 0.000000 
#    z -0.014840 0.000000 1.760380 
# 
# From -- ./inp_files/71535.got.cif
#   From: 2010.05.17/outbox.cif.g08.bks.cpg/sg10_36_cif.got.tgz:71535.got - 2010.06.03 11:33:40.
