data_PCOD9147340
_publ_section_title
;
Structure prediction by ZEFSAII (Michael W. Deem and Ramdas Pophale) SiO2 
 PCOD9147340
Probable space group: P 2/M
;
_chemical_formula_sum "Si O2"
_cell_formula_units_Z 28
_cell_length_a 13.455320
_cell_length_b 17.261679
_cell_length_c 9.115867
_cell_angle_alpha 90.000000
_cell_angle_beta 43.352273
_cell_angle_gamma 90.000000
_cell_volume 1453.463825
_symmetry_space_group_name_H-M "P 2/M"
_symmetry_group_IT_number 10
_symmetry_cell_setting 'monoclinic'
loop_
_space_group_symop_operation_xyz
x,y,z
-x,y,-z
-x,-y,-z
x,-y,z
loop_
_atom_site_type_symbol
_atom_site_label
_atom_site_fract_x
_atom_site_fract_y
_atom_site_fract_z
Si Si1 0.104733 0.644841 0.248792
Si Si2 0.359570 0.194494 0.738817
Si Si3 0.422080 0.300211 0.928907
Si Si4 0.312151 0.669028 0.555275
Si Si5 0.040060 0.236225 0.783275
Si Si6 0.067382 0.500000 0.093368
Si Si7 0.330258 0.500000 0.650858
Si Si8 0.920785 0.914182 0.930096
O O1 0.275700 0.648672 0.102656
O O2 0.041268 0.575617 0.217236
O O3 0.000000 0.649813 0.500000
O O4 0.082265 0.719532 0.172889
O O5 0.500000 0.162475 0.500000
O O6 0.330616 0.274720 0.677417
O O7 0.228600 0.133033 0.881332
O O8 0.390877 0.221310 0.871263
O O9 0.500000 0.287162 0.000000
O O10 0.541829 0.338124 0.694273
O O11 0.187612 0.716197 0.603437
O O12 0.279286 0.580449 0.631560
O O13 0.000000 0.240018 0.000000
O O14 0.029579 0.148094 0.739183
O O15 0.241482 0.500000 0.894888
O O16 0.000000 0.500000 0.000000
O O17 0.500000 0.500000 0.500000
O O18 0.900128 0.000000 0.887550
O O19 0.000000 0.924381 0.000000
#
# Coordination Sequence:
#
# PCOD9147340 Si02
#       8
#     4   4   4   4   4   2   2   4
#     4  12  24  40  60  88 121 164 207 256 305 360
#     4  10  19  36  61  88 123 160 202 250 305 368
#     4  11  23  39  58  86 118 166 210 247 298 359
#     4  11  21  37  59  87 121 158 206 257 302 358
#     4  11  19  37  62  89 119 158 204 247 308 371
#     4  12  25  41  63  91 125 157 206 260 315 357
#     4  12  22  35  59  89 118 159 204 244 298 355
#     4  10  19  34  62  97 128 152 193 256 315 369
#
# _framework density 19.264324999999999
#
# number of rings (size 3 to 8) (size 9 to 14) (size 15 to 20)
#    0.000    1.000    4.286    6.214    0.000    0.286 
#    0.000    2.857    0.000    0.857    0.000    0.000 
#    0.000    0.000    0.000    0.000    0.000    0.000 
#
# Total GULP energy -155906.015202 kJ/mol
# GULP energy per Si atom -5568.071971 kJ/mol
# Density = 1.922048 g / cm^3
# Si number density = 19.264325 Si / 1000 Ang^3
#
#
#
# Elastic Constant Matrix: (Units=GPa)
#
#
# Indices 1 2 3 4 5 6 
#
# 1 113.7416 39.8753 36.2052 0.0000 -1.8239 0.0000
# 2 39.8753 151.2070 30.7622 0.0000 -4.1298 0.0000
# 3 36.2052 30.7622 104.0808 0.0000 -10.4416 0.0000
# 4 0.0000 0.0000 0.0000 4.5828 0.0000 -4.2797
# 5 -1.8239 -4.1298 -10.4416 0.0000 37.6418 0.0000
# 6 0.0000 0.0000 0.0000 -4.2797 0.0000 20.2970
#
#
#
# Elastic Compliance Matrix: (Units=1/GPa)
#
#
# Indices 1 2 3 4 5 6 
#
# 1 0.010521 -0.002164 -0.003079 0.000000 -0.000582 0.000000
# 2 -0.002164 0.007483 -0.001427 0.000000 0.000320 0.000000
# 3 -0.003079 -0.001427 0.011387 0.000000 0.002853 0.000000
# 4 0.000000 0.000000 0.000000 0.271713 0.000000 0.057292
# 5 -0.000582 0.000320 0.002853 0.000000 0.027365 0.000000
# 6 0.000000 0.000000 0.000000 0.057292 0.000000 0.061349
#
#
# Mechanical properties :
#
#
# Convention : Reuss Voigt Hill
#
# Bulk Modulus (GPa) = 62.29718 64.74608 63.52163
# Shear Modulus (GPa) = 12.23970 29.98343 21.11156
#
# Velocity S-wave (km/s) = 2.52336 3.94943 3.31401
# Velocity P-wave (km/s) = 6.39516 7.38103 6.90571
#
# Compressibility (1/GPa) = 0.01605209
#
# Stress axis : x y z
#
# Youngs Moduli (GPa) = 95.04642 133.63301 87.82146
#
# Poissons Ratio (x) = 0.28920 0.27037
# Poissons Ratio (y) = 0.20569 0.12530
# Poissons Ratio (z) = 0.29261 0.19067
#
# Static dielectric constant tensor:
#      x y z
#    x 1.751070 0.000000 -0.042710 
#    y 0.000000 1.806280 0.000000 
#    z -0.042710 0.000000 1.708550 
# 
# From -- ./inp_files/30133.got.cif
#   From: 2010.05.17/outbox.cif.g08.bks.cpg/sg10_16_cif.got.tgz:30133.got - 2010.06.03 11:33:40.
