data_PCOD9147283
_publ_section_title
;
Structure prediction by ZEFSAII (Michael W. Deem and Ramdas Pophale) SiO2 
 PCOD9147283
Probable space group: P 2/M
;
_chemical_formula_sum "Si O2"
_cell_formula_units_Z 20
_cell_length_a 10.870126
_cell_length_b 11.928844
_cell_length_c 9.821094
_cell_angle_alpha 90.000000
_cell_angle_beta 43.740961
_cell_angle_gamma 90.000000
_cell_volume 880.484280
_symmetry_space_group_name_H-M "P 2/M"
_symmetry_group_IT_number 10
_symmetry_cell_setting 'monoclinic'
loop_
_space_group_symop_operation_xyz
x,y,z
-x,y,-z
-x,-y,-z
x,-y,z
loop_
_atom_site_type_symbol
_atom_site_label
_atom_site_fract_x
_atom_site_fract_y
_atom_site_fract_z
Si Si1 0.631285 0.238370 0.692840
Si Si2 0.157484 0.629913 0.263358
Si Si3 0.711336 0.374698 0.365575
Si Si4 0.332616 0.000000 0.443911
Si Si5 0.788860 0.760548 0.040045
Si Si6 0.242573 0.000000 0.829074
O O1 0.689638 0.299278 0.783050
O O2 0.714304 0.309383 0.503483
O O3 0.419647 0.238634 0.837874
O O4 0.700020 0.111717 0.617177
O O5 0.207045 0.500000 0.195248
O O6 0.000000 0.629147 0.500000
O O7 0.114517 0.695518 0.158651
O O8 0.500000 0.381559 0.500000
O O9 0.783058 0.500000 0.321689
O O10 0.797383 0.307866 0.173324
O O11 0.236652 0.000000 0.668513
O O12 0.544347 0.000000 0.310297
O O13 0.834398 0.888428 0.039829
#
# Coordination Sequence:
#
# PCOD9147283 Si02
#       6
#     4   4   4   2   4   2
#     4  10  19  34  59  86 113 145 183 228 278 334
#     4  11  25  42  55  74 112 155 192 233 280 329
#     4   9  16  27  50  84 111 135 178 231 274 318
#     4   9  16  31  57  90 120 142 173 226 285 332
#     4  10  19  34  59  86 113 145 183 228 278 334
#     4   9  16  31  57  90 120 142 173 226 285 332
#
# _framework density 22.714774999999999
#
# number of rings (size 3 to 8) (size 9 to 14) (size 15 to 20)
#    0.000    2.200    2.000    1.800    0.000    4.000 
#    0.000    6.000    0.000    4.800    0.000    0.000 
#    0.000    0.000    0.000    0.000    0.000    0.000 
#
# Total GULP energy -111878.168224 kJ/mol
# GULP energy per Si atom -5593.908411 kJ/mol
# Density = 2.266308 g / cm^3
# Si number density = 22.714775 Si / 1000 Ang^3
#
#
#
# Elastic Constant Matrix: (Units=GPa)
#
#
# Indices 1 2 3 4 5 6 
#
# 1 65.5798 23.9307 29.9206 0.0000 1.5230 0.0000
# 2 23.9307 226.0186 79.6399 0.0000 20.8866 0.0000
# 3 29.9206 79.6399 125.0458 0.0000 30.8023 0.0000
# 4 0.0000 0.0000 0.0000 38.2218 0.0000 -18.9732
# 5 1.5230 20.8866 30.8023 0.0000 35.5504 0.0000
# 6 0.0000 0.0000 0.0000 -18.9732 0.0000 -8.3365
#
#
#
# Elastic Compliance Matrix: (Units=1/GPa)
#
#
# Indices 1 2 3 4 5 6 
#
# 1 0.017529 -0.000514 -0.004776 0.000000 0.003689 0.000000
# 2 -0.000514 0.005722 -0.003431 0.000000 -0.000367 0.000000
# 3 -0.004776 -0.003431 0.013702 0.000000 -0.009652 0.000000
# 4 0.000000 0.000000 0.000000 0.012285 0.000000 -0.027959
# 5 0.003689 -0.000367 -0.009652 0.000000 0.036550 0.000000
# 6 0.000000 0.000000 0.000000 -0.027959 0.000000 -0.056323
#
#
# Mechanical properties :
#
#
# Convention : Reuss Voigt Hill
#
# Bulk Modulus (GPa) = 51.24894 75.95852 63.60373
# Shear Modulus (GPa) = 93.61705 31.96401 62.79053
#
# Velocity S-wave (km/s) = 6.42679 3.75532 5.26337
# Velocity P-wave (km/s) = 8.81376 7.23298 8.06221
#
# Compressibility (1/GPa) = 0.01951260
#
# Stress axis : x y z
#
# Youngs Moduli (GPa) = 57.04702 174.77762 72.98117
#
# Poissons Ratio (x) = 0.08986 0.34853
# Poissons Ratio (y) = 0.02933 0.25036
# Poissons Ratio (z) = 0.27243 0.59957
#
# Static dielectric constant tensor:
#      x y z
#    x 3.768450 0.000000 0.138920 
#    y 0.000000 1.816480 0.000000 
#    z 0.138920 0.000000 1.841290 
# 
# From -- ./inp_files/17881.got.cif
#   From: 2010.05.17/outbox.cif.g08.bks.cpg/sg10_9_cif.got.tgz:17881.got - 2010.06.03 11:33:40.
