data_PCOD9147586
_publ_section_title
;
Structure prediction by ZEFSAII (Michael W. Deem and Ramdas Pophale) SiO2 
 PCOD9147586
Probable space group: P 2/M
;
_chemical_formula_sum "Si O2"
_cell_formula_units_Z 28
_cell_length_a 15.136727
_cell_length_b 18.766754
_cell_length_c 9.066297
_cell_angle_alpha 90.000000
_cell_angle_beta 31.907661
_cell_angle_gamma 90.000000
_cell_volume 1361.252452
_symmetry_space_group_name_H-M "P 2/M"
_symmetry_group_IT_number 10
_symmetry_cell_setting 'monoclinic'
loop_
_space_group_symop_operation_xyz
x,y,z
-x,y,-z
-x,-y,-z
x,-y,z
loop_
_atom_site_type_symbol
_atom_site_label
_atom_site_fract_x
_atom_site_fract_y
_atom_site_fract_z
Si Si1 0.500000 0.885768 0.500000
Si Si2 0.662599 0.312542 0.670549
Si Si3 0.081664 0.809452 0.729428
Si Si4 0.760605 0.224423 0.007032
Si Si5 0.175614 0.886650 0.324453
Si Si6 0.438766 0.627862 0.742259
Si Si7 0.832170 0.419224 0.655224
Si Si8 0.560477 0.000000 0.170748
O O1 0.344253 0.834758 0.754596
O O2 0.474765 0.937268 0.396115
O O3 0.764714 0.244340 0.473208
O O4 0.594831 0.353871 0.624706
O O5 0.775082 0.364609 0.610822
O O6 0.500000 0.293162 0.000000
O O7 0.142704 0.874937 0.542982
O O8 0.000000 0.829054 0.000000
O O9 0.938207 0.770639 0.835423
O O10 0.659995 0.297536 0.144805
O O11 0.786568 0.189550 0.808419
O O12 0.000000 0.911498 0.500000
O O13 0.326496 0.938551 0.074824
O O14 0.500000 0.598678 0.500000
O O15 0.313359 0.581202 0.016137
O O16 0.856168 0.500000 0.565556
O O17 0.000000 0.395491 0.500000
#
# Coordination Sequence:
#
# PCOD9147586 Si02
#       8
#     2   4   4   4   4   4   4   2
#     4   9  18  32  58  88 113 150 198 254 291 350
#     4  10  22  38  60  89 119 158 200 250 300 357
#     4  11  22  36  56  88 118 153 192 247 311 356
#     4  10  19  35  59  85 116 150 198 244 302 355
#     4   9  18  32  54  80 109 152 196 243 291 359
#     4  11  21  35  60  91 121 152 194 255 302 350
#     4  10  22  41  62  84 119 167 206 237 286 356
#     4   9  17  32  55  83 113 150 202 243 292 360
#
# _framework density 20.569291
#
# number of rings (size 3 to 8) (size 9 to 14) (size 15 to 20)
#    0.000    2.000    0.714    3.643    0.000    4.000 
#    0.000    0.357    0.000    3.000    0.000    0.000 
#    0.000    0.000    0.000    0.000    0.000    0.000 
#
# Total GULP energy -155919.183739 kJ/mol
# GULP energy per Si atom -5568.542276 kJ/mol
# Density = 2.052247 g / cm^3
# Si number density = 20.569291 Si / 1000 Ang^3
#
#
#
# Elastic Constant Matrix: (Units=GPa)
#
#
# Indices 1 2 3 4 5 6 
#
# 1 62.1154 7.9237 32.3658 0.0000 10.9966 0.0000
# 2 7.9237 56.0018 15.9957 0.0000 1.5024 0.0000
# 3 32.3658 15.9957 85.7492 0.0000 22.8483 0.0000
# 4 0.0000 0.0000 0.0000 11.9069 0.0000 1.3120
# 5 10.9966 1.5024 22.8483 0.0000 43.0617 0.0000
# 6 0.0000 0.0000 0.0000 1.3120 0.0000 -11.6571
#
#
#
# Elastic Compliance Matrix: (Units=1/GPa)
#
#
# Indices 1 2 3 4 5 6 
#
# 1 0.020134 -0.000787 -0.007093 0.000000 -0.001351 0.000000
# 2 -0.000787 0.018966 -0.003632 0.000000 0.001466 0.000000
# 3 -0.007093 -0.003632 0.016888 0.000000 -0.007022 0.000000
# 4 0.000000 0.000000 0.000000 0.082956 0.000000 0.009337
# 5 -0.001351 0.001466 -0.007022 0.000000 0.027242 0.000000
# 6 0.000000 0.000000 0.000000 0.009337 0.000000 -0.084733
#
#
# Mechanical properties :
#
#
# Convention : Reuss Voigt Hill
#
# Bulk Modulus (GPa) = 30.33473 35.15963 32.74718
# Shear Modulus (GPa) = 43.30350 18.50104 30.90227
#
# Velocity S-wave (km/s) = 4.59328 3.00234 3.88022
# Velocity P-wave (km/s) = 6.55061 5.39899 6.00248
#
# Compressibility (1/GPa) = 0.03296551
#
# Stress axis : x y z
#
# Youngs Moduli (GPa) = 49.66616 52.72636 59.21442
#
# Poissons Ratio (x) = 0.04147 0.42001
# Poissons Ratio (y) = 0.03907 0.21505
# Poissons Ratio (z) = 0.35228 0.19148
#
# Static dielectric constant tensor:
#      x y z
#    x 1.754600 0.000000 0.006400 
#    y 0.000000 1.705450 0.000000 
#    z 0.006400 0.000000 1.739720 
# 
# From -- ./inp_files/30452.got.cif
#   From: 2010.05.17/outbox.cif.g08.bks.cpg/sg10_16_cif.got.tgz:30452.got - 2010.06.03 11:33:40.
