data_PCOD9147255
_publ_section_title
;
Structure prediction by ZEFSAII (Michael W. Deem and Ramdas Pophale) SiO2 
 PCOD9147255
Probable space group: P 2/M
;
_chemical_formula_sum "Si O2"
_cell_formula_units_Z 16
_cell_length_a 9.718201
_cell_length_b 5.503993
_cell_length_c 22.723574
_cell_angle_alpha 90.000000
_cell_angle_beta 140.641811
_cell_angle_gamma 90.000000
_cell_volume 770.803453
_symmetry_space_group_name_H-M "P 2/M"
_symmetry_group_IT_number 10
_symmetry_cell_setting 'monoclinic'
loop_
_space_group_symop_operation_xyz
x,y,z
-x,y,-z
-x,-y,-z
x,-y,z
loop_
_atom_site_type_symbol
_atom_site_label
_atom_site_fract_x
_atom_site_fract_y
_atom_site_fract_z
Si Si1 0.175721 0.500000 0.145322
Si Si2 0.403681 0.000000 0.650766
Si Si3 0.255712 0.000000 0.895613
Si Si4 0.312006 0.500000 0.675954
Si Si5 0.687702 0.000000 0.514338
Si Si6 0.113672 0.000000 0.129071
Si Si7 0.949780 0.500000 0.201491
Si Si8 0.918920 0.500000 0.626244
O O1 0.433308 0.500000 0.227764
O O2 0.102726 0.748158 0.092850
O O3 0.086712 0.500000 0.184732
O O4 0.281671 0.754358 0.631273
O O5 0.651614 0.000000 0.758671
O O6 0.411074 0.000000 0.583313
O O7 0.194657 0.253932 0.843634
O O8 0.500000 0.000000 0.000000
O O9 0.087129 0.000000 0.893443
O O10 0.166548 0.500000 0.685769
O O11 0.500000 0.000000 0.500000
O O12 0.817456 0.251239 0.567547
O O13 0.098237 0.500000 0.308616
#
# Coordination Sequence:
#
# PCOD9147255 Si02
#       8
#     2   2   2   2   2   2   2   2
#     4   8  16  30  54  76 100 144 187 226 266 335
#     4  10  21  38  59  79 113 156 207 243 287 335
#     4  10  19  34  58  90 117 146 186 238 293 347
#     4  10  21  37  61  82 111 154 202 250 286 343
#     4  12  28  39  59  85 119 160 204 249 292 350
#     4   8  16  29  52  79 102 141 180 235 270 332
#     4  10  21  36  60  84 120 153 187 239 293 356
#     4  12  26  41  58  89 120 156 199 244 308 339
#
# _framework density 20.757560000000002
#
# number of rings (size 3 to 8) (size 9 to 14) (size 15 to 20)
#    0.000    2.000    0.000    3.000   10.500    3.000 
#    0.000    0.000    0.000    0.000    0.000   47.250 
#    0.000    0.000    0.000    0.000    0.000    0.000 
#
# Total GULP energy -89185.115501 kJ/mol
# GULP energy per Si atom -5574.069719 kJ/mol
# Density = 2.071032 g / cm^3
# Si number density = 20.757560 Si / 1000 Ang^3
#
#
#
# Elastic Constant Matrix: (Units=GPa)
#
#
# Indices 1 2 3 4 5 6 
#
# 1 82.2951 29.1909 29.7352 0.0000 0.8216 0.0000
# 2 29.1909 225.8531 38.6990 0.0000 7.8660 0.0000
# 3 29.7352 38.6990 78.8279 0.0000 -17.9877 0.0000
# 4 0.0000 0.0000 0.0000 44.3999 0.0000 -28.5337
# 5 0.8216 7.8660 -17.9877 0.0000 19.1581 0.0000
# 6 0.0000 0.0000 0.0000 -28.5337 0.0000 44.4172
#
#
#
# Elastic Compliance Matrix: (Units=1/GPa)
#
#
# Indices 1 2 3 4 5 6 
#
# 1 0.014918 -0.000488 -0.006985 0.000000 -0.006998 0.000000
# 2 -0.000488 0.005326 -0.003722 0.000000 -0.005661 0.000000
# 3 -0.006985 -0.003722 0.022355 0.000000 0.022817 0.000000
# 4 0.000000 0.000000 0.000000 0.038359 0.000000 0.024642
# 5 -0.006998 -0.005661 0.022817 0.000000 0.076244 0.000000
# 6 0.000000 0.000000 0.000000 0.024642 0.000000 0.038344
#
#
# Mechanical properties :
#
#
# Convention : Reuss Voigt Hill
#
# Bulk Modulus (GPa) = 49.48299 64.69181 57.08740
# Shear Modulus (GPa) = 22.25486 40.88511 31.56999
#
# Velocity S-wave (km/s) = 3.27790 4.44289 3.90409
# Velocity P-wave (km/s) = 6.18194 7.58631 6.91984
#
# Compressibility (1/GPa) = 0.02020897
#
# Stress axis : x y z
#
# Youngs Moduli (GPa) = 67.03332 187.77165 44.73371
#
# Poissons Ratio (x) = 0.09156 0.31245
# Poissons Ratio (y) = 0.03268 0.16651
# Poissons Ratio (z) = 0.46821 0.69894
#
# Static dielectric constant tensor:
#      x y z
#    x 1.698790 0.000000 0.004460 
#    y 0.000000 1.883730 0.000000 
#    z 0.004460 0.000000 1.713600 
# 
# From -- ./inp_files/26407.got.cif
#   From: 2010.05.17/outbox.cif.g08.bks.cpg/sg10_14_cif.got.tgz:26407.got - 2010.06.03 11:33:40.
