data_PCOD9147530
_publ_section_title
;
Structure prediction by ZEFSAII (Michael W. Deem and Ramdas Pophale) SiO2 
 PCOD9147530
Probable space group: P 2/M
;
_chemical_formula_sum "Si O2"
_cell_formula_units_Z 28
_cell_length_a 12.891695
_cell_length_b 7.614007
_cell_length_c 15.066313
_cell_angle_alpha 90.000000
_cell_angle_beta 58.708293
_cell_angle_gamma 90.000000
_cell_volume 1263.745537
_symmetry_space_group_name_H-M "P 2/M"
_symmetry_group_IT_number 10
_symmetry_cell_setting 'monoclinic'
loop_
_space_group_symop_operation_xyz
x,y,z
-x,y,-z
-x,-y,-z
x,-y,z
loop_
_atom_site_type_symbol
_atom_site_label
_atom_site_fract_x
_atom_site_fract_y
_atom_site_fract_z
Si Si1 0.050392 0.713767 0.071928
Si Si2 0.415849 0.710662 0.617509
Si Si3 0.267727 0.298780 0.210386
Si Si4 0.988934 0.284645 0.605877
Si Si5 0.673883 0.712788 0.006530
Si Si6 0.525252 0.199108 0.760092
Si Si7 0.145720 0.714522 0.696318
O O1 0.048864 0.500000 0.072828
O O2 0.959055 0.771552 0.189279
O O3 0.189503 0.761794 0.025907
O O4 0.000000 0.773425 0.000000
O O5 0.500000 0.777564 0.500000
O O6 0.409913 0.500000 0.611145
O O7 0.471697 0.745303 0.689314
O O8 0.278248 0.776584 0.666723
O O9 0.240122 0.500000 0.197365
O O10 0.137550 0.222060 0.294298
O O11 0.358276 0.298429 0.252951
O O12 0.334232 0.227650 0.092667
O O13 0.985285 0.500000 0.606101
O O14 0.000000 0.225678 0.500000
O O15 0.101501 0.234201 0.618063
O O16 0.658257 0.500000 0.018216
O O17 0.578406 0.785492 0.118880
O O18 0.565566 0.000000 0.734156
O O19 0.147568 0.500000 0.697932
#
# Coordination Sequence:
#
# PCOD9147530 Si02
#       7
#     4   4   4   4   4   4   4
#     4   9  15  25  48  80 113 144 175 225 288 342
#     4  10  22  39  63  91 116 148 193 241 285 335
#     4  10  20  36  60  89 118 149 193 243 291 339
#     4   9  17  29  53  89 122 146 175 232 296 343
#     4  10  19  35  58  86 114 145 192 245 293 339
#     4  12  26  40  56  80 117 161 198 233 287 348
#     4   9  16  30  52  86 119 141 177 230 291 342
#
# _framework density 22.156358000000001
#
# number of rings (size 3 to 8) (size 9 to 14) (size 15 to 20)
#    0.000    2.143    1.429    2.571    2.000    4.857 
#    0.000    0.000    0.000    5.143    0.000    0.000 
#    0.000    0.000    0.000    0.000    0.000    0.000 
#
# Total GULP energy -156426.155228 kJ/mol
# GULP energy per Si atom -5586.648401 kJ/mol
# Density = 2.210593 g / cm^3
# Si number density = 22.156358 Si / 1000 Ang^3
#
#
#
# Elastic Constant Matrix: (Units=GPa)
#
#
# Indices 1 2 3 4 5 6 
#
# 1 126.3121 -6.4528 38.0501 0.0000 26.5110 0.0000
# 2 -6.4528 42.0352 -3.6950 0.0000 -2.5671 0.0000
# 3 38.0501 -3.6950 91.2310 0.0000 23.3085 0.0000
# 4 0.0000 0.0000 0.0000 -255.1172 0.0000 91.3067
# 5 26.5110 -2.5671 23.3085 0.0000 40.3942 0.0000
# 6 0.0000 0.0000 0.0000 91.3067 0.0000 -77.4146
#
#
#
# Elastic Compliance Matrix: (Units=1/GPa)
#
#
# Indices 1 2 3 4 5 6 
#
# 1 0.009818 0.000968 -0.002844 0.000000 -0.004741 0.000000
# 2 0.000968 0.024014 0.000400 0.000000 0.000660 0.000000
# 3 -0.002844 0.000400 0.013700 0.000000 -0.006013 0.000000
# 4 0.000000 0.000000 0.000000 -0.006783 0.000000 -0.008000
# 5 -0.004741 0.000660 -0.006013 0.000000 0.031379 0.000000
# 6 0.000000 0.000000 0.000000 -0.008000 0.000000 -0.022353
#
#
# Mechanical properties :
#
#
# Convention : Reuss Voigt Hill
#
# Bulk Modulus (GPa) = 22.43209 35.04254 28.73732
# Shear Modulus (GPa) = 73.97868 -42.98244 15.49812
#
# Velocity S-wave (km/s) = 5.78462 -4.40928 2.64765
# Velocity P-wave (km/s) = 7.40015 3.17363 4.72707
#
# Compressibility (1/GPa) = 0.04457899
#
# Stress axis : x y z
#
# Youngs Moduli (GPa) = 101.85117 41.64299 72.99268
#
# Poissons Ratio (x) = -0.04029 0.20763
# Poissons Ratio (y) = -0.09855 -0.02923
# Poissons Ratio (z) = 0.28971 -0.01667
#
# Static dielectric constant tensor:
#      x y z
#    x 1.792960 0.000000 0.012290 
#    y 0.000000 1.862390 0.000000 
#    z 0.012290 0.000000 1.791940 
# 
# From -- ./inp_files/49489.got.cif
#   From: 2010.05.17/outbox.cif.g08.bks.cpg/sg10_25_cif.got.tgz:49489.got - 2010.06.03 11:33:40.
