data_PCOD9147212
_publ_section_title
;
Structure prediction by ZEFSAII (Michael W. Deem and Ramdas Pophale) SiO2 
 PCOD9147212
Probable space group: P 2/M
;
_chemical_formula_sum "Si O2"
_cell_formula_units_Z 32
_cell_length_a 22.840652
_cell_length_b 9.198702
_cell_length_c 27.691552
_cell_angle_alpha 90.000000
_cell_angle_beta 162.395696
_cell_angle_gamma 90.000000
_cell_volume 1759.639556
_symmetry_space_group_name_H-M "P 2/M"
_symmetry_group_IT_number 10
_symmetry_cell_setting 'monoclinic'
loop_
_space_group_symop_operation_xyz
x,y,z
-x,y,-z
-x,-y,-z
x,-y,z
loop_
_atom_site_type_symbol
_atom_site_label
_atom_site_fract_x
_atom_site_fract_y
_atom_site_fract_z
Si Si1 0.331303 0.173439 0.081235
Si Si2 0.162120 0.326204 0.166826
Si Si3 0.403152 0.327248 0.035881
Si Si4 0.898189 0.826975 0.778346
Si Si5 0.405203 0.326647 0.530146
Si Si6 0.360817 0.674111 0.608183
Si Si7 0.328503 0.166916 0.824875
Si Si8 0.070267 0.328095 0.694468
O O1 0.480554 0.239608 0.236933
O O2 0.355489 0.000000 0.096156
O O3 0.368260 0.248871 0.058952
O O4 0.113278 0.203490 0.927619
O O5 0.148062 0.500000 0.164376
O O6 0.129014 0.243544 0.190618
O O7 0.375064 0.296166 0.313194
O O8 0.000000 0.286882 0.000000
O O9 0.425574 0.500000 0.059929
O O10 0.218313 0.302495 0.855361
O O11 0.587785 0.260160 0.153414
O O12 0.742600 0.758849 0.619697
O O13 0.872919 0.000000 0.761392
O O14 0.372068 0.500000 0.498325
O O15 0.374949 0.290973 0.562578
O O16 0.392937 0.500000 0.638498
O O17 0.146536 0.706854 0.459649
O O18 0.146574 0.237853 0.708858
O O19 0.293760 0.000000 0.783774
O O20 0.500000 0.168538 0.000000
O O21 0.081719 0.500000 0.692231
#
# Coordination Sequence:
#
# PCOD9147212 Si02
#       8
#     4   4   4   4   4   4   4   4
#     4  11  24  39  54  78 112 147 184 226 276 333
#     4  10  21  38  61  87 115 148 186 229 275 324
#     4  10  19  34  58  83 108 142 183 228 275 324
#     4  11  24  39  57  83 115 150 186 227 275 328
#     4  10  21  38  61  87 112 143 187 233 274 322
#     4  10  21  38  59  82 109 143 184 230 279 329
#     4   9  17  30  51  80 113 146 179 220 271 326
#     4   9  18  33  55  83 110 139 181 228 273 326
#
# _framework density 18.185542999999999
#
# number of rings (size 3 to 8) (size 9 to 14) (size 15 to 20)
#    0.000    2.000    0.000    3.375    0.000    9.250 
#    0.000    0.625    0.000    3.750    0.000    0.000 
#    0.000    0.000    0.000    0.000    0.000    0.000 
#
# Total GULP energy -178778.584101 kJ/mol
# GULP energy per Si atom -5586.830753 kJ/mol
# Density = 1.814415 g / cm^3
# Si number density = 18.185543 Si / 1000 Ang^3
#
#
#
# Elastic Constant Matrix: (Units=GPa)
#
#
# Indices 1 2 3 4 5 6 
#
# 1 26.1651 65.4889 146.6870 0.0000 65.8025 0.0000
# 2 65.4889 78.8048 100.8443 0.0000 19.4129 0.0000
# 3 146.6870 100.8443 131.5549 0.0000 -7.1499 0.0000
# 4 0.0000 0.0000 0.0000 26.1661 0.0000 6.6697
# 5 65.8025 19.4129 -7.1499 0.0000 8.8804 0.0000
# 6 0.0000 0.0000 0.0000 6.6697 0.0000 19.1412
#
#
#
# Elastic Compliance Matrix: (Units=1/GPa)
#
#
# Indices 1 2 3 4 5 6 
#
# 1 0.005233 -0.019274 0.009539 0.000000 0.011034 0.000000
# 2 -0.019274 0.056990 -0.022175 0.000000 0.000378 0.000000
# 3 0.009539 -0.022175 0.013341 0.000000 -0.011463 0.000000
# 4 0.000000 0.000000 0.000000 0.041943 0.000000 -0.014615
# 5 0.011034 0.000378 -0.011463 0.000000 0.020790 0.000000
# 6 0.000000 0.000000 0.000000 -0.014615 0.000000 0.057336
#
#
# Mechanical properties :
#
#
# Convention : Reuss Voigt Hill
#
# Bulk Modulus (GPa) = 85.14657 95.84057 90.49357
# Shear Modulus (GPa) = 18.98483 5.73786 12.36135
#
# Velocity S-wave (km/s) = 3.23453 1.77821 2.61000
# Velocity P-wave (km/s) = 7.80207 7.55195 7.67803
#
# Compressibility (1/GPa) = 0.01174445
#
# Stress axis : x y z
#
# Youngs Moduli (GPa) = 191.08185 17.54686 74.95667
#
# Poissons Ratio (x) = 0.33819 -0.71499
# Poissons Ratio (y) = 3.68283 1.66218
# Poissons Ratio (z) = -1.82267 0.38910
#
# Static dielectric constant tensor:
#      x y z
#    x 1.590360 0.000000 0.005760 
#    y 0.000000 1.605690 0.000000 
#    z 0.005760 0.000000 1.601900 
# 
# From -- ./inp_files/93693.got.cif
#   From: 2010.05.17/outbox.cif.g08.bks.cpg/sg10_47_cif.got.tgz:93693.got - 2010.06.03 11:33:40.
