data_PCOD9147862
_publ_section_title
;
Structure prediction by ZEFSAII (Michael W. Deem and Ramdas Pophale) SiO2 
 PCOD9147862
Probable space group: P 2/M
;
_chemical_formula_sum "Si O2"
_cell_formula_units_Z 28
_cell_length_a 25.675514
_cell_length_b 7.809541
_cell_length_c 9.741406
_cell_angle_alpha 90.000000
_cell_angle_beta 138.744190
_cell_angle_gamma 90.000000
_cell_volume 1288.041232
_symmetry_space_group_name_H-M "P 2/M"
_symmetry_group_IT_number 10
_symmetry_cell_setting 'monoclinic'
loop_
_space_group_symop_operation_xyz
x,y,z
-x,y,-z
-x,-y,-z
x,-y,z
loop_
_atom_site_type_symbol
_atom_site_label
_atom_site_fract_x
_atom_site_fract_y
_atom_site_fract_z
Si Si1 0.852683 0.205175 0.368344
Si Si2 0.586569 0.701169 0.139603
Si Si3 0.688235 0.292952 0.580310
Si Si4 0.413260 0.294019 0.367851
Si Si5 0.848188 0.296035 0.039536
Si Si6 0.999988 0.793005 0.841402
Si Si7 0.679917 0.801399 0.073520
O O1 0.860570 0.235495 0.220686
O O2 0.925221 0.270045 0.603806
O O3 0.768143 0.273001 0.253780
O O4 0.850211 0.000000 0.380044
O O5 0.581255 0.500000 0.164741
O O6 0.658814 0.771605 0.374870
O O7 0.614356 0.715605 0.038876
O O8 0.500000 0.775499 0.000000
O O9 0.698840 0.500000 0.594243
O O10 0.614450 0.257165 0.533921
O O11 0.768305 0.226581 0.808780
O O12 0.500000 0.232301 0.500000
O O13 0.411398 0.500000 0.346917
O O14 0.349076 0.216647 0.139111
O O15 0.840392 0.500000 0.034595
O O16 0.921514 0.254151 0.086676
O O17 0.995903 0.000000 0.837409
O O18 0.000000 0.732626 0.000000
O O19 0.681955 0.000000 0.116503
#
# Coordination Sequence:
#
# PCOD9147862 Si02
#       7
#     4   4   4   4   4   4   4
#     4  10  22  41  61  85 118 157 196 234 286 354
#     4  10  21  39  61  83 113 157 202 242 290 348
#     4   9  19  35  56  86 117 147 191 243 289 338
#     4  10  19  36  62  86 113 154 200 240 282 341
#     4  11  22  38  61  90 121 151 191 243 297 344
#     4  10  23  42  64  87 116 155 196 235 284 351
#     4  11  23  37  57  88 122 153 192 242 294 345
#
# _framework density 21.738434000000002
#
# number of rings (size 3 to 8) (size 9 to 14) (size 15 to 20)
#    0.000    1.857    1.429    2.143    2.000    6.000 
#    0.000    1.429    0.000    0.000    0.000    0.000 
#    0.000    0.000    0.000    0.000    0.000    0.000 
#
# Total GULP energy -156354.553892 kJ/mol
# GULP energy per Si atom -5584.091210 kJ/mol
# Density = 2.168896 g / cm^3
# Si number density = 21.738434 Si / 1000 Ang^3
#
#
#
# Elastic Constant Matrix: (Units=GPa)
#
#
# Indices 1 2 3 4 5 6 
#
# 1 77.7836 -5.2053 9.3365 0.0000 11.9628 0.0000
# 2 -5.2053 25.2591 4.1979 0.0000 3.5411 0.0000
# 3 9.3365 4.1979 80.1101 0.0000 3.7809 0.0000
# 4 0.0000 0.0000 0.0000 19.6687 0.0000 -3.6605
# 5 11.9628 3.5411 3.7809 0.0000 40.2738 0.0000
# 6 0.0000 0.0000 0.0000 -3.6605 0.0000 15.2270
#
#
#
# Elastic Compliance Matrix: (Units=1/GPa)
#
#
# Indices 1 2 3 4 5 6 
#
# 1 0.013967 0.003754 -0.001620 0.000000 -0.004327 0.000000
# 2 0.003754 0.041396 -0.002393 0.000000 -0.004530 0.000000
# 3 -0.001620 -0.002393 0.012821 0.000000 -0.000512 0.000000
# 4 0.000000 0.000000 0.000000 0.053223 0.000000 0.012795
# 5 -0.004327 -0.004530 -0.000512 0.000000 0.026562 0.000000
# 6 0.000000 0.000000 0.000000 0.012795 0.000000 0.068749
#
#
# Mechanical properties :
#
#
# Convention : Reuss Voigt Hill
#
# Bulk Modulus (GPa) = 14.77837 22.20123 18.48980
# Shear Modulus (GPa) = 20.85139 26.68880 23.77009
#
# Velocity S-wave (km/s) = 3.10045 3.50769 3.31034
# Velocity P-wave (km/s) = 4.43058 5.16142 4.80990
#
# Compressibility (1/GPa) = 0.06766647
#
# Stress axis : x y z
#
# Youngs Moduli (GPa) = 71.59553 24.15684 77.99569
#
# Poissons Ratio (x) = -0.09069 0.12638
# Poissons Ratio (y) = -0.26878 0.18664
# Poissons Ratio (z) = 0.11601 0.05781
#
# Static dielectric constant tensor:
#      x y z
#    x 1.743180 0.000000 0.031520 
#    y 0.000000 1.807110 0.000000 
#    z 0.031520 0.000000 1.794320 
# 
# From -- ./inp_files/37232.got.cif
#   From: 2010.05.17/outbox.cif.g08.bks.cpg/sg10_19_cif.got.tgz:37232.got - 2010.06.03 11:33:40.
