data_PCOD9147544
_publ_section_title
;
Structure prediction by ZEFSAII (Michael W. Deem and Ramdas Pophale) SiO2 
 PCOD9147544
Probable space group: P 2/M
;
_chemical_formula_sum "Si O2"
_cell_formula_units_Z 28
_cell_length_a 9.008623
_cell_length_b 21.608033
_cell_length_c 9.326881
_cell_angle_alpha 90.000000
_cell_angle_beta 47.455966
_cell_angle_gamma 90.000000
_cell_volume 1337.626566
_symmetry_space_group_name_H-M "P 2/M"
_symmetry_group_IT_number 10
_symmetry_cell_setting 'monoclinic'
loop_
_space_group_symop_operation_xyz
x,y,z
-x,y,-z
-x,-y,-z
x,-y,z
loop_
_atom_site_type_symbol
_atom_site_label
_atom_site_fract_x
_atom_site_fract_y
_atom_site_fract_z
Si Si1 0.697065 0.146680 0.464674
Si Si2 0.556267 0.835756 0.118370
Si Si3 0.787532 0.500000 0.060156
Si Si4 0.224836 0.748920 0.799604
Si Si5 0.776492 0.637642 0.718793
Si Si6 0.361938 0.637964 0.865860
Si Si7 0.925550 0.928928 0.883562
Si Si8 0.802339 0.500000 0.720730
O O1 0.500000 0.125133 0.500000
O O2 0.639486 0.143092 0.667439
O O3 0.740935 0.215581 0.372207
O O4 0.892128 0.105751 0.312658
O O5 0.646465 0.785247 0.165998
O O6 0.500000 0.811619 0.000000
O O7 0.720797 0.890214 0.000438
O O8 0.669922 0.565375 0.155184
O O9 0.851102 0.500000 0.853830
O O10 0.000000 0.500000 0.000000
O O11 0.278061 0.677630 0.787372
O O12 0.000000 0.758620 0.000000
O O13 0.587360 0.663866 0.753792
O O14 0.705615 0.565483 0.755511
O O15 0.000000 0.645848 0.500000
O O16 0.759871 0.650477 0.901970
O O17 0.900140 0.000000 0.855875
O O18 0.000000 0.928032 0.000000
O O19 0.000000 0.500000 0.500000
#
# Coordination Sequence:
#
# PCOD9147544 Si02
#       8
#     4   4   2   4   4   4   4   2
#     4  10  20  42  65  92 124 170 216 253 313 375
#     4  11  24  42  66  95 131 166 215 269 309 366
#     4  10  19  35  58  88 122 164 204 256 340 380
#     4  11  21  43  64  85 126 169 215 263 318 382
#     4   9  18  36  55  90 119 152 206 252 320 382
#     4  10  21  35  61  88 122 162 209 266 321 389
#     4  11  21  40  69 101 135 172 213 254 305 376
#     4   8  15  31  61  78 113 157 189 243 298 384
#
# _framework density 20.932600000000001
#
# number of rings (size 3 to 8) (size 9 to 14) (size 15 to 20)
#    0.000    1.857    4.286    0.857    2.000    3.429 
#    7.714    0.714    0.000    7.714    0.000    0.000 
#    0.000    0.000    0.000    0.000    0.000    0.000 
#
# Total GULP energy -156017.543173 kJ/mol
# GULP energy per Si atom -5572.055113 kJ/mol
# Density = 2.088496 g / cm^3
# Si number density = 20.932600 Si / 1000 Ang^3
#
#
#
# Elastic Constant Matrix: (Units=GPa)
#
#
# Indices 1 2 3 4 5 6 
#
# 1 44.1551 12.6598 27.0495 0.0000 -14.8605 0.0000
# 2 12.6598 96.8730 34.9538 0.0000 -8.4802 0.0000
# 3 27.0495 34.9538 117.3977 0.0000 -24.5170 0.0000
# 4 0.0000 0.0000 0.0000 -19.1311 0.0000 -2.3209
# 5 -14.8605 -8.4802 -24.5170 0.0000 26.2781 0.0000
# 6 0.0000 0.0000 0.0000 -2.3209 0.0000 28.0761
#
#
#
# Elastic Compliance Matrix: (Units=1/GPa)
#
#
# Indices 1 2 3 4 5 6 
#
# 1 0.029657 -0.001405 -0.003735 0.000000 0.012834 0.000000
# 2 -0.001405 0.011641 -0.003134 0.000000 0.000038 0.000000
# 3 -0.003735 -0.003134 0.011997 0.000000 0.008069 0.000000
# 4 0.000000 0.000000 0.000000 -0.051752 0.000000 -0.004278
# 5 0.012834 0.000038 0.008069 0.000000 0.052853 0.000000
# 6 0.000000 0.000000 0.000000 -0.004278 0.000000 0.035264
#
#
# Mechanical properties :
#
#
# Convention : Reuss Voigt Hill
#
# Bulk Modulus (GPa) = 27.21294 45.30578 36.25936
# Shear Modulus (GPa) = 42.20941 19.29544 30.75242
#
# Velocity S-wave (km/s) = 4.49535 3.03939 3.83706
# Velocity P-wave (km/s) = 6.32240 5.83162 6.08197
#
# Compressibility (1/GPa) = 0.03674722
#
# Stress axis : x y z
#
# Youngs Moduli (GPa) = 33.71831 85.90620 83.35407
#
# Poissons Ratio (x) = 0.12067 0.31133
# Poissons Ratio (y) = 0.04736 0.26126
# Poissons Ratio (z) = 0.12594 0.26925
#
# Static dielectric constant tensor:
#      x y z
#    x 1.758000 0.000000 -0.014120 
#    y 0.000000 1.851810 0.000000 
#    z -0.014120 0.000000 1.701080 
# 
# From -- ./inp_files/20454.got.cif
#   From: 2010.05.17/outbox.cif.g08.bks.cpg/sg10_11_cif.got.tgz:20454.got - 2010.06.03 11:33:40.
