data_PCOD9147737
_publ_section_title
;
Structure prediction by ZEFSAII (Michael W. Deem and Ramdas Pophale) SiO2 
 PCOD9147737
Probable space group: P 2/M
;
_chemical_formula_sum "Si O2"
_cell_formula_units_Z 32
_cell_length_a 20.807112
_cell_length_b 8.873665
_cell_length_c 26.849113
_cell_angle_alpha 90.000000
_cell_angle_beta 161.453128
_cell_angle_gamma 90.000000
_cell_volume 1576.818156
_symmetry_space_group_name_H-M "P 2/M"
_symmetry_group_IT_number 10
_symmetry_cell_setting 'monoclinic'
loop_
_space_group_symop_operation_xyz
x,y,z
-x,y,-z
-x,-y,-z
x,-y,z
loop_
_atom_site_type_symbol
_atom_site_label
_atom_site_fract_x
_atom_site_fract_y
_atom_site_fract_z
Si Si1 0.937086 0.677934 0.692014
Si Si2 0.651215 0.182933 0.153297
Si Si3 0.664223 0.821032 0.997351
Si Si4 0.501887 0.319564 0.782356
Si Si5 0.203090 0.175505 0.313089
Si Si6 0.073472 0.818903 0.497110
Si Si7 0.499050 0.681151 0.330627
Si Si8 0.663326 0.826623 0.693076
O O1 0.959499 0.500000 0.701588
O O2 0.904988 0.719339 0.726603
O O3 0.731387 0.729181 0.513490
O O4 0.143247 0.762435 0.830480
O O5 0.540527 0.218940 0.123767
O O6 0.882618 0.231826 0.323455
O O7 0.657087 0.000000 0.154157
O O8 0.500000 0.239633 0.000000
O O9 0.647454 0.749573 0.930751
O O10 0.676002 0.000000 0.002269
O O11 0.508965 0.500000 0.789823
O O12 0.552691 0.270965 0.763309
O O13 0.276765 0.263461 0.630662
O O14 0.202667 0.227711 0.255289
O O15 0.435408 0.174709 0.503165
O O16 0.134348 0.000000 0.265331
O O17 0.000000 0.792701 0.500000
O O18 0.104752 0.000000 0.515487
O O19 0.498543 0.500000 0.332481
O O20 0.353943 0.740497 0.267685
O O21 0.718040 0.000000 0.742719
#
# Coordination Sequence:
#
# PCOD9147737 Si02
#       8
#     4   4   4   4   4   4   4   4
#     4  10  20  34  52  78 110 142 177 217 262 317
#     4   9  19  35  55  80 106 132 168 217 269 314
#     4  11  22  38  57  78 105 140 179 220 266 317
#     4  11  23  38  55  77 108 145 180 217 263 315
#     4   8  14  27  47  75 107 139 173 215 262 310
#     4  10  19  36  58  79 103 133 176 222 260 311
#     4   9  20  35  51  76 111 144 177 216 262 316
#     4   8  14  26  48  76 106 136 175 220 260 304
#
# _framework density 20.294032000000001
#
# number of rings (size 3 to 8) (size 9 to 14) (size 15 to 20)
#    0.000    2.500    1.250    1.875    1.750    2.250 
#    0.000    2.500    0.000    2.625    0.000    5.250 
#    0.000    0.000    0.000    0.000    0.000    0.000 
#
# Total GULP energy -178469.653655 kJ/mol
# GULP energy per Si atom -5577.176677 kJ/mol
# Density = 2.024784 g / cm^3
# Si number density = 20.294032 Si / 1000 Ang^3
#
#
#
# Elastic Constant Matrix: (Units=GPa)
#
#
# Indices 1 2 3 4 5 6 
#
# 1 59.8092 11.6722 -5.5006 0.0000 -26.8738 0.0000
# 2 11.6722 25.2991 -1.0583 0.0000 -9.6630 0.0000
# 3 -5.5006 -1.0583 35.7684 0.0000 -16.1329 0.0000
# 4 0.0000 0.0000 0.0000 22.4943 0.0000 2.2028
# 5 -26.8738 -9.6630 -16.1329 0.0000 26.9162 0.0000
# 6 0.0000 0.0000 0.0000 2.2028 0.0000 25.3318
#
#
#
# Elastic Compliance Matrix: (Units=1/GPa)
#
#
# Indices 1 2 3 4 5 6 
#
# 1 0.069331 0.012623 0.060715 0.000000 0.110144 0.000000
# 2 0.012623 0.052218 0.024156 0.000000 0.045828 0.000000
# 3 0.060715 0.024156 0.094924 0.000000 0.126186 0.000000
# 4 0.000000 0.000000 0.000000 0.044837 0.000000 -0.003899
# 5 0.110144 0.045828 0.126186 0.000000 0.239208 0.000000
# 6 0.000000 0.000000 0.000000 -0.003899 0.000000 0.039815
#
#
# Mechanical properties :
#
#
# Convention : Reuss Voigt Hill
#
# Bulk Modulus (GPa) = 2.43037 14.56700 8.49869
# Shear Modulus (GPa) = 10.36270 22.66604 16.51437
#
# Velocity S-wave (km/s) = 2.26216 3.34560 2.85573
# Velocity P-wave (km/s) = 2.83255 4.70294 3.88207
#
# Compressibility (1/GPa) = 0.41146025
#
# Stress axis : x y z
#
# Youngs Moduli (GPa) = 14.42358 19.15044 10.53473
#
# Poissons Ratio (x) = -0.24173 -0.63961
# Poissons Ratio (y) = -0.18206 -0.25448
# Poissons Ratio (z) = -0.87572 -0.46261
#
# Static dielectric constant tensor:
#      x y z
#    x 1.756110 0.000000 -0.002920 
#    y 0.000000 1.682280 0.000000 
#    z -0.002920 0.000000 1.738250 
# 
# From -- ./inp_files/93621.got.cif
#   From: 2010.05.17/outbox.cif.g08.bks.cpg/sg10_47_cif.got.tgz:93621.got - 2010.06.03 11:33:40.
