data_PCOD9147725
_publ_section_title
;
Structure prediction by ZEFSAII (Michael W. Deem and Ramdas Pophale) SiO2 
 PCOD9147725
Probable space group: P 2/M
;
_chemical_formula_sum "Si O2"
_cell_formula_units_Z 32
_cell_length_a 29.853874
_cell_length_b 11.385245
_cell_length_c 9.348669
_cell_angle_alpha 90.000000
_cell_angle_beta 29.176324
_cell_angle_gamma 90.000000
_cell_volume 1549.053810
_symmetry_space_group_name_H-M "P 2/M"
_symmetry_group_IT_number 10
_symmetry_cell_setting 'monoclinic'
loop_
_space_group_symop_operation_xyz
x,y,z
-x,y,-z
-x,-y,-z
x,-y,z
loop_
_atom_site_type_symbol
_atom_site_label
_atom_site_fract_x
_atom_site_fract_y
_atom_site_fract_z
Si Si1 0.368737 0.627019 0.091286
Si Si2 0.864105 0.637417 0.762611
Si Si3 0.474311 0.809192 0.421381
Si Si4 0.685289 0.628722 0.063687
Si Si5 0.862416 0.866014 0.282177
Si Si6 0.072153 0.862496 0.585817
Si Si7 0.241757 0.719151 0.669371
Si Si8 0.593623 0.871095 0.680623
O O1 0.416379 0.500000 0.947250
O O2 0.311520 0.632221 0.395564
O O3 0.438474 0.734726 0.878797
O O4 0.299736 0.634458 0.148279
O O5 0.900346 0.500000 0.652150
O O6 0.918292 0.753946 0.553166
O O7 0.774912 0.641305 0.908899
O O8 0.829343 0.662790 0.020885
O O9 0.500000 0.867302 0.500000
O O10 0.394079 0.718337 0.681415
O O11 0.430376 0.881915 0.418010
O O12 0.647428 0.500000 0.201209
O O13 0.867627 0.837653 0.437781
O O14 0.806629 0.786880 0.326843
O O15 0.827914 0.000000 0.368430
O O16 0.967363 0.864082 0.933069
O O17 0.092555 0.000000 0.481623
O O18 0.311560 0.804799 0.559146
O O19 0.600441 0.000000 0.730607
O O20 0.500000 0.811344 0.000000
#
# Coordination Sequence:
#
# PCOD9147725 Si02
#       8
#     4   4   4   4   4   4   4   4
#     4  10  20  34  55  81 110 153 200 243 290 349
#     4  11  23  38  58  91 130 163 199 245 301 362
#     4  10  19  36  57  79 106 146 198 245 293 345
#     4   9  18  34  55  81 115 149 193 247 292 342
#     4   9  20  41  69  94 117 153 201 252 298 363
#     4   9  20  43  70  94 119 152 202 252 302 361
#     4  12  22  37  58  85 122 160 198 239 299 362
#     4  11  23  39  54  77 114 155 197 247 300 351
#
# _framework density 20.657772000000001
#
# number of rings (size 3 to 8) (size 9 to 14) (size 15 to 20)
#    0.000    1.875    2.500    2.625    0.000    3.250 
#    0.000    5.625    0.000    0.000    0.000    0.000 
#    0.000    0.000    0.000    0.000    0.000    0.000 
#
# Total GULP energy -178172.293180 kJ/mol
# GULP energy per Si atom -5567.884162 kJ/mol
# Density = 2.061075 g / cm^3
# Si number density = 20.657772 Si / 1000 Ang^3
#
#
#
# Elastic Constant Matrix: (Units=GPa)
#
#
# Indices 1 2 3 4 5 6 
#
# 1 78.3776 24.6955 1.9093 0.0000 3.5275 0.0000
# 2 24.6955 109.9932 32.6879 0.0000 7.2489 0.0000
# 3 1.9093 32.6879 50.6347 0.0000 21.6322 0.0000
# 4 0.0000 0.0000 0.0000 43.0263 0.0000 -3.9677
# 5 3.5275 7.2489 21.6322 0.0000 32.0063 0.0000
# 6 0.0000 0.0000 0.0000 -3.9677 0.0000 17.4091
#
#
#
# Elastic Compliance Matrix: (Units=1/GPa)
#
#
# Indices 1 2 3 4 5 6 
#
# 1 0.014043 -0.003920 0.003210 0.000000 -0.002829 0.000000
# 2 -0.003920 0.012601 -0.009774 0.000000 0.004184 0.000000
# 3 0.003210 -0.009774 0.035351 0.000000 -0.022033 0.000000
# 4 0.000000 0.000000 0.000000 0.023741 0.000000 0.005411
# 5 -0.002829 0.004184 -0.022033 0.000000 0.045499 0.000000
# 6 0.000000 0.000000 0.000000 0.005411 0.000000 0.058674
#
#
# Mechanical properties :
#
#
# Convention : Reuss Voigt Hill
#
# Bulk Modulus (GPa) = 24.37501 39.73234 32.05368
# Shear Modulus (GPa) = 22.26639 30.46922 26.36781
#
# Velocity S-wave (km/s) = 3.28665 3.84468 3.57657
# Velocity P-wave (km/s) = 5.12131 6.24372 5.71016
#
# Compressibility (1/GPa) = 0.04102563
#
# Stress axis : x y z
#
# Youngs Moduli (GPa) = 71.20898 79.36081 28.28766
#
# Poissons Ratio (x) = 0.31113 -0.09081
# Poissons Ratio (y) = 0.27917 0.27649
# Poissons Ratio (z) = -0.22860 0.77570
#
# Static dielectric constant tensor:
#      x y z
#    x 1.761030 0.000000 0.030010 
#    y 0.000000 1.722350 0.000000 
#    z 0.030010 0.000000 1.740970 
# 
# From -- ./inp_files/38219.got.cif
#   From: 2010.05.17/outbox.cif.g08.bks.cpg/sg10_20_cif.got.tgz:38219.got - 2010.06.03 11:33:40.
