data_PCOD9147719
_publ_section_title
;
Structure prediction by ZEFSAII (Michael W. Deem and Ramdas Pophale) SiO2 
 PCOD9147719
Probable space group: P 2/M
;
_chemical_formula_sum "Si O2"
_cell_formula_units_Z 28
_cell_length_a 26.649877
_cell_length_b 7.481046
_cell_length_c 9.637967
_cell_angle_alpha 90.000000
_cell_angle_beta 42.721464
_cell_angle_gamma 90.000000
_cell_volume 1303.620471
_symmetry_space_group_name_H-M "P 2/M"
_symmetry_group_IT_number 10
_symmetry_cell_setting 'monoclinic'
loop_
_space_group_symop_operation_xyz
x,y,z
-x,y,-z
-x,-y,-z
x,-y,z
loop_
_atom_site_type_symbol
_atom_site_label
_atom_site_fract_x
_atom_site_fract_y
_atom_site_fract_z
Si Si1 0.072726 0.205047 0.780791
Si Si2 0.837827 0.785532 0.003188
Si Si3 0.390317 0.500000 0.638347
Si Si4 0.718852 0.212148 0.041801
Si Si5 0.349704 0.213386 0.118710
Si Si6 0.461010 0.500000 0.803155
Si Si7 0.996437 0.295554 0.354420
Si Si8 0.228165 0.782448 0.577722
O O1 0.152711 0.279998 0.655370
O O2 0.055294 0.206059 0.653603
O O3 0.075421 0.000000 0.827170
O O4 0.000000 0.289191 0.000000
O O5 0.799946 0.737422 0.934117
O O6 0.783068 0.733780 0.239354
O O7 0.846694 0.000000 0.989233
O O8 0.918389 0.708165 0.866697
O O9 0.339067 0.325482 0.750615
O O10 0.430811 0.500000 0.706205
O O11 0.451003 0.500000 0.394279
O O12 0.709894 0.000000 0.083511
O O13 0.700454 0.245553 0.918003
O O14 0.301014 0.274821 0.348355
O O15 0.363812 0.000000 0.096483
O O16 0.424077 0.326980 0.948895
O O17 0.971178 0.500000 0.418633
O O18 0.000000 0.212904 0.500000
O O19 0.230364 0.000000 0.565050
#
# Coordination Sequence:
#
# PCOD9147719 Si02
#       8
#     4   4   2   4   4   2   4   4
#     4  10  19  36  57  76 101 137 185 232 273 321
#     4  10  20  37  57  76 103 142 184 221 268 328
#     4   9  18  34  57  81 117 141 171 224 264 316
#     4   9  19  33  54  83 109 143 183 217 268 324
#     4   9  18  34  53  81 113 139 178 227 264 317
#     4   9  18  34  55  87 109 143 179 209 274 325
#     4  11  25  39  49  75 111 145 184 230 281 323
#     4   9  18  34  55  77 104 139 177 224 276 321
#
# _framework density 21.478643000000002
#
# number of rings (size 3 to 8) (size 9 to 14) (size 15 to 20)
#    0.000    2.429    1.429    0.429    3.000    2.000 
#    2.571    2.857    0.000    1.714    0.000    4.000 
#    0.000    0.000    0.000    0.000    0.000    0.000 
#
# Total GULP energy -156247.225828 kJ/mol
# GULP energy per Si atom -5580.258065 kJ/mol
# Density = 2.142976 g / cm^3
# Si number density = 21.478643 Si / 1000 Ang^3
#
#
#
# Elastic Constant Matrix: (Units=GPa)
#
#
# Indices 1 2 3 4 5 6 
#
# 1 22.7788 -4.4567 -17.0877 0.0000 8.8757 0.0000
# 2 -4.4567 59.6562 7.0387 0.0000 1.1787 0.0000
# 3 -17.0877 7.0387 87.3013 0.0000 7.7621 0.0000
# 4 0.0000 0.0000 0.0000 -9.6919 0.0000 58.2308
# 5 8.8757 1.1787 7.7621 0.0000 22.5720 0.0000
# 6 0.0000 0.0000 0.0000 58.2308 0.0000 -115.6512
#
#
#
# Elastic Compliance Matrix: (Units=1/GPa)
#
#
# Indices 1 2 3 4 5 6 
#
# 1 0.069896 0.003954 0.016323 0.000000 -0.033304 0.000000
# 2 0.003954 0.017151 -0.000403 0.000000 -0.002312 0.000000
# 3 0.016323 -0.000403 0.015732 0.000000 -0.011808 0.000000
# 4 0.000000 0.000000 0.000000 0.050949 0.000000 0.025653
# 5 -0.033304 -0.002312 -0.011808 0.000000 0.061580 0.000000
# 6 0.000000 0.000000 0.000000 0.025653 0.000000 0.004270
#
#
# Mechanical properties :
#
#
# Convention : Reuss Voigt Hill
#
# Bulk Modulus (GPa) = 7.01624 15.63609 11.32617
# Shear Modulus (GPa) = 21.99358 -8.27144 6.86107
#
# Velocity S-wave (km/s) = 3.20343 -1.96453 1.78922
# Velocity P-wave (km/s) = 4.11781 1.46622 3.09081
#
# Compressibility (1/GPa) = 0.14252644
#
# Stress axis : x y z
#
# Youngs Moduli (GPa) = 14.30700 58.30443 63.56500
#
# Poissons Ratio (x) = -0.23053 -1.03759
# Poissons Ratio (y) = -0.05657 0.02564
# Poissons Ratio (z) = -0.23354 0.02352
#
# Static dielectric constant tensor:
#      x y z
#    x 1.760820 0.000000 0.019460 
#    y 0.000000 1.800840 0.000000 
#    z 0.019460 0.000000 1.795600 
# 
# From -- ./inp_files/37161.got.cif
#   From: 2010.05.17/outbox.cif.g08.bks.cpg/sg10_19_cif.got.tgz:37161.got - 2010.06.03 11:33:40.
