data_PCOD9147970
_publ_section_title
;
Structure prediction by ZEFSAII (Michael W. Deem and Ramdas Pophale) SiO2 
 PCOD9147970
Probable space group: P 2/M
;
_chemical_formula_sum "Si O2"
_cell_formula_units_Z 32
_cell_length_a 16.483681
_cell_length_b 13.859600
_cell_length_c 24.266204
_cell_angle_alpha 90.000000
_cell_angle_beta 17.071092
_cell_angle_gamma 90.000000
_cell_volume 1627.424086
_symmetry_space_group_name_H-M "P 2/M"
_symmetry_group_IT_number 10
_symmetry_cell_setting 'monoclinic'
loop_
_space_group_symop_operation_xyz
x,y,z
-x,y,-z
-x,-y,-z
x,-y,z
loop_
_atom_site_type_symbol
_atom_site_label
_atom_site_fract_x
_atom_site_fract_y
_atom_site_fract_z
Si Si1 0.303615 0.389099 0.330191
Si Si2 0.710098 0.612671 0.962159
Si Si3 0.492883 0.886172 0.628968
Si Si4 0.750962 0.211866 0.562875
Si Si5 0.758261 0.740422 0.366895
Si Si6 0.000649 0.107068 0.124858
Si Si7 0.374138 0.890321 0.250811
Si Si8 0.368788 0.780830 0.138593
O O1 0.290199 0.500000 0.357431
O O2 0.356025 0.313936 0.344910
O O3 0.000000 0.367413 0.500000
O O4 0.545570 0.380545 0.127629
O O5 0.721401 0.500000 0.940127
O O6 0.012440 0.661496 0.766453
O O7 0.520531 0.678657 0.046533
O O8 0.558597 0.847438 0.646822
O O9 0.648860 0.810855 0.486651
O O10 0.172073 0.881137 0.818984
O O11 0.576276 0.000000 0.569463
O O12 0.811191 0.153280 0.580103
O O13 0.042271 0.228678 0.343763
O O14 0.500000 0.697941 0.500000
O O15 0.901620 0.813089 0.231283
O O16 0.923492 0.000000 0.196172
O O17 0.327996 0.111967 0.911879
O O18 0.411919 0.834009 0.169058
O O19 0.304492 0.000000 0.283274
O O20 0.500000 0.831506 0.000000
#
# Coordination Sequence:
#
# PCOD9147970 Si02
#       8
#     4   4   4   4   4   4   4   4
#     4  10  19  37  65  89 113 158 214 263 312 369
#     4  11  22  40  64  91 120 157 210 266 319 373
#     4  10  22  37  59  93 130 170 211 255 308 368
#     4  12  22  38  61  91 129 164 208 260 310 375
#     4  10  19  37  62  90 126 166 204 254 315 377
#     4   9  18  36  63  90 120 163 214 259 304 368
#     4  11  23  40  63  89 122 167 214 259 313 374
#     4  12  25  41  60  88 125 164 207 256 315 379
#
# _framework density 19.662976
#
# number of rings (size 3 to 8) (size 9 to 14) (size 15 to 20)
#    0.000    1.375    3.750    1.875    0.000    4.250 
#    0.000    3.750    0.000    0.750    0.000    7.875 
#    0.000    0.000    0.000    0.000    0.000    0.000 
#
# Total GULP energy -178548.915541 kJ/mol
# GULP energy per Si atom -5579.653611 kJ/mol
# Density = 1.961822 g / cm^3
# Si number density = 19.662976 Si / 1000 Ang^3
#
#
#
# Elastic Constant Matrix: (Units=GPa)
#
#
# Indices 1 2 3 4 5 6 
#
# 1 106.1583 46.9041 27.9036 0.0000 6.0039 0.0000
# 2 46.9041 118.5187 27.8680 0.0000 0.5821 0.0000
# 3 27.9036 27.8680 71.0963 0.0000 -0.9824 0.0000
# 4 0.0000 0.0000 0.0000 19.5552 0.0000 -7.5889
# 5 6.0039 0.5821 -0.9824 0.0000 31.1166 0.0000
# 6 0.0000 0.0000 0.0000 -7.5889 0.0000 16.8554
#
#
#
# Elastic Compliance Matrix: (Units=1/GPa)
#
#
# Indices 1 2 3 4 5 6 
#
# 1 0.012195 -0.004055 -0.003230 0.000000 -0.002379 0.000000
# 2 -0.004055 0.010645 -0.002574 0.000000 0.000502 0.000000
# 3 -0.003230 -0.002574 0.016358 0.000000 0.001188 0.000000
# 4 0.000000 0.000000 0.000000 0.061964 0.000000 0.027898
# 5 -0.002379 0.000502 0.001188 0.000000 0.032624 0.000000
# 6 0.000000 0.000000 0.000000 0.027898 0.000000 0.071889
#
#
# Mechanical properties :
#
#
# Convention : Reuss Voigt Hill
#
# Bulk Modulus (GPa) = 51.33272 55.68051 53.50662
# Shear Modulus (GPa) = 21.56223 26.37863 23.97043
#
# Velocity S-wave (km/s) = 3.31507 3.66667 3.49530
# Velocity P-wave (km/s) = 6.38873 6.80477 6.60003
#
# Compressibility (1/GPa) = 0.01948075
#
# Stress axis : x y z
#
# Youngs Moduli (GPa) = 82.00062 93.93973 61.13072
#
# Poissons Ratio (x) = 0.38094 0.19743
# Poissons Ratio (y) = 0.33252 0.15736
# Poissons Ratio (z) = 0.26483 0.24181
#
# Static dielectric constant tensor:
#      x y z
#    x 1.710980 0.000000 -0.024990 
#    y 0.000000 1.687850 0.000000 
#    z -0.024990 0.000000 1.741760 
# 
# From -- ./inp_files/42961.got.cif
#   From: 2010.05.17/outbox.cif.g08.bks.cpg/sg10_22_cif.got.tgz:42961.got - 2010.06.03 11:33:40.
