data_PCOD9147449
_publ_section_title
;
Structure prediction by ZEFSAII (Michael W. Deem and Ramdas Pophale) SiO2 
 PCOD9147449
Probable space group: P 2/M
;
_chemical_formula_sum "Si O2"
_cell_formula_units_Z 28
_cell_length_a 17.138590
_cell_length_b 8.833861
_cell_length_c 12.840300
_cell_angle_alpha 90.000000
_cell_angle_beta 120.503632
_cell_angle_gamma 90.000000
_cell_volume 1674.962130
_symmetry_space_group_name_H-M "P 2/M"
_symmetry_group_IT_number 10
_symmetry_cell_setting 'monoclinic'
loop_
_space_group_symop_operation_xyz
x,y,z
-x,y,-z
-x,-y,-z
x,-y,z
loop_
_atom_site_type_symbol
_atom_site_label
_atom_site_fract_x
_atom_site_fract_y
_atom_site_fract_z
Si Si1 0.290967 0.318189 0.400025
Si Si2 0.601128 0.317888 0.736602
Si Si3 0.730132 0.681692 0.019862
Si Si4 0.902216 0.318043 0.822807
Si Si5 0.592719 0.820239 0.341175
Si Si6 0.091943 0.819394 0.942204
Si Si7 0.596384 0.318000 0.116256
O O1 0.297883 0.500000 0.416401
O O2 0.350365 0.276365 0.338529
O O3 0.186756 0.281542 0.303976
O O4 0.331546 0.239853 0.528413
O O5 0.588936 0.500000 0.729556
O O6 0.666413 0.279628 0.877797
O O7 0.504221 0.242082 0.685458
O O8 0.745046 0.500000 0.026138
O O9 0.824901 0.766056 0.072070
O O10 0.674953 0.717960 0.086929
O O11 0.909336 0.500000 0.836614
O O12 0.995413 0.249335 0.842972
O O13 0.890717 0.249607 0.930784
O O14 0.607825 0.758432 0.235218
O O15 0.591177 0.000000 0.339645
O O16 0.086456 0.000000 0.944979
O O17 0.594245 0.500000 0.129046
O O18 0.500000 0.274459 0.000000
#
# Coordination Sequence:
#
# PCOD9147449 Si02
#       7
#     4   4   4   4   4   4   4
#     4  10  21  37  58  79 105 146 189 228 264 314
#     4  10  19  36  57  79 107 144 189 225 263 315
#     4  10  19  35  59  82 106 141 186 228 267 313
#     4  10  19  35  57  79 106 143 189 228 261 315
#     4  12  25  36  51  79 116 149 179 221 276 332
#     4  11  21  32  51  83 118 145 170 216 282 335
#     4  10  20  38  61  79 101 141 191 233 264 309
#
# _framework density 16.716795000000001
#
# number of rings (size 3 to 8) (size 9 to 14) (size 15 to 20)
#    0.000    1.571    2.857    4.286    0.000    4.857 
#    0.000    0.000    0.000    0.857    0.000    6.000 
#    0.000    0.000    0.000    0.000    0.000    0.000 
#
# Total GULP energy -156418.410065 kJ/mol
# GULP energy per Si atom -5586.371788 kJ/mol
# Density = 1.667875 g / cm^3
# Si number density = 16.716795 Si / 1000 Ang^3
#
#
#
# Elastic Constant Matrix: (Units=GPa)
#
#
# Indices 1 2 3 4 5 6 
#
# 1 147.4841 70.0582 84.3779 0.0000 15.2619 0.0000
# 2 70.0582 68.2132 62.0127 0.0000 6.8728 0.0000
# 3 84.3779 62.0127 141.1300 0.0000 3.3197 0.0000
# 4 0.0000 0.0000 0.0000 -16.7379 0.0000 -21.4566
# 5 15.2619 6.8728 3.3197 0.0000 16.3735 0.0000
# 6 0.0000 0.0000 0.0000 -21.4566 0.0000 -8.5167
#
#
#
# Elastic Compliance Matrix: (Units=1/GPa)
#
#
# Indices 1 2 3 4 5 6 
#
# 1 0.015296 -0.011158 -0.004036 0.000000 -0.008756 0.000000
# 2 -0.011158 0.033672 -0.008075 0.000000 -0.002096 0.000000
# 3 -0.004036 -0.008075 0.012940 0.000000 0.004528 0.000000
# 4 0.000000 0.000000 0.000000 0.026796 0.000000 -0.067509
# 5 -0.008756 -0.002096 0.004528 0.000000 0.069197 0.000000
# 6 0.000000 0.000000 0.000000 -0.067509 0.000000 0.052662
#
#
# Mechanical properties :
#
#
# Convention : Reuss Voigt Hill
#
# Bulk Modulus (GPa) = 65.06319 87.74721 76.40520
# Shear Modulus (GPa) = 19.06749 7.58234 13.32492
#
# Velocity S-wave (km/s) = 3.38097 2.13204 2.82635
# Velocity P-wave (km/s) = 7.36523 7.65932 7.51372
#
# Compressibility (1/GPa) = 0.01536967
#
# Stress axis : x y z
#
# Youngs Moduli (GPa) = 65.37643 29.69796 77.27694
#
# Poissons Ratio (x) = 0.33138 0.31190
# Poissons Ratio (y) = 0.72949 0.62402
# Poissons Ratio (z) = 0.26387 0.23981
#
# Static dielectric constant tensor:
#      x y z
#    x 1.560070 0.000000 0.006960 
#    y 0.000000 1.553260 0.000000 
#    z 0.006960 0.000000 1.538930 
# 
# From -- ./inp_files/49407.got.cif
#   From: 2010.05.17/outbox.cif.g08.bks.cpg/sg10_25_cif.got.tgz:49407.got - 2010.06.03 11:33:40.
