data_PCOD9147320
_publ_section_title
;
Structure prediction by ZEFSAII (Michael W. Deem and Ramdas Pophale) SiO2 
 PCOD9147320
Probable space group: P 2/M
;
_chemical_formula_sum "Si O2"
_cell_formula_units_Z 32
_cell_length_a 24.016768
_cell_length_b 13.884150
_cell_length_c 16.949371
_cell_angle_alpha 90.000000
_cell_angle_beta 17.074731
_cell_angle_gamma 90.000000
_cell_volume 1659.477066
_symmetry_space_group_name_H-M "P 2/M"
_symmetry_group_IT_number 10
_symmetry_cell_setting 'monoclinic'
loop_
_space_group_symop_operation_xyz
x,y,z
-x,y,-z
-x,-y,-z
x,-y,z
loop_
_atom_site_type_symbol
_atom_site_label
_atom_site_fract_x
_atom_site_fract_y
_atom_site_fract_z
Si Si1 0.408070 0.609911 0.781969
Si Si2 0.299175 0.273901 0.796901
Si Si3 0.440603 0.786527 0.990854
Si Si4 0.774694 0.609601 0.797948
Si Si5 0.201345 0.267955 0.754253
Si Si6 0.061296 0.886599 0.501517
Si Si7 0.621011 0.114544 0.599154
Si Si8 0.278225 0.888859 0.941757
O O1 0.449232 0.500000 0.704670
O O2 0.253280 0.654816 0.930846
O O3 0.607101 0.668880 0.517119
O O4 0.314939 0.613608 0.993767
O O5 0.500000 0.318499 0.500000
O O6 0.186894 0.255656 0.868931
O O7 0.344085 0.174223 0.779856
O O8 0.334248 0.691539 0.103016
O O9 0.280166 0.868453 0.214778
O O10 0.500000 0.768365 0.000000
O O11 0.590360 0.827800 0.723131
O O12 0.747028 0.500000 0.804486
O O13 0.000000 0.625603 0.500000
O O14 0.238591 0.172028 0.650576
O O15 0.000000 0.310812 0.000000
O O16 0.000000 0.846546 0.500000
O O17 0.020168 0.000000 0.555840
O O18 0.925229 0.849374 0.754392
O O19 0.419967 0.118795 0.824077
O O20 0.665282 0.000000 0.550056
O O21 0.267978 0.000000 0.932659
#
# Coordination Sequence:
#
# PCOD9147320 Si02
#       8
#     4   4   4   4   4   4   4   4
#     4  10  21  42  68  91 119 152 196 253 306 358
#     4  10  20  36  58  88 115 147 200 255 295 348
#     4  12  24  37  60  90 125 165 196 246 304 368
#     4  10  22  42  69  96 121 156 200 246 306 372
#     4  11  24  41  60  87 124 163 203 244 299 357
#     4  10  20  34  56  85 116 155 202 249 295 355
#     4  11  22  40  61  85 121 165 208 245 302 357
#     4  10  19  34  60  88 114 152 204 255 299 346
#
# _framework density 19.283183000000001
#
# number of rings (size 3 to 8) (size 9 to 14) (size 15 to 20)
#    0.000    1.500    5.000    0.750    1.750    5.750 
#    0.000    1.250    0.000    0.000    0.000    0.000 
#    0.000    0.000    0.000    0.000    0.000    0.000 
#
# Total GULP energy -178231.377305 kJ/mol
# GULP energy per Si atom -5569.730541 kJ/mol
# Density = 1.923929 g / cm^3
# Si number density = 19.283183 Si / 1000 Ang^3
#
#
#
# Elastic Constant Matrix: (Units=GPa)
#
#
# Indices 1 2 3 4 5 6 
#
# 1 127.3541 47.2728 20.1121 0.0000 3.8705 0.0000
# 2 47.2728 111.3971 18.5204 0.0000 8.1537 0.0000
# 3 20.1121 18.5204 54.2070 0.0000 4.7505 0.0000
# 4 0.0000 0.0000 0.0000 20.0958 0.0000 1.8637
# 5 3.8705 8.1537 4.7505 0.0000 13.2445 0.0000
# 6 0.0000 0.0000 0.0000 1.8637 0.0000 2.0406
#
#
#
# Elastic Compliance Matrix: (Units=1/GPa)
#
#
# Indices 1 2 3 4 5 6 
#
# 1 0.009584 -0.003704 -0.002317 0.000000 0.000311 0.000000
# 2 -0.003704 0.011260 -0.002024 0.000000 -0.005124 0.000000
# 3 -0.002317 -0.002024 0.020474 0.000000 -0.005421 0.000000
# 4 0.000000 0.000000 0.000000 0.054366 0.000000 -0.049653
# 5 0.000311 -0.005124 -0.005421 0.000000 0.080511 0.000000
# 6 0.000000 0.000000 0.000000 -0.049653 0.000000 0.535396
#
#
# Mechanical properties :
#
#
# Convention : Reuss Voigt Hill
#
# Bulk Modulus (GPa) = 39.64005 51.64099 45.64052
# Shear Modulus (GPa) = 6.79263 20.87969 13.83616
#
# Velocity S-wave (km/s) = 1.87889 3.29415 2.68157
# Velocity P-wave (km/s) = 5.03074 6.42706 5.77128
#
# Compressibility (1/GPa) = 0.02522701
#
# Stress axis : x y z
#
# Youngs Moduli (GPa) = 104.34384 88.80646 48.84218
#
# Poissons Ratio (x) = 0.32898 0.11319
# Poissons Ratio (y) = 0.38654 0.09885
# Poissons Ratio (z) = 0.24180 0.17972
#
# Static dielectric constant tensor:
#      x y z
#    x 1.718140 0.000000 0.048940 
#    y 0.000000 1.712100 0.000000 
#    z 0.048940 0.000000 1.740510 
# 
# From -- ./inp_files/29555.got.cif
#   From: 2010.05.17/outbox.cif.g08.bks.cpg/sg10_15_cif.got.tgz:29555.got - 2010.06.03 11:33:40.
