data_PCOD9147439
_publ_section_title
;
Structure prediction by ZEFSAII (Michael W. Deem and Ramdas Pophale) SiO2 
 PCOD9147439
Probable space group: P 2/M
;
_chemical_formula_sum "Si O2"
_cell_formula_units_Z 28
_cell_length_a 18.760987
_cell_length_b 11.716646
_cell_length_c 22.036814
_cell_angle_alpha 90.000000
_cell_angle_beta 18.615253
_cell_angle_gamma 90.000000
_cell_volume 1546.274071
_symmetry_space_group_name_H-M "P 2/M"
_symmetry_group_IT_number 10
_symmetry_cell_setting 'monoclinic'
loop_
_space_group_symop_operation_xyz
x,y,z
-x,y,-z
-x,-y,-z
x,-y,z
loop_
_atom_site_type_symbol
_atom_site_label
_atom_site_fract_x
_atom_site_fract_y
_atom_site_fract_z
Si Si1 0.713923 0.137922 0.407267
Si Si2 0.316533 0.000000 0.240490
Si Si3 0.896294 0.634675 0.451119
Si Si4 0.786080 0.138750 0.209989
Si Si5 0.173796 0.000000 0.220456
Si Si6 0.420569 0.776226 0.225777
Si Si7 0.073510 0.791951 0.215265
Si Si8 0.312757 0.635892 0.196396
O O1 0.789023 0.171011 0.278545
O O2 0.454569 0.173010 0.622813
O O3 0.878866 0.184532 0.324708
O O4 0.721779 0.000000 0.404089
O O5 0.303579 0.110290 0.293941
O O6 0.168788 0.000000 0.298038
O O7 0.567385 0.000000 0.010019
O O8 0.843715 0.500000 0.494494
O O9 0.687361 0.719538 0.627952
O O10 0.030930 0.671748 0.282665
O O11 0.069428 0.660937 0.366282
O O12 0.788693 0.000000 0.206712
O O13 0.000000 0.179523 0.000000
O O14 0.073848 0.888022 0.268329
O O15 0.369425 0.683361 0.215533
O O16 0.685719 0.797166 0.011731
O O17 0.331972 0.500000 0.181612
O O18 0.500000 0.685445 0.000000
#
# Coordination Sequence:
#
# PCOD9147439 Si02
#       8
#     4   2   4   4   2   4   4   4
#     4   9  17  31  51  80 114 145 176 206 253 314
#     4   9  20  33  51  73 101 143 189 220 261 329
#     4  11  24  38  55  78 101 135 189 241 285 325
#     4   8  15  29  52  80 109 144 178 211 243 297
#     4   9  18  33  53  74 104 146 178 216 267 324
#     4  11  22  36  53  76 105 140 183 231 279 326
#     4  11  21  35  54  78 113 146 174 216 272 330
#     4  10  19  35  57  74  93 130 183 244 289 316
#
# _framework density 18.108045000000001
#
# number of rings (size 3 to 8) (size 9 to 14) (size 15 to 20)
#    0.000    2.143    2.143    2.571    2.000    3.429 
#    0.000    2.143    0.000    0.000    0.000    2.000 
#    0.000    5.714    0.000    0.000    0.000    0.000 
#
# Total GULP energy -156207.713968 kJ/mol
# GULP energy per Si atom -5578.846927 kJ/mol
# Density = 1.806683 g / cm^3
# Si number density = 18.108045 Si / 1000 Ang^3
#
#
#
# Elastic Constant Matrix: (Units=GPa)
#
#
# Indices 1 2 3 4 5 6 
#
# 1 83.9798 18.3543 40.0315 0.0000 -30.0365 0.0000
# 2 18.3543 36.7024 28.9633 0.0000 -3.9434 0.0000
# 3 40.0315 28.9633 109.5688 0.0000 -6.7128 0.0000
# 4 0.0000 0.0000 0.0000 27.9572 0.0000 15.5895
# 5 -30.0365 -3.9434 -6.7128 0.0000 21.2891 0.0000
# 6 0.0000 0.0000 0.0000 15.5895 0.0000 40.3026
#
#
#
# Elastic Compliance Matrix: (Units=1/GPa)
#
#
# Indices 1 2 3 4 5 6 
#
# 1 0.031177 -0.005308 -0.007498 0.000000 0.040640 0.000000
# 2 -0.005308 0.035601 -0.007674 0.000000 -0.003314 0.000000
# 3 -0.007498 -0.007674 0.013419 0.000000 -0.007769 0.000000
# 4 0.000000 0.000000 0.000000 0.045606 0.000000 -0.017641
# 5 0.040640 -0.003314 -0.007769 0.000000 0.101247 0.000000
# 6 0.000000 0.000000 0.000000 -0.017641 0.000000 0.031636
#
#
# Mechanical properties :
#
#
# Convention : Reuss Voigt Hill
#
# Bulk Modulus (GPa) = 25.48655 44.99434 35.24044
# Shear Modulus (GPa) = 15.98848 27.43658 21.71253
#
# Velocity S-wave (km/s) = 2.97467 3.89673 3.46649
# Velocity P-wave (km/s) = 5.08955 6.71920 5.96033
#
# Compressibility (1/GPa) = 0.03923639
#
# Stress axis : x y z
#
# Youngs Moduli (GPa) = 32.07468 28.08934 74.52265
#
# Poissons Ratio (x) = 0.14909 0.55876
# Poissons Ratio (y) = 0.17025 0.57192
# Poissons Ratio (z) = 0.24049 0.21557
#
# Static dielectric constant tensor:
#      x y z
#    x 1.600590 0.000000 0.029830 
#    y 0.000000 1.623770 0.000000 
#    z 0.029830 0.000000 1.719600 
# 
# From -- ./inp_files/79538.got.cif
#   From: 2010.05.17/outbox.cif.g08.bks.cpg/sg10_40_cif.got.tgz:79538.got - 2010.06.03 11:33:40.
