data_PCOD9147753
_publ_section_title
;
Structure prediction by ZEFSAII (Michael W. Deem and Ramdas Pophale) SiO2 
 PCOD9147753
Probable space group: P 2/M
;
_chemical_formula_sum "Si O2"
_cell_formula_units_Z 24
_cell_length_a 19.006691
_cell_length_b 7.660354
_cell_length_c 17.462380
_cell_angle_alpha 90.000000
_cell_angle_beta 149.125991
_cell_angle_gamma 90.000000
_cell_volume 1304.682322
_symmetry_space_group_name_H-M "P 2/M"
_symmetry_group_IT_number 10
_symmetry_cell_setting 'monoclinic'
loop_
_space_group_symop_operation_xyz
x,y,z
-x,y,-z
-x,-y,-z
x,-y,z
loop_
_atom_site_type_symbol
_atom_site_label
_atom_site_fract_x
_atom_site_fract_y
_atom_site_fract_z
Si Si1 0.313381 0.789235 0.622618
Si Si2 0.103921 0.293009 0.832350
Si Si3 0.279987 0.500000 0.336767
Si Si4 0.159101 0.798249 0.321321
Si Si5 0.601188 0.797633 0.837638
Si Si6 0.943267 0.789096 0.527688
Si Si7 0.582607 0.500000 0.694981
O O1 0.249266 0.742961 0.479938
O O2 0.472125 0.739573 0.769509
O O3 0.207939 0.724100 0.588412
O O4 0.308530 0.000000 0.622552
O O5 0.109876 0.500000 0.848725
O O6 0.996347 0.218730 0.793847
O O7 0.042346 0.253827 0.691218
O O8 0.254597 0.217614 0.984917
O O9 0.197936 0.668952 0.289714
O O10 0.429068 0.500000 0.517226
O O11 0.311783 0.500000 0.276747
O O12 0.189177 0.000000 0.331821
O O13 0.602582 0.669780 0.766446
O O14 0.578095 0.000000 0.793849
O O15 0.000000 0.722841 0.500000
O O16 0.936682 0.000000 0.516544
#
# Coordination Sequence:
#
# PCOD9147753 Si02
#       7
#     4   4   2   4   4   4   2
#     4   8  16  31  56  81 106 149 193 227 273 332
#     4  11  21  35  59  84 114 150 193 237 282 334
#     4  11  22  37  59  89 116 145 186 238 288 340
#     4  10  19  36  58  83 111 149 195 233 278 335
#     4  11  21  38  58  82 115 152 194 234 280 339
#     4   9  18  35  58  86 116 147 188 235 281 332
#     4  11  24  37  57  89 118 146 186 234 294 335
#
# _framework density 18.395282999999999
#
# number of rings (size 3 to 8) (size 9 to 14) (size 15 to 20)
#    0.000    2.000    3.333    2.500    0.000    1.000 
#    0.000    4.167    0.000    7.000    0.000    0.000 
#    0.000    0.000    0.000    0.000    0.000    0.000 
#
# Total GULP energy -133910.811408 kJ/mol
# GULP energy per Si atom -5579.617142 kJ/mol
# Density = 1.835341 g / cm^3
# Si number density = 18.395283 Si / 1000 Ang^3
#
#
#
# Elastic Constant Matrix: (Units=GPa)
#
#
# Indices 1 2 3 4 5 6 
#
# 1 167.0121 52.0525 62.2567 0.0000 22.1100 0.0000
# 2 52.0525 93.4927 8.4572 0.0000 2.9393 0.0000
# 3 62.2567 8.4572 104.0322 0.0000 32.0770 0.0000
# 4 0.0000 0.0000 0.0000 19.0503 0.0000 -2.8521
# 5 22.1100 2.9393 32.0770 0.0000 25.4992 0.0000
# 6 0.0000 0.0000 0.0000 -2.8521 0.0000 19.3859
#
#
#
# Elastic Compliance Matrix: (Units=1/GPa)
#
#
# Indices 1 2 3 4 5 6 
#
# 1 0.009481 -0.004794 -0.004769 0.000000 -0.001668 0.000000
# 2 -0.004794 0.013201 0.001607 0.000000 0.000615 0.000000
# 3 -0.004769 0.001607 0.018163 0.000000 -0.018898 0.000000
# 4 0.000000 0.000000 0.000000 0.053675 0.000000 0.007897
# 5 -0.001668 0.000615 -0.018898 0.000000 0.064365 0.000000
# 6 0.000000 0.000000 0.000000 0.007897 0.000000 0.052746
#
#
# Mechanical properties :
#
#
# Convention : Reuss Voigt Hill
#
# Bulk Modulus (GPa) = 40.11312 67.78555 53.94933
# Shear Modulus (GPa) = 21.19947 28.90511 25.05229
#
# Velocity S-wave (km/s) = 3.39844 3.96830 3.69438
# Velocity P-wave (km/s) = 6.10350 7.61091 6.89851
#
# Compressibility (1/GPa) = 0.02492950
#
# Stress axis : x y z
#
# Youngs Moduli (GPa) = 105.47842 75.75338 55.05705
#
# Poissons Ratio (x) = 0.36320 0.26259
# Poissons Ratio (y) = 0.50572 -0.08845
# Poissons Ratio (z) = 0.50308 -0.12170
#
# Static dielectric constant tensor:
#      x y z
#    x 1.625100 0.000000 0.033500 
#    y 0.000000 1.652220 0.000000 
#    z 0.033500 0.000000 1.631120 
# 
# From -- ./inp_files/78674.got.cif
#   From: 2010.05.17/outbox.cif.g08.bks.cpg/sg10_40_cif.got.tgz:78674.got - 2010.06.03 11:33:40.
