data_PCOD9147036
_publ_section_title
;
Structure prediction by ZEFSAII (Michael W. Deem and Ramdas Pophale) SiO2 
 PCOD9147036
Probable space group: P 2/M
;
_chemical_formula_sum "Si O2"
_cell_formula_units_Z 32
_cell_length_a 16.674429
_cell_length_b 7.758960
_cell_length_c 25.523998
_cell_angle_alpha 90.000000
_cell_angle_beta 25.833644
_cell_angle_gamma 90.000000
_cell_volume 1438.965028
_symmetry_space_group_name_H-M "P 2/M"
_symmetry_group_IT_number 10
_symmetry_cell_setting 'monoclinic'
loop_
_space_group_symop_operation_xyz
x,y,z
-x,y,-z
-x,-y,-z
x,-y,z
loop_
_atom_site_type_symbol
_atom_site_label
_atom_site_fract_x
_atom_site_fract_y
_atom_site_fract_z
Si Si1 0.841784 0.795233 0.556064
Si Si2 0.816441 0.697651 0.269339
Si Si3 0.774810 0.203429 0.981204
Si Si4 0.571860 0.211100 0.203952
Si Si5 0.540100 0.708623 0.916469
Si Si6 0.771641 0.297566 0.407862
Si Si7 0.574045 0.801221 0.320583
Si Si8 0.956703 0.291058 0.667578
O O1 0.636475 0.729082 0.685298
O O2 0.000000 0.719840 0.500000
O O3 0.909722 0.766242 0.457330
O O4 0.832011 0.000000 0.571638
O O5 0.752854 0.500000 0.301241
O O6 0.739263 0.775194 0.369009
O O7 0.745574 0.788465 0.258803
O O8 0.035963 0.705844 0.145168
O O9 0.814308 0.000000 0.961541
O O10 0.704000 0.267208 0.079498
O O11 0.613035 0.228775 0.034035
O O12 0.614018 0.266454 0.238720
O O13 0.575333 0.000000 0.200687
O O14 0.536604 0.500000 0.916888
O O15 0.747852 0.767017 0.781125
O O16 0.500000 0.760482 0.000000
O O17 0.806273 0.500000 0.378580
O O18 0.597724 0.281915 0.548220
O O19 0.951030 0.228609 0.332639
O O20 0.520463 0.000000 0.345282
O O21 0.955164 0.500000 0.669574
#
# Coordination Sequence:
#
# PCOD9147036 Si02
#       8
#     4   4   4   4   4   4   4   4
#     4  10  19  34  56  81 112 152 192 231 288 351
#     4  11  24  42  62  86 120 159 198 246 308 363
#     4  11  23  41  63  88 118 156 207 253 295 353
#     4   9  20  38  58  84 121 159 191 243 308 354
#     4  10  21  39  60  84 121 165 201 241 299 356
#     4  10  21  39  61  87 121 158 194 242 302 362
#     4  11  22  39  63  90 120 155 199 248 301 358
#     4  10  20  34  56  85 114 149 194 236 285 347
#
# _framework density 22.238204
#
# number of rings (size 3 to 8) (size 9 to 14) (size 15 to 20)
#    0.000    1.750    1.250    3.000    0.000    7.000 
#    0.000    7.500    0.000    0.000    0.000    0.000 
#    0.000    0.000    0.000    0.000    0.000    0.000 
#
# Total GULP energy -178841.564049 kJ/mol
# GULP energy per Si atom -5588.798877 kJ/mol
# Density = 2.218759 g / cm^3
# Si number density = 22.238204 Si / 1000 Ang^3
#
#
#
# Elastic Constant Matrix: (Units=GPa)
#
#
# Indices 1 2 3 4 5 6 
#
# 1 135.5625 1.9353 26.0522 0.0000 8.9482 0.0000
# 2 1.9353 28.4626 -12.7492 0.0000 0.4827 0.0000
# 3 26.0522 -12.7492 66.3554 0.0000 6.6390 0.0000
# 4 0.0000 0.0000 0.0000 20.0668 0.0000 -1.2963
# 5 8.9482 0.4827 6.6390 0.0000 42.3554 0.0000
# 6 0.0000 0.0000 0.0000 -1.2963 0.0000 20.7894
#
#
#
# Elastic Compliance Matrix: (Units=1/GPa)
#
#
# Indices 1 2 3 4 5 6 
#
# 1 0.008153 -0.002098 -0.003489 0.000000 -0.001152 0.000000
# 2 -0.002098 0.039092 0.008467 0.000000 -0.001330 0.000000
# 3 -0.003489 0.008467 0.018290 0.000000 -0.002226 0.000000
# 4 0.000000 0.000000 0.000000 0.050035 0.000000 0.003120
# 5 -0.001152 -0.001330 -0.002226 0.000000 0.024217 0.000000
# 6 0.000000 0.000000 0.000000 0.003120 0.000000 0.048296
#
#
# Mechanical properties :
#
#
# Convention : Reuss Voigt Hill
#
# Bulk Modulus (GPa) = 14.02587 28.98413 21.50500
# Shear Modulus (GPa) = 24.26168 30.98514 27.62341
#
# Velocity S-wave (km/s) = 3.30660 3.73678 3.52825
# Velocity P-wave (km/s) = 4.57153 5.62848 5.12732
#
# Compressibility (1/GPa) = 0.07129683
#
# Stress axis : x y z
#
# Youngs Moduli (GPa) = 122.65249 25.58082 54.67533
#
# Poissons Ratio (x) = 0.05366 0.19075
# Poissons Ratio (y) = 0.25727 -0.46296
# Poissons Ratio (z) = 0.42791 -0.21661
#
# Static dielectric constant tensor:
#      x y z
#    x 1.841180 0.000000 0.007700 
#    y 0.000000 1.837670 0.000000 
#    z 0.007700 0.000000 1.787410 
# 
# From -- ./inp_files/71507.got.cif
#   From: 2010.05.17/outbox.cif.g08.bks.cpg/sg10_36_cif.got.tgz:71507.got - 2010.06.03 11:33:40.
