data_PCOD9147755
_publ_section_title
;
Structure prediction by ZEFSAII (Michael W. Deem and Ramdas Pophale) SiO2 
 PCOD9147755
Probable space group: P 2/M
;
_chemical_formula_sum "Si O2"
_cell_formula_units_Z 32
_cell_length_a 10.100448
_cell_length_b 19.064287
_cell_length_c 12.844791
_cell_angle_alpha 90.000000
_cell_angle_beta 138.687468
_cell_angle_gamma 90.000000
_cell_volume 1632.831544
_symmetry_space_group_name_H-M "P 2/M"
_symmetry_group_IT_number 10
_symmetry_cell_setting 'monoclinic'
loop_
_space_group_symop_operation_xyz
x,y,z
-x,y,-z
-x,-y,-z
x,-y,z
loop_
_atom_site_type_symbol
_atom_site_label
_atom_site_fract_x
_atom_site_fract_y
_atom_site_fract_z
Si Si1 0.197071 0.167790 0.401212
Si Si2 0.818642 0.917853 0.245845
Si Si3 0.349390 0.831881 0.266464
Si Si4 0.586625 0.918108 0.889046
Si Si5 0.834421 0.665276 0.618392
Si Si6 0.457052 0.583334 0.712123
Si Si7 0.142931 0.579506 0.687826
Si Si8 0.780961 0.324290 0.827599
O O1 0.421219 0.149091 0.570001
O O2 0.207119 0.154356 0.282023
O O3 0.170562 0.251276 0.401321
O O4 0.021361 0.126441 0.355915
O O5 0.643333 0.894594 0.222327
O O6 0.863069 0.000000 0.292382
O O7 0.709651 0.913482 0.069007
O O8 0.306105 0.874067 0.136724
O O9 0.339081 0.748750 0.239835
O O10 0.576789 0.000000 0.853966
O O11 0.673476 0.624625 0.451770
O O12 0.789088 0.652910 0.712261
O O13 0.048167 0.633630 0.711330
O O14 0.446983 0.500000 0.687434
O O15 0.357843 0.596475 0.766048
O O16 0.675384 0.615602 0.831618
O O17 0.139713 0.500000 0.727180
O O18 0.000000 0.579831 0.500000
O O19 0.000000 0.309420 0.000000
#
# Coordination Sequence:
#
# PCOD9147755 Si02
#       8
#     4   4   4   4   4   4   4   4
#     4  10  21  36  56  85 115 150 189 241 284 333
#     4   9  20  39  60  86 118 149 190 238 278 334
#     4  10  22  38  56  81 118 151 191 236 289 337
#     4   9  20  39  61  85 116 155 193 228 278 342
#     4  10  19  36  58  83 114 149 190 228 288 341
#     4  10  20  38  62  86 113 148 191 237 282 339
#     4   8  16  32  57  85 109 138 183 235 278 330
#     4  11  24  38  55  82 118 154 190 238 286 339
#
# _framework density 19.597857999999999
#
# number of rings (size 3 to 8) (size 9 to 14) (size 15 to 20)
#    0.000    2.375    1.250    2.250    3.500    4.250 
#    2.250    4.375    0.000    1.500    0.000    0.000 
#    0.000    0.000    0.000    0.000    0.000    0.000 
#
# Total GULP energy -178558.689750 kJ/mol
# GULP energy per Si atom -5579.959055 kJ/mol
# Density = 1.955325 g / cm^3
# Si number density = 19.597858 Si / 1000 Ang^3
#
#
#
# Elastic Constant Matrix: (Units=GPa)
#
#
# Indices 1 2 3 4 5 6 
#
# 1 69.3518 41.0951 13.1391 0.0000 3.8384 0.0000
# 2 41.0951 44.3367 8.5947 0.0000 -2.5554 0.0000
# 3 13.1391 8.5947 24.3876 0.0000 9.1949 0.0000
# 4 0.0000 0.0000 0.0000 59.5749 0.0000 43.1050
# 5 3.8384 -2.5554 9.1949 0.0000 29.5964 0.0000
# 6 0.0000 0.0000 0.0000 43.1050 0.0000 85.5349
#
#
#
# Elastic Compliance Matrix: (Units=1/GPa)
#
#
# Indices 1 2 3 4 5 6 
#
# 1 0.033954 -0.030726 -0.005442 0.000000 -0.005366 0.000000
# 2 -0.030726 0.052791 -0.005971 0.000000 0.010398 0.000000
# 3 -0.005442 -0.005971 0.052068 0.000000 -0.015986 0.000000
# 4 0.000000 0.000000 0.000000 0.026418 0.000000 -0.013313
# 5 -0.005366 0.010398 -0.015986 0.000000 0.040348 0.000000
# 6 0.000000 0.000000 0.000000 -0.013313 0.000000 0.018400
#
#
# Mechanical properties :
#
#
# Convention : Reuss Voigt Hill
#
# Bulk Modulus (GPa) = 18.33662 29.30377 23.82020
# Shear Modulus (GPa) = 15.31691 39.95772 27.63732
#
# Velocity S-wave (km/s) = 2.79867 4.52030 3.75937
# Velocity P-wave (km/s) = 4.45199 6.49839 5.56998
#
# Compressibility (1/GPa) = 0.05453568
#
# Stress axis : x y z
#
# Youngs Moduli (GPa) = 29.45138 18.94254 19.20570
#
# Poissons Ratio (x) = 0.58203 0.10451
# Poissons Ratio (y) = 0.90493 0.11468
# Poissons Ratio (z) = 0.16026 0.11311
#
# Static dielectric constant tensor:
#      x y z
#    x 1.704900 0.000000 0.020420 
#    y 0.000000 1.649130 0.000000 
#    z 0.020420 0.000000 1.722240 
# 
# From -- ./inp_files/43649.got.cif
#   From: 2010.05.17/outbox.cif.g08.bks.cpg/sg10_22_cif.got.tgz:43649.got - 2010.06.03 11:33:40.
