data_PCOD9147920
_publ_section_title
;
Structure prediction by ZEFSAII (Michael W. Deem and Ramdas Pophale) SiO2 
 PCOD9147920
Probable space group: P 2/M
;
_chemical_formula_sum "Si O2"
_cell_formula_units_Z 26
_cell_length_a 23.312171
_cell_length_b 12.164289
_cell_length_c 8.880809
_cell_angle_alpha 90.000000
_cell_angle_beta 148.641068
_cell_angle_gamma 90.000000
_cell_volume 1310.561318
_symmetry_space_group_name_H-M "P 2/M"
_symmetry_group_IT_number 10
_symmetry_cell_setting 'monoclinic'
loop_
_space_group_symop_operation_xyz
x,y,z
-x,y,-z
-x,-y,-z
x,-y,z
loop_
_atom_site_type_symbol
_atom_site_label
_atom_site_fract_x
_atom_site_fract_y
_atom_site_fract_z
Si Si1 0.161062 0.500000 0.183540
Si Si2 0.722318 0.126926 0.851177
Si Si3 0.165129 0.273189 0.317006
Si Si4 0.129997 0.500000 0.763906
Si Si5 0.604449 0.741224 0.343569
Si Si6 0.947313 0.872641 0.159356
Si Si7 0.161565 0.728395 0.665611
Si Si8 0.396397 0.500000 0.660219
O O1 0.111814 0.385831 0.129737
O O2 0.287545 0.500000 0.521184
O O3 0.175872 0.500000 0.036701
O O4 0.628657 0.172081 0.529109
O O5 0.705065 0.000000 0.849209
O O6 0.839051 0.136830 0.021936
O O7 0.741780 0.200911 0.040999
O O8 0.285928 0.260283 0.514324
O O9 0.173144 0.280979 0.512737
O O10 0.094325 0.172092 0.094930
O O11 0.159228 0.609889 0.739370
O O12 0.000000 0.500000 0.500000
O O13 0.599627 0.619101 0.407721
O O14 0.500000 0.759323 0.000000
O O15 0.046831 0.794534 0.433052
O O16 0.982045 0.000000 0.235743
O O17 0.500000 0.500000 0.000000
#
# Coordination Sequence:
#
# PCOD9147920 Si02
#       8
#     2   4   4   2   4   4   4   2
#     4  10  19  37  54  71 107 141 176 215 253 316
#     4  10  21  36  55  79 106 142 184 219 262 320
#     4  10  21  35  55  82 107 138 179 222 270 316
#     4  12  23  34  53  78 108 149 184 208 259 324
#     4   9  18  36  59  80 105 141 182 221 262 320
#     4  10  21  37  55  75 105 148 188 216 253 315
#     4  12  22  34  53  81 114 139 172 226 274 310
#     4   8  14  27  54  81  94 118 164 213 258 296
#
# _framework density 19.838829
#
# number of rings (size 3 to 8) (size 9 to 14) (size 15 to 20)
#    0.000    1.846    0.000    6.462    0.000    3.385 
#    0.000    3.077    0.000    0.923    0.000   14.000 
#    0.000    0.000    0.000    0.000    0.000    0.000 
#
# Total GULP energy -145101.529494 kJ/mol
# GULP energy per Si atom -5580.828057 kJ/mol
# Density = 1.979367 g / cm^3
# Si number density = 19.838829 Si / 1000 Ang^3
#
#
#
# Elastic Constant Matrix: (Units=GPa)
#
#
# Indices 1 2 3 4 5 6 
#
# 1 42.1406 24.9889 22.3366 0.0000 -31.0727 0.0000
# 2 24.9889 153.4799 58.3539 0.0000 -25.9573 0.0000
# 3 22.3366 58.3539 112.3648 0.0000 -19.0125 0.0000
# 4 0.0000 0.0000 0.0000 28.9338 0.0000 1.2250
# 5 -31.0727 -25.9573 -19.0125 0.0000 42.6551 0.0000
# 6 0.0000 0.0000 0.0000 1.2250 0.0000 -0.9525
#
#
#
# Elastic Compliance Matrix: (Units=1/GPa)
#
#
# Indices 1 2 3 4 5 6 
#
# 1 0.053282 -0.001032 -0.003888 0.000000 0.036453 0.000000
# 2 -0.001032 0.008595 -0.003786 0.000000 0.002791 0.000000
# 3 -0.003888 -0.003786 0.011648 0.000000 0.000056 0.000000
# 4 0.000000 0.000000 0.000000 0.032777 0.000000 0.042156
# 5 0.036453 0.002791 0.000056 0.000000 0.051722 0.000000
# 6 0.000000 0.000000 0.000000 0.042156 0.000000 -0.995661
#
#
# Mechanical properties :
#
#
# Convention : Reuss Voigt Hill
#
# Bulk Modulus (GPa) = 17.82120 57.70490 37.76305
# Shear Modulus (GPa) = -6.23814 27.61433 10.68810
#
# Velocity S-wave (km/s) = -1.77517 3.73491 2.32361
# Velocity P-wave (km/s) = 2.19108 6.91009 5.12593
#
# Compressibility (1/GPa) = 0.05611296
#
# Stress axis : x y z
#
# Youngs Moduli (GPa) = 18.76822 116.34496 85.85040
#
# Poissons Ratio (x) = 0.12004 0.33378
# Poissons Ratio (y) = 0.01936 0.32505
# Poissons Ratio (z) = 0.07297 0.44052
#
# Static dielectric constant tensor:
#      x y z
#    x 1.615170 0.000000 0.381190 
#    y 0.000000 1.742840 0.000000 
#    z 0.381190 0.000000 -0.091340 
# 
# From -- ./inp_files/37633.got.cif
#   From: 2010.05.17/outbox.cif.g08.bks.cpg/sg10_19_cif.got.tgz:37633.got - 2010.06.03 11:33:40.
