data_PCOD9147296
_publ_section_title
;
Structure prediction by ZEFSAII (Michael W. Deem and Ramdas Pophale) SiO2 
 PCOD9147296
Probable space group: P 2/M
;
_chemical_formula_sum "Si O2"
_cell_formula_units_Z 32
_cell_length_a 9.878702
_cell_length_b 13.547495
_cell_length_c 9.694060
_cell_angle_alpha 90.000000
_cell_angle_beta 94.576161
_cell_angle_gamma 90.000000
_cell_volume 1293.236385
_symmetry_space_group_name_H-M "P 2/M"
_symmetry_group_IT_number 10
_symmetry_cell_setting 'monoclinic'
loop_
_space_group_symop_operation_xyz
x,y,z
-x,y,-z
-x,-y,-z
x,-y,z
loop_
_atom_site_type_symbol
_atom_site_label
_atom_site_fract_x
_atom_site_fract_y
_atom_site_fract_z
Si Si1 0.096687 0.385024 0.328647
Si Si2 0.857787 0.121104 0.055274
Si Si3 0.259132 0.888926 0.233799
Si Si4 0.324427 0.726774 0.455600
Si Si5 0.189769 0.388453 0.797637
Si Si6 0.536039 0.668837 0.293216
Si Si7 0.959939 0.112735 0.344572
Si Si8 0.695946 0.381771 0.909107
O O1 0.095761 0.500000 0.369829
O O2 0.176290 0.319592 0.445308
O O3 0.054410 0.349075 0.715886
O O4 0.185968 0.373392 0.196461
O O5 0.856117 0.151166 0.216765
O O6 0.863270 0.000000 0.057999
O O7 0.746732 0.142416 0.927255
O O8 0.000000 0.156893 0.000000
O O9 0.328091 0.814157 0.344952
O O10 0.103223 0.891036 0.274762
O O11 0.313303 0.000000 0.247928
O O12 0.415395 0.640793 0.389767
O O13 0.390690 0.753391 0.606815
O O14 0.146650 0.500000 0.830681
O O15 0.328708 0.392811 0.722582
O O16 0.238404 0.342244 0.944981
O O17 0.444810 0.669542 0.148955
O O18 0.000000 0.151721 0.500000
O O19 0.912803 0.000000 0.369272
O O20 0.664636 0.500000 0.920460
#
# Coordination Sequence:
#
# PCOD9147296 Si02
#       8
#     4   4   4   4   4   4   4   4
#     4   9  19  35  57  88 124 156 185 237 304 363
#     4   7  11  22  44  73 102 138 182 230 287 357
#     4   9  17  33  56  77 106 153 209 259 299 358
#     4  10  22  39  55  79 118 157 203 252 308 363
#     4  10  19  34  59  88 116 153 200 247 300 364
#     4  10  21  36  53  75 110 154 199 251 293 354
#     4   8  13  24  46  77 113 145 175 232 311 375
#     4   9  17  33  59  86 115 153 199 247 298 359
#
# _framework density 24.744119999999999
#
# number of rings (size 3 to 8) (size 9 to 14) (size 15 to 20)
#    0.000    3.000    0.000    2.625    0.000    4.500 
#    2.250   14.375    2.750    0.000    0.000    0.875 
#    0.000   11.000    0.000    0.000    0.000    0.000 
#
# Total GULP energy -178172.927952 kJ/mol
# GULP energy per Si atom -5567.903999 kJ/mol
# Density = 2.468780 g / cm^3
# Si number density = 24.744120 Si / 1000 Ang^3
#
#
#
# Elastic Constant Matrix: (Units=GPa)
#
#
# Indices 1 2 3 4 5 6 
#
# 1 135.0095 30.2920 67.5934 0.0000 41.3905 0.0000
# 2 30.2920 86.8763 57.0274 0.0000 17.0864 0.0000
# 3 67.5934 57.0274 211.5065 0.0000 44.7276 0.0000
# 4 0.0000 0.0000 0.0000 0.9835 0.0000 -10.3511
# 5 41.3905 17.0864 44.7276 0.0000 51.2675 0.0000
# 6 0.0000 0.0000 0.0000 -10.3511 0.0000 7.4058
#
#
#
# Elastic Compliance Matrix: (Units=1/GPa)
#
#
# Indices 1 2 3 4 5 6 
#
# 1 0.010554 -0.001311 -0.001606 0.000000 -0.006682 0.000000
# 2 -0.001311 0.014268 -0.003245 0.000000 -0.000866 0.000000
# 3 -0.001606 -0.003245 0.006883 0.000000 -0.003627 0.000000
# 4 0.000000 0.000000 0.000000 -0.074161 0.000000 -0.103655
# 5 -0.006682 -0.000866 -0.003627 0.000000 0.028353 0.000000
# 6 0.000000 0.000000 0.000000 -0.103655 0.000000 -0.009849
#
#
# Mechanical properties :
#
#
# Convention : Reuss Voigt Hill
#
# Bulk Modulus (GPa) = 51.59864 82.57975 67.08920
# Shear Modulus (GPa) = -967.75780 30.49667 -468.63057
#
# Velocity S-wave (km/s) = -19.79786 3.51448 -13.77686
# Velocity P-wave (km/s) = 22.39886 7.06503 15.02987
#
# Compressibility (1/GPa) = 0.01938035
#
# Stress axis : x y z
#
# Youngs Moduli (GPa) = 94.75207 70.08620 145.28169
#
# Poissons Ratio (x) = 0.09191 0.23334
# Poissons Ratio (y) = 0.12426 0.47143
# Poissons Ratio (z) = 0.15218 0.22742
#
# Static dielectric constant tensor:
#      x y z
#    x 1.976890 0.000000 0.019200 
#    y 0.000000 2.029570 0.000000 
#    z 0.019200 0.000000 2.058980 
# 
# From -- ./inp_files/29919.got.cif
#   From: 2010.05.17/outbox.cif.g08.bks.cpg/sg10_15_cif.got.tgz:29919.got - 2010.06.03 11:33:40.
