data_PCOD9147595
_publ_section_title
;
Structure prediction by ZEFSAII (Michael W. Deem and Ramdas Pophale) SiO2 
 PCOD9147595
Probable space group: P 2/M
;
_chemical_formula_sum "Si O2"
_cell_formula_units_Z 24
_cell_length_a 17.857967
_cell_length_b 8.550203
_cell_length_c 25.504480
_cell_angle_alpha 90.000000
_cell_angle_beta 160.493743
_cell_angle_gamma 90.000000
_cell_volume 1300.331487
_symmetry_space_group_name_H-M "P 2/M"
_symmetry_group_IT_number 10
_symmetry_cell_setting 'monoclinic'
loop_
_space_group_symop_operation_xyz
x,y,z
-x,y,-z
-x,-y,-z
x,-y,z
loop_
_atom_site_type_symbol
_atom_site_label
_atom_site_fract_x
_atom_site_fract_y
_atom_site_fract_z
Si Si1 0.315469 0.310698 0.525889
Si Si2 0.949514 0.687331 0.547288
Si Si3 0.345554 0.185490 0.742197
Si Si4 0.780858 0.309543 0.886565
Si Si5 0.273859 0.812812 0.381111
Si Si6 0.814376 0.312366 0.029491
O O1 0.315315 0.500000 0.521130
O O2 0.130066 0.267955 0.447129
O O3 0.554382 0.261375 0.707978
O O4 0.283736 0.238444 0.448082
O O5 0.969689 0.500000 0.558154
O O6 0.759688 0.737009 0.379800
O O7 0.178964 0.763388 0.678728
O O8 0.338129 0.000000 0.731184
O O9 0.598513 0.243286 0.916449
O O10 0.781226 0.500000 0.887049
O O11 0.791707 0.259726 0.953988
O O12 0.000000 0.256542 0.000000
O O13 0.500000 0.760354 0.500000
O O14 0.051324 0.741875 0.208391
O O15 0.262644 0.000000 0.370171
O O16 0.802350 0.500000 0.023249
#
# Coordination Sequence:
#
# PCOD9147595 Si02
#       6
#     4   4   4   4   4   4
#     4  10  20  37  60  87 115 151 199 246 291 342
#     4  10  19  35  59  87 119 153 198 245 289 344
#     4  11  21  34  56  88 124 156 190 235 298 359
#     4   9  17  31  55  86 113 139 186 247 294 335
#     4  11  25  42  58  83 122 162 196 237 295 357
#     4  11  21  38  62  86 115 154 199 247 291 342
#
# _framework density 18.456831999999999
#
# number of rings (size 3 to 8) (size 9 to 14) (size 15 to 20)
#    0.000    1.667    1.667    5.000    0.000    4.000 
#    0.000    0.833    0.000    8.500    0.000    0.000 
#    0.000    0.000    0.000    0.000    0.000    0.000 
#
# Total GULP energy -134080.123878 kJ/mol
# GULP energy per Si atom -5586.671828 kJ/mol
# Density = 1.841482 g / cm^3
# Si number density = 18.456832 Si / 1000 Ang^3
#
#
#
# Elastic Constant Matrix: (Units=GPa)
#
#
# Indices 1 2 3 4 5 6 
#
# 1 106.8689 20.7790 52.6149 0.0000 11.7980 0.0000
# 2 20.7790 34.7992 20.5096 0.0000 0.4364 0.0000
# 3 52.6149 20.5096 133.0377 0.0000 12.1093 0.0000
# 4 0.0000 0.0000 0.0000 7.5236 0.0000 31.6874
# 5 11.7980 0.4364 12.1093 0.0000 32.4543 0.0000
# 6 0.0000 0.0000 0.0000 31.6874 0.0000 -28.0880
#
#
#
# Elastic Compliance Matrix: (Units=1/GPa)
#
#
# Indices 1 2 3 4 5 6 
#
# 1 0.012634 -0.005197 -0.003917 0.000000 -0.003062 0.000000
# 2 -0.005197 0.033811 -0.003403 0.000000 0.002705 0.000000
# 3 -0.003917 -0.003403 0.009789 0.000000 -0.002183 0.000000
# 4 0.000000 0.000000 0.000000 0.023110 0.000000 0.026071
# 5 -0.003062 0.002705 -0.002183 0.000000 0.032704 0.000000
# 6 0.000000 0.000000 0.000000 0.026071 0.000000 -0.006190
#
#
# Mechanical properties :
#
#
# Convention : Reuss Voigt Hill
#
# Bulk Modulus (GPa) = 32.05102 51.39031 41.72067
# Shear Modulus (GPa) = 35.38766 14.43149 24.90958
#
# Velocity S-wave (km/s) = 4.38347 2.79929 3.67769
# Velocity P-wave (km/s) = 6.55918 6.19290 6.37867
#
# Compressibility (1/GPa) = 0.03120025
#
# Stress axis : x y z
#
# Youngs Moduli (GPa) = 79.15102 29.57579 102.15498
#
# Poissons Ratio (x) = 0.15371 0.40012
# Poissons Ratio (y) = 0.41136 0.34766
# Poissons Ratio (z) = 0.31002 0.10065
#
# Static dielectric constant tensor:
#      x y z
#    x 1.628560 0.000000 0.021040 
#    y 0.000000 1.620440 0.000000 
#    z 0.021040 0.000000 1.615100 
# 
# From -- ./inp_files/93385.got.cif
#   From: 2010.05.17/outbox.cif.g08.bks.cpg/sg10_47_cif.got.tgz:93385.got - 2010.06.03 11:33:40.
