data_PCOD9147638
_publ_section_title
;
Structure prediction by ZEFSAII (Michael W. Deem and Ramdas Pophale) SiO2 
 PCOD9147638
Probable space group: P 2/M
;
_chemical_formula_sum "Si O2"
_cell_formula_units_Z 28
_cell_length_a 5.787897
_cell_length_b 15.223742
_cell_length_c 15.681662
_cell_angle_alpha 90.000000
_cell_angle_beta 65.112646
_cell_angle_gamma 90.000000
_cell_volume 1253.450366
_symmetry_space_group_name_H-M "P 2/M"
_symmetry_group_IT_number 10
_symmetry_cell_setting 'monoclinic'
loop_
_space_group_symop_operation_xyz
x,y,z
-x,y,-z
-x,-y,-z
x,-y,z
loop_
_atom_site_type_symbol
_atom_site_label
_atom_site_fract_x
_atom_site_fract_y
_atom_site_fract_z
Si Si1 0.987278 0.844149 0.911700
Si Si2 0.517197 0.754585 0.784002
Si Si3 0.909160 0.101856 0.729703
Si Si4 0.257714 0.669074 0.083009
Si Si5 0.203006 0.404456 0.575270
Si Si6 0.188982 0.796065 0.548701
Si Si7 0.752700 0.404962 0.233753
O O1 0.257184 0.799552 0.852908
O O2 0.917985 0.888942 0.832081
O O3 0.801167 0.760940 0.955237
O O4 0.000000 0.894501 0.000000
O O5 0.659043 0.703352 0.837528
O O6 0.442328 0.675702 0.734358
O O7 0.683050 0.836597 0.730647
O O8 0.136077 0.147928 0.643133
O O9 0.884418 0.000000 0.712857
O O10 0.994994 0.616454 0.135594
O O11 0.500000 0.624937 0.000000
O O12 0.500000 0.404782 0.500000
O O13 0.100355 0.500000 0.562085
O O14 0.108610 0.306849 0.568063
O O15 0.161752 0.408755 0.682729
O O16 0.500000 0.797328 0.500000
O O17 0.000000 0.829458 0.500000
O O18 0.642353 0.500000 0.226285
#
# Coordination Sequence:
#
# PCOD9147638 Si02
#       7
#     4   4   4   4   4   4   4
#     4  10  20  39  68  96 128 178 230 286 358 425
#     4  10  21  39  67  91 130 181 220 283 349 420
#     4  11  27  45  67 104 137 177 237 298 362 434
#     4  10  19  35  60  90 127 178 230 275 342 413
#     4   9  19  39  66 101 138 175 226 288 355 429
#     4  11  26  47  76 107 147 195 242 296 365 437
#     4  10  22  38  60  97 136 177 233 284 347 424
#
# _framework density 22.338338
#
# number of rings (size 3 to 8) (size 9 to 14) (size 15 to 20)
#    0.000    1.857    1.429    2.571    6.000    2.571 
#    0.000    2.143    0.000    0.000    0.000    0.000 
#    0.000    0.000    0.000    0.000    0.000    0.000 
#
# Total GULP energy -155903.418956 kJ/mol
# GULP energy per Si atom -5567.979248 kJ/mol
# Density = 2.228749 g / cm^3
# Si number density = 22.338338 Si / 1000 Ang^3
#
#
#
# Elastic Constant Matrix: (Units=GPa)
#
#
# Indices 1 2 3 4 5 6 
#
# 1 69.1273 40.9552 18.5517 0.0000 2.2156 0.0000
# 2 40.9552 162.1039 54.1307 0.0000 -4.2175 0.0000
# 3 18.5517 54.1307 85.1402 0.0000 0.3608 0.0000
# 4 0.0000 0.0000 0.0000 16.0711 0.0000 -3.9395
# 5 2.2156 -4.2175 0.3608 0.0000 30.8023 0.0000
# 6 0.0000 0.0000 0.0000 -3.9395 0.0000 15.9177
#
#
#
# Elastic Compliance Matrix: (Units=1/GPa)
#
#
# Indices 1 2 3 4 5 6 
#
# 1 0.017211 -0.003992 -0.001205 0.000000 -0.001771 0.000000
# 2 -0.003992 0.008797 -0.004730 0.000000 0.001547 0.000000
# 3 -0.001205 -0.004730 0.015018 0.000000 -0.000737 0.000000
# 4 0.000000 0.000000 0.000000 0.066242 0.000000 0.016394
# 5 -0.001771 0.001547 -0.000737 0.000000 0.032813 0.000000
# 6 0.000000 0.000000 0.000000 0.016394 0.000000 0.066880
#
#
# Mechanical properties :
#
#
# Convention : Reuss Voigt Hill
#
# Bulk Modulus (GPa) = 47.22911 60.40518 53.81714
# Shear Modulus (GPa) = 21.37914 26.07381 23.72647
#
# Velocity S-wave (km/s) = 3.09700 3.42017 3.26259
# Velocity P-wave (km/s) = 5.82898 6.53426 6.19167
#
# Compressibility (1/GPa) = 0.02117338
#
# Stress axis : x y z
#
# Youngs Moduli (GPa) = 58.10129 113.67321 66.58671
#
# Poissons Ratio (x) = 0.45381 0.08021
# Poissons Ratio (y) = 0.23195 0.31494
# Poissons Ratio (z) = 0.06999 0.53765
#
# Static dielectric constant tensor:
#      x y z
#    x 1.946590 0.000000 -0.030100 
#    y 0.000000 1.815850 0.000000 
#    z -0.030100 0.000000 1.908110 
# 
# From -- ./inp_files/73484.got.cif
#   From: 2010.05.17/outbox.cif.g08.bks.cpg/sg10_37_cif.got.tgz:73484.got - 2010.06.03 11:33:40.
