data_PCOD9147496
_publ_section_title
;
Structure prediction by ZEFSAII (Michael W. Deem and Ramdas Pophale) SiO2 
 PCOD9147496
Probable space group: P 2/M
;
_chemical_formula_sum "Si O2"
_cell_formula_units_Z 28
_cell_length_a 9.707482
_cell_length_b 7.529093
_cell_length_c 25.103283
_cell_angle_alpha 90.000000
_cell_angle_beta 138.309590
_cell_angle_gamma 90.000000
_cell_volume 1220.310183
_symmetry_space_group_name_H-M "P 2/M"
_symmetry_group_IT_number 10
_symmetry_cell_setting 'monoclinic'
loop_
_space_group_symop_operation_xyz
x,y,z
-x,y,-z
-x,-y,-z
x,-y,z
loop_
_atom_site_type_symbol
_atom_site_label
_atom_site_fract_x
_atom_site_fract_y
_atom_site_fract_z
Si Si1 0.354258 0.712809 0.342122
Si Si2 0.832472 0.800838 0.826731
Si Si3 0.776328 0.699912 0.923922
Si Si4 0.933066 0.282702 0.642575
Si Si5 0.730466 0.714034 0.081291
Si Si6 0.671461 0.716351 0.183149
Si Si7 0.824492 0.717305 0.491339
O O1 0.360628 0.500000 0.349517
O O2 0.246594 0.749842 0.254529
O O3 0.223349 0.776879 0.355628
O O4 0.591572 0.776109 0.410143
O O5 0.753274 0.689421 0.853543
O O6 0.081354 0.788131 0.897983
O O7 0.765442 0.000000 0.818325
O O8 0.787310 0.500000 0.950744
O O9 0.563329 0.783297 0.882400
O O10 0.000000 0.784480 0.000000
O O11 0.929836 0.500000 0.642265
O O12 0.873045 0.227581 0.565939
O O13 0.165617 0.226562 0.725425
O O14 0.737563 0.500000 0.078189
O O15 0.765615 0.759903 0.153021
O O16 0.500000 0.771905 0.000000
O O17 0.657779 0.500000 0.182252
O O18 0.825497 0.500000 0.490791
O O19 0.000000 0.774649 0.500000
#
# Coordination Sequence:
#
# PCOD9147496 Si02
#       7
#     4   4   4   4   4   4   4
#     4  10  19  35  58  81 112 149 187 235 289 342
#     4  12  25  38  55  83 121 159 195 233 281 343
#     4  10  21  38  60  85 112 148 195 242 291 342
#     4   9  16  29  51  83 114 138 177 234 297 345
#     4  10  19  36  62  88 112 143 190 242 289 339
#     4   9  17  30  54  85 112 139 179 238 292 341
#     4   9  18  29  50  87 117 140 178 236 296 347
#
# _framework density 22.944986
#
# number of rings (size 3 to 8) (size 9 to 14) (size 15 to 20)
#    0.000    2.143    1.429    2.571    2.000    4.571 
#    0.000    0.714    0.000    2.143    0.000    0.000 
#    0.000    0.000    0.000    0.000    0.000    0.000 
#
# Total GULP energy -156456.032548 kJ/mol
# GULP energy per Si atom -5587.715448 kJ/mol
# Density = 2.289276 g / cm^3
# Si number density = 22.944986 Si / 1000 Ang^3
#
#
#
# Elastic Constant Matrix: (Units=GPa)
#
#
# Indices 1 2 3 4 5 6 
#
# 1 112.5911 6.9619 35.1619 0.0000 3.9805 0.0000
# 2 6.9619 56.7820 0.7754 0.0000 2.9547 0.0000
# 3 35.1619 0.7754 120.1399 0.0000 8.0319 0.0000
# 4 0.0000 0.0000 0.0000 -15.6515 0.0000 13.7839
# 5 3.9805 2.9547 8.0319 0.0000 43.9627 0.0000
# 6 0.0000 0.0000 0.0000 13.7839 0.0000 -0.3969
#
#
#
# Elastic Compliance Matrix: (Units=1/GPa)
#
#
# Indices 1 2 3 4 5 6 
#
# 1 0.009856 -0.001154 -0.002858 0.000000 -0.000293 0.000000
# 2 -0.001154 0.017808 0.000300 0.000000 -0.001147 0.000000
# 3 -0.002858 0.000300 0.009255 0.000000 -0.001452 0.000000
# 4 0.000000 0.000000 0.000000 0.002159 0.000000 0.075000
# 5 -0.000293 -0.001147 -0.001452 0.000000 0.023115 0.000000
# 6 0.000000 0.000000 0.000000 0.075000 0.000000 0.085162
#
#
# Mechanical properties :
#
#
# Convention : Reuss Voigt Hill
#
# Bulk Modulus (GPa) = 33.90407 41.70126 37.80266
# Shear Modulus (GPa) = 30.37444 22.02379 26.19912
#
# Velocity S-wave (km/s) = 3.64235 3.10151 3.38275
# Velocity P-wave (km/s) = 5.70063 5.57133 5.63635
#
# Compressibility (1/GPa) = 0.02949498
#
# Stress axis : x y z
#
# Youngs Moduli (GPa) = 101.46299 56.15357 108.04831
#
# Poissons Ratio (x) = 0.06481 0.30875
# Poissons Ratio (y) = 0.11710 -0.03236
# Poissons Ratio (z) = 0.28993 -0.01682
#
# Static dielectric constant tensor:
#      x y z
#    x 1.812100 0.000000 0.000130 
#    y 0.000000 1.981200 0.000000 
#    z 0.000130 0.000000 1.841800 
# 
# From -- ./inp_files/92096.got.cif
#   From: 2010.05.17/outbox.cif.g08.bks.cpg/sg10_47_cif.got.tgz:92096.got - 2010.06.03 11:33:40.
