data_PCOD9147994
_publ_section_title
;
Structure prediction by ZEFSAII (Michael W. Deem and Ramdas Pophale) SiO2 
 PCOD9147994
Probable space group: P 2/M
;
_chemical_formula_sum "Si O2"
_cell_formula_units_Z 32
_cell_length_a 24.899053
_cell_length_b 9.219817
_cell_length_c 23.900824
_cell_angle_alpha 90.000000
_cell_angle_beta 18.207920
_cell_angle_gamma 90.000000
_cell_volume 1714.435269
_symmetry_space_group_name_H-M "P 2/M"
_symmetry_group_IT_number 10
_symmetry_cell_setting 'monoclinic'
loop_
_space_group_symop_operation_xyz
x,y,z
-x,y,-z
-x,-y,-z
x,-y,z
loop_
_atom_site_type_symbol
_atom_site_label
_atom_site_fract_x
_atom_site_fract_y
_atom_site_fract_z
Si Si1 0.205752 0.331074 0.791756
Si Si2 0.685898 0.827337 0.933943
Si Si3 0.335414 0.672589 0.281515
Si Si4 0.002596 0.328147 0.312564
Si Si5 0.004936 0.672350 0.177985
Si Si6 0.298742 0.827580 0.588056
Si Si7 0.646101 0.328437 0.230819
Si Si8 0.794051 0.830108 0.700100
O O1 0.237520 0.500000 0.744982
O O2 0.279724 0.230061 0.670373
O O3 0.289412 0.305165 0.769326
O O4 0.000000 0.311932 0.000000
O O5 0.715508 0.797822 0.838515
O O6 0.846906 0.762922 0.807812
O O7 0.676796 0.000000 0.949942
O O8 0.510224 0.751262 0.125893
O O9 0.360540 0.500000 0.255098
O O10 0.178113 0.705523 0.478882
O O11 0.281418 0.732025 0.274083
O O12 0.036665 0.500000 0.287534
O O13 0.994585 0.302119 0.254324
O O14 0.977652 0.500000 0.194118
O O15 0.861162 0.761287 0.287514
O O16 0.193982 0.707732 0.967389
O O17 0.476339 0.763675 0.388605
O O18 0.297103 0.000000 0.587933
O O19 0.607843 0.500000 0.262420
O O20 0.000000 0.811637 0.500000
O O21 0.759614 0.000000 0.721094
#
# Coordination Sequence:
#
# PCOD9147994 Si02
#       8
#     4   4   4   4   4   4   4   4
#     4  10  19  37  64  91 117 154 204 244 285 348
#     4  11  23  39  62  88 120 159 197 241 293 357
#     4  11  23  38  60  91 124 155 192 245 301 353
#     4  10  23  42  64  88 116 152 200 253 298 343
#     4  10  22  44  67  85 111 156 209 251 288 341
#     4  12  25  38  58  91 129 159 187 238 304 361
#     4  10  21  39  65  89 114 154 202 247 286 343
#     4  10  20  37  60  87 119 158 199 237 290 358
#
# _framework density 18.665037999999999
#
# number of rings (size 3 to 8) (size 9 to 14) (size 15 to 20)
#    0.000    1.500    2.500    2.625    0.000    7.500 
#    0.000    5.000    0.000    0.000    0.000    0.000 
#    0.000    0.000    0.000    0.000    0.000    0.000 
#
# Total GULP energy -178936.752130 kJ/mol
# GULP energy per Si atom -5591.773504 kJ/mol
# Density = 1.862256 g / cm^3
# Si number density = 18.665038 Si / 1000 Ang^3
#
#
#
# Elastic Constant Matrix: (Units=GPa)
#
#
# Indices 1 2 3 4 5 6 
#
# 1 53.9273 47.9135 49.4330 0.0000 20.0577 0.0000
# 2 47.9135 76.9598 80.6691 0.0000 7.8700 0.0000
# 3 49.4330 80.6691 138.4820 0.0000 -2.6509 0.0000
# 4 0.0000 0.0000 0.0000 -10.7181 0.0000 36.9132
# 5 20.0577 7.8700 -2.6509 0.0000 3.9544 0.0000
# 6 0.0000 0.0000 0.0000 36.9132 0.0000 -61.1830
#
#
#
# Elastic Compliance Matrix: (Units=1/GPa)
#
#
# Indices 1 2 3 4 5 6 
#
# 1 -0.004681 -0.020320 0.014928 0.000000 0.074191 0.000000
# 2 -0.020320 0.049442 -0.021737 0.000000 -0.009901 0.000000
# 3 0.014928 -0.021737 0.014115 0.000000 -0.022997 0.000000
# 4 0.000000 0.000000 0.000000 0.086561 0.000000 0.052224
# 5 0.074191 -0.009901 -0.022997 0.000000 -0.119144 0.000000
# 6 0.000000 0.000000 0.000000 0.052224 0.000000 0.015164
#
#
# Mechanical properties :
#
#
# Convention : Reuss Voigt Hill
#
# Bulk Modulus (GPa) = 216.58364 69.48891 143.03627
# Shear Modulus (GPa) = 51.41141 -7.49911 21.95615
#
# Velocity S-wave (km/s) = 5.25395 -2.00660 3.43348
# Velocity P-wave (km/s) = 12.37313 5.65170 9.61863
#
# Compressibility (1/GPa) = 0.00461715
#
# Stress axis : x y z
#
# Youngs Moduli (GPa) = -213.62971 20.22563 70.84889
#
# Poissons Ratio (x) = 0.41099 -1.05765
# Poissons Ratio (y) = -4.34104 1.54006
# Poissons Ratio (z) = 3.18912 0.43965
#
# Static dielectric constant tensor:
#      x y z
#    x 1.614950 0.000000 0.006430 
#    y 0.000000 1.618930 0.000000 
#    z 0.006430 0.000000 1.642490 
# 
# From -- ./inp_files/90550.got.cif
#   From: 2010.05.17/outbox.cif.g08.bks.cpg/sg10_46_cif.got.tgz:90550.got - 2010.06.03 11:33:40.
