data_PCOD9147138
_publ_section_title
;
Structure prediction by ZEFSAII (Michael W. Deem and Ramdas Pophale) SiO2 
 PCOD9147138
Probable space group: P 2/M
;
_chemical_formula_sum "Si O2"
_cell_formula_units_Z 28
_cell_length_a 7.515992
_cell_length_b 33.449716
_cell_length_c 5.324731
_cell_angle_alpha 90.000000
_cell_angle_beta 75.973588
_cell_angle_gamma 90.000000
_cell_volume 1298.764983
_symmetry_space_group_name_H-M "P 2/M"
_symmetry_group_IT_number 10
_symmetry_cell_setting 'monoclinic'
loop_
_space_group_symop_operation_xyz
x,y,z
-x,y,-z
-x,-y,-z
x,-y,z
loop_
_atom_site_type_symbol
_atom_site_label
_atom_site_fract_x
_atom_site_fract_y
_atom_site_fract_z
Si Si1 0.500000 0.837176 0.000000
Si Si2 0.126531 0.500000 0.207416
Si Si3 0.299314 0.124103 0.467906
Si Si4 0.281784 0.327367 0.067550
Si Si5 0.183929 0.801703 0.779578
Si Si6 0.875605 0.413352 0.793471
Si Si7 0.276789 0.283477 0.564258
Si Si8 0.122494 0.955822 0.708958
O O1 0.657884 0.867415 0.837020
O O2 0.370321 0.808096 0.879528
O O3 0.224198 0.456770 0.180780
O O4 0.000000 0.500000 0.500000
O O5 0.000000 0.500000 0.000000
O O6 0.500000 0.134205 0.500000
O O7 0.168940 0.158191 0.618831
O O8 0.249881 0.081242 0.594540
O O9 0.242022 0.373652 0.134026
O O10 0.210409 0.301780 0.325810
O O11 0.500000 0.322104 0.000000
O O12 0.214855 0.310461 0.823159
O O13 0.212811 0.761890 0.611787
O O14 0.000000 0.797614 0.000000
O O15 0.000000 0.409971 0.500000
O O16 0.000000 0.414341 0.000000
O O17 0.500000 0.283634 0.500000
O O18 0.000000 0.958351 0.500000
O O19 0.209369 0.000000 0.715974
O O20 0.000000 0.948156 0.000000
#
# Coordination Sequence:
#
# PCOD9147138 Si02
#       8
#     2   2   4   4   4   4   4   4
#     4  10  24  42  63  92 132 166 210 263 326 370
#     4   8  16  30  51  80 109 150 192 240 304 356
#     4  10  23  40  63  92 126 166 211 261 317 377
#     4  10  22  38  59  82 119 158 192 246 308 358
#     4  11  25  41  64  94 122 167 215 265 316 381
#     4  10  19  34  57  82 115 151 198 250 297 362
#     4  10  22  40  61  83 118 162 200 247 308 370
#     4  10  23  42  66  95 129 167 211 262 315 377
#
# _framework density 21.558944
#
# number of rings (size 3 to 8) (size 9 to 14) (size 15 to 20)
#    0.000    2.000    0.000    2.571   11.000    2.000 
#    0.000    0.714    0.000    0.000    0.000    9.000 
#    0.000    0.000    0.000    0.000    0.000    0.000 
#
# Total GULP energy -156170.571194 kJ/mol
# GULP energy per Si atom -5577.520400 kJ/mol
# Density = 2.150987 g / cm^3
# Si number density = 21.558944 Si / 1000 Ang^3
#
#
#
# Elastic Constant Matrix: (Units=GPa)
#
#
# Indices 1 2 3 4 5 6 
#
# 1 45.7745 13.3825 25.7356 0.0000 1.3131 0.0000
# 2 13.3825 170.4614 62.3449 0.0000 -13.5490 0.0000
# 3 25.7356 62.3449 139.9713 0.0000 6.8815 0.0000
# 4 0.0000 0.0000 0.0000 48.9280 0.0000 -5.0625
# 5 1.3131 -13.5490 6.8815 0.0000 21.6316 0.0000
# 6 0.0000 0.0000 0.0000 -5.0625 0.0000 26.6204
#
#
#
# Elastic Compliance Matrix: (Units=1/GPa)
#
#
# Indices 1 2 3 4 5 6 
#
# 1 0.024382 -0.000368 -0.004302 0.000000 -0.000342 0.000000
# 2 -0.000368 0.007714 -0.003664 0.000000 0.006020 0.000000
# 3 -0.004302 -0.003664 0.009821 0.000000 -0.005158 0.000000
# 4 0.000000 0.000000 0.000000 0.020848 0.000000 0.003965
# 5 -0.000342 0.006020 -0.005158 0.000000 0.051661 0.000000
# 6 0.000000 0.000000 0.000000 0.003965 0.000000 0.038319
#
#
# Mechanical properties :
#
#
# Convention : Reuss Voigt Hill
#
# Bulk Modulus (GPa) = 39.60612 62.12591 50.86602
# Shear Modulus (GPa) = 28.11662 36.41896 32.26779
#
# Velocity S-wave (km/s) = 3.61525 4.11454 3.87295
# Velocity P-wave (km/s) = 5.98646 7.17300 6.60642
#
# Compressibility (1/GPa) = 0.02524862
#
# Stress axis : x y z
#
# Youngs Moduli (GPa) = 41.01305 129.63575 101.82208
#
# Poissons Ratio (x) = 0.04768 0.43808
# Poissons Ratio (y) = 0.01508 0.37310
# Poissons Ratio (z) = 0.17646 0.47501
#
# Static dielectric constant tensor:
#      x y z
#    x 1.806050 0.000000 0.121680 
#    y 0.000000 1.825820 0.000000 
#    z 0.121680 0.000000 2.283160 
# 
# From -- ./inp_files/5502.got.cif
#   From: 2010.05.17/outbox.cif.g08.bks.cpg/sg10_3_cif.got.tgz:5502.got - 2010.06.03 11:33:40.
