data_PCOD9147257
_publ_section_title
;
Structure prediction by ZEFSAII (Michael W. Deem and Ramdas Pophale) SiO2 
 PCOD9147257
Probable space group: P 2/M
;
_chemical_formula_sum "Si O2"
_cell_formula_units_Z 20
_cell_length_a 15.453727
_cell_length_b 10.420150
_cell_length_c 12.502546
_cell_angle_alpha 90.000000
_cell_angle_beta 150.875268
_cell_angle_gamma 90.000000
_cell_volume 979.891907
_symmetry_space_group_name_H-M "P 2/M"
_symmetry_group_IT_number 10
_symmetry_cell_setting 'monoclinic'
loop_
_space_group_symop_operation_xyz
x,y,z
-x,y,-z
-x,-y,-z
x,-y,z
loop_
_atom_site_type_symbol
_atom_site_label
_atom_site_fract_x
_atom_site_fract_y
_atom_site_fract_z
Si Si1 0.145559 0.647491 0.455554
Si Si2 0.245559 0.277113 0.010024
Si Si3 0.376821 0.647618 0.508324
Si Si4 0.695817 0.651742 0.159279
Si Si5 0.798113 0.142919 0.825909
O O1 0.201983 0.500000 0.528087
O O2 0.275909 0.698750 0.505531
O O3 0.173268 0.698426 0.605010
O O4 0.945450 0.654505 0.198694
O O5 0.415006 0.350789 0.240748
O O6 0.215051 0.161297 0.060282
O O7 0.290269 0.264598 0.932665
O O8 0.322352 0.500000 0.426502
O O9 0.315943 0.745198 0.351723
O O10 0.732478 0.500000 0.170069
O O11 0.500000 0.655645 0.000000
O O12 0.736648 0.000000 0.729985
O O13 0.000000 0.157134 0.000000
#
# Coordination Sequence:
#
# PCOD9147257 Si02
#       5
#     4   4   4   4   4
#     4  10  20  35  57  92 133 169 203 255 315 374
#     4  12  22  37  65  91 125 173 213 254 315 379
#     4  11  23  39  64  99 131 162 212 267 316 377
#     4  10  19  34  58  92 135 171 205 252 314 382
#     4  11  26  48  68  90 125 172 220 267 322 384
#
# _framework density 20.410415
#
# number of rings (size 3 to 8) (size 9 to 14) (size 15 to 20)
#    0.000    1.200    4.000    3.000    0.000    6.800 
#    0.000    0.000    0.000    4.200    0.000    0.000 
#    0.000    0.000    0.000    0.000    0.000    0.000 
#
# Total GULP energy -111547.017914 kJ/mol
# GULP energy per Si atom -5577.350896 kJ/mol
# Density = 2.036396 g / cm^3
# Si number density = 20.410415 Si / 1000 Ang^3
#
#
#
# Elastic Constant Matrix: (Units=GPa)
#
#
# Indices 1 2 3 4 5 6 
#
# 1 146.5383 38.6118 46.6556 0.0000 -13.9104 0.0000
# 2 38.6118 72.1243 40.6653 0.0000 -17.0014 0.0000
# 3 46.6556 40.6653 116.4223 0.0000 -5.5144 0.0000
# 4 0.0000 0.0000 0.0000 157.3102 0.0000 -10.7705
# 5 -13.9104 -17.0014 -5.5144 0.0000 42.7966 0.0000
# 6 0.0000 0.0000 0.0000 -10.7705 0.0000 4.5206
#
#
#
# Elastic Compliance Matrix: (Units=1/GPa)
#
#
# Indices 1 2 3 4 5 6 
#
# 1 0.008450 -0.002920 -0.002305 0.000000 0.001290 0.000000
# 2 -0.002920 0.020029 -0.005527 0.000000 0.006295 0.000000
# 3 -0.002305 -0.005527 0.011374 0.000000 -0.001480 0.000000
# 4 0.000000 0.000000 0.000000 0.007596 0.000000 0.018098
# 5 0.001290 0.006295 -0.001480 0.000000 0.026096 0.000000
# 6 0.000000 0.000000 0.000000 0.018098 0.000000 0.264329
#
#
# Mechanical properties :
#
#
# Convention : Reuss Voigt Hill
#
# Bulk Modulus (GPa) = 54.50486 65.21671 59.86078
# Shear Modulus (GPa) = 13.68013 54.86897 34.27455
#
# Velocity S-wave (km/s) = 2.59173 5.19049 4.10233
# Velocity P-wave (km/s) = 5.97650 8.24279 7.19938
#
# Compressibility (1/GPa) = 0.01834699
#
# Stress axis : x y z
#
# Youngs Moduli (GPa) = 118.34451 49.92862 87.92089
#
# Poissons Ratio (x) = 0.14579 0.20268
# Poissons Ratio (y) = 0.34556 0.48598
# Poissons Ratio (z) = 0.27282 0.27598
#
# Static dielectric constant tensor:
#      x y z
#    x 1.811300 0.000000 -0.015940 
#    y 0.000000 1.680200 0.000000 
#    z -0.015940 0.000000 1.759610 
# 
# From -- ./inp_files/46847.got.cif
#   From: 2010.05.17/outbox.cif.g08.bks.cpg/sg10_24_cif.got.tgz:46847.got - 2010.06.03 11:33:40.
