data_PCOD9147639
_publ_section_title
;
Structure prediction by ZEFSAII (Michael W. Deem and Ramdas Pophale) SiO2 
 PCOD9147639
Probable space group: P 2/M
;
_chemical_formula_sum "Si O2"
_cell_formula_units_Z 22
_cell_length_a 9.583923
_cell_length_b 8.077399
_cell_length_c 11.191068
_cell_angle_alpha 90.000000
_cell_angle_beta 95.395344
_cell_angle_gamma 90.000000
_cell_volume 862.497843
_symmetry_space_group_name_H-M "P 2/M"
_symmetry_group_IT_number 10
_symmetry_cell_setting 'monoclinic'
loop_
_space_group_symop_operation_xyz
x,y,z
-x,y,-z
-x,-y,-z
x,-y,z
loop_
_atom_site_type_symbol
_atom_site_label
_atom_site_fract_x
_atom_site_fract_y
_atom_site_fract_z
Si Si1 0.383916 0.310505 0.398309
Si Si2 0.182073 0.179642 0.558918
Si Si3 0.725983 0.185842 0.847192
Si Si4 0.628563 0.000000 0.234179
Si Si5 0.316993 0.686543 0.906412
Si Si6 0.013771 0.692924 0.760809
O O1 0.500000 0.249117 0.500000
O O2 0.414127 0.500000 0.368543
O O3 0.241620 0.300365 0.464062
O O4 0.368170 0.202830 0.279211
O O5 0.057328 0.239385 0.633936
O O6 0.155596 0.000000 0.499763
O O7 0.305476 0.140850 0.665260
O O8 0.685313 0.306694 0.950236
O O9 0.882950 0.220248 0.812093
O O10 0.719928 0.000000 0.892165
O O11 0.603533 0.847796 0.136279
O O12 0.358956 0.500000 0.869586
O O13 0.153910 0.710815 0.852403
O O14 0.980267 0.500000 0.749046
#
# Coordination Sequence:
#
# PCOD9147639 Si02
#       6
#     4   4   4   2   4   4
#     4  11  25  45  66  87 116 159 212 266 314 367
#     4   9  19  37  61  88 122 158 201 250 304 370
#     4  12  24  36  60  93 128 166 208 255 305 370
#     4   8  18  36  58  92 123 161 204 247 300 371
#     4  10  19  35  60  92 134 170 202 248 307 373
#     4  10  20  35  59  93 130 166 200 245 307 374
#
# _framework density 25.507307999999998
#
# number of rings (size 3 to 8) (size 9 to 14) (size 15 to 20)
#    0.545    1.273    0.909    3.818    1.273    5.091 
#    0.000    3.636    0.000    5.455    0.000   16.545 
#    0.000    0.000    0.000    0.000    0.000    0.000 
#
# Total GULP energy -122656.140001 kJ/mol
# GULP energy per Si atom -5575.279091 kJ/mol
# Density = 2.544925 g / cm^3
# Si number density = 25.507308 Si / 1000 Ang^3
#
#
#
# Elastic Constant Matrix: (Units=GPa)
#
#
# Indices 1 2 3 4 5 6 
#
# 1 98.6709 23.9071 29.3021 0.0000 2.6948 0.0000
# 2 23.9071 135.6782 25.6286 0.0000 -6.8445 0.0000
# 3 29.3021 25.6286 93.5660 0.0000 -5.5837 0.0000
# 4 0.0000 0.0000 0.0000 32.7696 0.0000 0.8255
# 5 2.6948 -6.8445 -5.5837 0.0000 42.5058 0.0000
# 6 0.0000 0.0000 0.0000 0.8255 0.0000 41.6206
#
#
#
# Elastic Compliance Matrix: (Units=1/GPa)
#
#
# Indices 1 2 3 4 5 6 
#
# 1 0.011506 -0.001478 -0.003282 0.000000 -0.001399 0.000000
# 2 -0.001478 0.008003 -0.001660 0.000000 0.001164 0.000000
# 3 -0.003282 -0.001660 0.012263 0.000000 0.001552 0.000000
# 4 0.000000 0.000000 0.000000 0.030531 0.000000 -0.000606
# 5 -0.001399 0.001164 0.001552 0.000000 0.024006 0.000000
# 6 0.000000 0.000000 0.000000 -0.000606 0.000000 0.024039
#
#
# Mechanical properties :
#
#
# Convention : Reuss Voigt Hill
#
# Bulk Modulus (GPa) = 52.82027 53.95453 53.38740
# Shear Modulus (GPa) = 38.61085 39.98435 39.29760
#
# Velocity S-wave (km/s) = 3.89487 3.96354 3.92936
# Velocity P-wave (km/s) = 6.40153 6.49190 6.44687
#
# Compressibility (1/GPa) = 0.01893213
#
# Stress axis : x y z
#
# Youngs Moduli (GPa) = 86.91417 124.95214 81.54851
#
# Poissons Ratio (x) = 0.18468 0.26763
# Poissons Ratio (y) = 0.12846 0.13535
# Poissons Ratio (z) = 0.28524 0.20739
#
# Static dielectric constant tensor:
#      x y z
#    x 2.125570 0.000000 0.060280 
#    y 0.000000 1.910980 0.000000 
#    z 0.060280 0.000000 1.989270 
# 
# From -- ./inp_files/45303.got.cif
#   From: 2010.05.17/outbox.cif.g08.bks.cpg/sg10_23_cif.got.tgz:45303.got - 2010.06.03 11:33:40.
