data_PCOD9147243
_publ_section_title
;
Structure prediction by ZEFSAII (Michael W. Deem and Ramdas Pophale) SiO2 
 PCOD9147243
Probable space group: P 2/M
;
_chemical_formula_sum "Si O2"
_cell_formula_units_Z 26
_cell_length_a 8.355125
_cell_length_b 9.370300
_cell_length_c 21.286141
_cell_angle_alpha 90.000000
_cell_angle_beta 127.872095
_cell_angle_gamma 90.000000
_cell_volume 1315.501186
_symmetry_space_group_name_H-M "P 2/M"
_symmetry_group_IT_number 10
_symmetry_cell_setting 'monoclinic'
loop_
_space_group_symop_operation_xyz
x,y,z
-x,y,-z
-x,-y,-z
x,-y,z
loop_
_atom_site_type_symbol
_atom_site_label
_atom_site_fract_x
_atom_site_fract_y
_atom_site_fract_z
Si Si1 0.154060 0.173455 0.983222
Si Si2 0.603379 0.838491 0.663867
Si Si3 0.500000 0.772023 0.500000
Si Si4 0.956100 0.173070 0.182287
Si Si5 0.643323 0.670780 0.298212
Si Si6 0.934256 0.329930 0.553425
Si Si7 0.548700 0.828083 0.153613
O O1 0.378451 0.209497 0.061222
O O2 0.146512 0.000000 0.978899
O O3 0.086104 0.225176 0.898579
O O4 0.000000 0.220571 0.000000
O O5 0.574398 0.844590 0.582235
O O6 0.449391 0.729718 0.659371
O O7 0.827813 0.787672 0.737121
O O8 0.571991 0.000000 0.681289
O O9 0.289897 0.700952 0.474526
O O10 0.766931 0.214260 0.179391
O O11 0.954553 0.000000 0.179909
O O12 0.626280 0.500000 0.290098
O O13 0.524143 0.748095 0.213422
O O14 0.881357 0.713779 0.356075
O O15 0.946941 0.500000 0.551528
O O16 0.000000 0.271699 0.500000
O O17 0.539613 0.000000 0.160849
#
# Coordination Sequence:
#
# PCOD9147243 Si02
#       7
#     4   4   2   4   4   4   4
#     4   9  16  28  52  85 116 150 191 234 282 344
#     4  11  23  39  59  86 121 155 195 243 298 357
#     4  12  22  38  64  90 119 154 195 250 309 352
#     4   9  18  33  55  85 118 152 194 239 285 350
#     4  11  23  40  60  85 118 154 199 243 290 353
#     4  10  21  39  60  86 117 154 200 243 287 351
#     4  10  19  34  58  86 117 151 190 241 297 343
#
# _framework density 19.764330000000001
#
# number of rings (size 3 to 8) (size 9 to 14) (size 15 to 20)
#    0.000    1.846    1.538    3.231    0.000    4.923 
#    0.000    3.846    0.000    6.000    0.000    0.000 
#    0.000    0.000    0.000    0.000    0.000    0.000 
#
# Total GULP energy -144906.385099 kJ/mol
# GULP energy per Si atom -5573.322504 kJ/mol
# Density = 1.971935 g / cm^3
# Si number density = 19.764330 Si / 1000 Ang^3
#
#
#
# Elastic Constant Matrix: (Units=GPa)
#
#
# Indices 1 2 3 4 5 6 
#
# 1 94.3020 10.6400 46.4853 0.0000 8.0682 0.0000
# 2 10.6400 20.3802 26.9784 0.0000 0.3180 0.0000
# 3 46.4853 26.9784 150.5012 0.0000 0.9208 0.0000
# 4 0.0000 0.0000 0.0000 8.7505 0.0000 3.5562
# 5 8.0682 0.3180 0.9208 0.0000 44.1148 0.0000
# 6 0.0000 0.0000 0.0000 3.5562 0.0000 9.9010
#
#
#
# Elastic Compliance Matrix: (Units=1/GPa)
#
#
# Indices 1 2 3 4 5 6 
#
# 1 0.012782 -0.001875 -0.003598 0.000000 -0.002249 0.000000
# 2 -0.001875 0.064610 -0.011003 0.000000 0.000107 0.000000
# 3 -0.003598 -0.011003 0.009725 0.000000 0.000534 0.000000
# 4 0.000000 0.000000 0.000000 0.133812 0.000000 -0.048062
# 5 -0.002249 0.000107 0.000534 0.000000 0.023068 0.000000
# 6 0.000000 0.000000 0.000000 -0.048062 0.000000 0.118263
#
#
# Mechanical properties :
#
#
# Convention : Reuss Voigt Hill
#
# Bulk Modulus (GPa) = 18.46245 48.15452 33.30849
# Shear Modulus (GPa) = 12.09875 24.62526 18.36201
#
# Velocity S-wave (km/s) = 2.47685 3.53362 3.05134
# Velocity P-wave (km/s) = 4.18823 6.40827 5.41328
#
# Compressibility (1/GPa) = 0.05416399
#
# Stress axis : x y z
#
# Youngs Moduli (GPa) = 78.23602 15.47748 102.82849
#
# Poissons Ratio (x) = 0.02902 0.36998
# Poissons Ratio (y) = 0.14670 1.13145
# Poissons Ratio (z) = 0.28150 0.17030
#
# Static dielectric constant tensor:
#      x y z
#    x 1.711330 0.000000 0.002910 
#    y 0.000000 1.668990 0.000000 
#    z 0.002910 0.000000 1.724820 
# 
# From -- ./inp_files/82251.got.cif
#   From: 2010.05.17/outbox.cif.g08.bks.cpg/sg10_42_cif.got.tgz:82251.got - 2010.06.03 11:33:40.
