data_PCOD9147604
_publ_section_title
;
Structure prediction by ZEFSAII (Michael W. Deem and Ramdas Pophale) SiO2 
 PCOD9147604
Probable space group: P 2/M
;
_chemical_formula_sum "Si O2"
_cell_formula_units_Z 28
_cell_length_a 9.722135
_cell_length_b 18.160834
_cell_length_c 16.673046
_cell_angle_alpha 90.000000
_cell_angle_beta 29.072868
_cell_angle_gamma 90.000000
_cell_volume 1430.469331
_symmetry_space_group_name_H-M "P 2/M"
_symmetry_group_IT_number 10
_symmetry_cell_setting 'monoclinic'
loop_
_space_group_symop_operation_xyz
x,y,z
-x,y,-z
-x,-y,-z
x,-y,z
loop_
_atom_site_type_symbol
_atom_site_label
_atom_site_fract_x
_atom_site_fract_y
_atom_site_fract_z
Si Si1 0.955225 0.306400 0.322175
Si Si2 0.768412 0.583895 0.924366
Si Si3 0.914164 0.793648 0.892046
Si Si4 0.819827 0.085757 0.509859
Si Si5 0.459266 0.300263 0.188686
Si Si6 0.501675 0.239962 0.661398
Si Si7 0.175221 0.913513 0.166721
O O1 0.979129 0.380435 0.256941
O O2 0.168056 0.309832 0.289234
O O3 0.083183 0.247873 0.194643
O O4 0.659615 0.276576 0.505120
O O5 0.822603 0.500000 0.920442
O O6 0.500000 0.585278 0.000000
O O7 0.669673 0.635831 0.048278
O O8 0.168331 0.763466 0.815798
O O9 0.969028 0.876253 0.836529
O O10 0.617613 0.775382 0.083533
O O11 0.610504 0.155936 0.617332
O O12 0.000000 0.089101 0.500000
O O13 0.017793 0.099444 0.331007
O O14 0.712321 0.000000 0.558378
O O15 0.424976 0.291420 0.300431
O O16 0.179999 0.000000 0.152705
O O17 0.500000 0.886838 0.000000
#
# Coordination Sequence:
#
# PCOD9147604 Si02
#       7
#     4   4   4   4   4   4   4
#     4  10  19  35  60  82 109 146 189 231 274 337
#     4   8  16  34  61  89 113 143 186 234 280 331
#     4  11  22  36  54  81 114 147 188 236 283 330
#     4  10  22  38  56  80 113 152 190 237 292 339
#     4  10  21  37  58  82 112 152 188 226 276 341
#     4  12  23  35  54  86 118 148 186 240 288 332
#     4  10  21  37  59  82 108 149 200 243 283 342
#
# _framework density 19.573995
#
# number of rings (size 3 to 8) (size 9 to 14) (size 15 to 20)
#    0.000    1.857    1.429    4.286    2.000    0.571 
#    0.000    2.143    0.000   18.857    0.000    0.000 
#    0.000    0.000    0.000    0.000    0.000    0.143 
#
# Total GULP energy -156121.046988 kJ/mol
# GULP energy per Si atom -5575.751678 kJ/mol
# Density = 1.952944 g / cm^3
# Si number density = 19.573995 Si / 1000 Ang^3
#
#
#
# Elastic Constant Matrix: (Units=GPa)
#
#
# Indices 1 2 3 4 5 6 
#
# 1 50.0661 21.6987 7.0388 0.0000 4.3352 0.0000
# 2 21.6987 93.0828 24.3266 0.0000 4.7201 0.0000
# 3 7.0388 24.3266 55.8609 0.0000 16.2009 0.0000
# 4 0.0000 0.0000 0.0000 21.8395 0.0000 4.6783
# 5 4.3352 4.7201 16.2009 0.0000 21.7417 0.0000
# 6 0.0000 0.0000 0.0000 4.6783 0.0000 11.5303
#
#
#
# Elastic Compliance Matrix: (Units=1/GPa)
#
#
# Indices 1 2 3 4 5 6 
#
# 1 0.022471 -0.005182 0.000508 0.000000 -0.003734 0.000000
# 2 -0.005182 0.013365 -0.005901 0.000000 0.002529 0.000000
# 3 0.000508 -0.005901 0.025597 0.000000 -0.017894 0.000000
# 4 0.000000 0.000000 0.000000 0.050147 0.000000 -0.020347
# 5 -0.003734 0.002529 -0.017894 0.000000 0.059524 0.000000
# 6 0.000000 0.000000 0.000000 -0.020347 0.000000 0.094984
#
#
# Mechanical properties :
#
#
# Convention : Reuss Voigt Hill
#
# Bulk Modulus (GPa) = 24.82347 33.90423 29.36385
# Shear Modulus (GPa) = 16.62984 20.75201 18.69092
#
# Velocity S-wave (km/s) = 2.91793 3.25958 3.09347
# Velocity P-wave (km/s) = 4.90529 5.61472 5.27195
#
# Compressibility (1/GPa) = 0.04028446
#
# Stress axis : x y z
#
# Youngs Moduli (GPa) = 44.50117 74.82266 39.06736
#
# Poissons Ratio (x) = 0.38771 -0.01985
# Poissons Ratio (y) = 0.23059 0.23052
# Poissons Ratio (z) = -0.02261 0.44150
#
# Static dielectric constant tensor:
#      x y z
#    x 1.704770 0.000000 -0.012930 
#    y 0.000000 1.743160 0.000000 
#    z -0.012930 0.000000 1.681140 
# 
# From -- ./inp_files/62324.got.cif
#   From: 2010.05.17/outbox.cif.g08.bks.cpg/sg10_32_cif.got.tgz:62324.got - 2010.06.03 11:33:40.
