data_PCOD9147454
_publ_section_title
;
Structure prediction by ZEFSAII (Michael W. Deem and Ramdas Pophale) SiO2 
 PCOD9147454
Probable space group: P 2/M
;
_chemical_formula_sum "Si O2"
_cell_formula_units_Z 28
_cell_length_a 11.901770
_cell_length_b 7.481245
_cell_length_c 15.055339
_cell_angle_alpha 90.000000
_cell_angle_beta 111.733583
_cell_angle_gamma 90.000000
_cell_volume 1245.237723
_symmetry_space_group_name_H-M "P 2/M"
_symmetry_group_IT_number 10
_symmetry_cell_setting 'monoclinic'
loop_
_space_group_symop_operation_xyz
x,y,z
-x,y,-z
-x,-y,-z
x,-y,z
loop_
_atom_site_type_symbol
_atom_site_label
_atom_site_fract_x
_atom_site_fract_y
_atom_site_fract_z
Si Si1 0.404468 0.796084 0.539861
Si Si2 0.682630 0.786666 0.300867
Si Si3 0.847947 0.717826 0.044678
Si Si4 0.382491 0.285452 0.913868
Si Si5 0.192478 0.706196 0.354215
Si Si6 0.124584 0.281904 0.146887
Si Si7 0.042830 0.783949 0.611430
O O1 0.500000 0.711760 0.500000
O O2 0.381959 0.713976 0.629847
O O3 0.277034 0.799523 0.450893
O O4 0.447300 0.000000 0.567723
O O5 0.615023 0.754361 0.189440
O O6 0.820656 0.719878 0.333394
O O7 0.693386 0.000000 0.317467
O O8 0.849226 0.500000 0.046778
O O9 0.742198 0.781124 0.078366
O O10 0.983683 0.774357 0.110003
O O11 0.826919 0.770509 0.935724
O O12 0.380886 0.500000 0.922976
O O13 0.500000 0.217884 0.000000
O O14 0.231135 0.500000 0.364402
O O15 0.195543 0.779115 0.254918
O O16 0.054439 0.715173 0.346924
O O17 0.125146 0.500000 0.149777
O O18 0.000000 0.732806 0.500000
O O19 0.040232 0.000000 0.615662
#
# Coordination Sequence:
#
# PCOD9147454 Si02
#       7
#     4   4   4   4   4   4   4
#     4  10  22  41  59  74 103 150 194 224 266 332
#     4  10  21  38  59  81 106 143 187 233 278 321
#     4   8  14  29  49  70 102 139 175 209 256 323
#     4  10  21  35  54  80 108 141 179 223 275 330
#     4  11  21  32  53  87 117 139 176 229 281 328
#     4   8  15  27  47  74 103 137 170 211 264 319
#     4  10  19  35  57  79 110 148 186 224 270 333
#
# _framework density 22.485665999999998
#
# number of rings (size 3 to 8) (size 9 to 14) (size 15 to 20)
#    0.000    2.429    1.429    2.143    0.000    4.286 
#    0.000    1.429    0.000    1.714    0.000    7.000 
#    0.000    0.000    0.000    0.000    0.000    0.000 
#
# Total GULP energy -156428.973377 kJ/mol
# GULP energy per Si atom -5586.749049 kJ/mol
# Density = 2.243449 g / cm^3
# Si number density = 22.485666 Si / 1000 Ang^3
#
#
#
# Elastic Constant Matrix: (Units=GPa)
#
#
# Indices 1 2 3 4 5 6 
#
# 1 117.9804 -0.1880 53.7383 0.0000 -22.2905 0.0000
# 2 -0.1880 64.8377 -4.5644 0.0000 0.0724 0.0000
# 3 53.7383 -4.5644 164.5669 0.0000 -25.2584 0.0000
# 4 0.0000 0.0000 0.0000 -3.9910 0.0000 -0.4370
# 5 -22.2905 0.0724 -25.2584 0.0000 28.9128 0.0000
# 6 0.0000 0.0000 0.0000 -0.4370 0.0000 -3.8587
#
#
#
# Elastic Compliance Matrix: (Units=1/GPa)
#
#
# Indices 1 2 3 4 5 6 
#
# 1 0.010806 -0.000159 -0.002603 0.000000 0.006057 0.000000
# 2 -0.000159 0.015459 0.000526 0.000000 0.000299 0.000000
# 3 -0.002603 0.000526 0.007660 0.000000 0.004684 0.000000
# 4 0.000000 0.000000 0.000000 -0.253713 0.000000 0.028736
# 5 0.006057 0.000299 0.004684 0.000000 0.043347 0.000000
# 6 0.000000 0.000000 0.000000 0.028736 0.000000 -0.262408
#
#
# Mechanical properties :
#
#
# Convention : Reuss Voigt Hill
#
# Bulk Modulus (GPa) = 33.95098 49.48409 41.71754
# Shear Modulus (GPa) = -11.77694 24.10590 6.16448
#
# Velocity S-wave (km/s) = -2.29105 3.27778 1.65755
# Velocity P-wave (km/s) = 2.85187 6.03157 4.71768
#
# Compressibility (1/GPa) = 0.02945423
#
# Stress axis : x y z
#
# Youngs Moduli (GPa) = 92.54222 64.68562 130.54634
#
# Poissons Ratio (x) = 0.01027 0.33986
# Poissons Ratio (y) = 0.01469 -0.06873
# Poissons Ratio (z) = 0.24092 -0.03406
#
# Static dielectric constant tensor:
#      x y z
#    x 1.817900 0.000000 -0.015860 
#    y 0.000000 1.866550 0.000000 
#    z -0.015860 0.000000 1.807490 
# 
# From -- ./inp_files/63513.got.cif
#   From: 2010.05.17/outbox.cif.g08.bks.cpg/sg10_32_cif.got.tgz:63513.got - 2010.06.03 11:33:40.
