data_PCOD9147260
_publ_section_title
;
Structure prediction by ZEFSAII (Michael W. Deem and Ramdas Pophale) SiO2 
 PCOD9147260
Probable space group: P 2/M
;
_chemical_formula_sum "Si O2"
_cell_formula_units_Z 30
_cell_length_a 11.011808
_cell_length_b 18.077836
_cell_length_c 9.592309
_cell_angle_alpha 90.000000
_cell_angle_beta 58.652050
_cell_angle_gamma 90.000000
_cell_volume 1630.790538
_symmetry_space_group_name_H-M "P 2/M"
_symmetry_group_IT_number 10
_symmetry_cell_setting 'monoclinic'
loop_
_space_group_symop_operation_xyz
x,y,z
-x,y,-z
-x,-y,-z
x,-y,z
loop_
_atom_site_type_symbol
_atom_site_label
_atom_site_fract_x
_atom_site_fract_y
_atom_site_fract_z
Si Si1 0.671151 0.586516 0.928452
Si Si2 0.728765 0.917034 0.840837
Si Si3 0.027752 0.914132 0.824831
Si Si4 0.162712 0.589407 0.887889
Si Si5 0.652178 0.583322 0.481092
Si Si6 0.500000 0.798490 0.000000
Si Si7 0.849354 0.159076 0.510651
Si Si8 0.680586 0.300312 0.699835
O O1 0.708891 0.500000 0.878341
O O2 0.741493 0.648239 0.787447
O O3 0.500000 0.591109 0.000000
O O4 0.729517 0.604505 0.048223
O O5 0.628136 0.853356 0.960543
O O6 0.756252 0.896634 0.662063
O O7 0.877011 0.914549 0.834709
O O8 0.671804 0.000000 0.887294
O O9 0.129074 0.867529 0.660862
O O10 0.077403 0.000000 0.803089
O O11 0.000000 0.888030 0.000000
O O12 0.155517 0.500000 0.886773
O O13 0.234179 0.611417 0.699770
O O14 0.000000 0.616784 0.000000
O O15 0.500000 0.577497 0.500000
O O16 0.691941 0.500000 0.505045
O O17 0.635834 0.640145 0.614311
O O18 0.552928 0.746697 0.843811
O O19 0.784092 0.240156 0.570177
O O20 0.000000 0.158815 0.500000
#
# Coordination Sequence:
#
# PCOD9147260 Si02
#       8
#     4   4   4   4   4   2   4   4
#     4  10  19  34  59  82 102 143 198 240 281 342
#     4   9  17  33  58  79 105 144 180 221 263 318
#     4   9  17  33  58  84 107 137 182 225 260 316
#     4   9  19  36  57  83 112 138 178 243 301 341
#     4  10  21  38  58  80 106 146 201 242 282 348
#     4  10  21  34  51  80 112 138 182 226 273 336
#     4   9  19  34  51  79 111 142 177 216 270 335
#     4  11  21  35  52  77 110 143 179 234 285 326
#
# _framework density 18.395986000000001
#
# number of rings (size 3 to 8) (size 9 to 14) (size 15 to 20)
#    0.000    2.400    0.667    1.800    0.000    4.800 
#    2.400    2.000    0.000    4.000    0.000    6.533 
#    0.000    0.000    0.000    0.000    0.000    0.000 
#
# Total GULP energy -167088.064755 kJ/mol
# GULP energy per Si atom -5569.602159 kJ/mol
# Density = 1.835412 g / cm^3
# Si number density = 18.395986 Si / 1000 Ang^3
#
#
#
# Elastic Constant Matrix: (Units=GPa)
#
#
# Indices 1 2 3 4 5 6 
#
# 1 42.8954 19.2743 30.1430 0.0000 0.3103 0.0000
# 2 19.2743 113.8980 67.7151 0.0000 6.5250 0.0000
# 3 30.1430 67.7151 129.9305 0.0000 8.2657 0.0000
# 4 0.0000 0.0000 0.0000 26.4827 0.0000 13.9777
# 5 0.3103 6.5250 8.2657 0.0000 29.3205 0.0000
# 6 0.0000 0.0000 0.0000 13.9777 0.0000 -25.9122
#
#
#
# Elastic Compliance Matrix: (Units=1/GPa)
#
#
# Indices 1 2 3 4 5 6 
#
# 1 0.028059 -0.001320 -0.005928 0.000000 0.001668 0.000000
# 2 -0.001320 0.012811 -0.006303 0.000000 -0.001060 0.000000
# 3 -0.005928 -0.006303 0.012487 0.000000 -0.002055 0.000000
# 4 0.000000 0.000000 0.000000 0.029392 0.000000 0.015855
# 5 0.001668 -0.001060 -0.002055 0.000000 0.034903 0.000000
# 6 0.000000 0.000000 0.000000 0.015855 0.000000 -0.030039
#
#
# Mechanical properties :
#
#
# Convention : Reuss Voigt Hill
#
# Bulk Modulus (GPa) = 38.08604 57.88763 47.98683
# Shear Modulus (GPa) = 40.49659 17.28429 28.89044
#
# Velocity S-wave (km/s) = 4.69698 3.06856 3.96722
# Velocity P-wave (km/s) = 7.08265 6.64008 6.86493
#
# Compressibility (1/GPa) = 0.02625634
#
# Stress axis : x y z
#
# Youngs Moduli (GPa) = 35.63921 78.05661 80.08084
#
# Poissons Ratio (x) = 0.10300 0.47471
# Poissons Ratio (y) = 0.04703 0.50476
# Poissons Ratio (z) = 0.21127 0.49201
#
# Static dielectric constant tensor:
#      x y z
#    x 1.624440 0.000000 -0.015240 
#    y 0.000000 1.644190 0.000000 
#    z -0.015240 0.000000 1.685630 
# 
# From -- ./inp_files/25836.got.cif
#   From: 2010.05.17/outbox.cif.g08.bks.cpg/sg10_13_cif.got.tgz:25836.got - 2010.06.03 11:33:40.
