data_PCOD9147020
_publ_section_title
;
Structure prediction by ZEFSAII (Michael W. Deem and Ramdas Pophale) SiO2 
 PCOD9147020
Probable space group: P 2/M
;
_chemical_formula_sum "Si O2"
_cell_formula_units_Z 28
_cell_length_a 9.236319
_cell_length_b 8.850252
_cell_length_c 29.695386
_cell_angle_alpha 90.000000
_cell_angle_beta 141.246437
_cell_angle_gamma 90.000000
_cell_volume 1519.492013
_symmetry_space_group_name_H-M "P 2/M"
_symmetry_group_IT_number 10
_symmetry_cell_setting 'monoclinic'
loop_
_space_group_symop_operation_xyz
x,y,z
-x,y,-z
-x,-y,-z
x,-y,z
loop_
_atom_site_type_symbol
_atom_site_label
_atom_site_fract_x
_atom_site_fract_y
_atom_site_fract_z
Si Si1 0.801117 0.318867 0.852559
Si Si2 0.448740 0.319816 0.847857
Si Si3 0.106963 0.817540 0.574598
Si Si4 0.818414 0.173946 0.997758
Si Si5 0.763090 0.816134 0.571058
Si Si6 0.385592 0.318555 0.291027
Si Si7 0.945117 0.181572 0.713498
O O1 0.830161 0.500000 0.861371
O O2 0.602189 0.280193 0.840875
O O3 0.718845 0.275133 0.782997
O O4 0.038967 0.243049 0.926313
O O5 0.419836 0.500000 0.841916
O O6 0.597511 0.265932 0.926886
O O7 0.202642 0.240106 0.785197
O O8 0.354864 0.742425 0.641493
O O9 0.000000 0.780557 0.500000
O O10 0.930709 0.769652 0.571165
O O11 0.133393 0.000000 0.583064
O O12 0.757456 0.000000 0.991045
O O13 0.000000 0.179564 0.000000
O O14 0.500000 0.763911 0.500000
O O15 0.863350 0.770555 0.643712
O O16 0.758122 0.000000 0.569329
O O17 0.384427 0.500000 0.293597
O O18 0.229028 0.249040 0.292191
O O19 0.939451 0.000000 0.714147
#
# Coordination Sequence:
#
# PCOD9147020 Si02
#       7
#     4   4   4   4   4   4   4
#     4   9  19  35  55  79 108 144 182 222 272 327
#     4  10  19  34  56  80 109 143 179 221 273 329
#     4  10  20  36  60  86 111 142 181 224 271 322
#     4   9  17  30  52  82 111 139 177 224 270 320
#     4   9  18  34  57  84 111 140 177 222 270 319
#     4  11  23  38  55  78 111 147 184 225 270 322
#     4  11  22  36  55  79 109 144 184 227 270 320
#
# _framework density 18.427211
#
# number of rings (size 3 to 8) (size 9 to 14) (size 15 to 20)
#    0.000    2.143    0.000    3.429    0.000    6.000 
#    0.000    1.429    0.000    7.286    0.000    0.000 
#    0.000    0.000    0.000    0.000    0.000    0.000 
#
# Total GULP energy -156361.884720 kJ/mol
# GULP energy per Si atom -5584.353026 kJ/mol
# Density = 1.838527 g / cm^3
# Si number density = 18.427211 Si / 1000 Ang^3
#
#
#
# Elastic Constant Matrix: (Units=GPa)
#
#
# Indices 1 2 3 4 5 6 
#
# 1 138.3107 47.0511 105.4543 0.0000 -1.9273 0.0000
# 2 47.0511 44.7806 61.9286 0.0000 -2.3017 0.0000
# 3 105.4543 61.9286 203.9398 0.0000 -1.8264 0.0000
# 4 0.0000 0.0000 0.0000 22.7688 0.0000 -4.1131
# 5 -1.9273 -2.3017 -1.8264 0.0000 28.1810 0.0000
# 6 0.0000 0.0000 0.0000 -4.1131 0.0000 16.3548
#
#
#
# Elastic Compliance Matrix: (Units=1/GPa)
#
#
# Indices 1 2 3 4 5 6 
#
# 1 0.013318 -0.007706 -0.004547 0.000000 -0.000013 0.000000
# 2 -0.007706 0.043119 -0.009087 0.000000 0.002406 0.000000
# 3 -0.004547 -0.009087 0.010010 0.000000 -0.000404 0.000000
# 4 0.000000 0.000000 0.000000 0.046010 0.000000 0.011571
# 5 -0.000013 0.002406 -0.000404 0.000000 0.035654 0.000000
# 6 0.000000 0.000000 0.000000 0.011571 0.000000 0.064054
#
#
# Mechanical properties :
#
#
# Convention : Reuss Voigt Hill
#
# Bulk Modulus (GPa) = 42.07546 90.65546 66.36546
# Shear Modulus (GPa) = 19.02822 24.96739 21.99781
#
# Velocity S-wave (km/s) = 3.21692 3.68492 3.45884
# Velocity P-wave (km/s) = 6.05648 8.21025 7.21419
#
# Compressibility (1/GPa) = 0.02376682
#
# Stress axis : x y z
#
# Youngs Moduli (GPa) = 75.08643 23.19181 99.89902
#
# Poissons Ratio (x) = 0.17873 0.45419
# Poissons Ratio (y) = 0.57865 0.90779
# Poissons Ratio (z) = 0.34138 0.21075
#
# Static dielectric constant tensor:
#      x y z
#    x 1.614620 0.000000 -0.011900 
#    y 0.000000 1.619110 0.000000 
#    z -0.011900 0.000000 1.609880 
# 
# From -- ./inp_files/36827.got.cif
#   From: 2010.05.17/outbox.cif.g08.bks.cpg/sg10_19_cif.got.tgz:36827.got - 2010.06.03 11:33:40.
