data_PCOD9147302
_publ_section_title
;
Structure prediction by ZEFSAII (Michael W. Deem and Ramdas Pophale) SiO2 
 PCOD9147302
Probable space group: P 2/M
;
_chemical_formula_sum "Si O2"
_cell_formula_units_Z 15
_cell_length_a 15.475038
_cell_length_b 7.858290
_cell_length_c 4.931612
_cell_angle_alpha 90.000000
_cell_angle_beta 80.568976
_cell_angle_gamma 90.000000
_cell_volume 591.614130
_symmetry_space_group_name_H-M "P 2/M"
_symmetry_group_IT_number 10
_symmetry_cell_setting 'monoclinic'
loop_
_space_group_symop_operation_xyz
x,y,z
-x,y,-z
-x,-y,-z
x,-y,z
loop_
_atom_site_type_symbol
_atom_site_label
_atom_site_fract_x
_atom_site_fract_y
_atom_site_fract_z
Si Si1 0.907374 0.706619 0.436484
Si Si2 0.500000 0.000000 0.500000
Si Si3 0.434831 0.500000 0.281954
Si Si4 0.800043 0.705130 0.986348
Si Si5 0.362248 0.189341 0.582307
O O1 0.909478 0.500000 0.457180
O O2 0.882596 0.743765 0.141498
O O3 0.000000 0.769948 0.500000
O O4 0.828583 0.763616 0.674481
O O5 0.549113 0.845342 0.296064
O O6 0.500000 0.500000 0.500000
O O7 0.370684 0.338914 0.363845
O O8 0.500000 0.500000 0.000000
O O9 0.786799 0.500000 0.994497
O O10 0.717920 0.787131 0.177499
O O11 0.370610 0.000000 0.439706
#
# Coordination Sequence:
#
# PCOD9147302 Si02
#       5
#     4   1   2   4   4
#     4   9  18  33  57  90 124 159 203 252 309 373
#     4   8  20  42  66  88 126 172 206 254 326 364
#     4  12  24  42  66  90 121 164 211 262 314 372
#     4  10  19  34  59  89 121 162 205 253 307 364
#     4  10  21  42  64  93 128 164 214 258 315 372
#
# _framework density 25.354364
#
# number of rings (size 3 to 8) (size 9 to 14) (size 15 to 20)
#    0.800    1.333    2.667    0.800    0.000    5.867 
#    0.000    4.000    0.000    4.800    0.000    0.000 
#    0.000    0.000    0.000    0.000    0.000    0.000 
#
# Total GULP energy -83510.395063 kJ/mol
# GULP energy per Si atom -5567.359671 kJ/mol
# Density = 2.529666 g / cm^3
# Si number density = 25.354364 Si / 1000 Ang^3
#
#
#
# Elastic Constant Matrix: (Units=GPa)
#
#
# Indices 1 2 3 4 5 6 
#
# 1 63.8174 -0.6747 12.0826 0.0000 -13.9199 0.0000
# 2 -0.6747 115.5484 25.6547 0.0000 -5.2191 0.0000
# 3 12.0826 25.6547 117.1712 0.0000 -7.4896 0.0000
# 4 0.0000 0.0000 0.0000 10.9328 0.0000 -9.8005
# 5 -13.9199 -5.2191 -7.4896 0.0000 38.9814 0.0000
# 6 0.0000 0.0000 0.0000 -9.8005 0.0000 6.9657
#
#
#
# Elastic Compliance Matrix: (Units=1/GPa)
#
#
# Indices 1 2 3 4 5 6 
#
# 1 0.017273 0.000716 -0.001557 0.000000 0.005965 0.000000
# 2 0.000716 0.009154 -0.002008 0.000000 0.001095 0.000000
# 3 -0.001557 -0.002008 0.009195 0.000000 0.000942 0.000000
# 4 0.000000 0.000000 0.000000 -0.350109 0.000000 -0.492593
# 5 0.005965 0.001095 0.000942 0.000000 0.028111 0.000000
# 6 0.000000 0.000000 0.000000 -0.492593 0.000000 -0.549504
#
#
# Mechanical properties :
#
#
# Convention : Reuss Voigt Hill
#
# Bulk Modulus (GPa) = 33.41772 41.18467 37.30120
# Shear Modulus (GPa) = -6.09602 28.67426 11.28912
#
# Velocity S-wave (km/s) = -1.55227 3.36659 2.11239
# Velocity P-wave (km/s) = 3.16167 5.60275 4.54901
#
# Compressibility (1/GPa) = 0.02992424
#
# Stress axis : x y z
#
# Youngs Moduli (GPa) = 57.89359 109.24328 108.75583
#
# Poissons Ratio (x) = -0.07821 0.16930
# Poissons Ratio (y) = -0.04145 0.21839
# Poissons Ratio (z) = 0.09012 0.21937
#
# Static dielectric constant tensor:
#      x y z
#    x 0.730380 0.000000 0.007250 
#    y 0.000000 2.086990 0.000000 
#    z 0.007250 0.000000 1.806310 
# 
# From -- ./inp_files/10361.got.cif
#   From: 2010.05.17/outbox.cif.g08.bks.cpg/sg10_6_cif.got.tgz:10361.got - 2010.06.03 11:33:40.
