data_PCOD9147332
_publ_section_title
;
Structure prediction by ZEFSAII (Michael W. Deem and Ramdas Pophale) SiO2 
 PCOD9147332
Probable space group: P 2/M
;
_chemical_formula_sum "Si O2"
_cell_formula_units_Z 21
_cell_length_a 19.650569
_cell_length_b 7.611374
_cell_length_c 10.845197
_cell_angle_alpha 90.000000
_cell_angle_beta 141.113247
_cell_angle_gamma 90.000000
_cell_volume 1018.322322
_symmetry_space_group_name_H-M "P 2/M"
_symmetry_group_IT_number 10
_symmetry_cell_setting 'monoclinic'
loop_
_space_group_symop_operation_xyz
x,y,z
-x,y,-z
-x,-y,-z
x,-y,z
loop_
_atom_site_type_symbol
_atom_site_label
_atom_site_fract_x
_atom_site_fract_y
_atom_site_fract_z
Si Si1 0.077708 0.715091 0.499535
Si Si2 0.672879 0.709179 0.145993
Si Si3 0.936010 0.704856 0.793902
Si Si4 0.500000 0.500000 0.500000
Si Si5 0.686748 0.790925 0.446226
Si Si6 0.523006 0.202408 0.710966
O O1 0.076989 0.500000 0.495780
O O2 0.202421 0.767239 0.696136
O O3 0.044072 0.777966 0.315369
O O4 0.000000 0.772071 0.500000
O O5 0.667347 0.500000 0.122199
O O6 0.646681 0.748315 0.251611
O O7 0.594651 0.792093 0.935593
O O8 0.967861 0.500000 0.832064
O O9 0.806577 0.714315 0.631645
O O10 0.000000 0.783721 0.000000
O O11 0.561757 0.343136 0.666821
O O12 0.597187 0.731817 0.417859
O O13 0.695536 0.000000 0.468984
O O14 0.518684 0.000000 0.664135
#
# Coordination Sequence:
#
# PCOD9147332 Si02
#       6
#     4   4   4   1   4   4
#     4   8  15  30  51  80 115 149 194 247 293 350
#     4  10  19  34  61  91 115 151 200 246 304 357
#     4   9  18  33  53  83 112 149 199 250 297 356
#     4  12  26  44  62  82 120 176 190 246 292 360
#     4  10  21  36  59  87 117 151 193 254 307 352
#     4  11  24  42  61  89 121 155 202 245 298 360
#
# _framework density 20.622156
#
# number of rings (size 3 to 8) (size 9 to 14) (size 15 to 20)
#    0.000    2.286    0.952    3.143    2.667    2.667 
#    3.429    0.000    0.000   14.286    0.000    0.000 
#    0.000    0.000    0.000    0.000    0.000    0.000 
#
# Total GULP energy -116956.321595 kJ/mol
# GULP energy per Si atom -5569.348647 kJ/mol
# Density = 2.057522 g / cm^3
# Si number density = 20.622156 Si / 1000 Ang^3
#
#
#
# Elastic Constant Matrix: (Units=GPa)
#
#
# Indices 1 2 3 4 5 6 
#
# 1 80.9521 6.9635 35.0881 0.0000 -7.5913 0.0000
# 2 6.9635 76.9473 4.8373 0.0000 -5.5861 0.0000
# 3 35.0881 4.8373 133.4510 0.0000 -18.7509 0.0000
# 4 0.0000 0.0000 0.0000 -112.8658 0.0000 31.5263
# 5 -7.5913 -5.5861 -18.7509 0.0000 10.4579 0.0000
# 6 0.0000 0.0000 0.0000 31.5263 0.0000 13.5793
#
#
#
# Elastic Compliance Matrix: (Units=1/GPa)
#
#
# Indices 1 2 3 4 5 6 
#
# 1 0.014164 -0.000773 -0.003087 0.000000 0.004333 0.000000
# 2 -0.000773 0.013612 0.000872 0.000000 0.008274 0.000000
# 3 -0.003087 0.000872 0.010726 0.000000 0.017457 0.000000
# 4 0.000000 0.000000 0.000000 -0.005375 0.000000 0.012478
# 5 0.004333 0.008274 0.017457 0.000000 0.134486 0.000000
# 6 0.000000 0.000000 0.000000 0.012478 0.000000 0.044672
#
#
# Mechanical properties :
#
#
# Convention : Reuss Voigt Hill
#
# Bulk Modulus (GPa) = 30.74463 42.79202 36.76832
# Shear Modulus (GPa) = 21.82418 -1.46827 10.17795
#
# Velocity S-wave (km/s) = 3.25666 -0.84471 2.22400
# Velocity P-wave (km/s) = 5.39278 4.45468 4.94602
#
# Compressibility (1/GPa) = 0.03252601
#
# Stress axis : x y z
#
# Youngs Moduli (GPa) = 70.60159 73.46643 93.22822
#
# Poissons Ratio (x) = 0.05680 0.28782
# Poissons Ratio (y) = 0.05459 -0.08133
# Poissons Ratio (z) = 0.21796 -0.06409
#
# Static dielectric constant tensor:
#      x y z
#    x 1.761340 0.000000 -0.028060 
#    y 0.000000 1.764660 0.000000 
#    z -0.028060 0.000000 1.738870 
# 
# From -- ./inp_files/31720.got.cif
#   From: 2010.05.17/outbox.cif.g08.bks.cpg/sg10_16_cif.got.tgz:31720.got - 2010.06.03 11:33:40.
