data_PCOD9147506
_publ_section_title
;
Structure prediction by ZEFSAII (Michael W. Deem and Ramdas Pophale) SiO2 
 PCOD9147506
Probable space group: P 2/M
;
_chemical_formula_sum "Si O2"
_cell_formula_units_Z 32
_cell_length_a 15.482478
_cell_length_b 24.008160
_cell_length_c 8.720039
_cell_angle_alpha 90.000000
_cell_angle_beta 30.346395
_cell_angle_gamma 90.000000
_cell_volume 1637.585462
_symmetry_space_group_name_H-M "P 2/M"
_symmetry_group_IT_number 10
_symmetry_cell_setting 'monoclinic'
loop_
_space_group_symop_operation_xyz
x,y,z
-x,y,-z
-x,-y,-z
x,-y,z
loop_
_atom_site_type_symbol
_atom_site_label
_atom_site_fract_x
_atom_site_fract_y
_atom_site_fract_z
Si Si1 0.323008 0.146685 0.865369
Si Si2 0.668930 0.645214 0.654148
Si Si3 0.247816 0.771307 0.505260
Si Si4 0.875458 0.243310 0.960710
Si Si5 0.330638 0.882196 0.213404
Si Si6 0.026579 0.063392 0.274308
Si Si7 0.183408 0.437250 0.807756
Si Si8 0.030408 0.363920 0.274371
O O1 0.500000 0.147211 0.500000
O O2 0.229054 0.206385 0.997956
O O3 0.341369 0.131552 0.015941
O O4 0.188331 0.103060 0.997614
O O5 0.657430 0.711958 0.649057
O O6 0.699482 0.608424 0.455757
O O7 0.843650 0.636974 0.481997
O O8 0.500000 0.626121 0.000000
O O9 0.194218 0.773413 0.765152
O O10 0.335907 0.826774 0.310772
O O11 0.077339 0.768746 0.661301
O O12 0.869467 0.308666 0.934985
O O13 0.149968 0.912047 0.520160
O O14 0.500000 0.916016 0.000000
O O15 0.000000 0.063214 0.500000
O O16 0.055862 0.000000 0.179702
O O17 0.250964 0.500000 0.698488
O O18 0.135844 0.416213 0.049711
O O19 0.000000 0.436791 0.000000
O O20 0.000000 0.362799 0.500000
#
# Coordination Sequence:
#
# PCOD9147506 Si02
#       8
#     4   4   4   4   4   4   4   4
#     4  11  23  38  59  90 121 156 198 243 304 358
#     4  10  20  35  57  86 115 151 195 244 296 353
#     4  10  19  35  58  82 116 153 193 243 297 354
#     4  10  20  35  57  82 117 152 191 243 298 359
#     4  11  22  37  61  88 119 157 201 246 297 354
#     4   9  20  40  63  86 119 162 202 243 293 351
#     4   9  18  37  60  82 114 157 202 241 288 355
#     4  10  21  36  58  85 115 153 196 241 296 356
#
# _framework density 19.540965
#
# number of rings (size 3 to 8) (size 9 to 14) (size 15 to 20)
#    0.000    2.000    2.500    1.125    3.500    1.000 
#    0.000    0.625    0.000    6.000    0.000    0.000 
#    0.000    0.000    0.000    0.000    0.000    0.000 
#
# Total GULP energy -178487.605078 kJ/mol
# GULP energy per Si atom -5577.737659 kJ/mol
# Density = 1.949649 g / cm^3
# Si number density = 19.540965 Si / 1000 Ang^3
#
#
#
# Elastic Constant Matrix: (Units=GPa)
#
#
# Indices 1 2 3 4 5 6 
#
# 1 55.9079 19.2921 19.0938 0.0000 -4.6141 0.0000
# 2 19.2921 98.0157 48.3343 0.0000 -9.7754 0.0000
# 3 19.0938 48.3343 97.4596 0.0000 -2.8724 0.0000
# 4 0.0000 0.0000 0.0000 11.2609 0.0000 9.7060
# 5 -4.6141 -9.7754 -2.8724 0.0000 25.0103 0.0000
# 6 0.0000 0.0000 0.0000 9.7060 0.0000 4.7934
#
#
#
# Elastic Compliance Matrix: (Units=1/GPa)
#
#
# Indices 1 2 3 4 5 6 
#
# 1 0.019801 -0.002353 -0.002641 0.000000 0.002430 0.000000
# 2 -0.002353 0.014315 -0.006509 0.000000 0.004414 0.000000
# 3 -0.002641 -0.006509 0.013964 0.000000 -0.001427 0.000000
# 4 0.000000 0.000000 0.000000 -0.119153 0.000000 0.241271
# 5 0.002430 0.004414 -0.001427 0.000000 0.041993 0.000000
# 6 0.000000 0.000000 0.000000 0.241271 0.000000 -0.279921
#
#
# Mechanical properties :
#
#
# Convention : Reuss Voigt Hill
#
# Bulk Modulus (GPa) = 39.87909 47.20262 43.54085
# Shear Modulus (GPa) = -18.00900 19.19043 0.59072
#
# Velocity S-wave (km/s) = -3.03908 3.13719 0.55041
# Velocity P-wave (km/s) = 2.85264 6.10989 4.76803
#
# Compressibility (1/GPa) = 0.02507580
#
# Stress axis : x y z
#
# Youngs Moduli (GPa) = 50.50278 69.85563 71.61355
#
# Poissons Ratio (x) = 0.16435 0.18912
# Poissons Ratio (y) = 0.11882 0.46610
# Poissons Ratio (z) = 0.13337 0.45466
#
# Static dielectric constant tensor:
#      x y z
#    x 1.693510 0.000000 -0.017520 
#    y 0.000000 1.686930 0.000000 
#    z -0.017520 0.000000 1.690000 
# 
# From -- ./inp_files/30561.got.cif
#   From: 2010.05.17/outbox.cif.g08.bks.cpg/sg10_16_cif.got.tgz:30561.got - 2010.06.03 11:33:40.
