data_PCOD9147806
_publ_section_title
;
Structure prediction by ZEFSAII (Michael W. Deem and Ramdas Pophale) SiO2 
 PCOD9147806
Probable space group: P 2/M
;
_chemical_formula_sum "Si O2"
_cell_formula_units_Z 28
_cell_length_a 11.849079
_cell_length_b 8.141074
_cell_length_c 15.370269
_cell_angle_alpha 90.000000
_cell_angle_beta 115.345753
_cell_angle_gamma 90.000000
_cell_volume 1339.959742
_symmetry_space_group_name_H-M "P 2/M"
_symmetry_group_IT_number 10
_symmetry_cell_setting 'monoclinic'
loop_
_space_group_symop_operation_xyz
x,y,z
-x,y,-z
-x,-y,-z
x,-y,z
loop_
_atom_site_type_symbol
_atom_site_label
_atom_site_fract_x
_atom_site_fract_y
_atom_site_fract_z
Si Si1 0.863784 0.194794 0.985833
Si Si2 0.199418 0.690431 0.557432
Si Si3 0.835331 0.307027 0.170536
Si Si4 0.473003 0.299040 0.588939
Si Si5 0.560254 0.700308 0.111226
Si Si6 0.001928 0.187184 0.630485
Si Si7 0.368722 0.301273 0.197936
O O1 0.761589 0.233242 0.879075
O O2 0.866652 0.000000 0.002925
O O3 0.831127 0.280543 0.066008
O O4 0.000000 0.249334 0.000000
O O5 0.210273 0.500000 0.587884
O O6 0.337521 0.753006 0.580813
O O7 0.120545 0.779772 0.606376
O O8 0.111103 0.703709 0.443187
O O9 0.844781 0.500000 0.192551
O O10 0.702947 0.244063 0.163646
O O11 0.950252 0.222694 0.257063
O O12 0.500000 0.243490 0.500000
O O13 0.469234 0.500000 0.586583
O O14 0.581785 0.250138 0.691513
O O15 0.562884 0.500000 0.110946
O O16 0.473767 0.749911 0.162429
O O17 0.500000 0.753621 0.000000
O O18 0.962094 0.000000 0.607955
O O19 0.361411 0.500000 0.193787
#
# Coordination Sequence:
#
# PCOD9147806 Si02
#       7
#     4   4   4   4   4   4   4
#     4  11  25  42  56  78 118 158 192 235 286 339
#     4  10  19  36  60  85 114 153 201 241 284 344
#     4  11  21  37  62  88 114 149 195 236 283 350
#     4   9  19  35  58  88 117 145 189 249 296 334
#     4   9  16  30  55  86 114 140 179 237 291 337
#     4  11  22  36  56  85 123 155 186 238 299 345
#     4  10  19  36  61  86 113 149 191 238 292 346
#
# _framework density 20.896149000000001
#
# number of rings (size 3 to 8) (size 9 to 14) (size 15 to 20)
#    0.000    1.857    1.429    4.286    0.000    4.571 
#    0.000    6.429    0.000    3.000    0.000    0.000 
#    0.000    0.000    0.000    0.000    0.000    0.000 
#
# Total GULP energy -156466.372975 kJ/mol
# GULP energy per Si atom -5588.084749 kJ/mol
# Density = 2.084859 g / cm^3
# Si number density = 20.896149 Si / 1000 Ang^3
#
#
#
# Elastic Constant Matrix: (Units=GPa)
#
#
# Indices 1 2 3 4 5 6 
#
# 1 83.9024 -0.2170 29.3191 0.0000 16.1268 0.0000
# 2 -0.2170 23.0739 -8.2710 0.0000 -3.0518 0.0000
# 3 29.3191 -8.2710 133.3868 0.0000 9.0418 0.0000
# 4 0.0000 0.0000 0.0000 124.3047 0.0000 31.5017
# 5 16.1268 -3.0518 9.0418 0.0000 26.0391 0.0000
# 6 0.0000 0.0000 0.0000 31.5017 0.0000 14.3295
#
#
#
# Elastic Compliance Matrix: (Units=1/GPa)
#
#
# Indices 1 2 3 4 5 6 
#
# 1 0.014452 -0.001934 -0.002739 0.000000 -0.008226 0.000000
# 2 -0.001934 0.045068 0.002847 0.000000 0.005491 0.000000
# 3 -0.002739 0.002847 0.008334 0.000000 -0.000864 0.000000
# 4 0.000000 0.000000 0.000000 0.018165 0.000000 -0.039933
# 5 -0.008226 0.005491 -0.000864 0.000000 0.044442 0.000000
# 6 0.000000 0.000000 0.000000 -0.039933 0.000000 0.157573
#
#
# Mechanical properties :
#
#
# Convention : Reuss Voigt Hill
#
# Bulk Modulus (GPa) = 15.57560 31.33614 23.45587
# Shear Modulus (GPa) = 15.97012 47.57013 31.77012
#
# Velocity S-wave (km/s) = 2.76753 4.77645 3.90344
# Velocity P-wave (km/s) = 4.20503 6.74151 5.61828
#
# Compressibility (1/GPa) = 0.06420299
#
# Stress axis : x y z
#
# Youngs Moduli (GPa) = 69.19544 22.18886 119.98844
#
# Poissons Ratio (x) = 0.04291 0.32863
# Poissons Ratio (y) = 0.13381 -0.34165
# Poissons Ratio (z) = 0.18952 -0.06318
#
# Static dielectric constant tensor:
#      x y z
#    x 1.725830 0.000000 -0.000560 
#    y 0.000000 1.741650 0.000000 
#    z -0.000560 0.000000 1.751120 
# 
# From -- ./inp_files/63939.got.cif
#   From: 2010.05.17/outbox.cif.g08.bks.cpg/sg10_32_cif.got.tgz:63939.got - 2010.06.03 11:33:40.
