data_PCOD9147169
_publ_section_title
;
Structure prediction by ZEFSAII (Michael W. Deem and Ramdas Pophale) SiO2 
 PCOD9147169
Probable space group: P 2/M
;
_chemical_formula_sum "Si O2"
_cell_formula_units_Z 32
_cell_length_a 15.361781
_cell_length_b 8.335639
_cell_length_c 24.354891
_cell_angle_alpha 90.000000
_cell_angle_beta 29.521294
_cell_angle_gamma 90.000000
_cell_volume 1536.705485
_symmetry_space_group_name_H-M "P 2/M"
_symmetry_group_IT_number 10
_symmetry_cell_setting 'monoclinic'
loop_
_space_group_symop_operation_xyz
x,y,z
-x,y,-z
-x,-y,-z
x,-y,z
loop_
_atom_site_type_symbol
_atom_site_label
_atom_site_fract_x
_atom_site_fract_y
_atom_site_fract_z
Si Si1 0.036599 0.809520 0.236160
Si Si2 0.450812 0.692996 0.662957
Si Si3 0.754004 0.307198 0.571648
Si Si4 0.897916 0.806392 0.675487
Si Si5 0.306583 0.318262 0.631331
Si Si6 0.432541 0.807834 0.213705
Si Si7 0.084065 0.694133 0.899636
Si Si8 0.193605 0.308345 0.038144
O O1 0.837599 0.765475 0.326806
O O2 0.071156 0.746964 0.279041
O O3 0.162635 0.748461 0.117723
O O4 0.055388 0.000000 0.227691
O O5 0.471394 0.500000 0.641634
O O6 0.633698 0.751911 0.586298
O O7 0.359101 0.763987 0.659487
O O8 0.292675 0.718540 0.791838
O O9 0.752437 0.500000 0.573119
O O10 0.655762 0.250763 0.680761
O O11 0.950975 0.250466 0.449937
O O12 0.707563 0.758345 0.756507
O O13 0.905597 0.000000 0.672140
O O14 0.500000 0.332541 0.500000
O O15 0.236419 0.500000 0.679987
O O16 0.439478 0.000000 0.212189
O O17 0.626488 0.746947 0.090362
O O18 0.063779 0.500000 0.909980
O O19 0.975461 0.748208 0.905590
O O20 0.000000 0.764003 0.000000
O O21 0.195120 0.500000 0.037905
#
# Coordination Sequence:
#
# PCOD9147169 Si02
#       8
#     4   4   4   4   4   4   4   4
#     4  11  23  40  61  87 124 164 207 254 304 365
#     4   9  17  31  52  83 118 152 186 225 290 359
#     4  11  22  38  65  97 124 153 201 261 308 357
#     4  10  24  44  63  84 119 169 208 245 311 380
#     4  10  19  34  57  84 116 156 200 242 292 356
#     4  11  24  43  64  86 120 164 206 251 312 378
#     4   9  16  29  53  81 112 149 188 231 284 350
#     4  11  22  39  64  91 122 159 206 259 305 357
#
# _framework density 20.823768999999999
#
# number of rings (size 3 to 8) (size 9 to 14) (size 15 to 20)
#    0.000    1.750    1.250    3.375    0.000    7.250 
#    0.000    3.750    0.000    1.500    0.000    0.000 
#    0.000    0.000    0.000    0.000    0.000    0.000 
#
# Total GULP energy -178456.417995 kJ/mol
# GULP energy per Si atom -5576.763062 kJ/mol
# Density = 2.077637 g / cm^3
# Si number density = 20.823769 Si / 1000 Ang^3
#
#
#
# Elastic Constant Matrix: (Units=GPa)
#
#
# Indices 1 2 3 4 5 6 
#
# 1 68.4649 10.3178 20.4706 0.0000 -4.1520 0.0000
# 2 10.3178 30.7576 13.6723 0.0000 -1.9649 0.0000
# 3 20.4706 13.6723 99.3365 0.0000 -4.5404 0.0000
# 4 0.0000 0.0000 0.0000 -40.2090 0.0000 38.5970
# 5 -4.1520 -1.9649 -4.5404 0.0000 37.0718 0.0000
# 6 0.0000 0.0000 0.0000 38.5970 0.0000 3.2038
#
#
#
# Elastic Compliance Matrix: (Units=1/GPa)
#
#
# Indices 1 2 3 4 5 6 
#
# 1 0.016110 -0.004126 -0.002694 0.000000 0.001256 0.000000
# 2 -0.004126 0.035746 -0.004027 0.000000 0.000939 0.000000
# 3 -0.002694 -0.004027 0.011216 0.000000 0.000858 0.000000
# 4 0.000000 0.000000 0.000000 -0.001979 0.000000 0.023847
# 5 0.001256 0.000939 0.000858 0.000000 0.027270 0.000000
# 6 0.000000 0.000000 0.000000 0.023847 0.000000 0.024843
#
#
# Mechanical properties :
#
#
# Convention : Reuss Voigt Hill
#
# Bulk Modulus (GPa) = 24.16813 31.94228 28.05520
# Shear Modulus (GPa) = 33.62653 10.28652 21.95653
#
# Velocity S-wave (km/s) = 4.02284 2.22498 3.25067
# Velocity P-wave (km/s) = 5.76271 4.68757 5.25272
#
# Compressibility (1/GPa) = 0.04137681
#
# Stress axis : x y z
#
# Youngs Moduli (GPa) = 62.07469 27.97480 89.16213
#
# Poissons Ratio (x) = 0.11543 0.24025
# Poissons Ratio (y) = 0.25613 0.35904
# Poissons Ratio (z) = 0.16726 0.11265
#
# Static dielectric constant tensor:
#      x y z
#    x 1.811480 0.000000 0.076590 
#    y 0.000000 1.737580 0.000000 
#    z 0.076590 0.000000 1.888850 
# 
# From -- ./inp_files/89500.got.cif
#   From: 2010.05.17/outbox.cif.g08.bks.cpg/sg10_45_cif.got.tgz:89500.got - 2010.06.03 11:33:40.
