data_PCOD9147179
_publ_section_title
;
Structure prediction by ZEFSAII (Michael W. Deem and Ramdas Pophale) SiO2 
 PCOD9147179
Probable space group: P 2/M
;
_chemical_formula_sum "Si O2"
_cell_formula_units_Z 24
_cell_length_a 19.488632
_cell_length_b 7.567319
_cell_length_c 9.842281
_cell_angle_alpha 90.000000
_cell_angle_beta 128.982269
_cell_angle_gamma 90.000000
_cell_volume 1128.315492
_symmetry_space_group_name_H-M "P 2/M"
_symmetry_group_IT_number 10
_symmetry_cell_setting 'monoclinic'
loop_
_space_group_symop_operation_xyz
x,y,z
-x,y,-z
-x,-y,-z
x,-y,z
loop_
_atom_site_type_symbol
_atom_site_label
_atom_site_fract_x
_atom_site_fract_y
_atom_site_fract_z
Si Si1 0.916015 0.290828 0.481267
Si Si2 0.745018 0.790101 0.091033
Si Si3 0.548196 0.216540 0.924137
Si Si4 0.760399 0.783414 0.801325
Si Si5 0.918451 0.787151 0.806318
Si Si6 0.568130 0.784922 0.470715
O O1 0.918563 0.500000 0.469335
O O2 0.823776 0.234893 0.296764
O O3 0.921410 0.254788 0.649640
O O4 0.000000 0.217256 0.500000
O O5 0.733451 0.000000 0.060736
O O6 0.648657 0.722879 0.019874
O O7 0.770920 0.724628 0.971599
O O8 0.478904 0.271835 0.723916
O O9 0.552058 0.000000 0.929821
O O10 0.500000 0.273584 0.000000
O O11 0.832824 0.725021 0.782650
O O12 0.665401 0.725551 0.628541
O O13 0.763163 0.000000 0.806262
O O14 0.919079 0.000000 0.812267
O O15 0.000000 0.723812 0.000000
O O16 0.500000 0.731173 0.500000
O O17 0.572015 0.000000 0.473938
#
# Coordination Sequence:
#
# PCOD9147179 Si02
#       6
#     4   4   4   4   4   4
#     4  11  25  42  58  78 108 147 186 223 273 334
#     4  10  19  34  57  85 114 145 183 227 276 323
#     4   9  17  26  43  78 117 148 178 218 269 323
#     4   9  17  29  50  81 114 144 176 221 275 324
#     4  10  21  37  59  87 112 136 175 229 281 326
#     4   9  14  24  41  69 111 148 175 210 261 319
#
# _framework density 21.270645999999999
#
# number of rings (size 3 to 8) (size 9 to 14) (size 15 to 20)
#    0.000    2.333    1.667    1.500    2.333    3.000 
#    0.000    0.833    0.000    0.500    0.000    1.167 
#    0.000    0.000    0.000    0.000    0.000    0.000 
#
# Total GULP energy -133895.278359 kJ/mol
# GULP energy per Si atom -5578.969932 kJ/mol
# Density = 2.122223 g / cm^3
# Si number density = 21.270646 Si / 1000 Ang^3
#
#
#
# Elastic Constant Matrix: (Units=GPa)
#
#
# Indices 1 2 3 4 5 6 
#
# 1 186.6156 -0.6824 107.3883 0.0000 -8.9268 0.0000
# 2 -0.6824 44.0639 -16.5891 0.0000 -0.7868 0.0000
# 3 107.3883 -16.5891 178.5867 0.0000 -14.5006 0.0000
# 4 0.0000 0.0000 0.0000 -24.3286 0.0000 -6.9868
# 5 -8.9268 -0.7868 -14.5006 0.0000 46.7067 0.0000
# 6 0.0000 0.0000 0.0000 -6.9868 0.0000 -10.8149
#
#
#
# Elastic Compliance Matrix: (Units=1/GPa)
#
#
# Indices 1 2 3 4 5 6 
#
# 1 0.008333 -0.001823 -0.005184 0.000000 -0.000048 0.000000
# 2 -0.001823 0.023971 0.003414 0.000000 0.001115 0.000000
# 3 -0.005184 0.003414 0.009190 0.000000 0.001920 0.000000
# 4 0.000000 0.000000 0.000000 -0.050467 0.000000 0.032603
# 5 -0.000048 0.001115 0.001920 0.000000 0.022016 0.000000
# 6 0.000000 0.000000 0.000000 0.032603 0.000000 -0.113528
#
#
# Mechanical properties :
#
#
# Convention : Reuss Voigt Hill
#
# Bulk Modulus (GPa) = 29.14910 65.49998 47.32454
# Shear Modulus (GPa) = -61.07785 23.58927 -18.74429
#
# Velocity S-wave (km/s) = -5.36442 3.33379 -2.97177
# Velocity P-wave (km/s) = 4.96343 6.75865 3.24374
#
# Compressibility (1/GPa) = 0.03430637
#
# Stress axis : x y z
#
# Youngs Moduli (GPa) = 120.00818 41.71680 108.81727
#
# Poissons Ratio (x) = 0.07607 0.56410
# Poissons Ratio (y) = 0.21883 -0.37147
# Poissons Ratio (z) = 0.62211 -0.14241
#
# Static dielectric constant tensor:
#      x y z
#    x 1.805940 0.000000 -0.011410 
#    y 0.000000 1.801400 0.000000 
#    z -0.011410 0.000000 1.717460 
# 
# From -- ./inp_files/33957.got.cif
#   From: 2010.05.17/outbox.cif.g08.bks.cpg/sg10_17_cif.got.tgz:33957.got - 2010.06.03 11:33:40.
