data_PCOD9147298
_publ_section_title
;
Structure prediction by ZEFSAII (Michael W. Deem and Ramdas Pophale) SiO2 
 PCOD9147298
Probable space group: P 2/M
;
_chemical_formula_sum "Si O2"
_cell_formula_units_Z 28
_cell_length_a 21.064812
_cell_length_b 8.305560
_cell_length_c 14.312571
_cell_angle_alpha 90.000000
_cell_angle_beta 145.920244
_cell_angle_gamma 90.000000
_cell_volume 1403.139131
_symmetry_space_group_name_H-M "P 2/M"
_symmetry_group_IT_number 10
_symmetry_cell_setting 'monoclinic'
loop_
_space_group_symop_operation_xyz
x,y,z
-x,y,-z
-x,-y,-z
x,-y,z
loop_
_atom_site_type_symbol
_atom_site_label
_atom_site_fract_x
_atom_site_fract_y
_atom_site_fract_z
Si Si1 0.830163 0.304989 0.348879
Si Si2 0.669859 0.691744 0.462697
Si Si3 0.868592 0.303215 0.835848
Si Si4 0.937898 0.695475 0.282742
Si Si5 0.224318 0.305277 0.076540
Si Si6 0.387045 0.810041 0.813716
Si Si7 0.473704 0.192503 0.362650
O O1 0.820312 0.500000 0.341013
O O2 0.867176 0.261323 0.289114
O O3 0.715715 0.226248 0.242356
O O4 0.933326 0.254190 0.542451
O O5 0.675878 0.500000 0.471509
O O6 0.789279 0.751066 0.652978
O O7 0.644207 0.743248 0.326094
O O8 0.566556 0.743476 0.403794
O O9 0.871795 0.500000 0.837744
O O10 0.804102 0.254541 0.852490
O O11 0.000000 0.250169 0.000000
O O12 0.940350 0.500000 0.283205
O O13 0.875386 0.750904 0.113849
O O14 0.226552 0.500000 0.078485
O O15 0.345057 0.245249 0.187226
O O16 0.402849 0.000000 0.821007
O O17 0.500000 0.741567 0.000000
O O18 0.500000 0.251337 0.500000
O O19 0.479951 0.000000 0.369392
#
# Coordination Sequence:
#
# PCOD9147298 Si02
#       7
#     4   4   4   4   4   4   4
#     4   9  18  37  61  87 116 148 196 244 292 345
#     4  11  23  40  65  90 114 152 202 250 293 345
#     4   9  19  34  57  91 124 151 189 242 294 343
#     4   8  17  33  59  91 118 146 186 248 298 336
#     4  10  19  34  59  88 118 152 196 241 287 344
#     4  11  26  44  59  82 120 159 196 242 300 358
#     4  11  23  39  58  82 121 160 193 235 288 345
#
# _framework density 19.955255000000001
#
# number of rings (size 3 to 8) (size 9 to 14) (size 15 to 20)
#    0.000    2.143    1.429    2.143    4.000    1.714 
#    0.000    2.143    0.000    2.143    0.000    0.000 
#    0.000    0.000    0.000    0.000    0.000    0.000 
#
# Total GULP energy -156315.034988 kJ/mol
# GULP energy per Si atom -5582.679821 kJ/mol
# Density = 1.990984 g / cm^3
# Si number density = 19.955255 Si / 1000 Ang^3
#
#
#
# Elastic Constant Matrix: (Units=GPa)
#
#
# Indices 1 2 3 4 5 6 
#
# 1 49.8098 5.4698 56.2730 0.0000 12.7131 0.0000
# 2 5.4698 17.5068 13.4011 0.0000 -3.7745 0.0000
# 3 56.2730 13.4011 162.8501 0.0000 0.4067 0.0000
# 4 0.0000 0.0000 0.0000 11.3374 0.0000 1.2122
# 5 12.7131 -3.7745 0.4067 0.0000 36.1153 0.0000
# 6 0.0000 0.0000 0.0000 1.2122 0.0000 34.7944
#
#
#
# Elastic Compliance Matrix: (Units=1/GPa)
#
#
# Indices 1 2 3 4 5 6 
#
# 1 0.038918 -0.005265 -0.012980 0.000000 -0.014104 0.000000
# 2 -0.005265 0.063203 -0.003403 0.000000 0.008497 0.000000
# 3 -0.012980 -0.003403 0.010896 0.000000 0.004091 0.000000
# 4 0.000000 0.000000 0.000000 0.088534 0.000000 -0.003084
# 5 -0.014104 0.008497 0.004091 0.000000 0.033496 0.000000
# 6 0.000000 0.000000 0.000000 -0.003084 0.000000 0.028848
#
#
# Mechanical properties :
#
#
# Convention : Reuss Voigt Hill
#
# Bulk Modulus (GPa) = 14.34277 42.27273 28.30775
# Shear Modulus (GPa) = 15.13186 26.78427 20.95806
#
# Velocity S-wave (km/s) = 2.75669 3.66760 3.24428
# Velocity P-wave (km/s) = 4.16360 6.25818 5.31509
#
# Compressibility (1/GPa) = 0.06972153
#
# Stress axis : x y z
#
# Youngs Moduli (GPa) = 25.69492 15.82215 91.78010
#
# Poissons Ratio (x) = 0.08330 1.19128
# Poissons Ratio (y) = 0.13527 0.31233
# Poissons Ratio (z) = 0.33351 0.05384
#
# Static dielectric constant tensor:
#      x y z
#    x 1.665590 0.000000 -0.014340 
#    y 0.000000 1.692840 0.000000 
#    z -0.014340 0.000000 1.728450 
# 
# From -- ./inp_files/70319.got.cif
#   From: 2010.05.17/outbox.cif.g08.bks.cpg/sg10_36_cif.got.tgz:70319.got - 2010.06.03 11:33:40.
