data_PCOD9147464
_publ_section_title
;
Structure prediction by ZEFSAII (Michael W. Deem and Ramdas Pophale) SiO2 
 PCOD9147464
Probable space group: P 2/M
;
_chemical_formula_sum "Si O2"
_cell_formula_units_Z 28
_cell_length_a 8.138451
_cell_length_b 7.886467
_cell_length_c 28.131459
_cell_angle_alpha 90.000000
_cell_angle_beta 138.866630
_cell_angle_gamma 90.000000
_cell_volume 1187.735198
_symmetry_space_group_name_H-M "P 2/M"
_symmetry_group_IT_number 10
_symmetry_cell_setting 'monoclinic'
loop_
_space_group_symop_operation_xyz
x,y,z
-x,y,-z
-x,-y,-z
x,-y,z
loop_
_atom_site_type_symbol
_atom_site_label
_atom_site_fract_x
_atom_site_fract_y
_atom_site_fract_z
Si Si1 0.570768 0.310835 0.380698
Si Si2 0.304469 0.000000 0.530174
Si Si3 0.382801 0.195388 0.247742
Si Si4 0.530856 0.302839 0.838485
Si Si5 0.683895 0.796234 0.971245
Si Si6 0.988126 0.694683 0.700559
Si Si7 0.859466 0.207415 0.108305
Si Si8 0.131486 0.000000 0.390045
O O1 0.648601 0.500000 0.411388
O O2 0.710061 0.165600 0.440160
O O3 0.569707 0.289232 0.323662
O O4 0.276188 0.288791 0.330350
O O5 0.126532 0.000000 0.445735
O O6 0.582571 0.000000 0.567094
O O7 0.431100 0.203240 0.202079
O O8 0.101569 0.268446 0.188722
O O9 0.384161 0.000000 0.264031
O O10 0.564184 0.500000 0.834775
O O11 0.700671 0.258431 0.920536
O O12 0.236202 0.273639 0.785688
O O13 0.405027 0.744802 0.927226
O O14 0.698458 0.000000 0.974365
O O15 0.857199 0.736691 0.052476
O O16 0.002933 0.500000 0.686516
O O17 0.987541 0.832313 0.658542
O O18 0.869126 0.000000 0.110705
#
# Coordination Sequence:
#
# PCOD9147464 Si02
#       8
#     4   2   4   4   4   4   4   2
#     4  10  19  35  57  82 112 145 180 224 273 321
#     4   9  18  34  53  91 114 143 174 223 263 330
#     4  11  21  34  53  78 106 143 187 229 274 323
#     4  11  23  36  49  75 110 143 182 227 273 322
#     4   9  17  34  57  78 101 137 179 225 279 327
#     4   9  20  35  55  82 112 145 182 224 270 321
#     4   8  17  33  55  80 104 133 179 230 275 328
#     4   9  18  32  59  83 118 141 180 215 271 320
#
# _framework density 23.574278
#
# number of rings (size 3 to 8) (size 9 to 14) (size 15 to 20)
#    0.000    2.429    0.714    2.571    2.000    1.143 
#    0.000    9.286    0.000    1.714    0.000    3.000 
#    0.000    0.000    0.000    0.000    0.000    0.000 
#
# Total GULP energy -156468.290250 kJ/mol
# GULP energy per Si atom -5588.153223 kJ/mol
# Density = 2.352062 g / cm^3
# Si number density = 23.574278 Si / 1000 Ang^3
#
#
#
# Elastic Constant Matrix: (Units=GPa)
#
#
# Indices 1 2 3 4 5 6 
#
# 1 66.8998 9.8743 18.3281 0.0000 -14.5592 0.0000
# 2 9.8743 84.3942 54.1877 0.0000 -20.6871 0.0000
# 3 18.3281 54.1877 128.6425 0.0000 -39.0195 0.0000
# 4 0.0000 0.0000 0.0000 -32.9865 0.0000 6.1123
# 5 -14.5592 -20.6871 -39.0195 0.0000 40.9504 0.0000
# 6 0.0000 0.0000 0.0000 6.1123 0.0000 9.8356
#
#
#
# Elastic Compliance Matrix: (Units=1/GPa)
#
#
# Indices 1 2 3 4 5 6 
#
# 1 0.016262 -0.000224 -0.000708 0.000000 0.004994 0.000000
# 2 -0.000224 0.016410 -0.006175 0.000000 0.002327 0.000000
# 3 -0.000708 -0.006175 0.013295 0.000000 0.009298 0.000000
# 4 0.000000 0.000000 0.000000 -0.027185 0.000000 0.016894
# 5 0.004994 0.002327 0.009298 0.000000 0.036230 0.000000
# 6 0.000000 0.000000 0.000000 0.016894 0.000000 0.091173
#
#
# Mechanical properties :
#
#
# Convention : Reuss Voigt Hill
#
# Bulk Modulus (GPa) = 31.49191 49.41295 40.45243
# Shear Modulus (GPa) = 29.24268 16.72966 22.98617
#
# Velocity S-wave (km/s) = 3.52582 2.66683 3.12597
# Velocity P-wave (km/s) = 5.47383 5.52166 5.49779
#
# Compressibility (1/GPa) = 0.03175419
#
# Stress axis : x y z
#
# Youngs Moduli (GPa) = 61.49491 60.93670 75.21387
#
# Poissons Ratio (x) = 0.01366 0.05323
# Poissons Ratio (y) = 0.01378 0.46443
# Poissons Ratio (z) = 0.04352 0.37627
#
# Static dielectric constant tensor:
#      x y z
#    x 1.976260 0.000000 0.015510 
#    y 0.000000 1.842810 0.000000 
#    z 0.015510 0.000000 1.856900 
# 
# From -- ./inp_files/92150.got.cif
#   From: 2010.05.17/outbox.cif.g08.bks.cpg/sg10_47_cif.got.tgz:92150.got - 2010.06.03 11:33:40.
