data_PCOD9147189
_publ_section_title
;
Structure prediction by ZEFSAII (Michael W. Deem and Ramdas Pophale) SiO2 
 PCOD9147189
Probable space group: P 2/M
;
_chemical_formula_sum "Si O2"
_cell_formula_units_Z 22
_cell_length_a 22.772584
_cell_length_b 8.224237
_cell_length_c 5.119202
_cell_angle_alpha 90.000000
_cell_angle_beta 96.314313
_cell_angle_gamma 90.000000
_cell_volume 952.944330
_symmetry_space_group_name_H-M "P 2/M"
_symmetry_group_IT_number 10
_symmetry_cell_setting 'monoclinic'
loop_
_space_group_symop_operation_xyz
x,y,z
-x,y,-z
-x,-y,-z
x,-y,z
loop_
_atom_site_type_symbol
_atom_site_label
_atom_site_fract_x
_atom_site_fract_y
_atom_site_fract_z
Si Si1 0.542283 0.000000 0.265745
Si Si2 0.265619 0.308959 0.564075
Si Si3 0.335596 0.191225 0.105230
Si Si4 0.429953 0.323899 0.518625
Si Si5 0.864411 0.803049 0.347993
Si Si6 0.064788 0.801779 0.116864
O O1 0.500000 0.000000 0.500000
O O2 0.578510 0.166011 0.305688
O O3 0.500000 0.000000 0.000000
O O4 0.270884 0.500000 0.512668
O O5 0.289241 0.214304 0.322237
O O6 0.198500 0.266002 0.600980
O O7 0.304866 0.260744 0.833399
O O8 0.393097 0.286736 0.239781
O O9 0.349402 0.000000 0.087313
O O10 0.500000 0.331830 0.500000
O O11 0.412233 0.500000 0.616800
O O12 0.913394 0.754830 0.586213
O O13 0.859849 0.000000 0.347133
O O14 0.886984 0.751817 0.074656
O O15 0.062804 0.000000 0.112999
O O16 0.000000 0.744726 0.000000
#
# Coordination Sequence:
#
# PCOD9147189 Si02
#       6
#     2   4   4   4   4   4
#     4  10  22  40  62  90 126 164 208 254 311 384
#     4  12  26  44  66  95 132 174 221 273 333 397
#     4  12  25  45  70  97 130 171 223 278 333 400
#     4  10  22  43  69  99 133 172 216 270 336 403
#     4  10  19  34  57  85 120 163 212 262 317 381
#     4   9  17  30  54  88 122 158 207 265 317 373
#
# _framework density 23.086345999999999
#
# number of rings (size 3 to 8) (size 9 to 14) (size 15 to 20)
#    0.000    1.455    0.909    4.909    0.000    6.909 
#    0.000    3.636    0.000    3.273    0.000    0.000 
#    0.000    0.000    0.000    0.000    0.000    0.000 
#
# Total GULP energy -123202.681118 kJ/mol
# GULP energy per Si atom -5600.121869 kJ/mol
# Density = 2.303380 g / cm^3
# Si number density = 23.086346 Si / 1000 Ang^3
#
#
#
# Elastic Constant Matrix: (Units=GPa)
#
#
# Indices 1 2 3 4 5 6 
#
# 1 83.8399 3.3648 -18.1679 0.0000 7.9398 0.0000
# 2 3.3648 142.4896 24.0478 0.0000 7.6867 0.0000
# 3 -18.1679 24.0478 83.2413 0.0000 0.0617 0.0000
# 4 0.0000 0.0000 0.0000 20.4307 0.0000 2.6421
# 5 7.9398 7.6867 0.0617 0.0000 42.8616 0.0000
# 6 0.0000 0.0000 0.0000 2.6421 0.0000 137.0586
#
#
#
# Elastic Compliance Matrix: (Units=1/GPa)
#
#
# Indices 1 2 3 4 5 6 
#
# 1 0.012818 -0.000687 0.002998 0.000000 -0.002256 0.000000
# 2 -0.000687 0.007490 -0.002313 0.000000 -0.001213 0.000000
# 3 0.002998 -0.002313 0.013336 0.000000 -0.000160 0.000000
# 4 0.000000 0.000000 0.000000 0.049068 0.000000 -0.000946
# 5 -0.002256 -0.001213 -0.000160 0.000000 0.023966 0.000000
# 6 0.000000 0.000000 0.000000 -0.000946 0.000000 0.007314
#
#
# Mechanical properties :
#
#
# Convention : Reuss Voigt Hill
#
# Bulk Modulus (GPa) = 29.72640 36.45115 33.08878
# Shear Modulus (GPa) = 39.93274 60.09194 50.01234
#
# Velocity S-wave (km/s) = 4.16349 5.10742 4.65942
# Velocity P-wave (km/s) = 6.00142 7.11367 6.58108
#
# Compressibility (1/GPa) = 0.03364013
#
# Stress axis : x y z
#
# Youngs Moduli (GPa) = 78.01357 133.51078 74.98595
#
# Poissons Ratio (x) = 0.09172 -0.22479
# Poissons Ratio (y) = 0.05359 0.17343
# Poissons Ratio (z) = -0.23387 0.30879
#
# Static dielectric constant tensor:
#      x y z
#    x 1.834090 0.000000 -0.008790 
#    y 0.000000 1.873760 0.000000 
#    z -0.008790 0.000000 1.811950 
# 
# From -- ./inp_files/13027.got.cif
#   From: 2010.05.17/outbox.cif.g08.bks.cpg/sg10_7_cif.got.tgz:13027.got - 2010.06.03 11:33:40.
