data_PCOD9147500
_publ_section_title
;
Structure prediction by ZEFSAII (Michael W. Deem and Ramdas Pophale) SiO2 
 PCOD9147500
Probable space group: P 2/M
;
_chemical_formula_sum "Si O2"
_cell_formula_units_Z 28
_cell_length_a 16.349542
_cell_length_b 7.510241
_cell_length_c 12.134192
_cell_angle_alpha 90.000000
_cell_angle_beta 122.374164
_cell_angle_gamma 90.000000
_cell_volume 1258.362300
_symmetry_space_group_name_H-M "P 2/M"
_symmetry_group_IT_number 10
_symmetry_cell_setting 'monoclinic'
loop_
_space_group_symop_operation_xyz
x,y,z
-x,y,-z
-x,-y,-z
x,-y,z
loop_
_atom_site_type_symbol
_atom_site_label
_atom_site_fract_x
_atom_site_fract_y
_atom_site_fract_z
Si Si1 0.292033 0.704349 0.104291
Si Si2 0.387412 0.784624 0.405281
Si Si3 0.023569 0.784193 0.691998
Si Si4 0.154419 0.783574 0.591707
Si Si5 0.349150 0.782076 0.619492
Si Si6 0.477683 0.790940 0.105476
Si Si7 0.077548 0.704953 0.972139
O O1 0.278797 0.500000 0.061909
O O2 0.340784 0.714714 0.259976
O O3 0.368402 0.778058 0.070847
O O4 0.184874 0.786576 0.037566
O O5 0.500000 0.736077 0.500000
O O6 0.338531 0.727278 0.484719
O O7 0.383195 0.000000 0.393836
O O8 0.926841 0.732714 0.556367
O O9 0.114296 0.727839 0.681461
O O10 0.031069 0.708702 0.818271
O O11 0.024072 0.000000 0.699553
O O12 0.259427 0.724103 0.629515
O O13 0.155808 0.000000 0.594486
O O14 0.448845 0.720646 0.748022
O O15 0.350027 0.000000 0.616643
O O16 0.500800 0.000000 0.114974
O O17 0.500000 0.715794 0.000000
O O18 0.092888 0.500000 0.020771
O O19 0.000000 0.787160 0.000000
#
# Coordination Sequence:
#
# PCOD9147500 Si02
#       7
#     4   4   4   4   4   4   4
#     4  11  24  40  58  80 112 152 190 235 285 331
#     4  10  19  35  58  82 111 142 181 230 275 327
#     4   9  18  34  58  85 110 138 182 235 281 330
#     4   8  16  31  53  85 117 140 170 227 291 329
#     4   9  17  31  53  82 115 146 176 221 279 331
#     4  10  21  37  60  88 116 150 190 226 273 339
#     4  10  24  43  57  74 110 155 192 231 282 334
#
# _framework density 22.251144
#
# number of rings (size 3 to 8) (size 9 to 14) (size 15 to 20)
#    0.000    2.429    1.429    1.286    4.000    2.000 
#    0.000    1.429    0.000    1.714    0.000    0.000 
#    0.000    0.000    0.000    0.000    0.000    0.000 
#
# Total GULP energy -156342.831365 kJ/mol
# GULP energy per Si atom -5583.672549 kJ/mol
# Density = 2.220050 g / cm^3
# Si number density = 22.251144 Si / 1000 Ang^3
#
#
#
# Elastic Constant Matrix: (Units=GPa)
#
#
# Indices 1 2 3 4 5 6 
#
# 1 165.8941 -2.9160 52.4921 0.0000 -14.0442 0.0000
# 2 -2.9160 51.6237 -5.1323 0.0000 0.8133 0.0000
# 3 52.4921 -5.1323 76.4497 0.0000 -25.5640 0.0000
# 4 0.0000 0.0000 0.0000 5.6965 0.0000 2.0849
# 5 -14.0442 0.8133 -25.5640 0.0000 34.3709 0.0000
# 6 0.0000 0.0000 0.0000 2.0849 0.0000 1.7176
#
#
#
# Elastic Compliance Matrix: (Units=1/GPa)
#
#
# Indices 1 2 3 4 5 6 
#
# 1 0.007730 -0.000110 -0.005668 0.000000 -0.001054 0.000000
# 2 -0.000110 0.019515 0.001619 0.000000 0.000697 0.000000
# 3 -0.005668 0.001619 0.021687 0.000000 0.013776 0.000000
# 4 0.000000 0.000000 0.000000 0.315872 0.000000 -0.383403
# 5 -0.001054 0.000697 0.013776 0.000000 0.038893 0.000000
# 6 0.000000 0.000000 0.000000 -0.383403 0.000000 1.047564
#
#
# Mechanical properties :
#
#
# Convention : Reuss Voigt Hill
#
# Bulk Modulus (GPa) = 24.62183 42.53945 33.58064
# Shear Modulus (GPa) = 3.39416 24.99192 14.19304
#
# Velocity S-wave (km/s) = 1.23641 3.35502 2.52832
# Velocity P-wave (km/s) = 3.62322 5.84530 4.86288
#
# Compressibility (1/GPa) = 0.04061437
#
# Stress axis : x y z
#
# Youngs Moduli (GPa) = 129.36477 51.24348 46.11000
#
# Poissons Ratio (x) = 0.00565 0.26133
# Poissons Ratio (y) = 0.01426 -0.07465
# Poissons Ratio (z) = 0.73318 -0.08296
#
# Static dielectric constant tensor:
#      x y z
#    x 1.824490 0.000000 0.005270 
#    y 0.000000 1.863700 0.000000 
#    z 0.005270 0.000000 1.768900 
# 
# From -- ./inp_files/49131.got.cif
#   From: 2010.05.17/outbox.cif.g08.bks.cpg/sg10_25_cif.got.tgz:49131.got - 2010.06.03 11:33:40.
