data_PCOD9147105
_publ_section_title
;
Structure prediction by ZEFSAII (Michael W. Deem and Ramdas Pophale) SiO2 
 PCOD9147105
Probable space group: P 2/M
;
_chemical_formula_sum "Si O2"
_cell_formula_units_Z 26
_cell_length_a 11.202781
_cell_length_b 7.904746
_cell_length_c 20.995035
_cell_angle_alpha 90.000000
_cell_angle_beta 137.755412
_cell_angle_gamma 90.000000
_cell_volume 1249.946624
_symmetry_space_group_name_H-M "P 2/M"
_symmetry_group_IT_number 10
_symmetry_cell_setting 'monoclinic'
loop_
_space_group_symop_operation_xyz
x,y,z
-x,y,-z
-x,-y,-z
x,-y,z
loop_
_atom_site_type_symbol
_atom_site_label
_atom_site_fract_x
_atom_site_fract_y
_atom_site_fract_z
Si Si1 0.000000 0.250485 0.000000
Si Si2 0.483507 0.201035 0.899569
Si Si3 0.713232 0.295640 0.380812
Si Si4 0.368912 0.802443 0.181762
Si Si5 0.088982 0.799122 0.773848
Si Si6 0.978986 0.703993 0.594133
Si Si7 0.137152 0.307813 0.927017
O O1 0.190149 0.306932 0.105436
O O2 0.917855 0.189415 0.035516
O O3 0.523750 0.227189 0.841078
O O4 0.288055 0.266350 0.837083
O O5 0.486275 0.000000 0.913515
O O6 0.653117 0.279150 0.001522
O O7 0.710234 0.500000 0.377568
O O8 0.513346 0.233102 0.292766
O O9 0.844664 0.238339 0.375120
O O10 0.811976 0.243468 0.484782
O O11 0.312611 0.000000 0.162045
O O12 0.978649 0.762869 0.666669
O O13 0.036943 0.722746 0.821413
O O14 0.097767 0.000000 0.786430
O O15 0.983341 0.500000 0.595928
O O16 0.111164 0.500000 0.939572
#
# Coordination Sequence:
#
# PCOD9147105 Si02
#       7
#     2   4   4   4   4   4   4
#     4  10  24  42  56  78 108 142 186 236 276 322
#     4   9  19  34  50  76 112 145 176 217 271 328
#     4   9  18  32  53  81 115 149 181 223 270 316
#     4  10  19  34  57  81 109 147 187 225 270 321
#     4  11  21  34  53  80 113 146 178 222 274 327
#     4   9  18  33  52  80 116 151 182 216 267 328
#     4  11  23  37  55  77 103 141 186 230 275 327
#
# _framework density 20.800885999999998
#
# number of rings (size 3 to 8) (size 9 to 14) (size 15 to 20)
#    0.000    2.154    1.538    2.769    0.000    8.615 
#    0.000    1.538    0.000    0.923    0.000    5.385 
#    0.000    0.000    0.000    0.000    0.000    0.000 
#
# Total GULP energy -144792.833034 kJ/mol
# GULP energy per Si atom -5568.955117 kJ/mol
# Density = 2.075354 g / cm^3
# Si number density = 20.800886 Si / 1000 Ang^3
#
#
#
# Elastic Constant Matrix: (Units=GPa)
#
#
# Indices 1 2 3 4 5 6 
#
# 1 55.5033 9.4952 46.1562 0.0000 -4.3015 0.0000
# 2 9.4952 50.8771 18.3116 0.0000 3.5182 0.0000
# 3 46.1562 18.3116 177.9186 0.0000 -3.9933 0.0000
# 4 0.0000 0.0000 0.0000 1722.2414 0.0000 1541.8319
# 5 -4.3015 3.5182 -3.9933 0.0000 36.3360 0.0000
# 6 0.0000 0.0000 0.0000 1541.8319 0.0000 1409.8030
#
#
#
# Elastic Compliance Matrix: (Units=1/GPa)
#
#
# Indices 1 2 3 4 5 6 
#
# 1 0.023419 -0.002459 -0.005769 0.000000 0.002376 0.000000
# 2 -0.002459 0.020848 -0.001564 0.000000 -0.002482 0.000000
# 3 -0.005769 -0.001564 0.007284 0.000000 0.000269 0.000000
# 4 0.000000 0.000000 0.000000 0.027765 0.000000 -0.030366
# 5 0.002376 -0.002482 0.000269 0.000000 0.028072 0.000000
# 6 0.000000 0.000000 0.000000 -0.030366 0.000000 0.033919
#
#
# Mechanical properties :
#
#
# Convention : Reuss Voigt Hill
#
# Bulk Modulus (GPa) = 31.28019 48.02500 39.65259
# Shear Modulus (GPa) = 29.14653 647.69850 338.42252
#
# Velocity S-wave (km/s) = 3.74734 17.66511 12.76908
# Velocity P-wave (km/s) = 5.81326 20.95741 15.37867
#
# Compressibility (1/GPa) = 0.03196911
#
# Stress axis : x y z
#
# Youngs Moduli (GPa) = 42.69988 47.96520 137.28434
#
# Poissons Ratio (x) = 0.11793 0.79201
# Poissons Ratio (y) = 0.10498 0.21466
# Poissons Ratio (z) = 0.24634 0.07500
#
# Static dielectric constant tensor:
#      x y z
#    x 1.742410 0.000000 -0.007730 
#    y 0.000000 1.843010 0.000000 
#    z -0.007730 0.000000 1.771100 
# 
# From -- ./inp_files/83662.got.cif
#   From: 2010.05.17/outbox.cif.g08.bks.cpg/sg10_42_cif.got.tgz:83662.got - 2010.06.03 11:33:40.
