data_PCOD9147927
_publ_section_title
;
Structure prediction by ZEFSAII (Michael W. Deem and Ramdas Pophale) SiO2 
 PCOD9147927
Probable space group: P 2/M
;
_chemical_formula_sum "Si O2"
_cell_formula_units_Z 24
_cell_length_a 8.517518
_cell_length_b 13.122656
_cell_length_c 10.742695
_cell_angle_alpha 90.000000
_cell_angle_beta 79.937726
_cell_angle_gamma 90.000000
_cell_volume 1182.268213
_symmetry_space_group_name_H-M "P 2/M"
_symmetry_group_IT_number 10
_symmetry_cell_setting 'monoclinic'
loop_
_space_group_symop_operation_xyz
x,y,z
-x,y,-z
-x,-y,-z
x,-y,z
loop_
_atom_site_type_symbol
_atom_site_label
_atom_site_fract_x
_atom_site_fract_y
_atom_site_fract_z
Si Si1 0.397179 0.727705 0.708679
Si Si2 0.832875 0.189540 0.815133
Si Si3 0.338434 0.884015 0.937764
Si Si4 0.390670 0.614902 0.138332
Si Si5 0.888536 0.759837 0.403791
Si Si6 0.340293 0.885384 0.399725
O O1 0.337325 0.800543 0.829797
O O2 0.495643 0.638094 0.759923
O O3 0.254162 0.695505 0.638034
O O4 0.520983 0.802196 0.622766
O O5 0.745204 0.299129 0.840851
O O6 0.734668 0.124986 0.727282
O O7 0.001263 0.205785 0.725861
O O8 0.809684 0.135218 0.949608
O O9 0.339985 0.000000 0.890015
O O10 0.500000 0.870889 0.000000
O O11 0.327623 0.500000 0.150348
O O12 0.500000 0.625685 0.000000
O O13 0.796070 0.852785 0.483976
O O14 0.000000 0.715809 0.500000
O O15 0.393808 0.000000 0.410963
#
# Coordination Sequence:
#
# PCOD9147927 Si02
#       6
#     4   4   4   4   4   4
#     4  11  20  37  59  85 115 148 193 240 283 333
#     4  10  19  37  56  84 121 151 178 237 293 342
#     4  11  19  32  56  86 114 149 186 230 292 348
#     4  10  19  37  65  92 113 140 186 236 290 353
#     4  10  24  38  55  78 117 159 192 232 280 329
#     4  10  20  36  59  83 112 157 205 237 269 327
#
# _framework density 20.299962000000001
#
# number of rings (size 3 to 8) (size 9 to 14) (size 15 to 20)
#    0.000    1.667    5.000    1.500    0.000    6.333 
#    0.000    1.667    0.000   33.000    0.000    0.000 
#    0.000    0.000    0.000    0.000    0.000    0.000 
#
# Total GULP energy -133928.436680 kJ/mol
# GULP energy per Si atom -5580.351528 kJ/mol
# Density = 2.025376 g / cm^3
# Si number density = 20.299962 Si / 1000 Ang^3
#
#
#
# Elastic Constant Matrix: (Units=GPa)
#
#
# Indices 1 2 3 4 5 6 
#
# 1 79.6705 3.0063 14.2265 0.0000 0.5705 0.0000
# 2 3.0063 87.1328 15.2499 0.0000 0.3283 0.0000
# 3 14.2265 15.2499 97.5698 0.0000 -31.2731 0.0000
# 4 0.0000 0.0000 0.0000 21.0723 0.0000 17.4576
# 5 0.5705 0.3283 -31.2731 0.0000 36.5410 0.0000
# 6 0.0000 0.0000 0.0000 17.4576 0.0000 43.5638
#
#
#
# Elastic Compliance Matrix: (Units=1/GPa)
#
#
# Indices 1 2 3 4 5 6 
#
# 1 0.013054 0.000035 -0.002721 0.000000 -0.002533 0.000000
# 2 0.000035 0.011944 -0.002627 0.000000 -0.002356 0.000000
# 3 -0.002721 -0.002627 0.015265 0.000000 0.013130 0.000000
# 4 0.000000 0.000000 0.000000 0.071041 0.000000 -0.028469
# 5 -0.002533 -0.002356 0.013130 0.000000 0.038665 0.000000
# 6 0.000000 0.000000 0.000000 -0.028469 0.000000 0.034363
#
#
# Mechanical properties :
#
#
# Convention : Reuss Voigt Hill
#
# Bulk Modulus (GPa) = 33.74027 36.59317 35.16672
# Shear Modulus (GPa) = 24.40966 35.69477 30.05222
#
# Velocity S-wave (km/s) = 3.47140 4.19784 3.85178
# Velocity P-wave (km/s) = 5.72052 6.44679 6.09449
#
# Compressibility (1/GPa) = 0.02963817
#
# Stress axis : x y z
#
# Youngs Moduli (GPa) = 76.60293 83.72253 65.50952
#
# Poissons Ratio (x) = -0.00296 0.17823
# Poissons Ratio (y) = -0.00270 0.17211
# Poissons Ratio (z) = 0.20841 0.21996
#
# Static dielectric constant tensor:
#      x y z
#    x 1.797480 0.000000 0.026610 
#    y 0.000000 1.655490 0.000000 
#    z 0.026610 0.000000 1.762330 
# 
# From -- ./inp_files/42401.got.cif
#   From: 2010.05.17/outbox.cif.g08.bks.cpg/sg10_22_cif.got.tgz:42401.got - 2010.06.03 11:33:40.
