data_PCOD9147357
_publ_section_title
;
Structure prediction by ZEFSAII (Michael W. Deem and Ramdas Pophale) SiO2 
 PCOD9147357
Probable space group: P 2/M
;
_chemical_formula_sum "Si O2"
_cell_formula_units_Z 32
_cell_length_a 12.288903
_cell_length_b 7.725972
_cell_length_c 31.856082
_cell_angle_alpha 90.000000
_cell_angle_beta 30.194624
_cell_angle_gamma 90.000000
_cell_volume 1521.156129
_symmetry_space_group_name_H-M "P 2/M"
_symmetry_group_IT_number 10
_symmetry_cell_setting 'monoclinic'
loop_
_space_group_symop_operation_xyz
x,y,z
-x,y,-z
-x,-y,-z
x,-y,z
loop_
_atom_site_type_symbol
_atom_site_label
_atom_site_fract_x
_atom_site_fract_y
_atom_site_fract_z
Si Si1 0.465766 0.790075 0.122953
Si Si2 0.042755 0.209323 0.034416
Si Si3 0.270068 0.202936 0.275891
Si Si4 0.289138 0.295208 0.093303
Si Si5 0.797819 0.800985 0.433731
Si Si6 0.809235 0.287037 0.247615
Si Si7 0.330112 0.699377 0.614082
Si Si8 0.619944 0.700730 0.226294
O O1 0.374184 0.726942 0.198153
O O2 0.323475 0.729851 0.131413
O O3 0.468171 0.000000 0.122672
O O4 0.715374 0.733961 0.034211
O O5 0.852705 0.283753 0.126107
O O6 0.031496 0.000000 0.041190
O O7 0.000000 0.254290 0.000000
O O8 0.441344 0.215865 0.256093
O O9 0.033246 0.275336 0.365202
O O10 0.230240 0.000000 0.280841
O O11 0.284908 0.500000 0.085581
O O12 0.055392 0.226904 0.157863
O O13 0.500000 0.219486 0.000000
O O14 0.588965 0.707101 0.522030
O O15 0.770562 0.795409 0.392269
O O16 0.782621 0.000000 0.453007
O O17 0.808019 0.500000 0.247405
O O18 0.737382 0.233183 0.317953
O O19 0.654842 0.228465 0.261459
O O20 0.258844 0.500000 0.634685
O O21 0.560461 0.500000 0.249164
#
# Coordination Sequence:
#
# PCOD9147357 Si02
#       8
#     4   4   4   4   4   4   4   4
#     4  10  20  34  54  77 104 138 179 219 262 320
#     4  10  19  35  54  72 106 148 180 217 269 320
#     4  10  21  38  55  77 110 144 173 217 278 324
#     4  10  20  35  54  76 108 142 174 219 270 314
#     4  10  20  35  58  85 113 137 172 225 273 321
#     4   9  20  37  54  77 110 147 179 217 271 324
#     4  10  19  35  59  82 110 144 178 216 268 329
#     4  11  22  36  56  80 107 140 187 231 262 313
#
# _framework density 21.036631
#
# number of rings (size 3 to 8) (size 9 to 14) (size 15 to 20)
#    0.000    2.000    1.250    3.375    0.000    3.500 
#    0.000    5.000    0.000    3.750    0.000    0.000 
#    0.000    0.000    0.000    0.000    0.000    0.000 
#
# Total GULP energy -178777.754256 kJ/mol
# GULP energy per Si atom -5586.804820 kJ/mol
# Density = 2.098875 g / cm^3
# Si number density = 21.036631 Si / 1000 Ang^3
#
#
#
# Elastic Constant Matrix: (Units=GPa)
#
#
# Indices 1 2 3 4 5 6 
#
# 1 93.8889 -14.8582 40.9345 0.0000 -6.1626 0.0000
# 2 -14.8582 32.9881 -2.8737 0.0000 0.0896 0.0000
# 3 40.9345 -2.8737 83.9593 0.0000 -6.1096 0.0000
# 4 0.0000 0.0000 0.0000 16.4298 0.0000 3.6300
# 5 -6.1626 0.0896 -6.1096 0.0000 37.9055 0.0000
# 6 0.0000 0.0000 0.0000 3.6300 0.0000 7.1568
#
#
#
# Elastic Compliance Matrix: (Units=1/GPa)
#
#
# Indices 1 2 3 4 5 6 
#
# 1 0.014674 0.006009 -0.006857 0.000000 0.001266 0.000000
# 2 0.006009 0.032865 -0.001760 0.000000 0.000616 0.000000
# 3 -0.006857 -0.001760 0.015292 0.000000 0.001354 0.000000
# 4 0.000000 0.000000 0.000000 0.068546 0.000000 -0.034767
# 5 0.001266 0.000616 0.001354 0.000000 0.026804 0.000000
# 6 0.000000 0.000000 0.000000 -0.034767 0.000000 0.157360
#
#
# Mechanical properties :
#
#
# Convention : Reuss Voigt Hill
#
# Bulk Modulus (GPa) = 17.35634 28.58240 22.96937
# Shear Modulus (GPa) = 14.70747 24.80733 19.75740
#
# Velocity S-wave (km/s) = 2.64699 3.43774 3.06795
# Velocity P-wave (km/s) = 4.19649 5.41977 4.84687
#
# Compressibility (1/GPa) = 0.05761583
#
# Stress axis : x y z
#
# Youngs Moduli (GPa) = 68.14607 30.42720 65.39437
#
# Poissons Ratio (x) = -0.18283 0.44839
# Poissons Ratio (y) = -0.40947 0.11509
# Poissons Ratio (z) = 0.46726 0.05355
#
# Static dielectric constant tensor:
#      x y z
#    x 1.730700 0.000000 -0.006660 
#    y 0.000000 1.770930 0.000000 
#    z -0.006660 0.000000 1.756760 
# 
# From -- ./inp_files/94933.got.cif
#   From: 2010.05.17/outbox.cif.g08.bks.cpg/sg10_48_cif.got.tgz:94933.got - 2010.06.03 11:33:40.
