data_PCOD9147064
_publ_section_title
;
Structure prediction by ZEFSAII (Michael W. Deem and Ramdas Pophale) SiO2 
 PCOD9147064
Probable space group: P 2/M
;
_chemical_formula_sum "Si O2"
_cell_formula_units_Z 32
_cell_length_a 26.513386
_cell_length_b 8.139000
_cell_length_c 15.229624
_cell_angle_alpha 90.000000
_cell_angle_beta 30.482757
_cell_angle_gamma 90.000000
_cell_volume 1667.141024
_symmetry_space_group_name_H-M "P 2/M"
_symmetry_group_IT_number 10
_symmetry_cell_setting 'monoclinic'
loop_
_space_group_symop_operation_xyz
x,y,z
-x,y,-z
-x,-y,-z
x,-y,z
loop_
_atom_site_type_symbol
_atom_site_label
_atom_site_fract_x
_atom_site_fract_y
_atom_site_fract_z
Si Si1 0.345314 0.201473 0.482114
Si Si2 0.729981 0.303906 0.762671
Si Si3 0.000112 0.200684 0.102943
Si Si4 0.214944 0.802588 0.512361
Si Si5 0.887446 0.299254 0.668639
Si Si6 0.784880 0.197599 0.156932
Si Si7 0.572501 0.803820 0.140809
Si Si8 0.270672 0.696222 0.952296
O O1 0.285090 0.255367 0.486411
O O2 0.285326 0.254948 0.658354
O O3 0.459353 0.257337 0.310850
O O4 0.346001 0.000000 0.481070
O O5 0.731956 0.500000 0.758051
O O6 0.740222 0.241785 0.648852
O O7 0.824841 0.246028 0.677691
O O8 0.633924 0.252485 0.963068
O O9 0.898245 0.257062 0.302011
O O10 0.000215 0.000000 0.104425
O O11 0.000000 0.247118 0.000000
O O12 0.101963 0.256904 0.996435
O O13 0.211130 0.000000 0.523982
O O14 0.888857 0.500000 0.666417
O O15 0.000000 0.240669 0.500000
O O16 0.824521 0.246469 0.847807
O O17 0.740320 0.243621 0.129960
O O18 0.788389 0.000000 0.156737
O O19 0.633486 0.750511 0.135724
O O20 0.570307 0.000000 0.143019
O O21 0.270034 0.500000 0.952897
#
# Coordination Sequence:
#
# PCOD9147064 Si02
#       8
#     4   4   4   4   4   4   4   4
#     4   9  19  35  58  82 105 142 187 227 267 316
#     4  10  21  36  54  79 111 144 178 220 275 326
#     4   9  16  30  55  82 111 144 177 225 274 310
#     4  10  19  34  56  83 112 143 182 222 267 322
#     4   8  16  32  51  69  96 137 177 210 253 314
#     4  10  19  34  56  83 112 143 182 222 267 322
#     4  10  20  38  60  79 103 139 186 234 271 312
#     4  10  21  36  54  79 111 144 178 220 275 326
#
# _framework density 19.194537
#
# number of rings (size 3 to 8) (size 9 to 14) (size 15 to 20)
#    0.000    2.500    1.250    1.875    1.750    1.000 
#    0.000    8.125    0.000    3.000    0.000    0.000 
#    0.000    0.000    0.000    0.000    0.000    0.000 
#
# Total GULP energy -178558.329082 kJ/mol
# GULP energy per Si atom -5579.947784 kJ/mol
# Density = 1.915085 g / cm^3
# Si number density = 19.194537 Si / 1000 Ang^3
#
#
#
# Elastic Constant Matrix: (Units=GPa)
#
#
# Indices 1 2 3 4 5 6 
#
# 1 257.8203 60.6774 233.9928 0.0000 23.6362 0.0000
# 2 60.6774 36.8880 63.2734 0.0000 1.7214 0.0000
# 3 233.9928 63.2734 259.7231 0.0000 -9.0434 0.0000
# 4 0.0000 0.0000 0.0000 -0.5370 0.0000 -18.4837
# 5 23.6362 1.7214 -9.0434 0.0000 38.2945 0.0000
# 6 0.0000 0.0000 0.0000 -18.4837 0.0000 -18.8822
#
#
#
# Elastic Compliance Matrix: (Units=1/GPa)
#
#
# Indices 1 2 3 4 5 6 
#
# 1 0.049012 -0.000903 -0.045362 0.000000 -0.040923 0.000000
# 2 -0.000903 0.047482 -0.010899 0.000000 -0.004151 0.000000
# 3 -0.045362 -0.010899 0.048766 0.000000 0.040004 0.000000
# 4 0.000000 0.000000 0.000000 0.056958 0.000000 -0.055756
# 5 -0.040923 -0.004151 0.040004 0.000000 0.061006 0.000000
# 6 0.000000 0.000000 0.000000 -0.055756 0.000000 0.001620
#
#
# Mechanical properties :
#
#
# Convention : Reuss Voigt Hill
#
# Bulk Modulus (GPa) = 32.32663 141.14653 86.73658
# Shear Modulus (GPa) = 12.83755 16.87425 14.85590
#
# Velocity S-wave (km/s) = 2.58895 2.96821 2.78504
# Velocity P-wave (km/s) = 5.08085 9.24345 7.45843
#
# Compressibility (1/GPa) = 0.03093424
#
# Stress axis : x y z
#
# Youngs Moduli (GPa) = 20.40308 21.06044 20.50606
#
# Poissons Ratio (x) = 0.01901 0.93019
# Poissons Ratio (y) = 0.01842 0.22349
# Poissons Ratio (z) = 0.92552 0.22953
#
# Static dielectric constant tensor:
#      x y z
#    x 1.594030 0.000000 -0.048410 
#    y 0.000000 1.677560 0.000000 
#    z -0.048410 0.000000 1.637570 
# 
# From -- ./inp_files/72177.got.cif
#   From: 2010.05.17/outbox.cif.g08.bks.cpg/sg10_37_cif.got.tgz:72177.got - 2010.06.03 11:33:40.
