data_PCOD9147111
_publ_section_title
;
Structure prediction by ZEFSAII (Michael W. Deem and Ramdas Pophale) SiO2 
 PCOD9147111
Probable space group: P 2/M
;
_chemical_formula_sum "Si O2"
_cell_formula_units_Z 30
_cell_length_a 16.585774
_cell_length_b 7.336727
_cell_length_c 9.468457
_cell_angle_alpha 90.000000
_cell_angle_beta 84.843160
_cell_angle_gamma 90.000000
_cell_volume 1147.508447
_symmetry_space_group_name_H-M "P 2/M"
_symmetry_group_IT_number 10
_symmetry_cell_setting 'monoclinic'
loop_
_space_group_symop_operation_xyz
x,y,z
-x,y,-z
-x,-y,-z
x,-y,z
loop_
_atom_site_type_symbol
_atom_site_label
_atom_site_fract_x
_atom_site_fract_y
_atom_site_fract_z
Si Si1 0.778557 0.291410 0.986414
Si Si2 0.951032 0.789652 0.656680
Si Si3 0.196008 0.221516 0.486659
Si Si4 0.620222 0.290564 0.505071
Si Si5 0.303916 0.000000 0.140467
Si Si6 0.374936 0.720923 0.809974
Si Si7 0.895949 0.220404 0.211957
Si Si8 0.445380 0.279210 0.193286
O O1 0.763839 0.500000 0.952528
O O2 0.705810 0.214873 0.099956
O O3 0.858489 0.278662 0.069331
O O4 0.767179 0.157291 0.860040
O O5 0.014075 0.713449 0.760860
O O6 0.000000 0.792898 0.500000
O O7 0.867201 0.705715 0.618430
O O8 0.937656 0.000000 0.699130
O O9 0.288212 0.278148 0.452453
O O10 0.163559 0.275394 0.648503
O O11 0.194587 0.000000 0.482755
O O12 0.598159 0.500000 0.485793
O O13 0.623138 0.207298 0.349847
O O14 0.561870 0.228718 0.638321
O O15 0.374371 0.159917 0.140534
O O16 0.368192 0.500000 0.809520
O O17 0.462182 0.760956 0.863284
O O18 0.897706 0.000000 0.212535
O O19 0.432754 0.500000 0.179527
#
# Coordination Sequence:
#
# PCOD9147111 Si02
#       8
#     4   4   4   4   2   4   4   4
#     4  11  22  36  58  84 111 145 183 231 280 326
#     4   7  12  23  42  71 112 152 178 205 257 327
#     4   9  16  26  48  80 115 148 179 215 263 330
#     4  10  19  34  57  81 111 146 180 220 275 333
#     4  12  26  43  57  80 105 146 195 240 275 324
#     4   9  19  37  59  83 112 142 178 225 283 339
#     4   9  15  29  49  78 113 150 183 216 266 329
#     4  10  23  42  59  78 109 149 187 231 276 323
#
# _framework density 26.143597
#
# number of rings (size 3 to 8) (size 9 to 14) (size 15 to 20)
#    0.000    2.533    2.000    2.400    0.933    3.200 
#    1.200    3.333    0.000    2.400    0.000    1.867 
#    0.000    3.200    0.000    0.000    0.000    0.000 
#
# Total GULP energy -167310.775009 kJ/mol
# GULP energy per Si atom -5577.025834 kJ/mol
# Density = 2.608409 g / cm^3
# Si number density = 26.143597 Si / 1000 Ang^3
#
#
#
# Elastic Constant Matrix: (Units=GPa)
#
#
# Indices 1 2 3 4 5 6 
#
# 1 105.9362 9.8324 44.2400 0.0000 22.3290 0.0000
# 2 9.8324 144.1559 18.4198 0.0000 7.6648 0.0000
# 3 44.2400 18.4198 72.1327 0.0000 18.9727 0.0000
# 4 0.0000 0.0000 0.0000 -7.3406 0.0000 10.1662
# 5 22.3290 7.6648 18.9727 0.0000 50.9144 0.0000
# 6 0.0000 0.0000 0.0000 10.1662 0.0000 11.7083
#
#
#
# Elastic Compliance Matrix: (Units=1/GPa)
#
#
# Indices 1 2 3 4 5 6 
#
# 1 0.013109 0.000200 -0.007285 0.000000 -0.003065 0.000000
# 2 0.000200 0.007183 -0.001828 0.000000 -0.000488 0.000000
# 3 -0.007285 -0.001828 0.019829 0.000000 -0.003919 0.000000
# 4 0.000000 0.000000 0.000000 -0.061851 0.000000 0.053705
# 5 -0.003065 -0.000488 -0.003919 0.000000 0.022519 0.000000
# 6 0.000000 0.000000 0.000000 0.053705 0.000000 0.038778
#
#
# Mechanical properties :
#
#
# Convention : Reuss Voigt Hill
#
# Bulk Modulus (GPa) = 44.85596 51.91213 48.38405
# Shear Modulus (GPa) = 77.12992 27.70526 52.41759
#
# Velocity S-wave (km/s) = 5.43750 3.25889 4.48257
# Velocity P-wave (km/s) = 7.52441 5.83610 6.73338
#
# Compressibility (1/GPa) = 0.02229358
#
# Stress axis : x y z
#
# Youngs Moduli (GPa) = 76.28115 139.22009 50.43105
#
# Poissons Ratio (x) = -0.02780 0.36740
# Poissons Ratio (y) = -0.01523 0.09221
# Poissons Ratio (z) = 0.55572 0.25455
#
# Static dielectric constant tensor:
#      x y z
#    x 2.014860 0.000000 -0.010730 
#    y 0.000000 2.029860 0.000000 
#    z -0.010730 0.000000 2.194320 
# 
# From -- ./inp_files/52843.got.cif
#   From: 2010.05.17/outbox.cif.g08.bks.cpg/sg10_27_cif.got.tgz:52843.got - 2010.06.03 11:33:40.
