data_PCOD9147765
_publ_section_title
;
Structure prediction by ZEFSAII (Michael W. Deem and Ramdas Pophale) SiO2 
 PCOD9147765
Probable space group: P 2/M
;
_chemical_formula_sum "Si O2"
_cell_formula_units_Z 26
_cell_length_a 21.819675
_cell_length_b 14.354216
_cell_length_c 24.809687
_cell_angle_alpha 90.000000
_cell_angle_beta 169.265879
_cell_angle_gamma 90.000000
_cell_volume 1447.269487
_symmetry_space_group_name_H-M "P 2/M"
_symmetry_group_IT_number 10
_symmetry_cell_setting 'monoclinic'
loop_
_space_group_symop_operation_xyz
x,y,z
-x,y,-z
-x,-y,-z
x,-y,z
loop_
_atom_site_type_symbol
_atom_site_label
_atom_site_fract_x
_atom_site_fract_y
_atom_site_fract_z
Si Si1 0.111465 0.000000 0.657644
Si Si2 0.393236 0.606385 0.345489
Si Si3 0.770151 0.158508 0.430102
Si Si4 0.777243 0.277908 0.101494
Si Si5 0.370155 0.611341 0.830103
Si Si6 0.740735 0.767373 0.577159
Si Si7 0.710318 0.108132 0.890210
O O1 0.000000 0.000000 0.500000
O O2 0.960274 0.911776 0.556850
O O3 0.500000 0.000000 0.000000
O O4 0.500000 0.615575 0.500000
O O5 0.480944 0.500000 0.403957
O O6 0.566644 0.687030 0.461098
O O7 0.000000 0.615584 0.000000
O O8 0.543817 0.108151 0.279213
O O9 0.026513 0.220406 0.684265
O O10 0.526979 0.220404 0.184731
O O11 0.030840 0.284092 0.270557
O O12 0.616704 0.363730 0.994469
O O13 0.350991 0.500000 0.817327
O O14 0.000000 0.647361 0.500000
O O15 0.500000 0.647360 0.000000
O O16 0.477101 0.833459 0.318451
O O17 0.974814 0.833459 0.816164
O O18 0.783030 0.000000 0.938683
#
# Coordination Sequence:
#
# PCOD9147765 Si02
#       7
#     2   4   4   4   4   4   4
#     4  12  24  34  48  72 104 140 180 228 278 328
#     4  10  21  39  63  89 122 158 183 222 288 348
#     4  10  21  36  50  74 103 138 178 226 274 329
#     4  10  21  35  56  78 105 137 182 231 276 315
#     4  10  21  36  53  73 101 140 180 220 277 338
#     4  10  21  35  59  91 110 145 199 234 273 338
#     4  10  19  36  59  79 113 150 188 236 281 328
#
# _framework density 17.964863999999999
#
# number of rings (size 3 to 8) (size 9 to 14) (size 15 to 20)
#    0.000    1.846    0.769    3.231    0.000    4.308 
#    0.000    0.000    0.000   20.308    0.000    0.000 
#    0.000    0.000    0.000    0.000    0.000    0.000 
#
# Total GULP energy -145062.233989 kJ/mol
# GULP energy per Si atom -5579.316692 kJ/mol
# Density = 1.792398 g / cm^3
# Si number density = 17.964864 Si / 1000 Ang^3
#
#
#
# Elastic Constant Matrix: (Units=GPa)
#
#
# Indices 1 2 3 4 5 6 
#
# 1 102.4331 70.4415 71.2488 0.0000 -9.9495 0.0000
# 2 70.4415 95.6811 64.1942 0.0000 5.4700 0.0000
# 3 71.2488 64.1942 144.1685 0.0000 -26.5166 0.0000
# 4 0.0000 0.0000 0.0000-4827.8733 0.0000-8342.3361
# 5 -9.9495 5.4700 -26.5166 0.0000 35.7667 0.0000
# 6 0.0000 0.0000 0.0000-8342.3361 0.0000**********
#
#
#
# Elastic Compliance Matrix: (Units=1/GPa)
#
#
# Indices 1 2 3 4 5 6 
#
# 1 0.023188 -0.014919 -0.003718 0.000000 0.005976 0.000000
# 2 -0.014919 0.027010 -0.007152 0.000000 -0.013583 0.000000
# 3 -0.003718 -0.007152 0.013859 0.000000 0.010334 0.000000
# 4 0.000000 0.000000 0.000000 0.067327 0.000000 -0.039083
# 5 0.005976 -0.013583 0.010334 0.000000 0.039360 0.000000
# 6 0.000000 0.000000 0.000000 -0.039083 0.000000 0.022618
#
#
# Mechanical properties :
#
#
# Convention : Reuss Voigt Hill
#
# Bulk Modulus (GPa) = 80.12888 83.78351 81.95619
# Shear Modulus (GPa) = 20.07227 -3823.51797 -1901.72285
#
# Velocity S-wave (km/s) = 3.34624 -46.18389 -32.57111
# Velocity P-wave (km/s) = 7.72203 52.88853 36.99707
#
# Compressibility (1/GPa) = 0.01247990
#
# Stress axis : x y z
#
# Youngs Moduli (GPa) = 43.12539 37.02366 72.15514
#
# Poissons Ratio (x) = 0.55235 0.26825
# Poissons Ratio (y) = 0.64338 0.51606
# Poissons Ratio (z) = 0.16033 0.26480
#
# Static dielectric constant tensor:
#      x y z
#    x 1.602870 0.000000 -0.002430 
#    y 0.000000 1.606500 0.000000 
#    z -0.002430 0.000000 1.605630 
# 
# From -- ./inp_files/90472.got.cif
#   From: 2010.05.17/outbox.cif.g08.bks.cpg/sg10_46_cif.got.tgz:90472.got - 2010.06.03 11:33:40.
