data_PCOD9147708
_publ_section_title
;
Structure prediction by ZEFSAII (Michael W. Deem and Ramdas Pophale) SiO2 
 PCOD9147708
Probable space group: P 2/M
;
_chemical_formula_sum "Si O2"
_cell_formula_units_Z 32
_cell_length_a 9.183210
_cell_length_b 14.076135
_cell_length_c 19.819645
_cell_angle_alpha 90.000000
_cell_angle_beta 36.951468
_cell_angle_gamma 90.000000
_cell_volume 1540.097550
_symmetry_space_group_name_H-M "P 2/M"
_symmetry_group_IT_number 10
_symmetry_cell_setting 'monoclinic'
loop_
_space_group_symop_operation_xyz
x,y,z
-x,y,-z
-x,-y,-z
x,-y,z
loop_
_atom_site_type_symbol
_atom_site_label
_atom_site_fract_x
_atom_site_fract_y
_atom_site_fract_z
Si Si1 0.427281 0.392710 0.161295
Si Si2 0.101589 0.256421 0.356601
Si Si3 0.451857 0.108793 0.168575
Si Si4 0.750498 0.607839 0.179006
Si Si5 0.388751 0.108649 0.613431
Si Si6 0.201866 0.253825 0.013387
Si Si7 0.611581 0.273733 0.609388
Si Si8 0.152039 0.104504 0.148303
O O1 0.379467 0.500000 0.158280
O O2 0.193109 0.332310 0.268003
O O3 0.588745 0.394548 0.170690
O O4 0.587116 0.330552 0.051963
O O5 0.218304 0.155507 0.291553
O O6 0.239306 0.271715 0.376405
O O7 0.820135 0.274818 0.475131
O O8 0.369782 0.108388 0.120682
O O9 0.499406 0.000000 0.171908
O O10 0.679221 0.181789 0.086781
O O11 0.841102 0.500000 0.155906
O O12 0.583241 0.643559 0.303345
O O13 0.963597 0.683585 0.088882
O O14 0.500000 0.136367 0.500000
O O15 0.469939 0.177806 0.643229
O O16 0.098958 0.110670 0.717634
O O17 0.465800 0.000000 0.598488
O O18 0.152139 0.187710 0.095153
O O19 0.152673 0.000000 0.114672
#
# Coordination Sequence:
#
# PCOD9147708 Si02
#       8
#     4   4   4   4   4   4   4   4
#     4   9  19  35  56  81 109 143 184 230 274 325
#     4   9  20  34  58  82 113 142 182 227 279 325
#     4  10  21  37  56  80 110 148 189 224 270 326
#     4  10  20  35  57  82 111 146 184 227 277 331
#     4  10  20  34  55  82 110 145 185 221 262 324
#     4  11  19  32  54  81 107 141 180 227 270 319
#     4  10  19  36  55  86 112 144 180 228 277 327
#     4  10  20  35  55  80 108 143 187 226 264 321
#
# _framework density 20.777906000000002
#
# number of rings (size 3 to 8) (size 9 to 14) (size 15 to 20)
#    0.000    2.125    1.250    2.250    0.000    4.500 
#    0.000    3.750    0.000   19.125    0.000    0.000 
#    0.000    0.000    0.000    0.000    0.000    0.000 
#
# Total GULP energy -178439.273996 kJ/mol
# GULP energy per Si atom -5576.227312 kJ/mol
# Density = 2.073061 g / cm^3
# Si number density = 20.777906 Si / 1000 Ang^3
#
#
#
# Elastic Constant Matrix: (Units=GPa)
#
#
# Indices 1 2 3 4 5 6 
#
# 1 16.0600 18.6364 11.0984 0.0000 -9.7464 0.0000
# 2 18.6364 154.0980 56.1749 0.0000 -6.2851 0.0000
# 3 11.0984 56.1749 128.4250 0.0000 -11.9737 0.0000
# 4 0.0000 0.0000 0.0000 22.7009 0.0000 7.9465
# 5 -9.7464 -6.2851 -11.9737 0.0000 24.6125 0.0000
# 6 0.0000 0.0000 0.0000 7.9465 0.0000 -26.4057
#
#
#
# Elastic Compliance Matrix: (Units=1/GPa)
#
#
# Indices 1 2 3 4 5 6 
#
# 1 0.095370 -0.009865 -0.000671 0.000000 0.034920 0.000000
# 2 -0.009865 0.008744 -0.003277 0.000000 -0.003268 0.000000
# 3 -0.000671 -0.003277 0.009611 0.000000 0.003573 0.000000
# 4 0.000000 0.000000 0.000000 0.039853 0.000000 0.011993
# 5 0.034920 -0.003268 0.003573 0.000000 0.055362 0.000000
# 6 0.000000 0.000000 0.000000 0.011993 0.000000 -0.034261
#
#
# Mechanical properties :
#
#
# Convention : Reuss Voigt Hill
#
# Bulk Modulus (GPa) = 11.61453 52.26694 31.94074
# Shear Modulus (GPa) = 21.64477 18.35976 20.00227
#
# Velocity S-wave (km/s) = 3.23107 2.97580 3.10606
# Velocity P-wave (km/s) = 4.41834 6.08415 5.31689
#
# Compressibility (1/GPa) = 0.08609904
#
# Stress axis : x y z
#
# Youngs Moduli (GPa) = 10.48551 114.36853 104.04668
#
# Poissons Ratio (x) = 1.12825 0.06981
# Poissons Ratio (y) = 0.10344 0.34093
# Poissons Ratio (z) = 0.00703 0.37476
#
# Static dielectric constant tensor:
#      x y z
#    x 1.756050 0.000000 -0.003430 
#    y 0.000000 1.747160 0.000000 
#    z -0.003430 0.000000 1.807550 
# 
# From -- ./inp_files/88905.got.cif
#   From: 2010.05.17/outbox.cif.g08.bks.cpg/sg10_45_cif.got.tgz:88905.got - 2010.06.03 11:33:40.
