data_PCOD9147436
_publ_section_title
;
Structure prediction by ZEFSAII (Michael W. Deem and Ramdas Pophale) SiO2 
 PCOD9147436
Probable space group: P 2/M
;
_chemical_formula_sum "Si O2"
_cell_formula_units_Z 32
_cell_length_a 11.474872
_cell_length_b 18.241053
_cell_length_c 19.468340
_cell_angle_alpha 90.000000
_cell_angle_beta 22.590450
_cell_angle_gamma 90.000000
_cell_volume 1565.372985
_symmetry_space_group_name_H-M "P 2/M"
_symmetry_group_IT_number 10
_symmetry_cell_setting 'monoclinic'
loop_
_space_group_symop_operation_xyz
x,y,z
-x,y,-z
-x,-y,-z
x,-y,z
loop_
_atom_site_type_symbol
_atom_site_label
_atom_site_fract_x
_atom_site_fract_y
_atom_site_fract_z
Si Si1 0.273171 0.081055 0.251183
Si Si2 0.358842 0.235646 0.805108
Si Si3 0.181009 0.696291 0.707725
Si Si4 0.417610 0.918546 0.336317
Si Si5 0.761710 0.637519 0.818337
Si Si6 0.204203 0.580723 0.821743
Si Si7 0.810609 0.635775 0.534049
Si Si8 0.408705 0.226481 0.939870
O O1 0.358082 0.080631 0.286358
O O2 0.452766 0.147394 0.119158
O O3 0.909506 0.091469 0.449613
O O4 0.343266 0.000000 0.185722
O O5 0.385833 0.153954 0.759272
O O6 0.617877 0.287397 0.629584
O O7 0.450702 0.237574 0.835397
O O8 0.000000 0.254884 0.000000
O O9 0.500000 0.718035 0.500000
O O10 0.192853 0.641647 0.767329
O O11 0.011651 0.654188 0.739002
O O12 0.948464 0.761958 0.851928
O O13 0.537495 0.000000 0.289317
O O14 0.592878 0.710569 0.880007
O O15 0.944727 0.610277 0.654448
O O16 0.500000 0.593858 0.000000
O O17 0.128843 0.500000 0.834408
O O18 0.535165 0.580780 0.675517
O O19 0.000000 0.594430 0.000000
O O20 0.000000 0.641145 0.500000
#
# Coordination Sequence:
#
# PCOD9147436 Si02
#       8
#     4   4   4   4   4   4   4   4
#     4   8  14  27  50  78 112 161 213 262 317 371
#     4  11  21  30  53  89 124 166 212 263 326 374
#     4  11  22  41  65  91 123 163 209 251 307 370
#     4   8  15  27  44  75 121 164 208 261 320 375
#     4  10  22  37  59  91 120 158 206 258 305 352
#     4  11  26  47  70  97 130 164 198 245 311 382
#     4  12  22  38  65  91 126 162 210 261 306 364
#     4  10  19  35  56  86 123 159 213 269 311 364
#
# _framework density 20.442412999999998
#
# number of rings (size 3 to 8) (size 9 to 14) (size 15 to 20)
#    0.000    1.875    2.500    3.375    3.500    0.750 
#    0.000    0.000    0.000    7.500    0.000    0.000 
#    0.000    0.000    0.000    0.000    0.000    0.125 
#
# Total GULP energy -178207.417048 kJ/mol
# GULP energy per Si atom -5568.981783 kJ/mol
# Density = 2.039589 g / cm^3
# Si number density = 20.442413 Si / 1000 Ang^3
#
#
#
# Elastic Constant Matrix: (Units=GPa)
#
#
# Indices 1 2 3 4 5 6 
#
# 1 74.9529 11.3923 22.1298 0.0000 -4.8521 0.0000
# 2 11.3923 100.3726 39.6641 0.0000 3.1683 0.0000
# 3 22.1298 39.6641 144.8682 0.0000 13.3180 0.0000
# 4 0.0000 0.0000 0.0000 12.7969 0.0000 -8.4121
# 5 -4.8521 3.1683 13.3180 0.0000 30.0289 0.0000
# 6 0.0000 0.0000 0.0000 -8.4121 0.0000 6.2082
#
#
#
# Elastic Compliance Matrix: (Units=1/GPa)
#
#
# Indices 1 2 3 4 5 6 
#
# 1 0.014363 -0.000838 -0.002279 0.000000 0.003420 0.000000
# 2 -0.000838 0.011221 -0.002943 0.000000 -0.000014 0.000000
# 3 -0.002279 -0.002943 0.008405 0.000000 -0.003785 0.000000
# 4 0.000000 0.000000 0.000000 0.714996 0.000000 0.968816
# 5 0.003420 -0.000014 -0.003785 0.000000 0.035534 0.000000
# 6 0.000000 0.000000 0.000000 0.968816 0.000000 1.473819
#
#
# Mechanical properties :
#
#
# Convention : Reuss Voigt Hill
#
# Bulk Modulus (GPa) = 45.72515 51.84069 48.78292
# Shear Modulus (GPa) = 2.19515 26.27398 14.23456
#
# Velocity S-wave (km/s) = 1.03738 3.58895 2.64166
# Velocity P-wave (km/s) = 4.88377 6.52599 5.76367
#
# Compressibility (1/GPa) = 0.02186980
#
# Stress axis : x y z
#
# Youngs Moduli (GPa) = 69.62169 89.11537 118.97964
#
# Poissons Ratio (x) = 0.07464 0.27118
# Poissons Ratio (y) = 0.05831 0.35017
# Poissons Ratio (z) = 0.15868 0.26228
#
# Static dielectric constant tensor:
#      x y z
#    x 1.727040 0.000000 0.047100 
#    y 0.000000 1.779500 0.000000 
#    z 0.047100 0.000000 1.644090 
# 
# From -- ./inp_files/84244.got.cif
#   From: 2010.05.17/outbox.cif.g08.bks.cpg/sg10_43_cif.got.tgz:84244.got - 2010.06.03 11:33:40.
