data_PCOD9147808
_publ_section_title
;
Structure prediction by ZEFSAII (Michael W. Deem and Ramdas Pophale) SiO2 
 PCOD9147808
Probable space group: P 2/M
;
_chemical_formula_sum "Si O2"
_cell_formula_units_Z 32
_cell_length_a 15.459936
_cell_length_b 7.735256
_cell_length_c 27.060009
_cell_angle_alpha 90.000000
_cell_angle_beta 154.202030
_cell_angle_gamma 90.000000
_cell_volume 1408.310472
_symmetry_space_group_name_H-M "P 2/M"
_symmetry_group_IT_number 10
_symmetry_cell_setting 'monoclinic'
loop_
_space_group_symop_operation_xyz
x,y,z
-x,y,-z
-x,-y,-z
x,-y,z
loop_
_atom_site_type_symbol
_atom_site_label
_atom_site_fract_x
_atom_site_fract_y
_atom_site_fract_z
Si Si1 0.773664 0.712236 0.874211
Si Si2 0.975765 0.198911 0.150685
Si Si3 0.597112 0.201413 0.599674
Si Si4 0.230893 0.710399 0.749669
Si Si5 0.513642 0.299390 0.355682
Si Si6 0.904996 0.202095 0.501601
Si Si7 0.734016 0.708832 0.122024
Si Si8 0.371549 0.702319 0.097783
O O1 0.769800 0.500000 0.871383
O O2 0.673468 0.770889 0.771836
O O3 0.648430 0.773763 0.857324
O O4 0.000000 0.764261 0.000000
O O5 0.851613 0.209739 0.137505
O O6 0.191337 0.277232 0.273814
O O7 0.001036 0.000000 0.148601
O O8 0.837983 0.283213 0.038139
O O9 0.500000 0.276675 0.500000
O O10 0.459751 0.211876 0.577512
O O11 0.639256 0.000000 0.610065
O O12 0.229092 0.500000 0.748903
O O13 0.191805 0.763194 0.785842
O O14 0.447854 0.771593 0.842370
O O15 0.067706 0.775624 0.627922
O O16 0.480066 0.500000 0.349133
O O17 0.702995 0.284758 0.417438
O O18 0.000000 0.274414 0.500000
O O19 0.862386 0.000000 0.471442
O O20 0.752096 0.500000 0.126264
O O21 0.500000 0.748698 0.000000
O O22 0.414904 0.500000 0.125974
#
# Coordination Sequence:
#
# PCOD9147808 Si02
#       8
#     4   4   4   4   4   4   4   4
#     4   9  18  33  58  90 119 148 189 242 302 356
#     4  11  23  37  58  88 121 160 205 250 302 364
#     4  10  24  45  63  84 121 167 208 251 309 371
#     4  10  21  37  60  88 116 155 205 252 303 359
#     4  11  23  41  67  96 122 156 208 263 307 360
#     4  11  25  43  63  89 127 171 206 246 307 371
#     4  10  20  38  60  86 121 159 197 248 311 365
#     4  10  19  36  60  85 119 158 192 243 305 361
#
# _framework density 22.722261
#
# number of rings (size 3 to 8) (size 9 to 14) (size 15 to 20)
#    0.000    1.750    1.250    2.625    1.750    5.500 
#    0.000    1.250    0.000    3.375    0.000    0.000 
#    0.000    0.000    0.000    0.000    0.000    0.000 
#
# Total GULP energy -178887.460176 kJ/mol
# GULP energy per Si atom -5590.233130 kJ/mol
# Density = 2.267054 g / cm^3
# Si number density = 22.722261 Si / 1000 Ang^3
#
#
#
# Elastic Constant Matrix: (Units=GPa)
#
#
# Indices 1 2 3 4 5 6 
#
# 1 98.8636 -0.6414 27.5137 0.0000 -18.7512 0.0000
# 2 -0.6414 35.7343 -6.9403 0.0000 2.1153 0.0000
# 3 27.5137 -6.9403 107.2189 0.0000 -15.3075 0.0000
# 4 0.0000 0.0000 0.0000 -9.0765 0.0000 -4.6945
# 5 -18.7512 2.1153 -15.3075 0.0000 43.4147 0.0000
# 6 0.0000 0.0000 0.0000 -4.6945 0.0000 13.3813
#
#
#
# Elastic Compliance Matrix: (Units=1/GPa)
#
#
# Indices 1 2 3 4 5 6 
#
# 1 0.011573 -0.000507 -0.002407 0.000000 0.004175 0.000000
# 2 -0.000507 0.028387 0.001831 0.000000 -0.000956 0.000000
# 3 -0.002407 0.001831 0.010427 0.000000 0.002548 0.000000
# 4 0.000000 0.000000 0.000000 -0.093254 0.000000 -0.032716
# 5 0.004175 -0.000956 0.002548 0.000000 0.025782 0.000000
# 6 0.000000 0.000000 0.000000 -0.032716 0.000000 0.063254
#
#
# Mechanical properties :
#
#
# Convention : Reuss Voigt Hill
#
# Bulk Modulus (GPa) = 20.73726 31.29787 26.01756
# Shear Modulus (GPa) = 77.63010 24.33621 50.98316
#
# Velocity S-wave (km/s) = 5.85141 3.27621 4.74197
# Velocity P-wave (km/s) = 7.40258 5.30240 6.43869
#
# Compressibility (1/GPa) = 0.04822239
#
# Stress axis : x y z
#
# Youngs Moduli (GPa) = 86.40632 35.22686 95.90924
#
# Poissons Ratio (x) = 0.01785 0.23082
# Poissons Ratio (y) = 0.04379 -0.17561
# Poissons Ratio (z) = 0.20795 -0.06450
#
# Static dielectric constant tensor:
#      x y z
#    x 1.849130 0.000000 0.006160 
#    y 0.000000 1.859680 0.000000 
#    z 0.006160 0.000000 1.828980 
# 
# From -- ./inp_files/89624.got.cif
#   From: 2010.05.17/outbox.cif.g08.bks.cpg/sg10_45_cif.got.tgz:89624.got - 2010.06.03 11:33:40.
