data_PCOD9147181
_publ_section_title
;
Structure prediction by ZEFSAII (Michael W. Deem and Ramdas Pophale) SiO2 
 PCOD9147181
Probable space group: P 2/M
;
_chemical_formula_sum "Si O2"
_cell_formula_units_Z 32
_cell_length_a 15.961668
_cell_length_b 15.359997
_cell_length_c 21.907099
_cell_angle_alpha 90.000000
_cell_angle_beta 162.279681
_cell_angle_gamma 90.000000
_cell_volume 1634.772734
_symmetry_space_group_name_H-M "P 2/M"
_symmetry_group_IT_number 10
_symmetry_cell_setting 'monoclinic'
loop_
_space_group_symop_operation_xyz
x,y,z
-x,y,-z
-x,-y,-z
x,-y,z
loop_
_atom_site_type_symbol
_atom_site_label
_atom_site_fract_x
_atom_site_fract_y
_atom_site_fract_z
Si Si1 0.131031 0.601234 0.412512
Si Si2 0.767505 0.716588 0.086591
Si Si3 0.590094 0.097183 0.370057
Si Si4 0.240078 0.597043 0.116685
Si Si5 0.321763 0.897489 0.315216
Si Si6 0.206113 0.144530 0.786174
Si Si7 0.843794 0.304469 0.328275
Si Si8 0.205194 0.779906 0.028464
O O1 0.056391 0.500000 0.359949
O O2 0.459751 0.608331 0.644898
O O3 0.011278 0.649749 0.270210
O O4 0.999238 0.645407 0.381653
O O5 0.780315 0.783148 0.151459
O O6 0.474263 0.667717 0.886068
O O7 0.785418 0.772047 0.037679
O O8 0.493677 0.116781 0.372390
O O9 0.463413 0.169791 0.237574
O O10 0.919432 0.096373 0.595000
O O11 0.486034 0.000000 0.282114
O O12 0.237459 0.500000 0.085748
O O13 0.197760 0.680123 0.044866
O O14 0.000000 0.598688 0.000000
O O15 0.500000 0.881866 0.500000
O O16 0.240656 0.000000 0.259565
O O17 0.059586 0.834649 0.133932
O O18 0.179758 0.202192 0.706402
O O19 0.500000 0.098101 0.000000
O O20 0.000000 0.316004 0.500000
#
# Coordination Sequence:
#
# PCOD9147181 Si02
#       8
#     4   4   4   4   4   4   4   4
#     4  10  21  38  58  82 116 153 191 242 299 349
#     4  10  21  35  56  84 113 151 193 237 286 346
#     4  11  22  37  59  87 118 151 193 245 294 346
#     4  10  22  39  58  82 113 150 193 240 287 342
#     4  10  22  39  60  90 123 153 193 244 294 347
#     4   9  19  36  56  78 112 154 193 234 286 344
#     4  10  19  34  57  85 114 148 194 242 290 344
#     4  12  22  36  61  86 116 155 195 236 295 353
#
# _framework density 19.574587000000001
#
# number of rings (size 3 to 8) (size 9 to 14) (size 15 to 20)
#    0.000    1.750    0.000    6.375    0.000    4.000 
#    0.000    0.625    0.000   10.500    0.000    0.000 
#    0.000    0.000    0.000    0.000    0.000    0.000 
#
# Total GULP energy -178580.681097 kJ/mol
# GULP energy per Si atom -5580.646284 kJ/mol
# Density = 1.953003 g / cm^3
# Si number density = 19.574587 Si / 1000 Ang^3
#
#
#
# Elastic Constant Matrix: (Units=GPa)
#
#
# Indices 1 2 3 4 5 6 
#
# 1 70.9001 24.7032 29.5625 0.0000 -9.0763 0.0000
# 2 24.7032 86.9622 50.5695 0.0000 -7.4125 0.0000
# 3 29.5625 50.5695 105.6969 0.0000 9.6900 0.0000
# 4 0.0000 0.0000 0.0000 102.2965 0.0000 -99.4304
# 5 -9.0763 -7.4125 9.6900 0.0000 38.4094 0.0000
# 6 0.0000 0.0000 0.0000 -99.4304 0.0000 132.0315
#
#
#
# Elastic Compliance Matrix: (Units=1/GPa)
#
#
# Indices 1 2 3 4 5 6 
#
# 1 0.017197 -0.001978 -0.004301 0.000000 0.004767 0.000000
# 2 -0.001978 0.017206 -0.008128 0.000000 0.004904 0.000000
# 3 -0.004301 -0.008128 0.015140 0.000000 -0.006404 0.000000
# 4 0.000000 0.000000 0.000000 0.036473 0.000000 0.027467
# 5 0.004767 0.004904 -0.006404 0.000000 0.029724 0.000000
# 6 0.000000 0.000000 0.000000 0.027467 0.000000 0.028259
#
#
# Mechanical properties :
#
#
# Convention : Reuss Voigt Hill
#
# Bulk Modulus (GPa) = 48.24143 52.58105 50.41124
# Shear Modulus (GPa) = 27.82078 65.12909 46.47493
#
# Velocity S-wave (km/s) = 3.77406 5.77447 4.87791
# Velocity P-wave (km/s) = 6.60983 8.44864 7.58516
#
# Compressibility (1/GPa) = 0.02072907
#
# Stress axis : x y z
#
# Youngs Moduli (GPa) = 58.15002 58.11998 66.05088
#
# Poissons Ratio (x) = 0.11496 0.28405
# Poissons Ratio (y) = 0.11502 0.53688
# Poissons Ratio (z) = 0.25007 0.47241
#
# Static dielectric constant tensor:
#      x y z
#    x 1.688450 0.000000 0.016130 
#    y 0.000000 1.696460 0.000000 
#    z 0.016130 0.000000 1.710250 
# 
# From -- ./inp_files/85426.got.cif
#   From: 2010.05.17/outbox.cif.g08.bks.cpg/sg10_43_cif.got.tgz:85426.got - 2010.06.03 11:33:40.
