data_PCOD9147879
_publ_section_title
;
Structure prediction by ZEFSAII (Michael W. Deem and Ramdas Pophale) SiO2 
 PCOD9147879
Probable space group: P 2/M
;
_chemical_formula_sum "Si O2"
_cell_formula_units_Z 24
_cell_length_a 14.315801
_cell_length_b 16.470249
_cell_length_c 9.114004
_cell_angle_alpha 90.000000
_cell_angle_beta 34.884327
_cell_angle_gamma 90.000000
_cell_volume 1229.027097
_symmetry_space_group_name_H-M "P 2/M"
_symmetry_group_IT_number 10
_symmetry_cell_setting 'monoclinic'
loop_
_space_group_symop_operation_xyz
x,y,z
-x,y,-z
-x,-y,-z
x,-y,z
loop_
_atom_site_type_symbol
_atom_site_label
_atom_site_fract_x
_atom_site_fract_y
_atom_site_fract_z
Si Si1 0.881505 0.288668 0.513205
Si Si2 0.625478 0.738105 0.474825
Si Si3 0.024359 0.000000 0.223780
Si Si4 0.881089 0.172617 0.961626
Si Si5 0.163107 0.595608 0.689798
Si Si6 0.273439 0.000000 0.183237
Si Si7 0.364980 0.177782 0.999361
O O1 0.857552 0.369155 0.448080
O O2 0.723621 0.241083 0.777641
O O3 0.000000 0.302749 0.500000
O O4 0.972223 0.227541 0.285303
O O5 0.500000 0.732906 0.500000
O O6 0.691034 0.649714 0.432346
O O7 0.532377 0.784649 0.724633
O O8 0.782831 0.788958 0.221234
O O9 0.060803 0.918420 0.090361
O O10 0.148516 0.000000 0.204367
O O11 0.843871 0.000000 0.524447
O O12 0.754262 0.172672 0.988510
O O13 0.196340 0.500000 0.646728
O O14 0.000000 0.608617 0.000000
O O15 0.369547 0.914870 0.050365
#
# Coordination Sequence:
#
# PCOD9147879 Si02
#       7
#     4   4   2   4   4   2   4
#     4  10  19  36  62  89 118 154 197 240 291 351
#     4  10  21  38  59  87 122 156 192 242 302 354
#     4   9  14  23  49  84 118 153 205 245 268 326
#     4   9  16  30  53  85 117 159 201 235 281 345
#     4  11  24  42  66  90 113 151 199 246 300 363
#     4   9  14  25  47  84 119 154 201 241 276 336
#     4   9  18  30  54  85 120 158 194 238 292 339
#
# _framework density 19.527640000000002
#
# number of rings (size 3 to 8) (size 9 to 14) (size 15 to 20)
#    0.000    2.333    3.333    0.000    0.000    2.000 
#    0.000    5.000    0.000    6.000    0.000    0.000 
#    0.000    0.000    0.000    0.000    0.000    0.000 
#
# Total GULP energy -133991.209170 kJ/mol
# GULP energy per Si atom -5582.967049 kJ/mol
# Density = 1.948319 g / cm^3
# Si number density = 19.527640 Si / 1000 Ang^3
#
#
#
# Elastic Constant Matrix: (Units=GPa)
#
#
# Indices 1 2 3 4 5 6 
#
# 1 78.1113 33.2915 30.2972 0.0000 18.1723 0.0000
# 2 33.2915 193.3008 100.5021 0.0000 4.0073 0.0000
# 3 30.2972 100.5021 172.5203 0.0000 5.7349 0.0000
# 4 0.0000 0.0000 0.0000 29.2788 0.0000 -3.3247
# 5 18.1723 4.0073 5.7349 0.0000 9.6476 0.0000
# 6 0.0000 0.0000 0.0000 -3.3247 0.0000 43.2920
#
#
#
# Elastic Compliance Matrix: (Units=1/GPa)
#
#
# Indices 1 2 3 4 5 6 
#
# 1 0.024945 -0.002673 -0.001325 0.000000 -0.045088 0.000000
# 2 -0.002673 0.007710 -0.004165 0.000000 0.004308 0.000000
# 3 -0.001325 -0.004165 0.008483 0.000000 -0.000817 0.000000
# 4 0.000000 0.000000 0.000000 0.034455 0.000000 0.002646
# 5 -0.045088 0.004308 -0.000817 0.000000 0.187277 0.000000
# 6 0.000000 0.000000 0.000000 0.002646 0.000000 0.023302
#
#
# Mechanical properties :
#
#
# Convention : Reuss Voigt Hill
#
# Bulk Modulus (GPa) = 40.30326 85.79043 63.04685
# Shear Modulus (GPa) = 16.08917 35.09982 25.59449
#
# Velocity S-wave (km/s) = 2.87351 4.24423 3.62426
# Velocity P-wave (km/s) = 5.62968 8.24901 7.06185
#
# Compressibility (1/GPa) = 0.02481189
#
# Stress axis : x y z
#
# Youngs Moduli (GPa) = 40.08844 129.70342 117.88652
#
# Poissons Ratio (x) = 0.34664 0.15620
# Poissons Ratio (y) = 0.10714 0.49103
# Poissons Ratio (z) = 0.05312 0.54025
#
# Static dielectric constant tensor:
#      x y z
#    x 1.743640 0.000000 0.002100 
#    y 0.000000 1.641530 0.000000 
#    z 0.002100 0.000000 1.658180 
# 
# From -- ./inp_files/29332.got.cif
#   From: 2010.05.17/outbox.cif.g08.bks.cpg/sg10_15_cif.got.tgz:29332.got - 2010.06.03 11:33:40.
