data_PCOD9147727
_publ_section_title
;
Structure prediction by ZEFSAII (Michael W. Deem and Ramdas Pophale) SiO2 
 PCOD9147727
Probable space group: P 2/M
;
_chemical_formula_sum "Si O2"
_cell_formula_units_Z 32
_cell_length_a 9.998844
_cell_length_b 13.902972
_cell_length_c 15.021824
_cell_angle_alpha 90.000000
_cell_angle_beta 120.456560
_cell_angle_gamma 90.000000
_cell_volume 1800.090273
_symmetry_space_group_name_H-M "P 2/M"
_symmetry_group_IT_number 10
_symmetry_cell_setting 'monoclinic'
loop_
_space_group_symop_operation_xyz
x,y,z
-x,y,-z
-x,-y,-z
x,-y,z
loop_
_atom_site_type_symbol
_atom_site_label
_atom_site_fract_x
_atom_site_fract_y
_atom_site_fract_z
Si Si1 0.834373 0.384035 0.911448
Si Si2 0.631533 0.112039 0.472080
Si Si3 0.318337 0.386785 0.956818
Si Si4 0.346840 0.290898 0.634779
Si Si5 0.989382 0.888468 0.603710
Si Si6 0.162401 0.291930 0.740810
Si Si7 0.337348 0.615686 0.320052
Si Si8 0.147557 0.386564 0.427942
O O1 0.848078 0.500000 0.906502
O O2 0.775028 0.348099 0.796648
O O3 0.716336 0.366010 0.951830
O O4 0.000000 0.347004 0.000000
O O5 0.500000 0.137550 0.500000
O O6 0.622424 0.181792 0.384520
O O7 0.807605 0.122479 0.567368
O O8 0.611211 0.000000 0.441640
O O9 0.276420 0.500000 0.926654
O O10 0.217155 0.320020 0.857627
O O11 0.500000 0.375822 0.000000
O O12 0.309305 0.304870 0.724950
O O13 0.491587 0.350352 0.646527
O O14 0.195013 0.328469 0.531185
O O15 0.092540 0.813171 0.693453
O O16 0.000000 0.871181 0.500000
O O17 0.034404 0.000000 0.632963
O O18 0.022712 0.362481 0.664856
O O19 0.336591 0.500000 0.319739
O O20 0.269913 0.644362 0.392670
O O21 0.162644 0.500000 0.449404
#
# Coordination Sequence:
#
# PCOD9147727 Si02
#       8
#     4   4   4   4   4   4   4   4
#     4   9  17  33  53  71  92 126 176 229 269 300
#     4  10  20  35  55  77 104 138 176 217 256 302
#     4  10  21  36  53  74 103 138 180 231 272 306
#     4  12  22  33  49  75 111 145 172 207 257 319
#     4  10  19  36  57  79 109 141 175 215 262 317
#     4  12  22  34  52  79 105 140 182 218 262 316
#     4  10  21  35  52  73 102 142 181 217 264 318
#     4  11  22  34  48  73 109 145 177 213 256 313
#
# _framework density 17.776885
#
# number of rings (size 3 to 8) (size 9 to 14) (size 15 to 20)
#    0.000    1.500    2.500    3.750    0.000    6.500 
#    0.000    0.000    0.000    0.375    0.000    0.875 
#    0.000    2.000    0.000    0.000    0.000    0.000 
#
# Total GULP energy -178657.321514 kJ/mol
# GULP energy per Si atom -5583.041297 kJ/mol
# Density = 1.773642 g / cm^3
# Si number density = 17.776885 Si / 1000 Ang^3
#
#
#
# Elastic Constant Matrix: (Units=GPa)
#
#
# Indices 1 2 3 4 5 6 
#
# 1 73.7951 3.2517 -12.3998 0.0000 4.4054 0.0000
# 2 3.2517 59.3612 10.0544 0.0000 -3.2154 0.0000
# 3 -12.3998 10.0544 53.0716 0.0000 2.2698 0.0000
# 4 0.0000 0.0000 0.0000 15.8906 0.0000 4.2948
# 5 4.4054 -3.2154 2.2698 0.0000 18.6465 0.0000
# 6 0.0000 0.0000 0.0000 4.2948 0.0000 16.2970
#
#
#
# Elastic Compliance Matrix: (Units=1/GPa)
#
#
# Indices 1 2 3 4 5 6 
#
# 1 0.014530 -0.001683 0.003893 0.000000 -0.004197 0.000000
# 2 -0.001683 0.017819 -0.003938 0.000000 0.003950 0.000000
# 3 0.003893 -0.003938 0.020674 0.000000 -0.004115 0.000000
# 4 0.000000 0.000000 0.000000 0.067756 0.000000 -0.017856
# 5 -0.004197 0.003950 -0.004115 0.000000 0.055803 0.000000
# 6 0.000000 0.000000 0.000000 -0.017856 0.000000 0.066066
#
#
# Mechanical properties :
#
#
# Convention : Reuss Voigt Hill
#
# Bulk Modulus (GPa) = 20.17422 20.89337 20.53380
# Shear Modulus (GPa) = 19.03845 22.52159 20.78002
#
# Velocity S-wave (km/s) = 3.27611 3.56322 3.42268
# Velocity P-wave (km/s) = 5.06791 5.35792 5.21494
#
# Compressibility (1/GPa) = 0.04956822
#
# Stress axis : x y z
#
# Youngs Moduli (GPa) = 68.82370 56.11948 48.36968
#
# Poissons Ratio (x) = 0.09443 -0.18831
# Poissons Ratio (y) = 0.11581 0.19047
# Poissons Ratio (z) = -0.26794 0.22099
#
# Static dielectric constant tensor:
#      x y z
#    x 1.643720 0.000000 0.009460 
#    y 0.000000 1.610590 0.000000 
#    z 0.009460 0.000000 1.589580 
# 
# From -- ./inp_files/29550.got.cif
#   From: 2010.05.17/outbox.cif.g08.bks.cpg/sg10_15_cif.got.tgz:29550.got - 2010.06.03 11:33:40.
