data_PCOD9147522
_publ_section_title
;
Structure prediction by ZEFSAII (Michael W. Deem and Ramdas Pophale) SiO2 
 PCOD9147522
Probable space group: P 2/M
;
_chemical_formula_sum "Si O2"
_cell_formula_units_Z 32
_cell_length_a 22.373215
_cell_length_b 8.695691
_cell_length_c 29.368053
_cell_angle_alpha 90.000000
_cell_angle_beta 162.740073
_cell_angle_gamma 90.000000
_cell_volume 1695.256802
_symmetry_space_group_name_H-M "P 2/M"
_symmetry_group_IT_number 10
_symmetry_cell_setting 'monoclinic'
loop_
_space_group_symop_operation_xyz
x,y,z
-x,y,-z
-x,-y,-z
x,-y,z
loop_
_atom_site_type_symbol
_atom_site_label
_atom_site_fract_x
_atom_site_fract_y
_atom_site_fract_z
Si Si1 0.053984 0.816175 0.758095
Si Si2 0.520765 0.685713 0.961783
Si Si3 0.187522 0.684313 0.503237
Si Si4 0.391394 0.317516 0.316232
Si Si5 0.944888 0.814623 0.864802
Si Si6 0.913019 0.687514 0.388560
Si Si7 0.213478 0.814717 0.350435
Si Si8 0.397751 0.816257 0.219396
O O1 0.914632 0.749045 0.616704
O O2 0.954878 0.774354 0.734382
O O3 0.054338 0.000000 0.754919
O O4 0.278308 0.754224 0.913628
O O5 0.535347 0.500000 0.970769
O O6 0.316339 0.734795 0.787864
O O7 0.500000 0.728441 0.000000
O O8 0.182981 0.500000 0.497849
O O9 0.415939 0.741523 0.671404
O O10 0.055062 0.734996 0.450067
O O11 0.396364 0.500000 0.314253
O O12 0.188125 0.264344 0.193240
O O13 0.578734 0.262812 0.483356
O O14 0.408169 0.238929 0.279194
O O15 0.858248 0.772609 0.752239
O O16 0.927310 0.000000 0.857107
O O17 0.179403 0.774377 0.040656
O O18 0.913113 0.500000 0.388875
O O19 0.000000 0.740285 0.500000
O O20 0.241689 0.000000 0.372109
O O21 0.418510 0.000000 0.233220
#
# Coordination Sequence:
#
# PCOD9147522 Si02
#       8
#     4   4   4   4   4   4   4   4
#     4  11  22  36  59  88 117 152 196 242 291 347
#     4  10  19  35  58  84 113 150 192 237 286 338
#     4  11  21  37  61  87 117 153 196 244 292 346
#     4  12  24  38  61  91 120 153 198 249 295 347
#     4  10  23  42  62  84 118 160 198 240 298 360
#     4   9  19  36  58  85 118 155 192 232 290 353
#     4  10  22  41  62  85 117 159 199 241 298 359
#     4  11  23  40  62  88 118 158 201 241 294 358
#
# _framework density 18.876194999999999
#
# number of rings (size 3 to 8) (size 9 to 14) (size 15 to 20)
#    0.000    1.500    2.500    3.000    0.000    6.250 
#    0.000    0.000    0.000    2.625    0.000    0.000 
#    0.000    0.000    0.000    0.000    0.000    0.000 
#
# Total GULP energy -178878.701060 kJ/mol
# GULP energy per Si atom -5589.959408 kJ/mol
# Density = 1.883323 g / cm^3
# Si number density = 18.876195 Si / 1000 Ang^3
#
#
#
# Elastic Constant Matrix: (Units=GPa)
#
#
# Indices 1 2 3 4 5 6 
#
# 1 29.4576 6.8871 -5.9708 0.0000 12.2281 0.0000
# 2 6.8871 20.8415 14.2818 0.0000 6.5292 0.0000
# 3 -5.9708 14.2818 94.3875 0.0000 11.0305 0.0000
# 4 0.0000 0.0000 0.0000 35.1713 0.0000 11.4342
# 5 12.2281 6.5292 11.0305 0.0000 40.7912 0.0000
# 6 0.0000 0.0000 0.0000 11.4342 0.0000 18.8539
#
#
#
# Elastic Compliance Matrix: (Units=1/GPa)
#
#
# Indices 1 2 3 4 5 6 
#
# 1 0.044006 -0.015089 0.006533 0.000000 -0.012543 0.000000
# 2 -0.015089 0.060476 -0.009813 0.000000 -0.002503 0.000000
# 3 0.006533 -0.009813 0.012947 0.000000 -0.003889 0.000000
# 4 0.000000 0.000000 0.000000 0.035415 0.000000 -0.021478
# 5 -0.012543 -0.002503 -0.003889 0.000000 0.029727 0.000000
# 6 0.000000 0.000000 0.000000 -0.021478 0.000000 0.066065
#
#
# Mechanical properties :
#
#
# Convention : Reuss Voigt Hill
#
# Bulk Modulus (GPa) = 12.39296 19.45365 15.92331
# Shear Modulus (GPa) = 16.01182 27.59585 21.80384
#
# Velocity S-wave (km/s) = 2.91564 3.82768 3.40236
# Velocity P-wave (km/s) = 4.23252 5.46472 4.88761
#
# Compressibility (1/GPa) = 0.08069095
#
# Stress axis : x y z
#
# Youngs Moduli (GPa) = 22.72441 16.53559 77.23763
#
# Poissons Ratio (x) = 0.24950 -0.50457
# Poissons Ratio (y) = 0.34288 0.75790
# Poissons Ratio (z) = -0.14845 0.16226
#
# Static dielectric constant tensor:
#      x y z
#    x 1.629380 0.000000 0.002610 
#    y 0.000000 1.638120 0.000000 
#    z 0.002610 0.000000 1.638080 
# 
# From -- ./inp_files/93744.got.cif
#   From: 2010.05.17/outbox.cif.g08.bks.cpg/sg10_47_cif.got.tgz:93744.got - 2010.06.03 11:33:40.
