data_PCOD9147511
_publ_section_title
;
Structure prediction by ZEFSAII (Michael W. Deem and Ramdas Pophale) SiO2 
 PCOD9147511
Probable space group: P 2/M
;
_chemical_formula_sum "Si O2"
_cell_formula_units_Z 32
_cell_length_a 11.275117
_cell_length_b 14.441004
_cell_length_c 10.034633
_cell_angle_alpha 90.000000
_cell_angle_beta 88.050358
_cell_angle_gamma 90.000000
_cell_volume 1632.933352
_symmetry_space_group_name_H-M "P 2/M"
_symmetry_group_IT_number 10
_symmetry_cell_setting 'monoclinic'
loop_
_space_group_symop_operation_xyz
x,y,z
-x,y,-z
-x,-y,-z
x,-y,z
loop_
_atom_site_type_symbol
_atom_site_label
_atom_site_fract_x
_atom_site_fract_y
_atom_site_fract_z
Si Si1 0.174740 0.894039 0.740895
Si Si2 0.599288 0.780597 0.180629
Si Si3 0.736594 0.711369 0.946965
Si Si4 0.840340 0.103952 0.574830
Si Si5 0.465031 0.603916 0.158535
Si Si6 0.560778 0.892098 0.634014
Si Si7 0.962417 0.775568 0.779976
Si Si8 0.092665 0.395879 0.873242
O O1 0.286605 0.826852 0.755369
O O2 0.148088 0.894297 0.584272
O O3 0.061824 0.850010 0.819660
O O4 0.200095 0.000000 0.780112
O O5 0.556312 0.676721 0.218567
O O6 0.490568 0.842189 0.235123
O O7 0.640527 0.775502 0.025110
O O8 0.665974 0.649600 0.842431
O O9 0.849015 0.763021 0.880111
O O10 0.790181 0.646083 0.062117
O O11 0.701580 0.114460 0.614880
O O12 0.910438 0.184726 0.645322
O O13 0.878132 0.000000 0.619029
O O14 0.466561 0.500000 0.212317
O O15 0.500000 0.598721 0.000000
O O16 0.500000 0.855219 0.500000
O O17 0.527393 0.000000 0.643606
O O18 0.033247 0.678183 0.776099
O O19 0.110683 0.500000 0.821430
O O20 0.000000 0.400884 0.000000
#
# Coordination Sequence:
#
# PCOD9147511 Si02
#       8
#     4   4   4   4   4   4   4   4
#     4  11  22  38  59  84 115 156 201 242 282 333
#     4  11  20  35  58  90 116 149 187 238 291 344
#     4  10  20  36  58  86 121 149 185 231 290 351
#     4  10  21  38  61  84 109 148 199 247 284 331
#     4   9  19  35  59  88 117 150 191 237 287 345
#     4  10  19  35  58  83 108 142 194 241 283 334
#     4  11  21  36  56  87 117 152 194 237 281 342
#     4   9  18  33  56  83 111 147 191 232 277 337
#
# _framework density 19.596636
#
# number of rings (size 3 to 8) (size 9 to 14) (size 15 to 20)
#    0.000    1.875    2.500    2.250    0.000    2.000 
#    0.000    3.125    0.000   17.625    0.000    0.000 
#    0.000    0.000    0.000    0.000    0.000    0.000 
#
# Total GULP energy -178402.774054 kJ/mol
# GULP energy per Si atom -5575.086689 kJ/mol
# Density = 1.955203 g / cm^3
# Si number density = 19.596636 Si / 1000 Ang^3
#
#
#
# Elastic Constant Matrix: (Units=GPa)
#
#
# Indices 1 2 3 4 5 6 
#
# 1 117.1299 66.1215 29.4518 0.0000 -13.2875 0.0000
# 2 66.1215 146.4279 49.7888 0.0000 11.9782 0.0000
# 3 29.4518 49.7888 35.4597 0.0000 2.1093 0.0000
# 4 0.0000 0.0000 0.0000 -51.9829 0.0000 20.8220
# 5 -13.2875 11.9782 2.1093 0.0000 37.5555 0.0000
# 6 0.0000 0.0000 0.0000 20.8220 0.0000 18.7011
#
#
#
# Elastic Compliance Matrix: (Units=1/GPa)
#
#
# Indices 1 2 3 4 5 6 
#
# 1 0.013195 -0.005039 -0.004272 0.000000 0.006516 0.000000
# 2 -0.005039 0.015375 -0.017061 0.000000 -0.005728 0.000000
# 3 -0.004272 -0.017061 0.055657 0.000000 0.000804 0.000000
# 4 0.000000 0.000000 0.000000 -0.013304 0.000000 0.014813
# 5 0.006516 -0.005728 0.000804 0.000000 0.030714 0.000000
# 6 0.000000 0.000000 0.000000 0.014813 0.000000 0.036980
#
#
# Mechanical properties :
#
#
# Convention : Reuss Voigt Hill
#
# Bulk Modulus (GPa) = 31.76384 65.52683 48.64533
# Shear Modulus (GPa) = 24.76996 11.09845 17.93420
#
# Velocity S-wave (km/s) = 3.55912 2.38238 3.02846
# Velocity P-wave (km/s) = 5.75620 6.40922 6.09146
#
# Compressibility (1/GPa) = 0.03148234
#
# Stress axis : x y z
#
# Youngs Moduli (GPa) = 75.78349 65.04253 17.96708
#
# Poissons Ratio (x) = 0.32775 0.07676
# Poissons Ratio (y) = 0.38187 0.30654
# Poissons Ratio (z) = 0.32376 1.10972
#
# Static dielectric constant tensor:
#      x y z
#    x 1.749720 0.000000 0.015810 
#    y 0.000000 1.717680 0.000000 
#    z 0.015810 0.000000 1.686290 
# 
# From -- ./inp_files/46691.got.cif
#   From: 2010.05.17/outbox.cif.g08.bks.cpg/sg10_24_cif.got.tgz:46691.got - 2010.06.03 11:33:40.
