data_PCOD9147223
_publ_section_title
;
Structure prediction by ZEFSAII (Michael W. Deem and Ramdas Pophale) SiO2 
 PCOD9147223
Probable space group: P 2/M
;
_chemical_formula_sum "Si O2"
_cell_formula_units_Z 32
_cell_length_a 11.202154
_cell_length_b 18.959549
_cell_length_c 8.699782
_cell_angle_alpha 90.000000
_cell_angle_beta 58.760990
_cell_angle_gamma 90.000000
_cell_volume 1579.827965
_symmetry_space_group_name_H-M "P 2/M"
_symmetry_group_IT_number 10
_symmetry_cell_setting 'monoclinic'
loop_
_space_group_symop_operation_xyz
x,y,z
-x,y,-z
-x,-y,-z
x,-y,z
loop_
_atom_site_type_symbol
_atom_site_label
_atom_site_fract_x
_atom_site_fract_y
_atom_site_fract_z
Si Si1 0.206771 0.082445 0.073362
Si Si2 0.058727 0.576383 0.789696
Si Si3 0.660896 0.140469 0.702084
Si Si4 0.582484 0.918647 0.302019
Si Si5 0.376258 0.700969 0.201277
Si Si6 0.946828 0.856572 0.357913
Si Si7 0.370755 0.582591 0.471484
Si Si8 0.932998 0.290915 0.712289
O O1 0.273070 0.122663 0.175732
O O2 0.040109 0.090470 0.197523
O O3 0.242377 0.000000 0.063263
O O4 0.276830 0.110251 0.869406
O O5 0.029835 0.500000 0.734355
O O6 0.224574 0.588235 0.661565
O O7 0.979317 0.640042 0.766746
O O8 0.000000 0.573189 0.000000
O O9 0.534014 0.088429 0.752922
O O10 0.606938 0.221016 0.736466
O O11 0.782523 0.133261 0.491467
O O12 0.500000 0.884381 0.500000
O O13 0.611108 0.000000 0.325315
O O14 0.367585 0.639244 0.334848
O O15 0.231874 0.709137 0.203547
O O16 0.500000 0.686624 0.000000
O O17 0.000000 0.862253 0.500000
O O18 0.997541 0.779824 0.266448
O O19 0.500000 0.596193 0.500000
O O20 0.382127 0.500000 0.411661
O O21 0.000000 0.294714 0.500000
#
# Coordination Sequence:
#
# PCOD9147223 Si02
#       8
#     4   4   4   4   4   4   4   4
#     4  10  19  34  58  84 110 146 188 230 282 338
#     4  10  22  39  63  89 115 156 200 240 291 352
#     4  11  20  36  58  84 113 145 187 236 286 343
#     4  10  22  38  54  78 115 153 190 235 282 337
#     4  12  24  37  61  91 118 155 196 244 298 350
#     4   9  18  34  56  83 113 142 180 238 289 330
#     4  10  23  43  60  83 123 159 195 244 294 349
#     4  11  19  40  60  83 121 152 191 250 293 342
#
# _framework density 20.255371
#
# number of rings (size 3 to 8) (size 9 to 14) (size 15 to 20)
#    0.000    1.625    5.000    1.500    1.750    5.250 
#    0.000    3.125    0.000    2.250    0.000    0.000 
#    0.000    0.000    0.000    0.000    0.000    0.000 
#
# Total GULP energy -178412.907290 kJ/mol
# GULP energy per Si atom -5575.403353 kJ/mol
# Density = 2.020927 g / cm^3
# Si number density = 20.255371 Si / 1000 Ang^3
#
#
#
# Elastic Constant Matrix: (Units=GPa)
#
#
# Indices 1 2 3 4 5 6 
#
# 1 22.8821 7.3777 15.2545 0.0000 -16.2272 0.0000
# 2 7.3777 82.1235 32.3798 0.0000 -0.0902 0.0000
# 3 15.2545 32.3798 157.0326 0.0000 -30.5510 0.0000
# 4 0.0000 0.0000 0.0000 30.8156 0.0000 -0.6809
# 5 -16.2272 -0.0902 -30.5510 0.0000 24.6019 0.0000
# 6 0.0000 0.0000 0.0000 -0.6809 0.0000 20.6605
#
#
#
# Elastic Compliance Matrix: (Units=1/GPa)
#
#
# Indices 1 2 3 4 5 6 
#
# 1 0.091250 -0.010750 0.006665 0.000000 0.068424 0.000000
# 2 -0.010750 0.014894 -0.004477 0.000000 -0.012596 0.000000
# 3 0.006665 -0.004477 0.009884 0.000000 0.016653 0.000000
# 4 0.000000 0.000000 0.000000 0.032475 0.000000 0.001070
# 5 0.068424 -0.012596 0.016653 0.000000 0.106414 0.000000
# 6 0.000000 0.000000 0.000000 0.001070 0.000000 0.048437
#
#
# Mechanical properties :
#
#
# Convention : Reuss Voigt Hill
#
# Bulk Modulus (GPa) = 10.11107 41.34024 25.72566
# Shear Modulus (GPa) = 14.14642 29.01735 21.58189
#
# Velocity S-wave (km/s) = 2.64560 3.78904 3.26773
# Velocity P-wave (km/s) = 3.78615 6.29256 5.19284
#
# Compressibility (1/GPa) = 0.09890146
#
# Stress axis : x y z
#
# Youngs Moduli (GPa) = 10.95896 67.14067 101.17452
#
# Poissons Ratio (x) = 0.72177 -0.67429
# Poissons Ratio (y) = 0.11781 0.45301
# Poissons Ratio (z) = -0.07304 0.30062
#
# Static dielectric constant tensor:
#      x y z
#    x 1.723670 0.000000 -0.016330 
#    y 0.000000 1.780080 0.000000 
#    z -0.016330 0.000000 1.760110 
# 
# From -- ./inp_files/26042.got.cif
#   From: 2010.05.17/outbox.cif.g08.bks.cpg/sg10_14_cif.got.tgz:26042.got - 2010.06.03 11:33:40.
