data_PCOD9147663
_publ_section_title
;
Structure prediction by ZEFSAII (Michael W. Deem and Ramdas Pophale) SiO2 
 PCOD9147663
Probable space group: P 2/M
;
_chemical_formula_sum "Si O2"
_cell_formula_units_Z 32
_cell_length_a 11.417105
_cell_length_b 8.784906
_cell_length_c 15.012774
_cell_angle_alpha 90.000000
_cell_angle_beta 80.305672
_cell_angle_gamma 90.000000
_cell_volume 1484.252170
_symmetry_space_group_name_H-M "P 2/M"
_symmetry_group_IT_number 10
_symmetry_cell_setting 'monoclinic'
loop_
_space_group_symop_operation_xyz
x,y,z
-x,y,-z
-x,-y,-z
x,-y,z
loop_
_atom_site_type_symbol
_atom_site_label
_atom_site_fract_x
_atom_site_fract_y
_atom_site_fract_z
Si Si1 0.521496 0.818292 0.392608
Si Si2 0.282681 0.817501 0.883723
Si Si3 0.718364 0.680978 0.629982
Si Si4 0.109563 0.317535 0.546663
Si Si5 0.472485 0.320455 0.108892
Si Si6 0.111670 0.681729 0.046680
Si Si7 0.780481 0.181013 0.801752
Si Si8 0.786203 0.182547 0.299066
O O1 0.500000 0.789028 0.500000
O O2 0.417279 0.735507 0.352448
O O3 0.653713 0.771216 0.348170
O O4 0.510967 0.000000 0.378825
O O5 0.418124 0.762928 0.856855
O O6 0.208522 0.773662 0.805053
O O7 0.279642 0.000000 0.894518
O O8 0.225322 0.736460 0.975734
O O9 0.725542 0.500000 0.639522
O O10 0.775210 0.722447 0.527473
O O11 0.791099 0.758219 0.700163
O O12 0.102452 0.500000 0.555177
O O13 0.121383 0.250147 0.643110
O O14 0.000000 0.265391 0.500000
O O15 0.469401 0.500000 0.131065
O O16 0.346821 0.246127 0.148825
O O17 0.500000 0.305580 0.000000
O O18 0.112572 0.500000 0.056183
O O19 0.121524 0.757305 0.142006
O O20 0.000000 0.727393 0.000000
O O21 0.779137 0.000000 0.803629
O O22 0.792891 0.000000 0.302827
#
# Coordination Sequence:
#
# PCOD9147663 Si02
#       8
#     4   4   4   4   4   4   4   4
#     4  10  19  35  61  90 124 161 197 242 302 364
#     4  11  23  39  63  95 129 163 203 250 306 368
#     4  11  23  39  62  91 124 160 203 252 304 366
#     4  10  23  42  62  86 118 159 206 253 300 354
#     4  11  22  38  64  95 128 163 202 247 303 368
#     4  11  25  45  66  88 119 161 209 260 310 362
#     4  12  25  41  65  93 125 162 203 253 310 371
#     4  10  22  39  60  90 123 157 197 244 298 359
#
# _framework density 21.559678999999999
#
# number of rings (size 3 to 8) (size 9 to 14) (size 15 to 20)
#    0.000    1.250    2.500    3.375    0.000    6.000 
#    0.000    3.750    0.000    0.000    0.000    0.000 
#    0.000    0.000    0.000    0.000    0.000    0.000 
#
# Total GULP energy -179050.061248 kJ/mol
# GULP energy per Si atom -5595.314414 kJ/mol
# Density = 2.151061 g / cm^3
# Si number density = 21.559679 Si / 1000 Ang^3
#
#
#
# Elastic Constant Matrix: (Units=GPa)
#
#
# Indices 1 2 3 4 5 6 
#
# 1 63.6416 7.6708 5.3873 0.0000 31.8402 0.0000
# 2 7.6708 30.5323 23.9626 0.0000 17.3605 0.0000
# 3 5.3873 23.9626 88.3163 0.0000 36.0096 0.0000
# 4 0.0000 0.0000 0.0000 61.6545 0.0000 50.5901
# 5 31.8402 17.3605 36.0096 0.0000 41.3981 0.0000
# 6 0.0000 0.0000 0.0000 50.5901 0.0000 -121.1000
#
#
#
# Elastic Compliance Matrix: (Units=1/GPa)
#
#
# Indices 1 2 3 4 5 6 
#
# 1 0.033116 0.003350 0.012441 0.000000 -0.037697 0.000000
# 2 0.003350 0.046055 -0.005850 0.000000 -0.016802 0.000000
# 3 0.012441 -0.005850 0.023325 0.000000 -0.027405 0.000000
# 4 0.000000 0.000000 0.000000 0.012079 0.000000 0.005046
# 5 -0.037697 -0.016802 -0.027405 0.000000 0.084034 0.000000
# 6 0.000000 0.000000 0.000000 0.005046 0.000000 -0.006150
#
#
# Mechanical properties :
#
#
# Convention : Reuss Voigt Hill
#
# Bulk Modulus (GPa) = 8.17123 28.50349 18.33736
# Shear Modulus (GPa) = 23.43365 6.08848 14.76107
#
# Velocity S-wave (km/s) = 3.30042 1.68230 2.61944
# Velocity P-wave (km/s) = 4.28042 4.12589 4.20387
#
# Compressibility (1/GPa) = 0.12238056
#
# Stress axis : x y z
#
# Youngs Moduli (GPa) = 30.19664 21.71323 42.87223
#
# Poissons Ratio (x) = -0.07274 -0.53339
# Poissons Ratio (y) = -0.10117 0.25078
# Poissons Ratio (z) = -0.37569 0.12701
#
# Static dielectric constant tensor:
#      x y z
#    x 1.797320 0.000000 0.000930 
#    y 0.000000 1.713300 0.000000 
#    z 0.000930 0.000000 1.786370 
# 
# From -- ./inp_files/63787.got.cif
#   From: 2010.05.17/outbox.cif.g08.bks.cpg/sg10_32_cif.got.tgz:63787.got - 2010.06.03 11:33:40.
