data_PCOD9147726
_publ_section_title
;
Structure prediction by ZEFSAII (Michael W. Deem and Ramdas Pophale) SiO2 
 PCOD9147726
Probable space group: P 2/M
;
_chemical_formula_sum "Si O2"
_cell_formula_units_Z 32
_cell_length_a 11.879805
_cell_length_b 8.950600
_cell_length_c 33.891837
_cell_angle_alpha 90.000000
_cell_angle_beta 29.670109
_cell_angle_gamma 90.000000
_cell_volume 1783.883716
_symmetry_space_group_name_H-M "P 2/M"
_symmetry_group_IT_number 10
_symmetry_cell_setting 'monoclinic'
loop_
_space_group_symop_operation_xyz
x,y,z
-x,y,-z
-x,-y,-z
x,-y,z
loop_
_atom_site_type_symbol
_atom_site_label
_atom_site_fract_x
_atom_site_fract_y
_atom_site_fract_z
Si Si1 0.322469 0.170883 0.517405
Si Si2 0.981073 0.179710 0.685581
Si Si3 0.809443 0.321390 0.154076
Si Si4 0.326032 0.677312 0.642895
Si Si5 0.137512 0.177582 0.777028
Si Si6 0.455190 0.822359 0.834402
Si Si7 0.347526 0.323853 0.085303
Si Si8 0.729095 0.677075 0.033693
O O1 0.500000 0.169706 0.500000
O O2 0.438088 0.272585 0.449360
O O3 0.090378 0.218194 0.609597
O O4 0.302620 0.000000 0.509151
O O5 0.715111 0.213553 0.766919
O O6 0.124681 0.261857 0.675602
O O7 0.012462 0.000000 0.681133
O O8 0.798045 0.500000 0.161907
O O9 0.618142 0.260825 0.182935
O O10 0.803038 0.244723 0.198475
O O11 0.049985 0.285391 0.059449
O O12 0.310898 0.500000 0.650253
O O13 0.290336 0.752255 0.696049
O O14 0.878087 0.226488 0.846762
O O15 0.156712 0.000000 0.771307
O O16 0.295946 0.767418 0.918535
O O17 0.436750 0.000000 0.834728
O O18 0.282982 0.500000 0.104496
O O19 0.507821 0.296363 0.073966
O O20 0.500000 0.297153 0.000000
O O21 0.740320 0.500000 0.039448
#
# Coordination Sequence:
#
# PCOD9147726 Si02
#       8
#     4   4   4   4   4   4   4   4
#     4   8  15  31  54  79 111 147 176 210 266 327
#     4   9  19  36  56  81 115 148 177 217 271 326
#     4  11  23  41  58  74 102 144 188 228 276 324
#     4  11  21  33  54  85 116 144 179 221 268 321
#     4  12  24  37  55  80 110 144 184 225 272 325
#     4  11  23  37  55  81 109 139 182 230 270 315
#     4  10  19  36  57  79 108 142 178 219 270 324
#     4  10  21  37  57  78 105 143 183 223 272 325
#
# _framework density 17.938389000000001
#
# number of rings (size 3 to 8) (size 9 to 14) (size 15 to 20)
#    0.000    1.750    1.250    4.875    0.000    8.500 
#    0.000    0.000    0.000    0.750    0.000    5.250 
#    0.000    0.000    0.000    0.000    0.000    0.000 
#
# Total GULP energy -178767.792962 kJ/mol
# GULP energy per Si atom -5586.493530 kJ/mol
# Density = 1.789756 g / cm^3
# Si number density = 17.938389 Si / 1000 Ang^3
#
#
#
# Elastic Constant Matrix: (Units=GPa)
#
#
# Indices 1 2 3 4 5 6 
#
# 1 58.0656 44.3040 40.5645 0.0000 16.4684 0.0000
# 2 44.3040 85.3357 55.9327 0.0000 19.3561 0.0000
# 3 40.5645 55.9327 102.4701 0.0000 27.2477 0.0000
# 4 0.0000 0.0000 0.0000 26.8997 0.0000 3.3722
# 5 16.4684 19.3561 27.2477 0.0000 18.3933 0.0000
# 6 0.0000 0.0000 0.0000 3.3722 0.0000 28.7268
#
#
#
# Elastic Compliance Matrix: (Units=1/GPa)
#
#
# Indices 1 2 3 4 5 6 
#
# 1 0.031589 -0.011846 -0.003024 0.000000 -0.011336 0.000000
# 2 -0.011846 0.023310 -0.007147 0.000000 -0.003336 0.000000
# 3 -0.003024 -0.007147 0.020026 0.000000 -0.019438 0.000000
# 4 0.000000 0.000000 0.000000 0.037730 0.000000 -0.004429
# 5 -0.011336 -0.003336 -0.019438 0.000000 0.096823 0.000000
# 6 0.000000 0.000000 0.000000 -0.004429 0.000000 0.035331
#
#
# Mechanical properties :
#
#
# Convention : Reuss Voigt Hill
#
# Bulk Modulus (GPa) = 32.37369 58.60823 45.49096
# Shear Modulus (GPa) = 16.71462 21.80863 19.26162
#
# Velocity S-wave (km/s) = 3.05582 3.49055 3.28039
# Velocity P-wave (km/s) = 5.52603 6.99915 6.30576
#
# Compressibility (1/GPa) = 0.03088929
#
# Stress axis : x y z
#
# Youngs Moduli (GPa) = 31.65708 42.90045 49.93562
#
# Poissons Ratio (x) = 0.50822 0.15101
# Poissons Ratio (y) = 0.37502 0.35688
# Poissons Ratio (z) = 0.09573 0.30660
#
# Static dielectric constant tensor:
#      x y z
#    x 1.594580 0.000000 -0.001730 
#    y 0.000000 1.596790 0.000000 
#    z -0.001730 0.000000 1.628970 
# 
# From -- ./inp_files/94944.got.cif
#   From: 2010.05.17/outbox.cif.g08.bks.cpg/sg10_48_cif.got.tgz:94944.got - 2010.06.03 11:33:40.
