data_PCOD9147010
_publ_section_title
;
Structure prediction by ZEFSAII (Michael W. Deem and Ramdas Pophale) SiO2 
 PCOD9147010
Probable space group: P 2/M
;
_chemical_formula_sum "Si O2"
_cell_formula_units_Z 32
_cell_length_a 11.683704
_cell_length_b 8.628276
_cell_length_c 20.518680
_cell_angle_alpha 90.000000
_cell_angle_beta 53.861770
_cell_angle_gamma 90.000000
_cell_volume 1670.507610
_symmetry_space_group_name_H-M "P 2/M"
_symmetry_group_IT_number 10
_symmetry_cell_setting 'monoclinic'
loop_
_space_group_symop_operation_xyz
x,y,z
-x,y,-z
-x,-y,-z
x,-y,z
loop_
_atom_site_type_symbol
_atom_site_label
_atom_site_fract_x
_atom_site_fract_y
_atom_site_fract_z
Si Si1 0.936708 0.186894 0.122507
Si Si2 0.897685 0.685199 0.276087
Si Si3 0.854301 0.685974 0.582923
Si Si4 0.175660 0.686743 0.254442
Si Si5 0.780062 0.186247 0.041077
Si Si6 0.487078 0.314521 0.170279
Si Si7 0.605614 0.187139 0.407003
Si Si8 0.449873 0.815085 0.327427
O O1 0.884518 0.262491 0.205944
O O2 0.842523 0.229015 0.091340
O O3 0.930961 0.000000 0.130405
O O4 0.098711 0.232441 0.051028
O O5 0.896527 0.500000 0.280924
O O6 0.763997 0.749782 0.360447
O O7 0.048558 0.745681 0.252406
O O8 0.836982 0.500000 0.580315
O O9 0.861624 0.717231 0.657638
O O10 0.713225 0.768752 0.604868
O O11 0.000000 0.733427 0.500000
O O12 0.179404 0.500000 0.245199
O O13 0.336998 0.742708 0.191107
O O14 0.625332 0.256593 0.086485
O O15 0.770578 0.000000 0.042751
O O16 0.484976 0.500000 0.171718
O O17 0.491955 0.257956 0.243847
O O18 0.500000 0.237294 0.500000
O O19 0.543564 0.236175 0.357450
O O20 0.610198 0.000000 0.405961
O O21 0.462922 0.000000 0.316919
#
# Coordination Sequence:
#
# PCOD9147010 Si02
#       8
#     4   4   4   4   4   4   4   4
#     4   9  19  36  56  80 111 146 174 210 268 320
#     4  11  22  36  56  79 107 140 179 221 261 316
#     4   9  18  33  55  76  99 133 173 220 269 311
#     4   8  18  35  50  73 106 140 174 214 267 318
#     4   9  18  34  57  82 109 139 177 219 261 313
#     4  10  19  34  56  79 107 140 175 219 269 314
#     4  10  23  40  54  73 106 144 176 214 268 321
#     4  10  20  34  52  75 104 135 173 218 261 313
#
# _framework density 19.155854000000001
#
# number of rings (size 3 to 8) (size 9 to 14) (size 15 to 20)
#    0.000    2.500    0.000    3.375    1.750    5.500 
#    0.000    8.125    0.000    3.750    0.000    0.000 
#    0.000    0.000    0.000    0.000    0.000    0.000 
#
# Total GULP energy -178568.521770 kJ/mol
# GULP energy per Si atom -5580.266305 kJ/mol
# Density = 1.911225 g / cm^3
# Si number density = 19.155854 Si / 1000 Ang^3
#
#
#
# Elastic Constant Matrix: (Units=GPa)
#
#
# Indices 1 2 3 4 5 6 
#
# 1 67.7198 12.0390 30.2272 0.0000 -16.1889 0.0000
# 2 12.0390 14.1805 15.9695 0.0000 -4.9069 0.0000
# 3 30.2272 15.9695 89.8034 0.0000 -32.3248 0.0000
# 4 0.0000 0.0000 0.0000 40.8555 0.0000 -11.9406
# 5 -16.1889 -4.9069 -32.3248 0.0000 28.7784 0.0000
# 6 0.0000 0.0000 0.0000 -11.9406 0.0000 13.8175
#
#
#
# Elastic Compliance Matrix: (Units=1/GPa)
#
#
# Indices 1 2 3 4 5 6 
#
# 1 0.019358 -0.011863 -0.002039 0.000000 0.006577 0.000000
# 2 -0.011863 0.095769 -0.016052 0.000000 -0.008374 0.000000
# 3 -0.002039 -0.016052 0.022290 0.000000 0.021153 0.000000
# 4 0.000000 0.000000 0.000000 0.032747 0.000000 0.028299
# 5 0.006577 -0.008374 0.021153 0.000000 0.060780 0.000000
# 6 0.000000 0.000000 0.000000 0.028299 0.000000 0.096827
#
#
# Mechanical properties :
#
#
# Convention : Reuss Voigt Hill
#
# Bulk Modulus (GPa) = 12.90137 32.01944 22.46041
# Shear Modulus (GPa) = 12.09146 24.25482 18.17314
#
# Velocity S-wave (km/s) = 2.51512 3.56221 3.08344
# Velocity P-wave (km/s) = 3.89667 5.80264 4.94240
#
# Compressibility (1/GPa) = 0.07751115
#
# Stress axis : x y z
#
# Youngs Moduli (GPa) = 51.65843 10.44177 44.86259
#
# Poissons Ratio (x) = 0.12387 0.09147
# Poissons Ratio (y) = 0.61280 0.72012
# Poissons Ratio (z) = 0.10533 0.16761
#
# Static dielectric constant tensor:
#      x y z
#    x 1.684970 0.000000 -0.022910 
#    y 0.000000 1.650370 0.000000 
#    z -0.022910 0.000000 1.654450 
# 
# From -- ./inp_files/83552.got.cif
#   From: 2010.05.17/outbox.cif.g08.bks.cpg/sg10_42_cif.got.tgz:83552.got - 2010.06.03 11:33:40.
