data_PCOD9147707
_publ_section_title
;
Structure prediction by ZEFSAII (Michael W. Deem and Ramdas Pophale) SiO2 
 PCOD9147707
Probable space group: P 2/M
;
_chemical_formula_sum "Si O2"
_cell_formula_units_Z 26
_cell_length_a 7.844230
_cell_length_b 17.732650
_cell_length_c 14.343296
_cell_angle_alpha 90.000000
_cell_angle_beta 137.026478
_cell_angle_gamma 90.000000
_cell_volume 1360.006327
_symmetry_space_group_name_H-M "P 2/M"
_symmetry_group_IT_number 10
_symmetry_cell_setting 'monoclinic'
loop_
_space_group_symop_operation_xyz
x,y,z
-x,y,-z
-x,-y,-z
x,-y,z
loop_
_atom_site_type_symbol
_atom_site_label
_atom_site_fract_x
_atom_site_fract_y
_atom_site_fract_z
Si Si1 0.428588 0.821538 0.342839
Si Si2 0.132959 0.166347 0.826642
Si Si3 0.922257 0.912976 0.577092
Si Si4 0.363848 0.323947 0.855423
Si Si5 0.289590 0.204683 0.086087
Si Si6 0.500000 0.319046 0.500000
Si Si7 0.951648 0.410523 0.587484
O O1 0.667557 0.864166 0.480129
O O2 0.434157 0.826973 0.233170
O O3 0.432811 0.737276 0.387551
O O4 0.152232 0.849807 0.257195
O O5 0.189924 0.252457 0.817565
O O6 0.135864 0.117449 0.733274
O O7 0.289527 0.160129 0.986488
O O8 0.000000 0.907790 0.500000
O O9 0.870596 0.000000 0.578802
O O10 0.578871 0.284392 0.880710
O O11 0.200885 0.385351 0.739890
O O12 0.500000 0.355568 0.000000
O O13 0.000000 0.212978 0.000000
O O14 0.724713 0.369205 0.549577
O O15 0.911289 0.500000 0.571974
O O16 0.000000 0.385535 0.500000
#
# Coordination Sequence:
#
# PCOD9147707 Si02
#       7
#     4   4   4   4   4   2   4
#     4  11  19  35  58  86 112 147 201 250 299 352
#     4  10  19  36  55  86 111 151 194 244 300 353
#     4  11  23  37  56  84 121 159 199 249 308 368
#     4  10  19  36  60  84 115 152 199 248 297 356
#     4   9  20  33  58  87 116 145 197 259 298 356
#     4  12  21  38  67  94 116 162 214 262 305 366
#     4  11  24  40  59  89 129 166 202 250 312 374
#
# _framework density 19.117557000000001
#
# number of rings (size 3 to 8) (size 9 to 14) (size 15 to 20)
#    0.000    1.538    3.077    2.077    0.000    2.769 
#    0.000    0.769    0.000    9.231    0.000    0.000 
#    0.000    0.000    0.000    0.000    0.000    0.000 
#
# Total GULP energy -144860.591066 kJ/mol
# GULP energy per Si atom -5571.561195 kJ/mol
# Density = 1.907404 g / cm^3
# Si number density = 19.117557 Si / 1000 Ang^3
#
#
#
# Elastic Constant Matrix: (Units=GPa)
#
#
# Indices 1 2 3 4 5 6 
#
# 1 102.2382 33.1573 42.3557 0.0000 -7.5010 0.0000
# 2 33.1573 53.9861 37.0582 0.0000 -5.2576 0.0000
# 3 42.3557 37.0582 133.3960 0.0000 -22.4588 0.0000
# 4 0.0000 0.0000 0.0000 27.9949 0.0000 2.3416
# 5 -7.5010 -5.2576 -22.4588 0.0000 35.8762 0.0000
# 6 0.0000 0.0000 0.0000 2.3416 0.0000 20.3623
#
#
#
# Elastic Compliance Matrix: (Units=1/GPa)
#
#
# Indices 1 2 3 4 5 6 
#
# 1 0.012772 -0.006261 -0.002259 0.000000 0.000339 0.000000
# 2 -0.006261 0.025973 -0.005373 0.000000 -0.000866 0.000000
# 3 -0.002259 -0.005373 0.010613 0.000000 0.005384 0.000000
# 4 0.000000 0.000000 0.000000 0.036068 0.000000 -0.004148
# 5 0.000339 -0.000866 0.005384 0.000000 0.031188 0.000000
# 6 0.000000 0.000000 0.000000 -0.004148 0.000000 0.049587
#
#
# Mechanical properties :
#
#
# Convention : Reuss Voigt Hill
#
# Bulk Modulus (GPa) = 46.35756 57.19586 51.77671
# Shear Modulus (GPa) = 24.85364 28.64996 26.75180
#
# Velocity S-wave (km/s) = 3.60952 3.87540 3.74482
# Velocity P-wave (km/s) = 6.45545 7.07163 6.77055
#
# Compressibility (1/GPa) = 0.02157146
#
# Stress axis : x y z
#
# Youngs Moduli (GPa) = 78.29436 38.50209 94.22416
#
# Poissons Ratio (x) = 0.24105 0.21287
# Poissons Ratio (y) = 0.49018 0.50630
# Poissons Ratio (z) = 0.17688 0.20688
#
# Static dielectric constant tensor:
#      x y z
#    x 1.746310 0.000000 -0.043620 
#    y 0.000000 1.623320 0.000000 
#    z -0.043620 0.000000 1.734660 
# 
# From -- ./inp_files/62100.got.cif
#   From: 2010.05.17/outbox.cif.g08.bks.cpg/sg10_32_cif.got.tgz:62100.got - 2010.06.03 11:33:40.
