data_PCOD9147797
_publ_section_title
;
Structure prediction by ZEFSAII (Michael W. Deem and Ramdas Pophale) SiO2 
 PCOD9147797
Probable space group: P 2/M
;
_chemical_formula_sum "Si O2"
_cell_formula_units_Z 28
_cell_length_a 6.529750
_cell_length_b 17.533576
_cell_length_c 15.377537
_cell_angle_alpha 90.000000
_cell_angle_beta 121.742393
_cell_angle_gamma 90.000000
_cell_volume 1497.229457
_symmetry_space_group_name_H-M "P 2/M"
_symmetry_group_IT_number 10
_symmetry_cell_setting 'monoclinic'
loop_
_space_group_symop_operation_xyz
x,y,z
-x,y,-z
-x,-y,-z
x,-y,z
loop_
_atom_site_type_symbol
_atom_site_label
_atom_site_fract_x
_atom_site_fract_y
_atom_site_fract_z
Si Si1 0.629670 0.411485 0.623906
Si Si2 0.500000 0.798906 0.500000
Si Si3 0.065832 0.088609 0.412764
Si Si4 0.267292 0.807732 0.755785
Si Si5 0.974318 0.680115 0.190089
Si Si6 0.736057 0.694374 0.405415
Si Si7 0.500000 0.338336 0.000000
Si Si8 0.760348 0.242213 0.907170
O O1 0.500000 0.403301 0.500000
O O2 0.686569 0.500000 0.648102
O O3 0.866534 0.361521 0.700001
O O4 0.421650 0.380976 0.641952
O O5 0.721794 0.854758 0.567764
O O6 0.584665 0.745732 0.440033
O O7 0.000000 0.102627 0.500000
O O8 0.847996 0.114481 0.302845
O O9 0.128318 0.000000 0.418057
O O10 0.237075 0.746233 0.672105
O O11 0.551583 0.814745 0.832697
O O12 0.131248 0.762428 0.802414
O O13 0.153105 0.701901 0.150864
O O14 0.740938 0.631106 0.104844
O O15 0.000000 0.676752 0.500000
O O16 0.365275 0.291112 0.045071
O O17 0.000000 0.205833 0.000000
#
# Coordination Sequence:
#
# PCOD9147797 Si02
#       8
#     4   2   4   4   4   4   2   4
#     4  11  23  37  54  81 119 158 191 234 285 337
#     4  12  19  36  55  76 108 150 192 236 271 318
#     4  11  23  36  51  81 120 153 188 231 276 330
#     4  11  19  33  57  83 107 147 188 227 281 334
#     4  10  19  36  60  83 114 145 192 237 283 339
#     4  12  21  34  56  80 106 147 200 234 269 330
#     4   8  18  34  61  90 107 136 186 250 288 328
#     4   9  18  33  58  89 111 135 185 244 281 327
#
# _framework density 18.701208000000001
#
# number of rings (size 3 to 8) (size 9 to 14) (size 15 to 20)
#    0.000    1.429    5.000    1.929    0.000    0.286 
#    0.000    1.071    0.000    4.286    0.000   17.000 
#    0.000    0.000    0.000    0.000    0.000    0.000 
#
# Total GULP energy -155943.773867 kJ/mol
# GULP energy per Si atom -5569.420495 kJ/mol
# Density = 1.865864 g / cm^3
# Si number density = 18.701208 Si / 1000 Ang^3
#
#
#
# Elastic Constant Matrix: (Units=GPa)
#
#
# Indices 1 2 3 4 5 6 
#
# 1 99.4060 21.7299 32.0432 0.0000 10.5104 0.0000
# 2 21.7299 61.6050 16.0015 0.0000 10.4802 0.0000
# 3 32.0432 16.0015 94.0680 0.0000 32.9170 0.0000
# 4 0.0000 0.0000 0.0000 2.1016 0.0000 -8.1446
# 5 10.5104 10.4802 32.9170 0.0000 51.0677 0.0000
# 6 0.0000 0.0000 0.0000 -8.1446 0.0000 -9.1024
#
#
#
# Elastic Compliance Matrix: (Units=1/GPa)
#
#
# Indices 1 2 3 4 5 6 
#
# 1 0.011921 -0.003348 -0.003710 0.000000 0.000625 0.000000
# 2 -0.003348 0.018098 -0.001136 0.000000 -0.002293 0.000000
# 3 -0.003710 -0.001136 0.015158 0.000000 -0.008774 0.000000
# 4 0.000000 0.000000 0.000000 0.106505 0.000000 -0.095299
# 5 0.000625 -0.002293 -0.008774 0.000000 0.025579 0.000000
# 6 0.000000 0.000000 0.000000 -0.095299 0.000000 -0.024590
#
#
# Mechanical properties :
#
#
# Convention : Reuss Voigt Hill
#
# Bulk Modulus (GPa) = 34.73396 43.84757 39.29077
# Shear Modulus (GPa) = 27.98678 21.16701 24.57689
#
# Velocity S-wave (km/s) = 3.87269 3.36795 3.62911
# Velocity P-wave (km/s) = 6.21373 6.21461 6.21417
#
# Compressibility (1/GPa) = 0.02879027
#
# Stress axis : x y z
#
# Youngs Moduli (GPa) = 83.88270 55.25352 65.97272
#
# Poissons Ratio (x) = 0.18497 0.24476
# Poissons Ratio (y) = 0.28081 0.07494
# Poissons Ratio (z) = 0.31121 0.06276
#
# Static dielectric constant tensor:
#      x y z
#    x 1.691400 0.000000 0.023290 
#    y 0.000000 1.605410 0.000000 
#    z 0.023290 0.000000 1.759860 
# 
# From -- ./inp_files/59479.got.cif
#   From: 2010.05.17/outbox.cif.g08.bks.cpg/sg10_30_cif.got.tgz:59479.got - 2010.06.03 11:33:40.
