data_PCOD9147874
_publ_section_title
;
Structure prediction by ZEFSAII (Michael W. Deem and Ramdas Pophale) SiO2 
 PCOD9147874
Probable space group: P 2/M
;
_chemical_formula_sum "Si O2"
_cell_formula_units_Z 20
_cell_length_a 17.568269
_cell_length_b 7.687059
_cell_length_c 11.930500
_cell_angle_alpha 90.000000
_cell_angle_beta 147.738168
_cell_angle_gamma 90.000000
_cell_volume 860.037874
_symmetry_space_group_name_H-M "P 2/M"
_symmetry_group_IT_number 10
_symmetry_cell_setting 'monoclinic'
loop_
_space_group_symop_operation_xyz
x,y,z
-x,y,-z
-x,-y,-z
x,-y,z
loop_
_atom_site_type_symbol
_atom_site_label
_atom_site_fract_x
_atom_site_fract_y
_atom_site_fract_z
Si Si1 0.869913 0.710308 0.254778
Si Si2 0.106074 0.804020 0.972123
Si Si3 0.618223 0.697449 0.565350
Si Si4 0.784599 0.710289 0.567072
Si Si5 0.660457 0.712440 0.178826
O O1 0.871171 0.500000 0.242872
O O2 0.884265 0.787459 0.150107
O O3 0.729095 0.765340 0.146951
O O4 0.000000 0.753611 0.500000
O O5 0.943958 0.758855 0.801183
O O6 0.136406 0.000000 0.045369
O O7 0.231504 0.692005 0.182133
O O8 0.500000 0.779399 0.500000
O O9 0.566355 0.500000 0.477608
O O10 0.663641 0.775434 0.502273
O O11 0.777867 0.500000 0.560139
O O12 0.754334 0.767513 0.402519
O O13 0.661874 0.500000 0.179828
O O14 0.500000 0.769550 0.000000
#
# Coordination Sequence:
#
# PCOD9147874 Si02
#       5
#     4   4   4   4   4
#     4  10  19  36  62  88 116 150 196 246 292 344
#     4  12  25  39  59  86 123 163 199 238 291 358
#     4  10  23  41  65  92 116 148 198 255 301 347
#     4  10  20  39  63  89 118 152 200 248 293 346
#     4   9  18  32  58  92 119 146 185 244 303 346
#
# _framework density 23.25479
#
# number of rings (size 3 to 8) (size 9 to 14) (size 15 to 20)
#    0.000    1.800    2.000    2.400    2.800    4.000 
#    0.000    0.000    0.000    1.200    0.000    0.000 
#    0.000    0.000    0.000    0.000    0.000    0.000 
#
# Total GULP energy -111804.440398 kJ/mol
# GULP energy per Si atom -5590.222020 kJ/mol
# Density = 2.320186 g / cm^3
# Si number density = 23.254790 Si / 1000 Ang^3
#
#
#
# Elastic Constant Matrix: (Units=GPa)
#
#
# Indices 1 2 3 4 5 6 
#
# 1 161.0972 2.8709 0.7125 0.0000 21.1784 0.0000
# 2 2.8709 52.8768 -6.6425 0.0000 2.2795 0.0000
# 3 0.7125 -6.6425 41.0070 0.0000 12.6920 0.0000
# 4 0.0000 0.0000 0.0000 122.8920 0.0000 113.6451
# 5 21.1784 2.2795 12.6920 0.0000 44.7677 0.0000
# 6 0.0000 0.0000 0.0000 113.6451 0.0000 74.2803
#
#
#
# Elastic Compliance Matrix: (Units=1/GPa)
#
#
# Indices 1 2 3 4 5 6 
#
# 1 0.006653 -0.000099 0.000922 0.000000 -0.003403 0.000000
# 2 -0.000099 0.019479 0.003781 0.000000 -0.002017 0.000000
# 3 0.000922 0.003781 0.027599 0.000000 -0.008453 0.000000
# 4 0.000000 0.000000 0.000000 -0.019616 0.000000 0.030011
# 5 -0.003403 -0.002017 -0.008453 0.000000 0.026447 0.000000
# 6 0.000000 0.000000 0.000000 0.030011 0.000000 -0.032453
#
#
# Mechanical properties :
#
#
# Convention : Reuss Voigt Hill
#
# Bulk Modulus (GPa) = 15.88820 27.65142 21.76981
# Shear Modulus (GPa) = 125.37773 65.59068 95.48421
#
# Velocity S-wave (km/s) = 7.35064 5.31662 6.41476
# Velocity P-wave (km/s) = 8.88198 7.04309 8.01544
#
# Compressibility (1/GPa) = 0.06293978
#
# Stress axis : x y z
#
# Youngs Moduli (GPa) = 150.31839 51.33675 36.23334
#
# Poissons Ratio (x) = 0.00507 -0.03340
# Poissons Ratio (y) = 0.01483 -0.13701
# Poissons Ratio (z) = -0.13857 -0.19412
#
# Static dielectric constant tensor:
#      x y z
#    x 1.880280 0.000000 0.003520 
#    y 0.000000 1.901570 0.000000 
#    z 0.003520 0.000000 1.830990 
# 
# From -- ./inp_files/22098.got.cif
#   From: 2010.05.17/outbox.cif.g08.bks.cpg/sg10_12_cif.got.tgz:22098.got - 2010.06.03 11:33:40.
