data_PCOD9147859
_publ_section_title
;
Structure prediction by ZEFSAII (Michael W. Deem and Ramdas Pophale) SiO2 
 PCOD9147859
Probable space group: P 2/M
;
_chemical_formula_sum "Si O2"
_cell_formula_units_Z 28
_cell_length_a 7.395538
_cell_length_b 14.667839
_cell_length_c 17.469761
_cell_angle_alpha 90.000000
_cell_angle_beta 37.297488
_cell_angle_gamma 90.000000
_cell_volume 1148.318036
_symmetry_space_group_name_H-M "P 2/M"
_symmetry_group_IT_number 10
_symmetry_cell_setting 'monoclinic'
loop_
_space_group_symop_operation_xyz
x,y,z
-x,y,-z
-x,-y,-z
x,-y,z
loop_
_atom_site_type_symbol
_atom_site_label
_atom_site_fract_x
_atom_site_fract_y
_atom_site_fract_z
Si Si1 0.080822 0.400656 0.318072
Si Si2 0.265649 0.635193 0.967186
Si Si3 0.168584 0.850205 0.020138
Si Si4 0.587772 0.199719 0.280976
Si Si5 0.822104 0.599537 0.237538
Si Si6 0.717066 0.896000 0.761561
Si Si7 0.215171 0.774310 0.547867
O O1 0.035313 0.500000 0.368636
O O2 0.419380 0.391927 0.173567
O O3 0.882370 0.394967 0.307429
O O4 0.981459 0.315272 0.402058
O O5 0.247508 0.744120 0.980342
O O6 0.000000 0.606187 0.000000
O O7 0.149882 0.600829 0.087738
O O8 0.493415 0.894571 0.909210
O O9 0.000000 0.885567 0.000000
O O10 0.915282 0.848569 0.170609
O O11 0.656012 0.309151 0.263517
O O12 0.442816 0.162559 0.251932
O O13 0.351171 0.179906 0.426814
O O14 0.683837 0.500000 0.266615
O O15 0.025713 0.842905 0.663908
O O16 0.760182 0.000000 0.723359
O O17 0.500000 0.745222 0.500000
#
# Coordination Sequence:
#
# PCOD9147859 Si02
#       7
#     4   4   4   4   4   4   4
#     4  11  23  39  63  93 133 190 232 264 323 391
#     4  10  19  36  61  98 137 172 221 284 331 380
#     4   8  17  36  65  97 124 160 205 264 330 386
#     4  10  22  41  67  99 134 170 216 274 332 389
#     4  10  21  37  61  94 136 180 225 267 321 389
#     4  11  24  46  74  99 128 166 217 276 343 411
#     4  12  25  44  64  96 135 182 219 272 323 388
#
# _framework density 24.383489000000001
#
# number of rings (size 3 to 8) (size 9 to 14) (size 15 to 20)
#    0.000    1.714    2.857    2.143    0.000    7.143 
#    0.000    0.714    0.000    2.571    0.000    0.000 
#    0.000    0.000    0.000    0.000    0.000    0.000 
#
# Total GULP energy -156421.779899 kJ/mol
# GULP energy per Si atom -5586.492139 kJ/mol
# Density = 2.432799 g / cm^3
# Si number density = 24.383489 Si / 1000 Ang^3
#
#
#
# Elastic Constant Matrix: (Units=GPa)
#
#
# Indices 1 2 3 4 5 6 
#
# 1 41.0642 13.9549 26.2302 0.0000 -6.5095 0.0000
# 2 13.9549 117.4205 40.3000 0.0000 -23.5327 0.0000
# 3 26.2302 40.3000 167.6799 0.0000 -3.2699 0.0000
# 4 0.0000 0.0000 0.0000-6511.1993 0.0000 6918.6234
# 5 -6.5095 -23.5327 -3.2699 0.0000 39.1335 0.0000
# 6 0.0000 0.0000 0.0000 6918.6234 0.0000-7253.4262
#
#
#
# Elastic Compliance Matrix: (Units=1/GPa)
#
#
# Indices 1 2 3 4 5 6 
#
# 1 0.027888 -0.001227 -0.003998 0.000000 0.003567 0.000000
# 2 -0.001227 0.010637 -0.002247 0.000000 0.006005 0.000000
# 3 -0.003998 -0.002247 0.007102 0.000000 -0.001423 0.000000
# 4 0.000000 0.000000 0.000000 0.011354 0.000000 0.010830
# 5 0.003567 0.006005 -0.001423 0.000000 0.029639 0.000000
# 6 0.000000 0.000000 0.000000 0.010830 0.000000 0.010192
#
#
# Mechanical properties :
#
#
# Convention : Reuss Voigt Hill
#
# Bulk Modulus (GPa) = 32.59314 54.12606 43.35960
# Shear Modulus (GPa) = 40.98882 -2728.71977 -1343.86548
#
# Velocity S-wave (km/s) = 4.10446 -33.48902 -23.50179
# Velocity P-wave (km/s) = 5.98815 38.38107 26.80717
#
# Compressibility (1/GPa) = 0.03068131
#
# Stress axis : x y z
#
# Youngs Moduli (GPa) = 35.85719 94.01147 140.81456
#
# Poissons Ratio (x) = 0.11539 0.56298
# Poissons Ratio (y) = 0.04401 0.31646
# Poissons Ratio (z) = 0.14336 0.21128
#
# Static dielectric constant tensor:
#      x y z
#    x 2.015760 0.000000 0.031610 
#    y 0.000000 1.910480 0.000000 
#    z 0.031610 0.000000 2.018970 
# 
# From -- ./inp_files/82909.got.cif
#   From: 2010.05.17/outbox.cif.g08.bks.cpg/sg10_42_cif.got.tgz:82909.got - 2010.06.03 11:33:40.
