data_PCOD9147085
_publ_section_title
;
Structure prediction by ZEFSAII (Michael W. Deem and Ramdas Pophale) SiO2 
 PCOD9147085
Probable space group: P 2/M
;
_chemical_formula_sum "Si O2"
_cell_formula_units_Z 23
_cell_length_a 5.167678
_cell_length_b 21.160260
_cell_length_c 14.161583
_cell_angle_alpha 90.000000
_cell_angle_beta 130.105261
_cell_angle_gamma 90.000000
_cell_volume 1184.435662
_symmetry_space_group_name_H-M "P 2/M"
_symmetry_group_IT_number 10
_symmetry_cell_setting 'monoclinic'
loop_
_space_group_symop_operation_xyz
x,y,z
-x,y,-z
-x,-y,-z
x,-y,z
loop_
_atom_site_type_symbol
_atom_site_label
_atom_site_fract_x
_atom_site_fract_y
_atom_site_fract_z
Si Si1 0.885744 0.596710 0.620347
Si Si2 0.884742 0.295794 0.871684
Si Si3 0.098321 0.136813 0.413035
Si Si4 0.098381 0.430047 0.884308
Si Si5 0.907203 0.000000 0.588498
Si Si6 0.000000 0.500000 0.500000
Si Si7 0.125660 0.268464 0.722020
O O1 0.500000 0.577818 0.500000
O O2 0.107369 0.556262 0.600315
O O3 0.003497 0.575613 0.751514
O O4 0.920592 0.672549 0.628487
O O5 0.500311 0.275901 0.769471
O O6 0.898892 0.371674 0.881204
O O7 0.100429 0.277783 0.829728
O O8 0.000000 0.269737 0.000000
O O9 0.500000 0.134005 0.500000
O O10 0.000000 0.143437 0.500000
O O11 0.991255 0.198923 0.332255
O O12 0.967382 0.068244 0.345346
O O13 0.002558 0.500000 0.893920
O O14 0.500000 0.421216 0.000000
O O15 0.500000 0.000000 0.500000
O O16 0.000000 0.000000 0.500000
#
# Coordination Sequence:
#
# PCOD9147085 Si02
#       7
#     4   4   4   4   2   1   4
#     4  11  25  40  57  83 115 152 193 240 299 363
#     4  11  23  42  60  83 114 146 194 251 302 349
#     4  10  19  34  56  87 124 154 190 232 282 348
#     4  10  22  43  63  85 111 146 202 258 307 358
#     4   8  16  30  52  82 119 158 185 226 282 338
#     4  12  26  36  62  72 124 154 196 228 320 350
#     4  11  24  38  61  87 113 153 198 236 292 352
#
# _framework density 19.418528999999999
#
# number of rings (size 3 to 8) (size 9 to 14) (size 15 to 20)
#    0.000    1.565    0.870    4.435    6.087    0.348 
#    0.000    0.000    0.000    0.000    0.000    3.652 
#    0.000    0.000    0.000    0.000    0.000    0.000 
#
# Total GULP energy -128077.161341 kJ/mol
# GULP energy per Si atom -5568.572232 kJ/mol
# Density = 1.937433 g / cm^3
# Si number density = 19.418529 Si / 1000 Ang^3
#
#
#
# Elastic Constant Matrix: (Units=GPa)
#
#
# Indices 1 2 3 4 5 6 
#
# 1 55.6117 1.4618 0.0281 0.0000 -13.9849 0.0000
# 2 1.4618 192.0785 27.7522 0.0000 -8.2945 0.0000
# 3 0.0281 27.7522 77.8942 0.0000 -12.2906 0.0000
# 4 0.0000 0.0000 0.0000 6.2695 0.0000 7.6934
# 5 -13.9849 -8.2945 -12.2906 0.0000 37.7522 0.0000
# 6 0.0000 0.0000 0.0000 7.6934 0.0000 25.6849
#
#
#
# Elastic Compliance Matrix: (Units=1/GPa)
#
#
# Indices 1 2 3 4 5 6 
#
# 1 0.019939 0.000008 0.001218 0.000000 0.007784 0.000000
# 2 0.000008 0.005502 -0.001865 0.000000 0.000605 0.000000
# 3 0.001218 -0.001865 0.014240 0.000000 0.004677 0.000000
# 4 0.000000 0.000000 0.000000 0.252201 0.000000 -0.075542
# 5 0.007784 0.000605 0.004677 0.000000 0.031028 0.000000
# 6 0.000000 0.000000 0.000000 -0.075542 0.000000 0.061561
#
#
# Mechanical properties :
#
#
# Convention : Reuss Voigt Hill
#
# Bulk Modulus (GPa) = 26.03915 42.67429 34.35672
# Shear Modulus (GPa) = 12.54556 33.69749 23.12152
#
# Velocity S-wave (km/s) = 2.54453 4.17024 3.45439
# Velocity P-wave (km/s) = 4.69802 6.72396 5.80013
#
# Compressibility (1/GPa) = 0.03840372
#
# Stress axis : x y z
#
# Youngs Moduli (GPa) = 50.15405 181.76274 70.22530
#
# Poissons Ratio (x) = -0.00153 -0.08554
# Poissons Ratio (y) = -0.00042 0.13095
# Poissons Ratio (z) = -0.06109 0.33893
#
# Static dielectric constant tensor:
#      x y z
#    x 1.637750 0.000000 0.078610 
#    y 0.000000 1.708540 0.000000 
#    z 0.078610 0.000000 1.644420 
# 
# From -- ./inp_files/59603.got.cif
#   From: 2010.05.17/outbox.cif.g08.bks.cpg/sg10_30_cif.got.tgz:59603.got - 2010.06.03 11:33:40.
