data_PCOD9147817
_publ_section_title
;
Structure prediction by ZEFSAII (Michael W. Deem and Ramdas Pophale) SiO2 
 PCOD9147817
Probable space group: P 2/M
;
_chemical_formula_sum "Si O2"
_cell_formula_units_Z 28
_cell_length_a 23.110452
_cell_length_b 8.237455
_cell_length_c 16.930995
_cell_angle_alpha 90.000000
_cell_angle_beta 25.569452
_cell_angle_gamma 90.000000
_cell_volume 1391.138295
_symmetry_space_group_name_H-M "P 2/M"
_symmetry_group_IT_number 10
_symmetry_cell_setting 'monoclinic'
loop_
_space_group_symop_operation_xyz
x,y,z
-x,y,-z
-x,-y,-z
x,-y,z
loop_
_atom_site_type_symbol
_atom_site_label
_atom_site_fract_x
_atom_site_fract_y
_atom_site_fract_z
Si Si1 0.842450 0.195659 0.195541
Si Si2 0.344015 0.802671 0.273816
Si Si3 0.352856 0.803222 0.082079
Si Si4 0.351749 0.691927 0.704226
Si Si5 0.903213 0.690556 0.689887
Si Si6 0.864709 0.801490 0.341231
Si Si7 0.134231 0.806946 0.086483
O O1 0.748823 0.268261 0.243925
O O2 0.803946 0.244464 0.331872
O O3 0.835354 0.000000 0.195366
O O4 0.000000 0.238667 0.000000
O O5 0.321444 0.754889 0.211172
O O6 0.229436 0.744305 0.472484
O O7 0.342705 0.000000 0.275074
O O8 0.492230 0.756729 0.120122
O O9 0.247155 0.722249 0.155089
O O10 0.342036 0.000000 0.088802
O O11 0.500000 0.759452 0.500000
O O12 0.365012 0.500000 0.695626
O O13 0.276799 0.750281 0.876313
O O14 0.932017 0.500000 0.661070
O O15 0.907950 0.761822 0.772352
O O16 0.000000 0.757345 0.500000
O O17 0.015844 0.747036 0.173673
O O18 0.867769 0.000000 0.337655
O O19 0.136019 0.000000 0.080099
#
# Coordination Sequence:
#
# PCOD9147817 Si02
#       7
#     4   4   4   4   4   4   4
#     4  10  19  36  60  87 117 148 195 252 297 349
#     4   8  15  29  52  82 111 140 181 237 293 341
#     4   9  17  32  54  79 109 145 191 240 285 341
#     4  11  25  43  61  87 127 168 204 247 307 374
#     4  11  24  39  55  81 121 161 195 238 295 358
#     4   9  17  31  55  85 113 140 182 243 298 344
#     4  11  22  39  64  89 114 151 202 255 302 353
#
# _framework density 20.127403999999999
#
# number of rings (size 3 to 8) (size 9 to 14) (size 15 to 20)
#    0.000    2.143    1.429    3.000    0.000    4.857 
#    0.000    2.857    0.000    2.571    0.000    0.000 
#    0.000    0.000    0.000    0.000    0.000    0.000 
#
# Total GULP energy -156191.629352 kJ/mol
# GULP energy per Si atom -5578.272477 kJ/mol
# Density = 2.008159 g / cm^3
# Si number density = 20.127404 Si / 1000 Ang^3
#
#
#
# Elastic Constant Matrix: (Units=GPa)
#
#
# Indices 1 2 3 4 5 6 
#
# 1 85.2138 6.6298 36.8484 0.0000 3.5579 0.0000
# 2 6.6298 21.0655 18.8533 0.0000 6.2175 0.0000
# 3 36.8484 18.8533 124.2039 0.0000 19.6123 0.0000
# 4 0.0000 0.0000 0.0000 24.7655 0.0000 -6.3029
# 5 3.5579 6.2175 19.6123 0.0000 17.1819 0.0000
# 6 0.0000 0.0000 0.0000 -6.3029 0.0000 38.4483
#
#
#
# Elastic Compliance Matrix: (Units=1/GPa)
#
#
# Indices 1 2 3 4 5 6 
#
# 1 0.013554 -0.001208 -0.004225 0.000000 0.002453 0.000000
# 2 -0.001208 0.057387 -0.006237 0.000000 -0.013397 0.000000
# 3 -0.004225 -0.006237 0.011902 0.000000 -0.010454 0.000000
# 4 0.000000 0.000000 0.000000 0.042137 0.000000 0.006908
# 5 0.002453 -0.013397 -0.010454 0.000000 0.074473 0.000000
# 6 0.000000 0.000000 0.000000 0.006908 0.000000 0.027141
#
#
# Mechanical properties :
#
#
# Convention : Reuss Voigt Hill
#
# Bulk Modulus (GPa) = 16.80608 39.46070 28.13339
# Shear Modulus (GPa) = 18.53432 27.28926 22.91179
#
# Velocity S-wave (km/s) = 3.03784 3.68615 3.37759
# Velocity P-wave (km/s) = 4.54672 6.14532 5.40544
#
# Compressibility (1/GPa) = 0.05950228
#
# Stress axis : x y z
#
# Youngs Moduli (GPa) = 73.78015 17.42541 84.01801
#
# Poissons Ratio (x) = 0.02106 0.35498
# Poissons Ratio (y) = 0.08916 0.52403
# Poissons Ratio (z) = 0.31173 0.10868
#
# Static dielectric constant tensor:
#      x y z
#    x 1.699870 0.000000 0.019500 
#    y 0.000000 1.709970 0.000000 
#    z 0.019500 0.000000 1.750150 
# 
# From -- ./inp_files/70196.got.cif
#   From: 2010.05.17/outbox.cif.g08.bks.cpg/sg10_36_cif.got.tgz:70196.got - 2010.06.03 11:33:40.
