data_PCOD9147184
_publ_section_title
;
Structure prediction by ZEFSAII (Michael W. Deem and Ramdas Pophale) SiO2 
 PCOD9147184
Probable space group: P 2/M
;
_chemical_formula_sum "Si O2"
_cell_formula_units_Z 28
_cell_length_a 29.362227
_cell_length_b 8.092732
_cell_length_c 5.214559
_cell_angle_alpha 90.000000
_cell_angle_beta 70.006569
_cell_angle_gamma 90.000000
_cell_volume 1164.409318
_symmetry_space_group_name_H-M "P 2/M"
_symmetry_group_IT_number 10
_symmetry_cell_setting 'monoclinic'
loop_
_space_group_symop_operation_xyz
x,y,z
-x,y,-z
-x,-y,-z
x,-y,z
loop_
_atom_site_type_symbol
_atom_site_label
_atom_site_fract_x
_atom_site_fract_y
_atom_site_fract_z
Si Si1 0.609517 0.800153 0.864881
Si Si2 0.724968 0.500000 0.043242
Si Si3 0.055307 0.700346 0.897439
Si Si4 0.554124 0.797873 0.468838
Si Si5 0.302767 0.815091 0.653635
Si Si6 0.188137 0.176607 0.787183
Si Si7 0.116008 0.299903 0.293904
Si Si8 0.791582 0.500000 0.425345
O O1 0.572663 0.744529 0.711455
O O2 0.662621 0.765003 0.647840
O O3 0.607094 0.000000 0.881396
O O4 0.590942 0.741807 0.175305
O O5 0.753728 0.500000 0.725238
O O6 0.695932 0.668967 0.142917
O O7 0.763491 0.500000 0.206653
O O8 0.053589 0.500000 0.875970
O O9 0.086331 0.759929 0.595768
O O10 0.081757 0.735586 0.113175
O O11 0.000000 0.760025 0.000000
O O12 0.500000 0.745647 0.500000
O O13 0.553943 0.000000 0.473823
O O14 0.246637 0.829010 0.680770
O O15 0.317800 0.000000 0.715835
O O16 0.176647 0.335921 0.638833
O O17 0.170725 0.000000 0.727826
O O18 0.166011 0.213070 0.109787
O O19 0.123696 0.500000 0.287210
#
# Coordination Sequence:
#
# PCOD9147184 Si02
#       8
#     4   2   4   4   4   4   4   2
#     4   9  17  29  47  73 107 143 184 231 281 340
#     4  10  22  38  60  82 113 152 195 242 286 338
#     4   9  18  33  57  86 114 149 193 239 290 346
#     4   9  16  27  46  74 106 140 182 235 289 340
#     4   9  20  38  59  86 119 158 198 240 289 345
#     4  10  21  39  61  87 122 160 198 241 290 347
#     4  10  19  34  57  85 117 151 191 238 288 342
#     4  10  22  40  58  84 113 152 199 238 286 338
#
# _framework density 24.046529
#
# number of rings (size 3 to 8) (size 9 to 14) (size 15 to 20)
#    0.000    2.571    0.714    0.857    0.000    8.571 
#    0.000    7.857    0.000    2.571    0.000    3.000 
#    0.000    0.000    0.000    0.000    0.000    0.000 
#
# Total GULP energy -156538.436286 kJ/mol
# GULP energy per Si atom -5590.658439 kJ/mol
# Density = 2.399180 g / cm^3
# Si number density = 24.046529 Si / 1000 Ang^3
#
#
#
# Elastic Constant Matrix: (Units=GPa)
#
#
# Indices 1 2 3 4 5 6 
#
# 1 102.2126 -6.6997 32.3550 0.0000 -17.1188 0.0000
# 2 -6.6997 114.7237 32.3476 0.0000 -1.8035 0.0000
# 3 32.3550 32.3476 130.8932 0.0000 -9.2175 0.0000
# 4 0.0000 0.0000 0.0000 28.1528 0.0000 -5.3370
# 5 -17.1188 -1.8035 -9.2175 0.0000 42.1860 0.0000
# 6 0.0000 0.0000 0.0000 -5.3370 0.0000 5.9740
#
#
#
# Elastic Compliance Matrix: (Units=1/GPa)
#
#
# Indices 1 2 3 4 5 6 
#
# 1 0.011503 0.001566 -0.002942 0.000000 0.004092 0.000000
# 2 0.001566 0.009583 -0.002724 0.000000 0.000450 0.000000
# 3 -0.002942 -0.002724 0.009088 0.000000 0.000675 0.000000
# 4 0.000000 0.000000 0.000000 0.042763 0.000000 0.038203
# 5 0.004092 0.000450 0.000675 0.000000 0.025532 0.000000
# 6 0.000000 0.000000 0.000000 0.038203 0.000000 0.201523
#
#
# Mechanical properties :
#
#
# Convention : Reuss Voigt Hill
#
# Bulk Modulus (GPa) = 45.50954 51.53727 48.52340
# Shear Modulus (GPa) = 15.84708 34.58431 25.21570
#
# Velocity S-wave (km/s) = 2.56992 3.79651 3.24176
# Velocity P-wave (km/s) = 5.26998 6.37940 5.85105
#
# Compressibility (1/GPa) = 0.02197341
#
# Stress axis : x y z
#
# Youngs Moduli (GPa) = 86.93561 104.35103 110.03892
#
# Poissons Ratio (x) = -0.16337 0.32374
# Poissons Ratio (y) = -0.13611 0.29970
# Poissons Ratio (z) = 0.25577 0.28421
#
# Static dielectric constant tensor:
#      x y z
#    x 1.981330 0.000000 0.020140 
#    y 0.000000 2.007740 0.000000 
#    z 0.020140 0.000000 1.897170 
# 
# From -- ./inp_files/13598.got.cif
#   From: 2010.05.17/outbox.cif.g08.bks.cpg/sg10_7_cif.got.tgz:13598.got - 2010.06.03 11:33:40.
