data_PCOD9147242
_publ_section_title
;
Structure prediction by ZEFSAII (Michael W. Deem and Ramdas Pophale) SiO2 
 PCOD9147242
Probable space group: P 2/M
;
_chemical_formula_sum "Si O2"
_cell_formula_units_Z 22
_cell_length_a 13.405826
_cell_length_b 7.700737
_cell_length_c 9.713067
_cell_angle_alpha 90.000000
_cell_angle_beta 105.710985
_cell_angle_gamma 90.000000
_cell_volume 965.263955
_symmetry_space_group_name_H-M "P 2/M"
_symmetry_group_IT_number 10
_symmetry_cell_setting 'monoclinic'
loop_
_space_group_symop_operation_xyz
x,y,z
-x,y,-z
-x,-y,-z
x,-y,z
loop_
_atom_site_type_symbol
_atom_site_label
_atom_site_fract_x
_atom_site_fract_y
_atom_site_fract_z
Si Si1 0.277775 0.290291 0.407613
Si Si2 0.953611 0.706150 0.625587
Si Si3 0.323347 0.704923 0.121651
Si Si4 0.846043 0.206685 0.145842
Si Si5 0.657984 0.794001 0.270667
Si Si6 0.500000 0.749655 0.000000
O O1 0.275473 0.500000 0.400477
O O2 0.159826 0.224210 0.381411
O O3 0.322539 0.234274 0.277868
O O4 0.339431 0.238526 0.566717
O O5 0.940452 0.500000 0.600733
O O6 0.000000 0.779327 0.500000
O O7 0.039337 0.732569 0.774885
O O8 0.352772 0.500000 0.122877
O O9 0.210046 0.720733 0.010410
O O10 0.402659 0.811259 0.056340
O O11 0.769218 0.253069 0.244899
O O12 0.847380 0.000000 0.135343
O O13 0.638712 0.000000 0.239136
O O14 0.571408 0.688737 0.154865
#
# Coordination Sequence:
#
# PCOD9147242 Si02
#       6
#     4   4   4   4   4   2
#     4  10  22  38  58  87 119 147 188 239 283 332
#     4  10  19  34  58  86 116 155 191 228 278 336
#     4  10  22  40  60  84 114 150 191 239 286 335
#     4  10  21  36  58  86 118 155 193 232 276 337
#     4  10  21  38  60  85 115 151 189 234 285 340
#     4  10  22  40  62  86 108 148 194 236 286 344
#
# _framework density 22.791691
#
# number of rings (size 3 to 8) (size 9 to 14) (size 15 to 20)
#    0.000    2.000    1.818    1.091    0.000    7.636 
#    0.000    6.364    0.000    0.000    0.000    0.000 
#    0.000    0.000    0.000    0.000    0.000    0.000 
#
# Total GULP energy -122682.126395 kJ/mol
# GULP energy per Si atom -5576.460291 kJ/mol
# Density = 2.273982 g / cm^3
# Si number density = 22.791691 Si / 1000 Ang^3
#
#
#
# Elastic Constant Matrix: (Units=GPa)
#
#
# Indices 1 2 3 4 5 6 
#
# 1 93.2852 15.1507 66.6756 0.0000 16.1658 0.0000
# 2 15.1507 57.8604 14.0389 0.0000 -13.3949 0.0000
# 3 66.6756 14.0389 209.4453 0.0000 -2.2099 0.0000
# 4 0.0000 0.0000 0.0000 -12.0992 0.0000 -21.4408
# 5 16.1658 -13.3949 -2.2099 0.0000 35.0191 0.0000
# 6 0.0000 0.0000 0.0000 -21.4408 0.0000 -27.1671
#
#
#
# Elastic Compliance Matrix: (Units=1/GPa)
#
#
# Indices 1 2 3 4 5 6 
#
# 1 0.017148 -0.005638 -0.005191 0.000000 -0.010400 0.000000
# 2 -0.005638 0.021120 0.000492 0.000000 0.010712 0.000000
# 3 -0.005191 0.000492 0.006426 0.000000 0.002990 0.000000
# 4 0.000000 0.000000 0.000000 0.207373 0.000000 -0.163663
# 5 -0.010400 0.010712 0.002990 0.000000 0.037643 0.000000
# 6 0.000000 0.000000 0.000000 -0.163663 0.000000 0.092356
#
#
# Mechanical properties :
#
#
# Convention : Reuss Voigt Hill
#
# Bulk Modulus (GPa) = 41.63252 61.36904 51.50078
# Shear Modulus (GPa) = 12.17298 16.79894 14.48596
#
# Velocity S-wave (km/s) = 2.31356 2.71784 2.52381
# Velocity P-wave (km/s) = 5.04410 6.06905 5.58016
#
# Compressibility (1/GPa) = 0.02401968
#
# Stress axis : x y z
#
# Youngs Moduli (GPa) = 58.31608 47.34884 155.62985
#
# Poissons Ratio (x) = 0.26697 0.80783
# Poissons Ratio (y) = 0.32881 -0.07662
# Poissons Ratio (z) = 0.30270 -0.02331
#
# Static dielectric constant tensor:
#      x y z
#    x 1.830300 0.000000 -0.001400 
#    y 0.000000 1.930460 0.000000 
#    z -0.001400 0.000000 1.822030 
# 
# From -- ./inp_files/27323.got.cif
#   From: 2010.05.17/outbox.cif.g08.bks.cpg/sg10_14_cif.got.tgz:27323.got - 2010.06.03 11:33:40.
