data_PCOD9147213
_publ_section_title
;
Structure prediction by ZEFSAII (Michael W. Deem and Ramdas Pophale) SiO2 
 PCOD9147213
Probable space group: P 2/M
;
_chemical_formula_sum "Si O2"
_cell_formula_units_Z 20
_cell_length_a 9.077172
_cell_length_b 9.257084
_cell_length_c 26.087832
_cell_angle_alpha 90.000000
_cell_angle_beta 30.315335
_cell_angle_gamma 90.000000
_cell_volume 1106.487630
_symmetry_space_group_name_H-M "P 2/M"
_symmetry_group_IT_number 10
_symmetry_cell_setting 'monoclinic'
loop_
_space_group_symop_operation_xyz
x,y,z
-x,y,-z
-x,-y,-z
x,-y,z
loop_
_atom_site_type_symbol
_atom_site_label
_atom_site_fract_x
_atom_site_fract_y
_atom_site_fract_z
Si Si1 0.148809 0.171282 0.209693
Si Si2 0.847090 0.671534 0.395525
Si Si3 0.859989 0.828023 0.597407
Si Si4 0.827449 0.829964 0.197607
Si Si5 0.667391 0.665884 0.004773
O O1 0.463495 0.241117 0.103345
O O2 0.994965 0.249029 0.303140
O O3 0.954431 0.193186 0.216722
O O4 0.174247 0.000000 0.210844
O O5 0.500000 0.697025 0.500000
O O6 0.897778 0.500000 0.377038
O O7 0.983038 0.736876 0.406151
O O8 0.514595 0.797003 0.700794
O O9 0.000000 0.797781 0.500000
O O10 0.897375 0.000000 0.596120
O O11 0.868478 0.000000 0.173759
O O12 0.020825 0.736900 0.100552
O O13 0.690586 0.500000 0.014559
O O14 0.500000 0.667487 0.000000
#
# Coordination Sequence:
#
# PCOD9147213 Si02
#       5
#     4   4   4   4   4
#     4  10  19  34  58  83 109 143 182 224 267 314
#     4  11  24  39  55  79 111 144 179 221 270 324
#     4  10  21  38  59  82 108 140 181 226 270 320
#     4   9  18  33  55  83 111 141 181 225 267 315
#     4   9  17  30  51  80 113 146 179 217 264 319
#
# _framework density 18.075213000000002
#
# number of rings (size 3 to 8) (size 9 to 14) (size 15 to 20)
#    0.000    2.200    0.000    3.000    0.000    7.600 
#    0.000    1.000    0.000    6.000    0.000    0.000 
#    0.000    0.000    0.000    0.000    0.000    0.000 
#
# Total GULP energy -111681.032478 kJ/mol
# GULP energy per Si atom -5584.051624 kJ/mol
# Density = 1.803407 g / cm^3
# Si number density = 18.075213 Si / 1000 Ang^3
#
#
#
# Elastic Constant Matrix: (Units=GPa)
#
#
# Indices 1 2 3 4 5 6 
#
# 1 73.1873 79.0295 73.6912 0.0000 -6.9623 0.0000
# 2 79.0295 130.8889 125.5103 0.0000 1.7387 0.0000
# 3 73.6912 125.5103 187.0621 0.0000 0.9811 0.0000
# 4 0.0000 0.0000 0.0000 30.9511 0.0000 0.0728
# 5 -6.9623 1.7387 0.9811 0.0000 26.3566 0.0000
# 6 0.0000 0.0000 0.0000 0.0728 0.0000 24.5699
#
#
#
# Elastic Compliance Matrix: (Units=1/GPa)
#
#
# Indices 1 2 3 4 5 6 
#
# 1 0.043567 -0.027923 0.001502 0.000000 0.013295 0.000000
# 2 -0.027923 0.039340 -0.015346 0.000000 -0.009400 0.000000
# 3 0.001502 -0.015346 0.015046 0.000000 0.000849 0.000000
# 4 0.000000 0.000000 0.000000 0.032309 0.000000 -0.000096
# 5 0.013295 -0.009400 0.000849 0.000000 0.042042 0.000000
# 6 0.000000 0.000000 0.000000 -0.000096 0.000000 0.040700
#
#
# Mechanical properties :
#
#
# Convention : Reuss Voigt Hill
#
# Bulk Modulus (GPa) = 69.34710 105.28892 87.31801
# Shear Modulus (GPa) = 16.59226 23.90266 20.24746
#
# Velocity S-wave (km/s) = 3.03307 3.64043 3.35054
# Velocity P-wave (km/s) = 7.12146 8.72050 7.96123
#
# Compressibility (1/GPa) = 0.01442021
#
# Stress axis : x y z
#
# Youngs Moduli (GPa) = 22.95296 25.41936 66.46183
#
# Poissons Ratio (x) = 0.70978 -0.09984
# Poissons Ratio (y) = 0.64091 1.01994
# Poissons Ratio (z) = -0.03448 0.39009
#
# Static dielectric constant tensor:
#      x y z
#    x 1.600400 0.000000 -0.005100 
#    y 0.000000 1.603350 0.000000 
#    z -0.005100 0.000000 1.591820 
# 
# From -- ./inp_files/22107.got.cif
#   From: 2010.05.17/outbox.cif.g08.bks.cpg/sg10_12_cif.got.tgz:22107.got - 2010.06.03 11:33:40.
