data_PCOD9147969
_publ_section_title
;
Structure prediction by ZEFSAII (Michael W. Deem and Ramdas Pophale) SiO2 
 PCOD9147969
Probable space group: P 2/M
;
_chemical_formula_sum "Si O2"
_cell_formula_units_Z 28
_cell_length_a 9.363918
_cell_length_b 8.949207
_cell_length_c 27.600082
_cell_angle_alpha 90.000000
_cell_angle_beta 142.101006
_cell_angle_gamma 90.000000
_cell_volume 1420.734035
_symmetry_space_group_name_H-M "P 2/M"
_symmetry_group_IT_number 10
_symmetry_cell_setting 'monoclinic'
loop_
_space_group_symop_operation_xyz
x,y,z
-x,y,-z
-x,-y,-z
x,-y,z
loop_
_atom_site_type_symbol
_atom_site_label
_atom_site_fract_x
_atom_site_fract_y
_atom_site_fract_z
Si Si1 0.277701 0.671322 0.068461
Si Si2 0.526139 0.681473 0.233750
Si Si3 0.134918 0.321283 0.202684
Si Si4 0.261001 0.831174 0.964962
Si Si5 0.062268 0.679064 0.374391
Si Si6 0.720531 0.822236 0.662908
Si Si7 0.224014 0.321629 0.527359
O O1 0.355663 0.500000 0.080288
O O2 0.397799 0.725576 0.149805
O O3 0.321480 0.773129 0.034310
O O4 0.000000 0.667981 0.000000
O O5 0.525365 0.500000 0.234573
O O6 0.370902 0.727355 0.237946
O O7 0.793141 0.728697 0.305020
O O8 0.137484 0.500000 0.209320
O O9 0.124201 0.243628 0.251895
O O10 0.924881 0.273724 0.111477
O O11 0.166514 0.000000 0.941344
O O12 0.500000 0.830937 0.000000
O O13 0.068627 0.500000 0.367234
O O14 0.193865 0.758612 0.365758
O O15 0.170521 0.704371 0.456336
O O16 0.459006 0.764454 0.602540
O O17 0.729668 0.000000 0.665167
O O18 0.262319 0.500000 0.544817
O O19 0.000000 0.280866 0.500000
#
# Coordination Sequence:
#
# PCOD9147969 Si02
#       7
#     4   4   4   4   4   4   4
#     4  10  19  37  62  90 118 154 207 257 302 356
#     4   9  19  37  63  92 118 148 201 263 306 351
#     4  11  22  42  67  89 116 157 209 258 305 358
#     4  11  25  41  57  86 128 164 200 249 309 368
#     4  10  21  39  64  93 122 159 203 249 301 357
#     4  12  26  41  59  90 131 165 199 245 304 365
#     4  10  21  41  69  96 122 157 207 256 298 352
#
# _framework density 19.708120999999998
#
# number of rings (size 3 to 8) (size 9 to 14) (size 15 to 20)
#    0.000    1.571    1.429    3.429    2.000    6.286 
#    0.000    2.857    0.000    0.000    0.000    0.000 
#    0.000    0.000    0.000    0.000    0.000    0.000 
#
# Total GULP energy -156487.701442 kJ/mol
# GULP energy per Si atom -5588.846480 kJ/mol
# Density = 1.966326 g / cm^3
# Si number density = 19.708121 Si / 1000 Ang^3
#
#
#
# Elastic Constant Matrix: (Units=GPa)
#
#
# Indices 1 2 3 4 5 6 
#
# 1 97.6882 39.4324 8.4874 0.0000 -17.7304 0.0000
# 2 39.4324 58.9557 24.5786 0.0000 -14.2735 0.0000
# 3 8.4874 24.5786 64.9767 0.0000 -9.9886 0.0000
# 4 0.0000 0.0000 0.0000 42.9670 0.0000 -13.8896
# 5 -17.7304 -14.2735 -9.9886 0.0000 33.5314 0.0000
# 6 0.0000 0.0000 0.0000 -13.8896 0.0000 18.8422
#
#
#
# Elastic Compliance Matrix: (Units=1/GPa)
#
#
# Indices 1 2 3 4 5 6 
#
# 1 0.014798 -0.009873 0.002472 0.000000 0.004358 0.000000
# 2 -0.009873 0.028225 -0.008743 0.000000 0.004190 0.000000
# 3 0.002472 -0.008743 0.018867 0.000000 0.003206 0.000000
# 4 0.000000 0.000000 0.000000 0.030555 0.000000 0.022524
# 5 0.004358 0.004190 0.003206 0.000000 0.034866 0.000000
# 6 0.000000 0.000000 0.000000 0.022524 0.000000 0.069676
#
#
# Mechanical properties :
#
#
# Convention : Reuss Voigt Hill
#
# Bulk Modulus (GPa) = 33.78174 40.73530 37.25852
# Shear Modulus (GPa) = 20.90806 29.00957 24.95882
#
# Velocity S-wave (km/s) = 3.26066 3.84078 3.56254
# Velocity P-wave (km/s) = 5.59947 6.35476 5.98903
#
# Compressibility (1/GPa) = 0.02960179
#
# Stress axis : x y z
#
# Youngs Moduli (GPa) = 67.57541 35.43007 53.00206
#
# Poissons Ratio (x) = 0.34980 -0.13100
# Poissons Ratio (y) = 0.66717 0.46339
# Poissons Ratio (z) = -0.16702 0.30976
#
# Static dielectric constant tensor:
#      x y z
#    x 1.543770 0.000000 0.080580 
#    y 0.000000 1.669050 0.000000 
#    z 0.080580 0.000000 1.635200 
# 
# From -- ./inp_files/36692.got.cif
#   From: 2010.05.17/outbox.cif.g08.bks.cpg/sg10_19_cif.got.tgz:36692.got - 2010.06.03 11:33:40.
