data_PCOD9147804
_publ_section_title
;
Structure prediction by ZEFSAII (Michael W. Deem and Ramdas Pophale) SiO2 
 PCOD9147804
Probable space group: P 2/M
;
_chemical_formula_sum "Si O2"
_cell_formula_units_Z 24
_cell_length_a 9.311252
_cell_length_b 19.362248
_cell_length_c 9.627352
_cell_angle_alpha 90.000000
_cell_angle_beta 48.203114
_cell_angle_gamma 90.000000
_cell_volume 1293.973788
_symmetry_space_group_name_H-M "P 2/M"
_symmetry_group_IT_number 10
_symmetry_cell_setting 'monoclinic'
loop_
_space_group_symop_operation_xyz
x,y,z
-x,y,-z
-x,-y,-z
x,-y,z
loop_
_atom_site_type_symbol
_atom_site_label
_atom_site_fract_x
_atom_site_fract_y
_atom_site_fract_z
Si Si1 0.950845 0.922201 0.868235
Si Si2 0.215024 0.576801 0.808465
Si Si3 0.298855 0.692710 0.544612
Si Si4 0.315113 0.847177 0.519301
Si Si5 0.408273 0.819858 0.909305
Si Si6 0.463029 0.335162 0.859904
O O1 0.142858 0.899495 0.661448
O O2 0.893600 0.000000 0.864243
O O3 0.776352 0.868560 0.968321
O O4 0.000000 0.922563 0.000000
O O5 0.285614 0.500000 0.724027
O O6 0.204489 0.629845 0.686612
O O7 0.343737 0.608178 0.850629
O O8 0.000000 0.571373 0.000000
O O9 0.500000 0.698314 0.500000
O O10 0.222884 0.770687 0.602167
O O11 0.342213 0.674403 0.356650
O O12 0.500000 0.858218 0.500000
O O13 0.423060 0.845851 0.302248
O O14 0.360410 0.739780 0.905246
O O15 0.500000 0.817244 0.000000
O O16 0.500000 0.347895 0.000000
#
# Coordination Sequence:
#
# PCOD9147804 Si02
#       6
#     4   4   4   4   4   4
#     4  11  24  37  59  90 113 153 196 229 293 346
#     4  10  21  34  53  83 112 143 182 226 276 329
#     4   8  17  32  54  80 104 141 186 225 274 323
#     4  10  19  36  60  85 112 149 192 239 282 335
#     4  10  22  40  59  85 119 149 190 243 286 335
#     4   9  19  36  57  81 107 144 187 226 279 331
#
# _framework density 18.547516000000002
#
# number of rings (size 3 to 8) (size 9 to 14) (size 15 to 20)
#    0.000    2.333    1.667    1.000    2.333    5.333 
#    0.000    1.667    0.000    2.000    0.000    0.000 
#    0.000    0.000    0.000    0.000    0.000    0.000 
#
# Total GULP energy -133640.278783 kJ/mol
# GULP energy per Si atom -5568.344949 kJ/mol
# Density = 1.850530 g / cm^3
# Si number density = 18.547516 Si / 1000 Ang^3
#
#
#
# Elastic Constant Matrix: (Units=GPa)
#
#
# Indices 1 2 3 4 5 6 
#
# 1 21.3979 22.7032 14.4770 0.0000 3.1624 0.0000
# 2 22.7032 110.6389 34.0519 0.0000 -16.9202 0.0000
# 3 14.4770 34.0519 79.3944 0.0000 9.5658 0.0000
# 4 0.0000 0.0000 0.0000 22.0706 0.0000 -28.0961
# 5 3.1624 -16.9202 9.5658 0.0000 32.6600 0.0000
# 6 0.0000 0.0000 0.0000 -28.0961 0.0000 5.7721
#
#
#
# Elastic Compliance Matrix: (Units=1/GPa)
#
#
# Indices 1 2 3 4 5 6 
#
# 1 0.066732 -0.014192 -0.004579 0.000000 -0.012473 0.000000
# 2 -0.014192 0.015212 -0.005237 0.000000 0.010789 0.000000
# 3 -0.004579 -0.005237 0.016533 0.000000 -0.007112 0.000000
# 4 0.000000 0.000000 0.000000 -0.008719 0.000000 -0.042442
# 5 -0.012473 0.010789 -0.007112 0.000000 0.039499 0.000000
# 6 0.000000 0.000000 0.000000 -0.042442 0.000000 -0.033340
#
#
# Mechanical properties :
#
#
# Convention : Reuss Voigt Hill
#
# Bulk Modulus (GPa) = 19.81632 39.32172 29.56902
# Shear Modulus (GPa) = 31.10379 21.44715 26.27547
#
# Velocity S-wave (km/s) = 4.09954 3.40418 3.76793
# Velocity P-wave (km/s) = 5.75461 6.05787 5.90819
#
# Compressibility (1/GPa) = 0.05046345
#
# Stress axis : x y z
#
# Youngs Moduli (GPa) = 14.98532 65.73648 60.48490
#
# Poissons Ratio (x) = 0.93292 0.27693
# Poissons Ratio (y) = 0.21267 0.31674
# Poissons Ratio (z) = 0.06861 0.34424
#
# Static dielectric constant tensor:
#      x y z
#    x 1.612010 0.000000 0.014050 
#    y 0.000000 1.726190 0.000000 
#    z 0.014050 0.000000 1.653010 
# 
# From -- ./inp_files/20127.got.cif
#   From: 2010.05.17/outbox.cif.g08.bks.cpg/sg10_11_cif.got.tgz:20127.got - 2010.06.03 11:33:40.
