data_PCOD9147416
_publ_section_title
;
Structure prediction by ZEFSAII (Michael W. Deem and Ramdas Pophale) SiO2 
 PCOD9147416
Probable space group: P 2/M
;
_chemical_formula_sum "Si O2"
_cell_formula_units_Z 24
_cell_length_a 20.233019
_cell_length_b 8.767019
_cell_length_c 9.862941
_cell_angle_alpha 90.000000
_cell_angle_beta 129.628362
_cell_angle_gamma 90.000000
_cell_volume 1347.476634
_symmetry_space_group_name_H-M "P 2/M"
_symmetry_group_IT_number 10
_symmetry_cell_setting 'monoclinic'
loop_
_space_group_symop_operation_xyz
x,y,z
-x,y,-z
-x,-y,-z
x,-y,z
loop_
_atom_site_type_symbol
_atom_site_label
_atom_site_fract_x
_atom_site_fract_y
_atom_site_fract_z
Si Si1 0.468275 0.182012 0.111758
Si Si2 0.719965 0.683064 0.091547
Si Si3 0.248126 0.182787 0.155040
Si Si4 0.629894 0.682785 0.467933
Si Si5 0.214883 0.317031 0.532996
Si Si6 0.904320 0.816404 0.840707
O O1 0.540415 0.243056 0.308607
O O2 0.458775 0.000000 0.112938
O O3 0.500000 0.215470 0.000000
O O4 0.377849 0.262339 0.018615
O O5 0.722153 0.500000 0.085826
O O6 0.770870 0.731138 0.293742
O O7 0.755928 0.755450 0.001783
O O8 0.329308 0.254085 0.340353
O O9 0.163891 0.226800 0.131673
O O10 0.255555 0.000000 0.165484
O O11 0.622105 0.500000 0.463520
O O12 0.699868 0.723012 0.442590
O O13 0.207585 0.500000 0.519671
O O14 0.134636 0.246059 0.349907
O O15 0.905567 0.000000 0.835374
O O16 0.000000 0.762610 0.000000
#
# Coordination Sequence:
#
# PCOD9147416 Si02
#       6
#     4   4   4   4   4   4
#     4  11  22  34  53  81 111 144 187 230 269 314
#     4  11  22  37  55  79 112 148 184 223 272 323
#     4  10  21  37  56  81 112 142 179 227 276 323
#     4  10  19  35  56  78 107 146 188 227 270 318
#     4   9  19  34  55  81 108 141 181 222 266 321
#     4   9  19  37  61  85 108 138 177 220 269 329
#
# _framework density 17.811067999999999
#
# number of rings (size 3 to 8) (size 9 to 14) (size 15 to 20)
#    0.000    2.000    1.667    2.000    0.000    4.333 
#    0.000    4.167    0.000    5.000    0.000    0.000 
#    0.000    0.000    0.000    0.000    0.000    0.000 
#
# Total GULP energy -134023.103543 kJ/mol
# GULP energy per Si atom -5584.295981 kJ/mol
# Density = 1.777053 g / cm^3
# Si number density = 17.811068 Si / 1000 Ang^3
#
#
#
# Elastic Constant Matrix: (Units=GPa)
#
#
# Indices 1 2 3 4 5 6 
#
# 1 56.8219 20.1475 67.9819 0.0000 -1.7233 0.0000
# 2 20.1475 28.1737 29.8323 0.0000 -4.9268 0.0000
# 3 67.9819 29.8323 169.5509 0.0000 -1.5680 0.0000
# 4 0.0000 0.0000 0.0000 26.5797 0.0000 3.2014
# 5 -1.7233 -4.9268 -1.5680 0.0000 36.6410 0.0000
# 6 0.0000 0.0000 0.0000 3.2014 0.0000 15.5708
#
#
#
# Elastic Compliance Matrix: (Units=1/GPa)
#
#
# Indices 1 2 3 4 5 6 
#
# 1 0.037549 -0.013529 -0.012680 0.000000 -0.000596 0.000000
# 2 -0.013529 0.049649 -0.003257 0.000000 0.005900 0.000000
# 3 -0.012680 -0.003257 0.011550 0.000000 -0.000540 0.000000
# 4 0.000000 0.000000 0.000000 0.038578 0.000000 -0.007932
# 5 -0.000596 0.005900 -0.000540 0.000000 0.028034 0.000000
# 6 0.000000 0.000000 0.000000 -0.007932 0.000000 0.065854
#
#
# Mechanical properties :
#
#
# Convention : Reuss Voigt Hill
#
# Bulk Modulus (GPa) = 25.11558 54.49665 39.80611
# Shear Modulus (GPa) = 16.47895 24.86395 20.67145
#
# Velocity S-wave (km/s) = 3.04502 3.74034 3.41045
# Velocity P-wave (km/s) = 5.14729 7.02261 6.15677
#
# Compressibility (1/GPa) = 0.03981593
#
# Stress axis : x y z
#
# Youngs Moduli (GPa) = 26.63220 20.14136 86.57903
#
# Poissons Ratio (x) = 0.27249 1.09785
# Poissons Ratio (y) = 0.36031 0.28196
# Poissons Ratio (z) = 0.33770 0.06559
#
# Static dielectric constant tensor:
#      x y z
#    x 1.599200 0.000000 -0.011980 
#    y 0.000000 1.592800 0.000000 
#    z -0.011980 0.000000 1.592520 
# 
# From -- ./inp_files/27092.got.cif
#   From: 2010.05.17/outbox.cif.g08.bks.cpg/sg10_14_cif.got.tgz:27092.got - 2010.06.03 11:33:40.
