data_PCOD9147986
_publ_section_title
;
Structure prediction by ZEFSAII (Michael W. Deem and Ramdas Pophale) SiO2 
 PCOD9147986
Probable space group: P 2/M
;
_chemical_formula_sum "Si O2"
_cell_formula_units_Z 20
_cell_length_a 9.166253
_cell_length_b 13.804219
_cell_length_c 9.296782
_cell_angle_alpha 90.000000
_cell_angle_beta 124.642938
_cell_angle_gamma 90.000000
_cell_volume 967.795093
_symmetry_space_group_name_H-M "P 2/M"
_symmetry_group_IT_number 10
_symmetry_cell_setting 'monoclinic'
loop_
_space_group_symop_operation_xyz
x,y,z
-x,y,-z
-x,-y,-z
x,-y,z
loop_
_atom_site_type_symbol
_atom_site_label
_atom_site_fract_x
_atom_site_fract_y
_atom_site_fract_z
Si Si1 0.655196 0.387564 0.974158
Si Si2 0.294760 0.890627 0.887510
Si Si3 0.038069 0.706385 0.688541
Si Si4 0.680599 0.710221 0.674254
Si Si5 0.186606 0.894012 0.149720
O O1 0.629734 0.500000 0.922142
O O2 0.677248 0.328847 0.836774
O O3 0.500000 0.359799 0.000000
O O4 0.830221 0.369482 0.164907
O O5 0.147321 0.810396 0.758911
O O6 0.275637 0.000000 0.810454
O O7 0.500000 0.858204 0.000000
O O8 0.271320 0.904030 0.043318
O O9 0.000000 0.689602 0.500000
O O10 0.856007 0.693455 0.676858
O O11 0.500000 0.675962 0.500000
O O12 0.690354 0.826844 0.688390
O O13 0.147752 0.000000 0.191790
O O14 0.000000 0.844819 0.000000
#
# Coordination Sequence:
#
# PCOD9147986 Si02
#       5
#     4   4   4   4   4
#     4  11  25  48  74  97 126 164 209 268 333 392
#     4  10  21  38  64  93 129 176 222 268 319 376
#     4  12  25  41  66  98 134 173 217 266 320 384
#     4  12  25  41  66  99 132 174 217 264 323 384
#     4  10  19  37  63  90 127 175 221 264 316 375
#
# _framework density 20.665531999999999
#
# number of rings (size 3 to 8) (size 9 to 14) (size 15 to 20)
#    0.000    1.000    4.000    2.400    2.800    3.200 
#    0.000    0.000    0.000    0.000    0.000    0.000 
#    0.000    0.000    0.000    0.000    0.000    0.000 
#
# Total GULP energy -111347.572769 kJ/mol
# GULP energy per Si atom -5567.378638 kJ/mol
# Density = 2.061850 g / cm^3
# Si number density = 20.665532 Si / 1000 Ang^3
#
#
#
# Elastic Constant Matrix: (Units=GPa)
#
#
# Indices 1 2 3 4 5 6 
#
# 1 190.9483 31.7515 78.2979 0.0000 10.0438 0.0000
# 2 31.7515 62.6392 -1.1349 0.0000 3.2445 0.0000
# 3 78.2979 -1.1349 95.3232 0.0000 2.5366 0.0000
# 4 0.0000 0.0000 0.0000 5.5014 0.0000 0.0731
# 5 10.0438 3.2445 2.5366 0.0000 33.2839 0.0000
# 6 0.0000 0.0000 0.0000 0.0731 0.0000 19.6638
#
#
#
# Elastic Compliance Matrix: (Units=1/GPa)
#
#
# Indices 1 2 3 4 5 6 
#
# 1 0.009226 -0.004723 -0.007588 0.000000 -0.001745 0.000000
# 2 -0.004723 0.018469 0.004118 0.000000 -0.000689 0.000000
# 3 -0.007588 0.004118 0.016756 0.000000 0.000611 0.000000
# 4 0.000000 0.000000 0.000000 0.181781 0.000000 -0.000675
# 5 -0.001745 -0.000689 0.000611 0.000000 0.030592 0.000000
# 6 0.000000 0.000000 0.000000 -0.000675 0.000000 0.050857
#
#
# Mechanical properties :
#
#
# Convention : Reuss Voigt Hill
#
# Bulk Modulus (GPa) = 35.63241 62.97109 49.30175
# Shear Modulus (GPa) = 14.99606 27.68957 21.34282
#
# Velocity S-wave (km/s) = 2.69672 3.66442 3.21717
# Velocity P-wave (km/s) = 5.19387 6.96001 6.14077
#
# Compressibility (1/GPa) = 0.02806433
#
# Stress axis : x y z
#
# Youngs Moduli (GPa) = 108.39502 54.14468 59.68090
#
# Poissons Ratio (x) = 0.25575 0.45283
# Poissons Ratio (y) = 0.51200 -0.24577
# Poissons Ratio (z) = 0.82246 -0.22297
#
# Static dielectric constant tensor:
#      x y z
#    x -0.243200 0.000000 -0.416120 
#    y 0.000000 1.868450 0.000000 
#    z -0.416120 0.000000 1.617450 
# 
# From -- ./inp_files/19725.got.cif
#   From: 2010.05.17/outbox.cif.g08.bks.cpg/sg10_10_cif.got.tgz:19725.got - 2010.06.03 11:33:40.
