data_PCOD9147642
_publ_section_title
;
Structure prediction by ZEFSAII (Michael W. Deem and Ramdas Pophale) SiO2 
 PCOD9147642
Probable space group: P 2/M
;
_chemical_formula_sum "Si O2"
_cell_formula_units_Z 24
_cell_length_a 25.696330
_cell_length_b 7.727846
_cell_length_c 11.209442
_cell_angle_alpha 90.000000
_cell_angle_beta 36.315635
_cell_angle_gamma 90.000000
_cell_volume 1318.275607
_symmetry_space_group_name_H-M "P 2/M"
_symmetry_group_IT_number 10
_symmetry_cell_setting 'monoclinic'
loop_
_space_group_symop_operation_xyz
x,y,z
-x,y,-z
-x,-y,-z
x,-y,z
loop_
_atom_site_type_symbol
_atom_site_label
_atom_site_fract_x
_atom_site_fract_y
_atom_site_fract_z
Si Si1 0.721580 0.203443 0.478207
Si Si2 0.562113 0.500000 0.501251
Si Si3 0.956920 0.709375 0.394585
Si Si4 0.305145 0.188764 0.748354
Si Si5 0.133546 0.290960 0.191169
Si Si6 0.090242 0.200110 0.779737
Si Si7 0.424625 0.500000 0.241177
O O1 0.733502 0.204918 0.313461
O O2 0.813824 0.269680 0.362325
O O3 0.639735 0.331929 0.654109
O O4 0.705939 0.000000 0.542124
O O5 0.500000 0.500000 0.500000
O O6 0.622737 0.333435 0.373109
O O7 0.537790 0.500000 0.689917
O O8 0.955116 0.500000 0.387272
O O9 0.899955 0.756165 0.615642
O O10 0.921475 0.789401 0.339887
O O11 0.056875 0.760739 0.240467
O O12 0.345227 0.000000 0.686888
O O13 0.225875 0.213437 0.985712
O O14 0.139771 0.500000 0.174926
O O15 0.092778 0.000000 0.816437
O O16 0.000000 0.278962 0.000000
O O17 0.500000 0.500000 0.000000
#
# Coordination Sequence:
#
# PCOD9147642 Si02
#       7
#     4   2   4   4   4   4   2
#     4   9  20  37  57  84 116 145 185 235 273 328
#     4  10  22  42  62  86 115 138 171 241 292 334
#     4   9  19  31  48  74 110 151 188 226 263 314
#     4  10  19  35  61  83 106 145 184 220 276 339
#     4   9  17  33  50  74 111 149 186 227 271 313
#     4  10  20  34  50  76 115 150 184 230 275 317
#     4  10  22  42  65  87 107 149 197 225 289 359
#
# _framework density 18.205601000000001
#
# number of rings (size 3 to 8) (size 9 to 14) (size 15 to 20)
#    0.000    2.500    0.833    2.000    1.167    3.667 
#    3.000    1.667    0.000    0.000    0.000    0.000 
#    0.000    0.000    0.000    0.000    0.000    0.000 
#
# Total GULP energy -133759.111876 kJ/mol
# GULP energy per Si atom -5573.296328 kJ/mol
# Density = 1.816416 g / cm^3
# Si number density = 18.205601 Si / 1000 Ang^3
#
#
#
# Elastic Constant Matrix: (Units=GPa)
#
#
# Indices 1 2 3 4 5 6 
#
# 1 119.9846 37.4209 49.6583 0.0000 -15.5979 0.0000
# 2 37.4209 74.3904 37.6297 0.0000 -2.6000 0.0000
# 3 49.6583 37.6297 103.4694 0.0000 0.9120 0.0000
# 4 0.0000 0.0000 0.0000 57.9039 0.0000 -17.8032
# 5 -15.5979 -2.6000 0.9120 0.0000 10.5025 0.0000
# 6 0.0000 0.0000 0.0000 -17.8032 0.0000 31.1440
#
#
#
# Elastic Compliance Matrix: (Units=1/GPa)
#
#
# Indices 1 2 3 4 5 6 
#
# 1 0.014716 -0.003657 -0.005922 0.000000 0.021465 0.000000
# 2 -0.003657 0.017607 -0.004642 0.000000 -0.000669 0.000000
# 3 -0.005922 -0.004642 0.014294 0.000000 -0.011186 0.000000
# 4 0.000000 0.000000 0.000000 0.020953 0.000000 0.011977
# 5 0.021465 -0.000669 -0.011186 0.000000 0.127900 0.000000
# 6 0.000000 0.000000 0.000000 0.011977 0.000000 0.038956
#
#
# Mechanical properties :
#
#
# Convention : Reuss Voigt Hill
#
# Bulk Modulus (GPa) = 55.02234 60.80692 57.91463
# Shear Modulus (GPa) = 18.59247 31.45245 25.02246
#
# Velocity S-wave (km/s) = 3.19917 4.16098 3.71136
# Velocity P-wave (km/s) = 6.62832 7.52048 7.08845
#
# Compressibility (1/GPa) = 0.01817444
#
# Stress axis : x y z
#
# Youngs Moduli (GPa) = 67.95159 56.79542 69.96046
#
# Poissons Ratio (x) = 0.20770 0.41431
# Poissons Ratio (y) = 0.24850 0.32478
# Poissons Ratio (z) = 0.40241 0.26366
#
# Static dielectric constant tensor:
#      x y z
#    x 1.626990 0.000000 -0.001830 
#    y 0.000000 3.683390 0.000000 
#    z -0.001830 0.000000 1.605410 
# 
# From -- ./inp_files/56567.got.cif
#   From: 2010.05.17/outbox.cif.g08.bks.cpg/sg10_29_cif.got.tgz:56567.got - 2010.06.03 11:33:40.
