data_PCOD9147633
_publ_section_title
;
Structure prediction by ZEFSAII (Michael W. Deem and Ramdas Pophale) SiO2 
 PCOD9147633
Probable space group: P 2/M
;
_chemical_formula_sum "Si O2"
_cell_formula_units_Z 32
_cell_length_a 15.326388
_cell_length_b 7.618021
_cell_length_c 22.946900
_cell_angle_alpha 90.000000
_cell_angle_beta 31.790250
_cell_angle_gamma 90.000000
_cell_volume 1411.435292
_symmetry_space_group_name_H-M "P 2/M"
_symmetry_group_IT_number 10
_symmetry_cell_setting 'monoclinic'
loop_
_space_group_symop_operation_xyz
x,y,z
-x,y,-z
-x,-y,-z
x,-y,z
loop_
_atom_site_type_symbol
_atom_site_label
_atom_site_fract_x
_atom_site_fract_y
_atom_site_fract_z
Si Si1 0.111713 0.287826 0.294429
Si Si2 0.848329 0.288179 0.128237
Si Si3 0.040217 0.794906 0.805916
Si Si4 0.547349 0.284503 0.846856
Si Si5 0.734572 0.204891 0.530576
Si Si6 0.735452 0.299148 0.912943
Si Si7 0.540242 0.702662 0.229386
Si Si8 0.338995 0.785284 0.556008
O O1 0.098992 0.500000 0.300083
O O2 0.261954 0.237387 0.251555
O O3 0.170552 0.224239 0.196805
O O4 0.932128 0.222921 0.415326
O O5 0.842491 0.500000 0.135900
O O6 0.886175 0.223661 0.171551
O O7 0.678802 0.222953 0.194526
O O8 0.000000 0.240071 0.000000
O O9 0.175801 0.727493 0.682992
O O10 0.866594 0.703243 0.891561
O O11 0.011848 0.000000 0.810721
O O12 0.540944 0.500000 0.850488
O O13 0.476367 0.220042 0.825628
O O14 0.433389 0.222812 0.965298
O O15 0.637557 0.292095 0.638459
O O16 0.665969 0.274360 0.507700
O O17 0.693388 0.000000 0.557737
O O18 0.697174 0.500000 0.918165
O O19 0.589862 0.500000 0.192678
O O20 0.500000 0.729085 0.500000
O O21 0.337453 0.000000 0.556514
#
# Coordination Sequence:
#
# PCOD9147633 Si02
#       8
#     4   4   4   4   4   4   4   4
#     4  10  20  36  61  89 115 146 193 241 286 344
#     4  10  21  38  59  84 116 153 191 237 290 338
#     4  11  21  34  55  83 115 150 189 228 281 344
#     4   9  19  37  61  86 112 150 192 238 292 344
#     4  11  22  38  58  80 117 156 191 236 289 342
#     4  10  19  35  60  88 118 148 187 238 292 346
#     4  10  21  38  59  83 114 151 196 240 283 338
#     4   9  18  33  52  74 103 143 184 223 272 329
#
# _framework density 22.671955000000001
#
# number of rings (size 3 to 8) (size 9 to 14) (size 15 to 20)
#    0.000    2.000    1.250    2.625    0.000    5.750 
#    0.000    5.625    0.000    4.500    0.000    0.000 
#    0.000    0.000    0.000    0.000    0.000    0.000 
#
# Total GULP energy -178848.620864 kJ/mol
# GULP energy per Si atom -5589.019402 kJ/mol
# Density = 2.262035 g / cm^3
# Si number density = 22.671955 Si / 1000 Ang^3
#
#
#
# Elastic Constant Matrix: (Units=GPa)
#
#
# Indices 1 2 3 4 5 6 
#
# 1 74.1652 -0.2373 1.5047 0.0000 -5.7064 0.0000
# 2 -0.2373 52.2963 -5.2923 0.0000 0.7691 0.0000
# 3 1.5047 -5.2923 85.0852 0.0000 -6.6349 0.0000
# 4 0.0000 0.0000 0.0000 1711.3445 0.0000 -392.6167
# 5 -5.7064 0.7691 -6.6349 0.0000 42.8590 0.0000
# 6 0.0000 0.0000 0.0000 -392.6167 0.0000 92.2375
#
#
#
# Elastic Compliance Matrix: (Units=1/GPa)
#
#
# Indices 1 2 3 4 5 6 
#
# 1 0.013624 0.000025 -0.000099 0.000000 0.001798 0.000000
# 2 0.000025 0.019244 0.001184 0.000000 -0.000159 0.000000
# 3 -0.000099 0.001184 0.011970 0.000000 0.001819 0.000000
# 4 0.000000 0.000000 0.000000 0.024913 0.000000 0.106046
# 5 0.001798 -0.000159 0.001819 0.000000 0.023856 0.000000
# 6 0.000000 0.000000 0.000000 0.106046 0.000000 0.462236
#
#
# Mechanical properties :
#
#
# Convention : Reuss Voigt Hill
#
# Bulk Modulus (GPa) = 21.24999 22.61076 21.93038
# Shear Modulus (GPa) = 8.78258 383.65965 196.22111
#
# Velocity S-wave (km/s) = 1.97032 13.02265 9.31321
# Velocity P-wave (km/s) = 3.81699 15.36600 11.19561
#
# Compressibility (1/GPa) = 0.04705884
#
# Stress axis : x y z
#
# Youngs Moduli (GPa) = 73.40067 51.96400 83.54113
#
# Poissons Ratio (x) = -0.00132 0.00828
# Poissons Ratio (y) = -0.00186 -0.09893
# Poissons Ratio (z) = 0.00728 -0.06153
#
# Static dielectric constant tensor:
#      x y z
#    x 1.835630 0.000000 -0.004660 
#    y 0.000000 1.862060 0.000000 
#    z -0.004660 0.000000 1.817480 
# 
# From -- ./inp_files/71509.got.cif
#   From: 2010.05.17/outbox.cif.g08.bks.cpg/sg10_36_cif.got.tgz:71509.got - 2010.06.03 11:33:40.
