data_PCOD9147658
_publ_section_title
;
Structure prediction by ZEFSAII (Michael W. Deem and Ramdas Pophale) SiO2 
 PCOD9147658
Probable space group: P 2/M
;
_chemical_formula_sum "Si O2"
_cell_formula_units_Z 22
_cell_length_a 9.207389
_cell_length_b 9.904489
_cell_length_c 12.537171
_cell_angle_alpha 90.000000
_cell_angle_beta 76.848347
_cell_angle_gamma 90.000000
_cell_volume 1113.332943
_symmetry_space_group_name_H-M "P 2/M"
_symmetry_group_IT_number 10
_symmetry_cell_setting 'monoclinic'
loop_
_space_group_symop_operation_xyz
x,y,z
-x,y,-z
-x,-y,-z
x,-y,z
loop_
_atom_site_type_symbol
_atom_site_label
_atom_site_fract_x
_atom_site_fract_y
_atom_site_fract_z
Si Si1 0.643147 0.341619 0.156515
Si Si2 0.135684 0.657998 0.061829
Si Si3 0.343074 0.348050 0.317570
Si Si4 0.100964 0.840015 0.276595
Si Si5 0.764803 0.847443 0.319467
Si Si6 0.500000 0.744628 0.500000
O O1 0.669907 0.500000 0.174503
O O2 0.467736 0.318831 0.205805
O O3 0.730358 0.253883 0.228987
O O4 0.712396 0.315692 0.029360
O O5 0.134797 0.500000 0.096787
O O6 0.117160 0.761346 0.161396
O O7 0.000000 0.672832 0.000000
O O8 0.285341 0.500000 0.312297
O O9 0.216031 0.236242 0.333655
O O10 0.431037 0.339640 0.414320
O O11 0.928719 0.822753 0.338883
O O12 0.131840 0.000000 0.262962
O O13 0.634226 0.829541 0.426835
O O14 0.763505 0.000000 0.277439
#
# Coordination Sequence:
#
# PCOD9147658 Si02
#       6
#     4   4   4   4   4   2
#     4   9  19  36  60  87 116 152 197 240 281 337
#     4  10  19  35  61  89 117 156 196 235 285 338
#     4  10  22  41  62  86 116 151 193 243 291 341
#     4  11  24  38  56  88 125 155 190 236 286 344
#     4  10  21  37  59  86 116 152 191 237 289 346
#     4  10  22  42  66  86 106 146 198 246 296 348
#
# _framework density 19.760486
#
# number of rings (size 3 to 8) (size 9 to 14) (size 15 to 20)
#    0.000    2.000    1.818    1.091    0.000    7.636 
#    0.000    6.364    0.000    0.000    0.000    0.000 
#    0.000    0.000    0.000    0.000    0.000    0.000 
#
# Total GULP energy -122821.348085 kJ/mol
# GULP energy per Si atom -5582.788549 kJ/mol
# Density = 1.971551 g / cm^3
# Si number density = 19.760486 Si / 1000 Ang^3
#
#
#
# Elastic Constant Matrix: (Units=GPa)
#
#
# Indices 1 2 3 4 5 6 
#
# 1 104.5924 72.9009 45.1940 0.0000 -10.6570 0.0000
# 2 72.9009 92.4744 25.6221 0.0000 -7.2698 0.0000
# 3 45.1940 25.6221 67.7712 0.0000 -7.7772 0.0000
# 4 0.0000 0.0000 0.0000 23.7318 0.0000 0.0746
# 5 -10.6570 -7.2698 -7.7772 0.0000 31.0467 0.0000
# 6 0.0000 0.0000 0.0000 0.0746 0.0000 25.1656
#
#
#
# Elastic Compliance Matrix: (Units=1/GPa)
#
#
# Indices 1 2 3 4 5 6 
#
# 1 0.027317 -0.018295 -0.011033 0.000000 0.002329 0.000000
# 2 -0.018295 0.024423 0.002988 0.000000 0.000187 0.000000
# 3 -0.011033 0.002988 0.021239 0.000000 0.002233 0.000000
# 4 0.000000 0.000000 0.000000 0.042138 0.000000 -0.000125
# 5 0.002329 0.000187 0.002233 0.000000 0.033612 0.000000
# 6 0.000000 0.000000 0.000000 -0.000125 0.000000 0.039737
#
#
# Mechanical properties :
#
#
# Convention : Reuss Voigt Hill
#
# Bulk Modulus (GPa) = 49.25983 61.36356 55.31170
# Shear Modulus (GPa) = 20.16835 24.06354 22.11595
#
# Velocity S-wave (km/s) = 3.19821 3.49343 3.34907
# Velocity P-wave (km/s) = 6.21455 6.88427 6.55796
#
# Compressibility (1/GPa) = 0.02030051
#
# Stress axis : x y z
#
# Youngs Moduli (GPa) = 36.60713 40.94455 47.08251
#
# Poissons Ratio (x) = 0.74908 0.51944
# Poissons Ratio (y) = 0.66973 -0.14069
# Poissons Ratio (z) = 0.40387 -0.12235
#
# Static dielectric constant tensor:
#      x y z
#    x 1.723530 0.000000 -0.010440 
#    y 0.000000 1.660900 0.000000 
#    z -0.010440 0.000000 1.699930 
# 
# From -- ./inp_files/60212.got.cif
#   From: 2010.05.17/outbox.cif.g08.bks.cpg/sg10_31_cif.got.tgz:60212.got - 2010.06.03 11:33:40.
