data_PCOD9147123
_publ_section_title
;
Structure prediction by ZEFSAII (Michael W. Deem and Ramdas Pophale) SiO2 
 PCOD9147123
Probable space group: P 2/M
;
_chemical_formula_sum "Si O2"
_cell_formula_units_Z 32
_cell_length_a 22.317339
_cell_length_b 8.902029
_cell_length_c 11.375480
_cell_angle_alpha 90.000000
_cell_angle_beta 130.969773
_cell_angle_gamma 90.000000
_cell_volume 1706.396970
_symmetry_space_group_name_H-M "P 2/M"
_symmetry_group_IT_number 10
_symmetry_cell_setting 'monoclinic'
loop_
_space_group_symop_operation_xyz
x,y,z
-x,y,-z
-x,-y,-z
x,-y,z
loop_
_atom_site_type_symbol
_atom_site_label
_atom_site_fract_x
_atom_site_fract_y
_atom_site_fract_z
Si Si1 0.963937 0.318603 0.828301
Si Si2 0.653402 0.672417 0.919593
Si Si3 0.196598 0.317247 0.492065
Si Si4 0.096346 0.822867 0.845333
Si Si5 0.231929 0.329589 0.157080
Si Si6 0.503882 0.179128 0.368144
Si Si7 0.663588 0.678881 0.478978
Si Si8 0.810925 0.318121 0.250635
O O1 0.966926 0.500000 0.829828
O O2 0.873284 0.271931 0.687049
O O3 0.017461 0.254997 0.792101
O O4 0.000000 0.269364 0.000000
O O5 0.631356 0.500000 0.918328
O O6 0.701364 0.672594 0.858255
O O7 0.574940 0.767992 0.800498
O O8 0.720611 0.723430 0.097934
O O9 0.198901 0.500000 0.492507
O O10 0.284075 0.267811 0.564224
O O11 0.175232 0.273869 0.597230
O O12 0.129353 0.753959 0.766238
O O13 0.086448 0.000000 0.821843
O O14 0.163686 0.781978 0.028663
O O15 0.197977 0.500000 0.118254
O O16 0.276453 0.298647 0.334670
O O17 0.500000 0.233284 0.500000
O O18 0.581783 0.241766 0.404536
O O19 0.507437 0.000000 0.375635
O O20 0.648610 0.500000 0.449904
O O21 0.816220 0.500000 0.245873
#
# Coordination Sequence:
#
# PCOD9147123 Si02
#       8
#     4   4   4   4   4   4   4   4
#     4  10  20  37  61  86 114 144 179 223 277 330
#     4   9  17  31  53  77 103 139 179 226 272 316
#     4   9  19  36  60  84 105 139 186 235 274 318
#     4  11  22  34  53  82 114 148 185 224 271 322
#     4   9  17  31  53  80 109 141 180 225 274 326
#     4  11  22  33  49  79 116 146 176 218 272 334
#     4  10  19  34  57  82 108 139 181 228 279 328
#     4   9  19  38  59  80 107 142 190 233 271 316
#
# _framework density 18.752965
#
# number of rings (size 3 to 8) (size 9 to 14) (size 15 to 20)
#    0.000    2.250    1.250    3.000    0.000    5.750 
#    0.000    5.000    0.000    3.750    0.000    0.000 
#    0.000    0.000    0.000    0.000    0.000    0.000 
#
# Total GULP energy -178542.599008 kJ/mol
# GULP energy per Si atom -5579.456219 kJ/mol
# Density = 1.871028 g / cm^3
# Si number density = 18.752965 Si / 1000 Ang^3
#
#
#
# Elastic Constant Matrix: (Units=GPa)
#
#
# Indices 1 2 3 4 5 6 
#
# 1 104.2035 25.5794 44.9743 0.0000 17.4465 0.0000
# 2 25.5794 22.5956 19.3646 0.0000 5.0566 0.0000
# 3 44.9743 19.3646 67.6098 0.0000 0.4035 0.0000
# 4 0.0000 0.0000 0.0000 -6.4934 0.0000 -15.0556
# 5 17.4465 5.0566 0.4035 0.0000 28.4178 0.0000
# 6 0.0000 0.0000 0.0000 -15.0556 0.0000 -8.0657
#
#
#
# Elastic Compliance Matrix: (Units=1/GPa)
#
#
# Indices 1 2 3 4 5 6 
#
# 1 0.017219 -0.010328 -0.008444 0.000000 -0.008613 0.000000
# 2 -0.010328 0.067961 -0.012562 0.000000 -0.005574 0.000000
# 3 -0.008444 -0.012562 0.023964 0.000000 0.007079 0.000000
# 4 0.000000 0.000000 0.000000 0.046276 0.000000 -0.086379
# 5 -0.008613 -0.005574 0.007079 0.000000 0.041368 0.000000
# 6 0.000000 0.000000 0.000000 -0.086379 0.000000 0.037255
#
#
# Mechanical properties :
#
#
# Convention : Reuss Voigt Hill
#
# Bulk Modulus (GPa) = 21.51691 41.58285 31.54988
# Shear Modulus (GPa) = 16.01526 9.73778 12.87652
#
# Velocity S-wave (km/s) = 2.92552 2.28121 2.62322
# Velocity P-wave (km/s) = 4.78647 5.40007 5.10250
#
# Compressibility (1/GPa) = 0.04647506
#
# Stress axis : x y z
#
# Youngs Moduli (GPa) = 58.07701 14.71435 41.72986
#
# Poissons Ratio (x) = 0.15197 0.35238
# Poissons Ratio (y) = 0.59981 0.52420
# Poissons Ratio (z) = 0.49042 0.18484
#
# Static dielectric constant tensor:
#      x y z
#    x 1.657550 0.000000 -0.011730 
#    y 0.000000 1.632600 0.000000 
#    z -0.011730 0.000000 1.655050 
# 
# From -- ./inp_files/55361.got.cif
#   From: 2010.05.17/outbox.cif.g08.bks.cpg/sg10_28_cif.got.tgz:55361.got - 2010.06.03 11:33:40.
