data_PCOD9147634
_publ_section_title
;
Structure prediction by ZEFSAII (Michael W. Deem and Ramdas Pophale) SiO2 
 PCOD9147634
Probable space group: P 2/M
;
_chemical_formula_sum "Si O2"
_cell_formula_units_Z 28
_cell_length_a 16.162981
_cell_length_b 7.889830
_cell_length_c 25.062782
_cell_angle_alpha 90.000000
_cell_angle_beta 156.229002
_cell_angle_gamma 90.000000
_cell_volume 1288.284875
_symmetry_space_group_name_H-M "P 2/M"
_symmetry_group_IT_number 10
_symmetry_cell_setting 'monoclinic'
loop_
_space_group_symop_operation_xyz
x,y,z
-x,y,-z
-x,-y,-z
x,-y,z
loop_
_atom_site_type_symbol
_atom_site_label
_atom_site_fract_x
_atom_site_fract_y
_atom_site_fract_z
Si Si1 0.970311 0.701252 0.122774
Si Si2 0.776110 0.294773 0.114290
Si Si3 0.429197 0.800897 0.400331
Si Si4 0.408470 0.698711 0.612550
Si Si5 0.701738 0.295410 0.186275
Si Si6 0.792546 0.706867 0.909001
Si Si7 0.972024 0.804057 0.542155
O O1 0.930771 0.500000 0.101635
O O2 0.210554 0.724882 0.253767
O O3 0.916567 0.771437 0.149538
O O4 0.829366 0.767593 0.991328
O O5 0.796917 0.500000 0.129279
O O6 0.805911 0.235761 0.192356
O O7 0.539555 0.259576 0.959930
O O8 0.500000 0.731526 0.500000
O O9 0.583902 0.774649 0.442365
O O10 0.395052 0.000000 0.387029
O O11 0.445878 0.500000 0.626759
O O12 0.593558 0.767214 0.759236
O O13 0.198545 0.721398 0.520798
O O14 0.722941 0.500000 0.202848
O O15 0.812534 0.211581 0.300866
O O16 0.780753 0.500000 0.903694
O O17 0.000000 0.750885 0.000000
O O18 0.000000 0.727484 0.500000
O O19 0.911047 0.000000 0.500152
#
# Coordination Sequence:
#
# PCOD9147634 Si02
#       7
#     4   4   4   4   4   4   4
#     4  10  19  35  60  88 118 154 197 245 297 350
#     4   8  17  33  59  91 119 147 190 255 305 343
#     4  11  25  42  58  85 127 167 201 240 293 360
#     4  11  23  41  67  92 115 153 204 254 302 351
#     4   9  18  37  61  88 117 150 201 251 298 351
#     4   9  17  33  57  87 117 142 183 245 298 343
#     4  11  26  44  59  83 125 166 200 243 299 359
#
# _framework density 21.734321000000001
#
# number of rings (size 3 to 8) (size 9 to 14) (size 15 to 20)
#    0.000    2.143    1.429    2.143    4.000    2.286 
#    0.000    4.286    0.000    0.000    0.000    0.000 
#    0.000    0.000    0.000    0.000    0.000    0.000 
#
# Total GULP energy -156340.222570 kJ/mol
# GULP energy per Si atom -5583.579378 kJ/mol
# Density = 2.168485 g / cm^3
# Si number density = 21.734321 Si / 1000 Ang^3
#
#
#
# Elastic Constant Matrix: (Units=GPa)
#
#
# Indices 1 2 3 4 5 6 
#
# 1 117.5426 -1.7345 15.4878 0.0000 -25.1074 0.0000
# 2 -1.7345 20.0674 -2.4034 0.0000 -4.4782 0.0000
# 3 15.4878 -2.4034 65.0078 0.0000 -31.1453 0.0000
# 4 0.0000 0.0000 0.0000-1544.5989 0.0000 -512.3617
# 5 -25.1074 -4.4782 -31.1453 0.0000 34.9150 0.0000
# 6 0.0000 0.0000 0.0000 -512.3617 0.0000 -155.8831
#
#
#
# Elastic Compliance Matrix: (Units=1/GPa)
#
#
# Indices 1 2 3 4 5 6 
#
# 1 0.010400 0.003473 0.002527 0.000000 0.010178 0.000000
# 2 0.003473 0.055527 0.010188 0.000000 0.018707 0.000000
# 3 0.002527 0.010188 0.029084 0.000000 0.029067 0.000000
# 4 0.000000 0.000000 0.000000 0.007171 0.000000 -0.023570
# 5 0.010178 0.018707 0.029067 0.000000 0.064289 0.000000
# 6 0.000000 0.000000 0.000000 -0.023570 0.000000 0.071057
#
#
# Mechanical properties :
#
#
# Convention : Reuss Voigt Hill
#
# Bulk Modulus (GPa) = 7.85009 25.03530 16.44269
# Shear Modulus (GPa) = 20.19279 -320.36223 -150.08472
#
# Velocity S-wave (km/s) = 3.05138 -12.15398 -8.31890
# Velocity P-wave (km/s) = 4.00428 13.61672 9.20274
#
# Compressibility (1/GPa) = 0.12738713
#
# Stress axis : x y z
#
# Youngs Moduli (GPa) = 96.15452 18.00918 34.38364
#
# Poissons Ratio (x) = -0.06254 -0.08689
# Poissons Ratio (y) = -0.33393 -0.35031
# Poissons Ratio (z) = -0.24299 -0.18348
#
# Static dielectric constant tensor:
#      x y z
#    x 1.806590 0.000000 -0.036090 
#    y 0.000000 1.790600 0.000000 
#    z -0.036090 0.000000 1.780580 
# 
# From -- ./inp_files/84961.got.cif
#   From: 2010.05.17/outbox.cif.g08.bks.cpg/sg10_43_cif.got.tgz:84961.got - 2010.06.03 11:33:40.
