data_PCOD9147767
_publ_section_title
;
Structure prediction by ZEFSAII (Michael W. Deem and Ramdas Pophale) SiO2 
 PCOD9147767
Probable space group: P 2/M
;
_chemical_formula_sum "Si O2"
_cell_formula_units_Z 32
_cell_length_a 31.017490
_cell_length_b 7.981954
_cell_length_c 13.381543
_cell_angle_alpha 90.000000
_cell_angle_beta 27.723226
_cell_angle_gamma 90.000000
_cell_volume 1541.212881
_symmetry_space_group_name_H-M "P 2/M"
_symmetry_group_IT_number 10
_symmetry_cell_setting 'monoclinic'
loop_
_space_group_symop_operation_xyz
x,y,z
-x,y,-z
-x,-y,-z
x,-y,z
loop_
_atom_site_type_symbol
_atom_site_label
_atom_site_fract_x
_atom_site_fract_y
_atom_site_fract_z
Si Si1 0.295582 0.199448 0.418203
Si Si2 0.289142 0.694615 0.050835
Si Si3 0.271382 0.705441 0.865958
Si Si4 0.900952 0.204605 0.241755
Si Si5 0.941825 0.297627 0.716673
Si Si6 0.406373 0.196311 0.997577
Si Si7 0.615206 0.303935 0.558101
Si Si8 0.897476 0.802085 0.479245
O O1 0.189744 0.262822 0.632000
O O2 0.345577 0.229107 0.419985
O O3 0.289548 0.000000 0.414713
O O4 0.353772 0.265338 0.203757
O O5 0.316357 0.500000 0.998998
O O6 0.179173 0.709610 0.297044
O O7 0.305888 0.760354 0.904592
O O8 0.341891 0.783863 0.032828
O O9 0.272119 0.500000 0.867272
O O10 0.334149 0.763230 0.645053
O O11 0.164572 0.757604 0.069683
O O12 0.887446 0.250301 0.385121
O O13 0.904145 0.000000 0.230985
O O14 0.000000 0.266032 0.000000
O O15 0.942375 0.500000 0.717205
O O16 0.000000 0.242235 0.500000
O O17 0.999887 0.233421 0.691663
O O18 0.505356 0.279959 0.778041
O O19 0.424592 0.000000 0.977127
O O20 0.636653 0.500000 0.518429
O O21 0.878385 0.000000 0.525088
#
# Coordination Sequence:
#
# PCOD9147767 Si02
#       8
#     4   4   4   4   4   4   4   4
#     4  10  21  40  63  86 119 159 194 238 296 354
#     4  11  21  39  65  88 115 159 202 240 292 356
#     4   9  21  40  59  84 122 160 196 241 296 350
#     4   9  19  36  57  83 119 159 191 226 289 359
#     4  10  19  36  59  81 112 158 198 230 279 349
#     4  11  23  42  64  89 118 151 194 248 303 353
#     4  11  24  41  61  88 119 153 198 249 296 350
#     4  11  21  35  56  88 120 152 195 247 292 341
#
# _framework density 20.762868999999998
#
# number of rings (size 3 to 8) (size 9 to 14) (size 15 to 20)
#    0.000    1.750    2.500    1.875    1.750    3.250 
#    0.000    5.625    0.000    1.875    0.000    0.000 
#    0.000    0.000    0.000    0.000    0.000    0.000 
#
# Total GULP energy -178789.502272 kJ/mol
# GULP energy per Si atom -5587.171946 kJ/mol
# Density = 2.071561 g / cm^3
# Si number density = 20.762869 Si / 1000 Ang^3
#
#
#
# Elastic Constant Matrix: (Units=GPa)
#
#
# Indices 1 2 3 4 5 6 
#
# 1 106.8154 -10.4793 58.6240 0.0000 14.3516 0.0000
# 2 -10.4793 13.7057 0.7551 0.0000 3.6510 0.0000
# 3 58.6240 0.7551 148.2870 0.0000 4.9040 0.0000
# 4 0.0000 0.0000 0.0000 17.0678 0.0000 -6.2992
# 5 14.3516 3.6510 4.9040 0.0000 23.5021 0.0000
# 6 0.0000 0.0000 0.0000 -6.2992 0.0000 25.4572
#
#
#
# Elastic Compliance Matrix: (Units=1/GPa)
#
#
# Indices 1 2 3 4 5 6 
#
# 1 0.015444 0.014936 -0.005833 0.000000 -0.010534 0.000000
# 2 0.014936 0.090557 -0.005638 0.000000 -0.022012 0.000000
# 3 -0.005833 -0.005638 0.008994 0.000000 0.002561 0.000000
# 4 0.000000 0.000000 0.000000 0.064478 0.000000 0.015955
# 5 -0.010534 -0.022012 0.002561 0.000000 0.051867 0.000000
# 6 0.000000 0.000000 0.000000 0.015955 0.000000 0.043229
#
#
# Mechanical properties :
#
#
# Convention : Reuss Voigt Hill
#
# Bulk Modulus (GPa) = 8.20185 40.73419 24.46802
# Shear Modulus (GPa) = 16.21895 27.86597 22.04246
#
# Velocity S-wave (km/s) = 2.79794 3.66745 3.26180
# Velocity P-wave (km/s) = 3.79431 6.13147 5.09861
#
# Compressibility (1/GPa) = 0.12192375
#
# Stress axis : x y z
#
# Youngs Moduli (GPa) = 64.74935 11.04283 111.18684
#
# Poissons Ratio (x) = -0.16494 0.64860
# Poissons Ratio (y) = -0.96709 0.62687
# Poissons Ratio (z) = 0.37771 0.06226
#
# Static dielectric constant tensor:
#      x y z
#    x 1.715910 0.000000 0.013620 
#    y 0.000000 1.748330 0.000000 
#    z 0.013620 0.000000 1.729970 
# 
# From -- ./inp_files/58211.got.cif
#   From: 2010.05.17/outbox.cif.g08.bks.cpg/sg10_30_cif.got.tgz:58211.got - 2010.06.03 11:33:40.
