data_PCOD9147190
_publ_section_title
;
Structure prediction by ZEFSAII (Michael W. Deem and Ramdas Pophale) SiO2 
 PCOD9147190
Probable space group: P 2/M
;
_chemical_formula_sum "Si O2"
_cell_formula_units_Z 32
_cell_length_a 15.629556
_cell_length_b 14.163736
_cell_length_c 12.674242
_cell_angle_alpha 90.000000
_cell_angle_beta 33.535023
_cell_angle_gamma 90.000000
_cell_volume 1550.018106
_symmetry_space_group_name_H-M "P 2/M"
_symmetry_group_IT_number 10
_symmetry_cell_setting 'monoclinic'
loop_
_space_group_symop_operation_xyz
x,y,z
-x,y,-z
-x,-y,-z
x,-y,z
loop_
_atom_site_type_symbol
_atom_site_label
_atom_site_fract_x
_atom_site_fract_y
_atom_site_fract_z
Si Si1 0.519866 0.388959 0.729050
Si Si2 0.391948 0.104285 0.716422
Si Si3 0.828551 0.207728 0.189111
Si Si4 0.178568 0.394453 0.283126
Si Si5 0.146183 0.390013 0.727950
Si Si6 0.316235 0.112045 0.453459
Si Si7 0.622189 0.244867 0.794290
Si Si8 0.811708 0.389807 0.980262
O O1 0.501287 0.500000 0.775458
O O2 0.693128 0.380178 0.502216
O O3 0.526723 0.318635 0.820060
O O4 0.369989 0.362174 0.811440
O O5 0.500000 0.103601 0.500000
O O6 0.264036 0.178645 0.818942
O O7 0.501986 0.120590 0.701886
O O8 0.322169 0.000000 0.795992
O O9 0.827665 0.320119 0.202082
O O10 0.765302 0.161930 0.362595
O O11 0.000000 0.171662 0.000000
O O12 0.242183 0.500000 0.244291
O O13 0.261579 0.311025 0.260246
O O14 0.185277 0.382508 0.150402
O O15 0.000000 0.394908 0.500000
O O16 0.133148 0.500000 0.768581
O O17 0.984805 0.356266 0.838873
O O18 0.295472 0.169984 0.367557
O O19 0.279912 0.000000 0.486262
O O20 0.500000 0.198247 0.000000
O O21 0.816034 0.500000 0.006565
#
# Coordination Sequence:
#
# PCOD9147190 Si02
#       8
#     4   4   4   4   4   4   4   4
#     4  10  19  34  57  85 124 171 213 253 297 351
#     4   8  17  38  65  88 112 145 195 260 315 362
#     4  11  22  38  65  97 117 154 203 258 313 373
#     4  10  20  33  53  84 123 166 213 261 300 344
#     4  10  21  38  59  89 133 172 203 249 311 375
#     4  10  23  44  65  88 121 156 198 260 322 377
#     4  12  22  35  60  93 124 163 204 255 307 379
#     4   9  18  33  53  82 122 171 217 253 291 347
#
# _framework density 20.644919999999999
#
# number of rings (size 3 to 8) (size 9 to 14) (size 15 to 20)
#    0.000    2.000    2.500    2.250    0.000    5.000 
#    2.250    0.000    0.000    5.250    0.000    0.000 
#    0.000    0.000    0.000    0.000    0.000    0.000 
#
# Total GULP energy -178411.955519 kJ/mol
# GULP energy per Si atom -5575.373610 kJ/mol
# Density = 2.059793 g / cm^3
# Si number density = 20.644920 Si / 1000 Ang^3
#
#
#
# Elastic Constant Matrix: (Units=GPa)
#
#
# Indices 1 2 3 4 5 6 
#
# 1 73.5256 43.7013 29.0328 0.0000 -19.0618 0.0000
# 2 43.7013 94.7927 24.4283 0.0000 -4.1195 0.0000
# 3 29.0328 24.4283 98.5472 0.0000 -10.8118 0.0000
# 4 0.0000 0.0000 0.0000 0.5344 0.0000 -6.8896
# 5 -19.0618 -4.1195 -10.8118 0.0000 33.6786 0.0000
# 6 0.0000 0.0000 0.0000 -6.8896 0.0000 26.0562
#
#
#
# Elastic Compliance Matrix: (Units=1/GPa)
#
#
# Indices 1 2 3 4 5 6 
#
# 1 0.023386 -0.009442 -0.003341 0.000000 0.011009 0.000000
# 2 -0.009442 0.015089 -0.001392 0.000000 -0.003945 0.000000
# 3 -0.003341 -0.001392 0.011661 0.000000 0.001682 0.000000
# 4 0.000000 0.000000 0.000000 -0.776831 0.000000 -0.205405
# 5 0.011009 -0.003945 0.001682 0.000000 0.035981 0.000000
# 6 0.000000 0.000000 0.000000 -0.205405 0.000000 -0.015934
#
#
# Mechanical properties :
#
#
# Convention : Reuss Voigt Hill
#
# Bulk Modulus (GPa) = 45.89898 51.24337 48.57118
# Shear Modulus (GPa) = -7.45118 23.36740 7.95811
#
# Velocity S-wave (km/s) = -1.90185 3.36798 1.96548
# Velocity P-wave (km/s) = 4.17829 6.32452 5.35993
#
# Compressibility (1/GPa) = 0.02178698
#
# Stress axis : x y z
#
# Youngs Moduli (GPa) = 42.76019 66.27147 85.75339
#
# Poissons Ratio (x) = 0.62574 0.28654
# Poissons Ratio (y) = 0.40374 0.11933
# Poissons Ratio (z) = 0.14288 0.09222
#
# Static dielectric constant tensor:
#      x y z
#    x 1.760550 0.000000 -0.008260 
#    y 0.000000 1.755850 0.000000 
#    z -0.008260 0.000000 1.804850 
# 
# From -- ./inp_files/69293.got.cif
#   From: 2010.05.17/outbox.cif.g08.bks.cpg/sg10_35_cif.got.tgz:69293.got - 2010.06.03 11:33:40.
