data_PCOD9147485
_publ_section_title
;
Structure prediction by ZEFSAII (Michael W. Deem and Ramdas Pophale) SiO2 
 PCOD9147485
Probable space group: P 2/M
;
_chemical_formula_sum "Si O2"
_cell_formula_units_Z 24
_cell_length_a 12.478615
_cell_length_b 11.672169
_cell_length_c 19.527830
_cell_angle_alpha 90.000000
_cell_angle_beta 153.180031
_cell_angle_gamma 90.000000
_cell_volume 1283.305507
_symmetry_space_group_name_H-M "P 2/M"
_symmetry_group_IT_number 10
_symmetry_cell_setting 'monoclinic'
loop_
_space_group_symop_operation_xyz
x,y,z
-x,y,-z
-x,-y,-z
x,-y,z
loop_
_atom_site_type_symbol
_atom_site_label
_atom_site_fract_x
_atom_site_fract_y
_atom_site_fract_z
Si Si1 0.245123 0.754370 0.183009
Si Si2 0.981500 0.361494 0.308930
Si Si3 0.337069 0.000000 0.210690
Si Si4 0.883709 0.000000 0.055877
Si Si5 0.673870 0.633898 0.372873
Si Si6 0.044137 0.752642 0.848328
Si Si7 0.552168 0.637597 0.157053
O O1 0.409167 0.869092 0.269282
O O2 0.403388 0.654052 0.242419
O O3 0.156488 0.730184 0.208854
O O4 0.000000 0.772270 0.000000
O O5 0.002851 0.500000 0.309781
O O6 0.031814 0.292037 0.268939
O O7 0.715905 0.337966 0.185064
O O8 0.155877 0.324622 0.469709
O O9 0.104263 0.000000 0.128136
O O10 0.320988 0.000000 0.118591
O O11 0.898552 0.887106 0.109871
O O12 0.731941 0.500000 0.400639
O O13 0.684369 0.679852 0.301538
O O14 0.290445 0.688680 0.005284
O O15 0.531804 0.500000 0.149610
#
# Coordination Sequence:
#
# PCOD9147485 Si02
#       7
#     4   4   2   2   4   4   4
#     4  11  18  33  56  83 104 132 172 217 259 311
#     4  10  22  38  52  73 109 146 175 209 259 312
#     4   9  14  32  55  79 101 133 176 214 253 304
#     4   9  16  30  52  77 107 135 168 213 262 309
#     4  10  21  35  54  79 107 139 172 214 264 309
#     4  11  20  33  56  82 106 134 172 217 265 308
#     4  10  19  35  58  78  99 137 186 219 245 302
#
# _framework density 18.701702999999998
#
# number of rings (size 3 to 8) (size 9 to 14) (size 15 to 20)
#    0.000    1.833    5.000    1.500    0.000    5.667 
#    0.000    4.167    0.000    3.000    0.000    4.667 
#    0.000    0.000    0.000    0.000    0.000    0.000 
#
# Total GULP energy -133601.981600 kJ/mol
# GULP energy per Si atom -5566.749233 kJ/mol
# Density = 1.865914 g / cm^3
# Si number density = 18.701703 Si / 1000 Ang^3
#
#
#
# Elastic Constant Matrix: (Units=GPa)
#
#
# Indices 1 2 3 4 5 6 
#
# 1 86.5002 20.9696 3.9378 0.0000 -17.7244 0.0000
# 2 20.9696 32.2665 4.3123 0.0000 -5.7144 0.0000
# 3 3.9378 4.3123 40.3971 0.0000 -10.2075 0.0000
# 4 0.0000 0.0000 0.0000 -12.7020 0.0000 6.2073
# 5 -17.7244 -5.7144 -10.2075 0.0000 22.3096 0.0000
# 6 0.0000 0.0000 0.0000 6.2073 0.0000 -0.9021
#
#
#
# Elastic Compliance Matrix: (Units=1/GPa)
#
#
# Indices 1 2 3 4 5 6 
#
# 1 0.015890 -0.008600 0.002264 0.000000 0.011457 0.000000
# 2 -0.008600 0.037205 -0.002772 0.000000 0.001428 0.000000
# 3 0.002264 -0.002772 0.028386 0.000000 0.014077 0.000000
# 4 0.000000 0.000000 0.000000 0.033322 0.000000 0.229288
# 5 0.011457 0.001428 0.014077 0.000000 0.060733 0.000000
# 6 0.000000 0.000000 0.000000 0.229288 0.000000 0.469190
#
#
# Mechanical properties :
#
#
# Convention : Reuss Voigt Hill
#
# Bulk Modulus (GPa) = 15.80669 24.17814 19.99241
# Shear Modulus (GPa) = 7.30961 10.40404 8.85682
#
# Velocity S-wave (km/s) = 1.97914 2.36119 2.17856
# Velocity P-wave (km/s) = 3.70041 4.51553 4.12814
#
# Compressibility (1/GPa) = 0.06326435
#
# Stress axis : x y z
#
# Youngs Moduli (GPa) = 62.93184 26.87838 35.22818
#
# Poissons Ratio (x) = 0.23116 -0.07976
# Poissons Ratio (y) = 0.54124 0.09766
# Poissons Ratio (z) = -0.14249 0.07451
#
# Static dielectric constant tensor:
#      x y z
#    x 1.646570 0.000000 -0.017140 
#    y 0.000000 1.703920 0.000000 
#    z -0.017140 0.000000 1.698330 
# 
# From -- ./inp_files/76616.got.cif
#   From: 2010.05.17/outbox.cif.g08.bks.cpg/sg10_39_cif.got.tgz:76616.got - 2010.06.03 11:33:40.
