data_PCOD9147539
_publ_section_title
;
Structure prediction by ZEFSAII (Michael W. Deem and Ramdas Pophale) SiO2 
 PCOD9147539
Probable space group: P 2/M
;
_chemical_formula_sum "Si O2"
_cell_formula_units_Z 24
_cell_length_a 10.399246
_cell_length_b 7.630830
_cell_length_c 22.786810
_cell_angle_alpha 90.000000
_cell_angle_beta 45.005766
_cell_angle_gamma 90.000000
_cell_volume 1278.750642
_symmetry_space_group_name_H-M "P 2/M"
_symmetry_group_IT_number 10
_symmetry_cell_setting 'monoclinic'
loop_
_space_group_symop_operation_xyz
x,y,z
-x,y,-z
-x,-y,-z
x,-y,z
loop_
_atom_site_type_symbol
_atom_site_label
_atom_site_fract_x
_atom_site_fract_y
_atom_site_fract_z
Si Si1 0.696173 0.500000 0.103272
Si Si2 0.421903 0.202943 0.229770
Si Si3 0.026191 0.213031 0.313156
Si Si4 0.061801 0.797588 0.790701
Si Si5 0.972922 0.500000 0.910592
Si Si6 0.341018 0.787803 0.506657
Si Si7 0.477667 0.294252 0.672624
O O1 0.571538 0.329771 0.153401
O O2 0.853512 0.500000 0.101944
O O3 0.796267 0.500000 0.008580
O O4 0.220868 0.263842 0.275903
O O5 0.444179 0.215676 0.292782
O O6 0.445932 0.000000 0.204293
O O7 0.000734 0.263354 0.253576
O O8 0.853625 0.273938 0.406720
O O9 0.020012 0.000000 0.316140
O O10 0.986898 0.669892 0.864733
O O11 0.281339 0.787297 0.721470
O O12 0.007647 0.000000 0.816908
O O13 0.500000 0.730005 0.500000
O O14 0.391849 0.730588 0.424986
O O15 0.340936 0.000000 0.507127
O O16 0.448101 0.500000 0.692263
#
# Coordination Sequence:
#
# PCOD9147539 Si02
#       7
#     2   4   4   4   2   4   4
#     4  11  24  43  63  94 125 148 196 255 301 367
#     4  11  22  42  64  86 123 165 197 242 307 360
#     4   9  21  38  61  90 122 161 206 248 291 354
#     4  11  20  39  64  90 121 159 199 244 303 357
#     4  11  24  41  65  96 122 145 198 259 296 364
#     4  10  19  35  58  87 121 160 208 253 292 338
#     4  12  22  37  57  88 126 161 206 252 290 353
#
# _framework density 18.768319000000002
#
# number of rings (size 3 to 8) (size 9 to 14) (size 15 to 20)
#    0.000    1.333    5.000    1.500    0.000    2.333 
#    3.000    6.667    0.000    3.000    0.000    0.000 
#    0.000    0.000    0.000    0.000    0.000    0.000 
#
# Total GULP energy -134136.853460 kJ/mol
# GULP energy per Si atom -5589.035561 kJ/mol
# Density = 1.872560 g / cm^3
# Si number density = 18.768319 Si / 1000 Ang^3
#
#
#
# Elastic Constant Matrix: (Units=GPa)
#
#
# Indices 1 2 3 4 5 6 
#
# 1 142.0257 20.5992 73.7491 0.0000 -5.4080 0.0000
# 2 20.5992 93.7686 50.4852 0.0000 -2.4634 0.0000
# 3 73.7491 50.4852 179.7100 0.0000 4.7542 0.0000
# 4 0.0000 0.0000 0.0000 -17.9614 0.0000 5.9257
# 5 -5.4080 -2.4634 4.7542 0.0000 26.6235 0.0000
# 6 0.0000 0.0000 0.0000 5.9257 0.0000 35.0107
#
#
#
# Elastic Compliance Matrix: (Units=1/GPa)
#
#
# Indices 1 2 3 4 5 6 
#
# 1 0.009116 0.000135 -0.003846 0.000000 0.002551 0.000000
# 2 0.000135 0.012654 -0.003659 0.000000 0.001852 0.000000
# 3 -0.003846 -0.003659 0.008240 0.000000 -0.002591 0.000000
# 4 0.000000 0.000000 0.000000 -0.052731 0.000000 0.008925
# 5 0.002551 0.001852 -0.002591 0.000000 0.038713 0.000000
# 6 0.000000 0.000000 0.000000 0.008925 0.000000 0.027052
#
#
# Mechanical properties :
#
#
# Convention : Reuss Voigt Hill
#
# Bulk Modulus (GPa) = 65.49517 78.35238 71.92377
# Shear Modulus (GPa) = 79.52441 26.77928 53.15184
#
# Velocity S-wave (km/s) = 6.51641 3.78144 5.32743
# Velocity P-wave (km/s) = 9.57030 7.80407 8.73196
#
# Compressibility (1/GPa) = 0.01526830
#
# Stress axis : x y z
#
# Youngs Moduli (GPa) = 109.69949 79.02876 121.36570
#
# Poissons Ratio (x) = -0.01070 0.46683
# Poissons Ratio (y) = -0.01485 0.44411
# Poissons Ratio (z) = 0.42195 0.28919
#
# Static dielectric constant tensor:
#      x y z
#    x 1.630370 0.000000 -0.001800 
#    y 0.000000 1.672450 0.000000 
#    z -0.001800 0.000000 1.616900 
# 
# From -- ./inp_files/81939.got.cif
#   From: 2010.05.17/outbox.cif.g08.bks.cpg/sg10_41_cif.got.tgz:81939.got - 2010.06.03 11:33:40.
