data_PCOD9147915
_publ_section_title
;
Structure prediction by ZEFSAII (Michael W. Deem and Ramdas Pophale) SiO2 
 PCOD9147915
Probable space group: P 2/M
;
_chemical_formula_sum "Si O2"
_cell_formula_units_Z 32
_cell_length_a 10.161182
_cell_length_b 14.205751
_cell_length_c 9.818660
_cell_angle_alpha 90.000000
_cell_angle_beta 97.184272
_cell_angle_gamma 90.000000
_cell_volume 1406.169192
_symmetry_space_group_name_H-M "P 2/M"
_symmetry_group_IT_number 10
_symmetry_cell_setting 'monoclinic'
loop_
_space_group_symop_operation_xyz
x,y,z
-x,y,-z
-x,-y,-z
x,-y,z
loop_
_atom_site_type_symbol
_atom_site_label
_atom_site_fract_x
_atom_site_fract_y
_atom_site_fract_z
Si Si1 0.749244 0.601565 0.803812
Si Si2 0.865347 0.739887 0.037679
Si Si3 0.223640 0.896990 0.802635
Si Si4 0.174433 0.388480 0.728244
Si Si5 0.798826 0.705903 0.548328
Si Si6 0.936769 0.897966 0.641011
Si Si7 0.476280 0.325350 0.835025
Si Si8 0.419957 0.179136 0.610964
O O1 0.797622 0.500000 0.856706
O O2 0.794025 0.624239 0.657467
O O3 0.590525 0.606645 0.794241
O O4 0.799691 0.682697 0.908559
O O5 0.761901 0.813554 0.088270
O O6 0.901025 0.664277 0.159708
O O7 0.000000 0.785357 0.000000
O O8 0.304376 0.878332 0.673837
O O9 0.066825 0.892559 0.751306
O O10 0.258950 0.000000 0.858995
O O11 0.152288 0.500000 0.716096
O O12 0.139892 0.332569 0.584824
O O13 0.329805 0.367447 0.785482
O O14 0.856828 0.800816 0.624744
O O15 0.652565 0.737876 0.482348
O O16 0.000000 0.903546 0.500000
O O17 0.868431 0.000000 0.659049
O O18 0.492613 0.229706 0.747246
O O19 0.500000 0.314474 0.000000
O O20 0.500000 0.128311 0.500000
#
# Coordination Sequence:
#
# PCOD9147915 Si02
#       8
#     4   4   4   4   4   4   4   4
#     4  12  25  40  65  97 131 175 227 272 318 388
#     4  12  25  44  66  94 131 173 220 279 330 389
#     4  11  23  44  72  98 129 171 219 274 336 396
#     4  11  23  40  64  92 129 176 223 269 329 394
#     4  11  22  40  62  97 135 171 213 273 336 379
#     4  10  19  36  66  95 120 161 218 265 312 382
#     4  11  21  39  65  92 125 172 226 273 317 380
#     4  11  21  39  65 100 135 171 206 267 334 395
#
# _framework density 22.756864
#
# number of rings (size 3 to 8) (size 9 to 14) (size 15 to 20)
#    0.000    0.875    6.250    1.875    0.000    2.000 
#    0.000    2.500    0.000    6.375    0.000    0.000 
#    0.000    0.000    0.000    0.000    0.000    0.000 
#
# Total GULP energy -178744.099287 kJ/mol
# GULP energy per Si atom -5585.753103 kJ/mol
# Density = 2.270507 g / cm^3
# Si number density = 22.756864 Si / 1000 Ang^3
#
#
#
# Elastic Constant Matrix: (Units=GPa)
#
#
# Indices 1 2 3 4 5 6 
#
# 1 59.0752 19.6306 25.6347 0.0000 -11.1006 0.0000
# 2 19.6306 129.2903 36.5449 0.0000 -4.0641 0.0000
# 3 25.6347 36.5449 105.8129 0.0000 -10.8522 0.0000
# 4 0.0000 0.0000 0.0000 -237.6843 0.0000 78.9113
# 5 -11.1006 -4.0641 -10.8522 0.0000 33.9545 0.0000
# 6 0.0000 0.0000 0.0000 78.9113 0.0000 -3.4973
#
#
#
# Elastic Compliance Matrix: (Units=1/GPa)
#
#
# Indices 1 2 3 4 5 6 
#
# 1 0.020121 -0.001845 -0.003707 0.000000 0.005173 0.000000
# 2 -0.001845 0.008741 -0.002612 0.000000 -0.000392 0.000000
# 3 -0.003707 -0.002612 0.011470 0.000000 0.002142 0.000000
# 4 0.000000 0.000000 0.000000 0.000648 0.000000 0.014625
# 5 0.005173 -0.000392 0.002142 0.000000 0.031780 0.000000
# 6 0.000000 0.000000 0.000000 0.014625 0.000000 0.044050
#
#
# Mechanical properties :
#
#
# Convention : Reuss Voigt Hill
#
# Bulk Modulus (GPa) = 41.65844 50.86654 46.26249
# Shear Modulus (GPa) = 35.42590 -27.28756 4.06917
#
# Velocity S-wave (km/s) = 3.94980 -3.46655 1.33865
# Velocity P-wave (km/s) = 6.25674 2.52549 4.77100
#
# Compressibility (1/GPa) = 0.02400474
#
# Stress axis : x y z
#
# Youngs Moduli (GPa) = 49.69903 114.40836 87.18021
#
# Poissons Ratio (x) = 0.21104 0.32318
# Poissons Ratio (y) = 0.09168 0.22772
# Poissons Ratio (z) = 0.18424 0.29884
#
# Static dielectric constant tensor:
#      x y z
#    x 1.949660 0.000000 0.000550 
#    y 0.000000 1.868840 0.000000 
#    z 0.000550 0.000000 1.850150 
# 
# From -- ./inp_files/25305.got.cif
#   From: 2010.05.17/outbox.cif.g08.bks.cpg/sg10_13_cif.got.tgz:25305.got - 2010.06.03 11:33:40.
