data_PCOD9147810
_publ_section_title
;
Structure prediction by ZEFSAII (Michael W. Deem and Ramdas Pophale) SiO2 
 PCOD9147810
Probable space group: P 2/M
;
_chemical_formula_sum "Si O2"
_cell_formula_units_Z 28
_cell_length_a 21.617638
_cell_length_b 8.532768
_cell_length_c 16.016698
_cell_angle_alpha 90.000000
_cell_angle_beta 151.542395
_cell_angle_gamma 90.000000
_cell_volume 1407.802374
_symmetry_space_group_name_H-M "P 2/M"
_symmetry_group_IT_number 10
_symmetry_cell_setting 'monoclinic'
loop_
_space_group_symop_operation_xyz
x,y,z
-x,y,-z
-x,-y,-z
x,-y,z
loop_
_atom_site_type_symbol
_atom_site_label
_atom_site_fract_x
_atom_site_fract_y
_atom_site_fract_z
Si Si1 0.103305 0.308629 0.052913
Si Si2 0.448504 0.181731 0.053893
Si Si3 0.862681 0.684876 0.091286
Si Si4 0.605356 0.311124 0.554459
Si Si5 0.305436 0.682034 0.729591
Si Si6 0.025692 0.812972 0.434747
Si Si7 0.409351 0.183590 0.201243
O O1 0.102455 0.500000 0.051103
O O2 0.249196 0.259848 0.251167
O O3 0.076836 0.260530 0.925476
O O4 0.000000 0.257220 0.000000
O O5 0.599182 0.221246 0.217335
O O6 0.410131 0.206646 0.103149
O O7 0.423546 0.000000 0.002383
O O8 0.366494 0.288033 0.893696
O O9 0.886487 0.500000 0.128638
O O10 0.916119 0.768564 0.237397
O O11 0.708966 0.716761 0.902015
O O12 0.500000 0.266888 0.500000
O O13 0.605885 0.500000 0.548793
O O14 0.545831 0.238060 0.400576
O O15 0.312267 0.500000 0.716076
O O16 0.158862 0.739701 0.559178
O O17 0.000000 0.759040 0.500000
O O18 0.038453 0.000000 0.452979
O O19 0.387957 0.000000 0.193566
#
# Coordination Sequence:
#
# PCOD9147810 Si02
#       7
#     4   4   4   4   4   4   4
#     4   9  19  37  60  87 120 156 194 242 304 363
#     4  10  21  38  58  82 117 157 193 239 300 361
#     4  11  22  38  61  88 118 153 201 253 298 354
#     4  10  19  36  60  86 115 151 194 242 297 353
#     4  11  22  37  59  86 115 150 198 249 295 348
#     4  11  24  41  60  84 120 162 198 239 299 365
#     4  11  23  37  58  88 118 153 198 243 298 358
#
# _framework density 19.889154999999999
#
# number of rings (size 3 to 8) (size 9 to 14) (size 15 to 20)
#    0.000    1.571    1.429    4.714    0.000    8.286 
#    0.000    1.429    0.000    3.000    0.000    0.000 
#    0.000    0.000    0.000    0.000    0.000    0.000 
#
# Total GULP energy -156412.176247 kJ/mol
# GULP energy per Si atom -5586.149152 kJ/mol
# Density = 1.984389 g / cm^3
# Si number density = 19.889155 Si / 1000 Ang^3
#
#
#
# Elastic Constant Matrix: (Units=GPa)
#
#
# Indices 1 2 3 4 5 6 
#
# 1 88.1934 9.5672 25.1223 0.0000 -3.9956 0.0000
# 2 9.5672 22.8623 -3.8383 0.0000 -2.8577 0.0000
# 3 25.1223 -3.8383 80.0041 0.0000 5.3510 0.0000
# 4 0.0000 0.0000 0.0000 35.6131 0.0000 2.5720
# 5 -3.9956 -2.8577 5.3510 0.0000 28.7419 0.0000
# 6 0.0000 0.0000 0.0000 2.5720 0.0000 20.3651
#
#
#
# Elastic Compliance Matrix: (Units=1/GPa)
#
#
# Indices 1 2 3 4 5 6 
#
# 1 0.013425 -0.006134 -0.004652 0.000000 0.002123 0.000000
# 2 -0.006134 0.047366 0.003990 0.000000 0.003114 0.000000
# 3 -0.004652 0.003990 0.014347 0.000000 -0.002921 0.000000
# 4 0.000000 0.000000 0.000000 0.028338 0.000000 -0.003579
# 5 0.002123 0.003114 -0.002921 0.000000 0.035941 0.000000
# 6 0.000000 0.000000 0.000000 -0.003579 0.000000 0.049556
#
#
# Mechanical properties :
#
#
# Convention : Reuss Voigt Hill
#
# Bulk Modulus (GPa) = 16.24763 28.08469 22.16616
# Shear Modulus (GPa) = 22.41348 27.62459 25.01903
#
# Velocity S-wave (km/s) = 3.36060 3.73087 3.55057
# Velocity P-wave (km/s) = 4.82131 5.71931 5.28940
#
# Compressibility (1/GPa) = 0.06154743
#
# Stress axis : x y z
#
# Youngs Moduli (GPa) = 74.48558 21.11212 69.70121
#
# Poissons Ratio (x) = 0.12950 0.32425
# Poissons Ratio (y) = 0.45688 -0.27813
# Poissons Ratio (z) = 0.34651 -0.08424
#
# Static dielectric constant tensor:
#      x y z
#    x 1.709240 0.000000 -0.006330 
#    y 0.000000 1.676060 0.000000 
#    z -0.006330 0.000000 1.714030 
# 
# From -- ./inp_files/70083.got.cif
#   From: 2010.05.17/outbox.cif.g08.bks.cpg/sg10_36_cif.got.tgz:70083.got - 2010.06.03 11:33:40.
