data_PCOD9147470
_publ_section_title
;
Structure prediction by ZEFSAII (Michael W. Deem and Ramdas Pophale) SiO2 
 PCOD9147470
Probable space group: P 2/M
;
_chemical_formula_sum "Si O2"
_cell_formula_units_Z 32
_cell_length_a 12.948682
_cell_length_b 9.204065
_cell_length_c 32.447521
_cell_angle_alpha 90.000000
_cell_angle_beta 154.062179
_cell_angle_gamma 90.000000
_cell_volume 1691.457412
_symmetry_space_group_name_H-M "P 2/M"
_symmetry_group_IT_number 10
_symmetry_cell_setting 'monoclinic'
loop_
_space_group_symop_operation_xyz
x,y,z
-x,y,-z
-x,-y,-z
x,-y,z
loop_
_atom_site_type_symbol
_atom_site_label
_atom_site_fract_x
_atom_site_fract_y
_atom_site_fract_z
Si Si1 0.554662 0.167115 0.144446
Si Si2 0.526218 0.827811 0.272838
Si Si3 0.945467 0.173662 0.567833
Si Si4 0.732076 0.669039 0.888763
Si Si5 0.369815 0.673337 0.910451
Si Si6 0.177717 0.326969 0.301462
Si Si7 0.420330 0.325589 0.620294
Si Si8 0.118006 0.167226 0.362706
O O1 0.427549 0.263344 0.132748
O O2 0.518420 0.236083 0.086605
O O3 0.835313 0.169280 0.253721
O O4 0.475732 0.000000 0.118518
O O5 0.322064 0.758528 0.171846
O O6 0.543835 0.748316 0.322801
O O7 0.774159 0.806289 0.337397
O O8 0.494210 0.000000 0.266771
O O9 0.811912 0.261470 0.484687
O O10 0.855382 0.220994 0.580816
O O11 0.901014 0.000000 0.548014
O O12 0.674045 0.500000 0.861133
O O13 0.000000 0.679935 0.000000
O O14 0.392192 0.500000 0.910452
O O15 0.089305 0.707692 0.809428
O O16 0.500000 0.704499 0.000000
O O17 0.188932 0.500000 0.311227
O O18 0.365612 0.286937 0.333979
O O19 0.224554 0.253368 0.362498
O O20 0.408290 0.500000 0.619862
O O21 0.197153 0.000000 0.389394
#
# Coordination Sequence:
#
# PCOD9147470 Si02
#       8
#     4   4   4   4   4   4   4   4
#     4  10  19  35  57  83 114 147 188 240 292 342
#     4  11  23  42  64  86 117 155 198 247 298 349
#     4  10  21  39  61  86 115 152 198 246 298 352
#     4  11  24  40  60  88 119 153 193 237 291 351
#     4   9  18  34  57  82 109 150 197 238 290 351
#     4   9  20  37  54  79 117 153 189 240 295 348
#     4  11  24  39  56  85 123 160 198 243 296 354
#     4   9  18  35  59  84 111 146 190 241 291 345
#
# _framework density 18.918596999999998
#
# number of rings (size 3 to 8) (size 9 to 14) (size 15 to 20)
#    0.000    2.000    1.250    1.875    0.000    7.250 
#    0.000    5.000    0.000    0.000    0.000    0.000 
#    0.000    0.000    0.000    0.000    0.000    0.000 
#
# Total GULP energy -178714.535685 kJ/mol
# GULP energy per Si atom -5584.829240 kJ/mol
# Density = 1.887554 g / cm^3
# Si number density = 18.918597 Si / 1000 Ang^3
#
#
#
# Elastic Constant Matrix: (Units=GPa)
#
#
# Indices 1 2 3 4 5 6 
#
# 1 97.6032 50.3269 33.4624 0.0000 -22.4375 0.0000
# 2 50.3269 70.7615 45.5605 0.0000 -11.4894 0.0000
# 3 33.4624 45.5605 60.2578 0.0000 -24.6580 0.0000
# 4 0.0000 0.0000 0.0000 27.6127 0.0000 -2.3241
# 5 -22.4375 -11.4894 -24.6580 0.0000 34.7064 0.0000
# 6 0.0000 0.0000 0.0000 -2.3241 0.0000 43.2522
#
#
#
# Elastic Compliance Matrix: (Units=1/GPa)
#
#
# Indices 1 2 3 4 5 6 
#
# 1 0.018617 -0.014991 0.005486 0.000000 0.010970 0.000000
# 2 -0.014991 0.041283 -0.029978 0.000000 -0.017324 0.000000
# 3 0.005486 -0.029978 0.047380 0.000000 0.027285 0.000000
# 4 0.000000 0.000000 0.000000 0.036380 0.000000 0.001955
# 5 0.010970 -0.017324 0.027285 0.000000 0.049556 0.000000
# 6 0.000000 0.000000 0.000000 0.001955 0.000000 0.023225
#
#
# Mechanical properties :
#
#
# Convention : Reuss Voigt Hill
#
# Bulk Modulus (GPa) = 35.31933 54.14691 44.73312
# Shear Modulus (GPa) = 16.40182 27.73245 22.06713
#
# Velocity S-wave (km/s) = 2.94763 3.83284 3.41900
# Velocity P-wave (km/s) = 5.50403 6.94771 6.26757
#
# Compressibility (1/GPa) = 0.02831311
#
# Stress axis : x y z
#
# Youngs Moduli (GPa) = 53.71515 24.22317 21.10594
#
# Poissons Ratio (x) = 0.36314 -0.11578
# Poissons Ratio (y) = 0.80527 0.63271
# Poissons Ratio (z) = -0.29467 0.72615
#
# Static dielectric constant tensor:
#      x y z
#    x 1.642920 0.000000 0.011500 
#    y 0.000000 1.633220 0.000000 
#    z 0.011500 0.000000 1.654210 
# 
# From -- ./inp_files/95048.got.cif
#   From: 2010.05.17/outbox.cif.g08.bks.cpg/sg10_48_cif.got.tgz:95048.got - 2010.06.03 11:33:40.
