data_PCOD9147919
_publ_section_title
;
Structure prediction by ZEFSAII (Michael W. Deem and Ramdas Pophale) SiO2 
 PCOD9147919
Probable space group: P 2/M
;
_chemical_formula_sum "Si O2"
_cell_formula_units_Z 32
_cell_length_a 14.017157
_cell_length_b 24.230048
_cell_length_c 7.639404
_cell_angle_alpha 90.000000
_cell_angle_beta 28.182467
_cell_angle_gamma 90.000000
_cell_volume 1225.389673
_symmetry_space_group_name_H-M "P 2/M"
_symmetry_group_IT_number 10
_symmetry_cell_setting 'monoclinic'
loop_
_space_group_symop_operation_xyz
x,y,z
-x,y,-z
-x,-y,-z
x,-y,z
loop_
_atom_site_type_symbol
_atom_site_label
_atom_site_fract_x
_atom_site_fract_y
_atom_site_fract_z
Si Si1 0.027990 0.900056 0.274201
Si Si2 0.281997 0.212812 0.935893
Si Si3 0.299586 0.563298 0.216669
Si Si4 0.383332 0.058870 0.506443
Si Si5 0.712258 0.266415 0.684632
Si Si6 0.769751 0.151799 0.445693
Si Si7 0.084333 0.325401 0.160121
Si Si8 0.194686 0.563931 0.979837
O O1 0.000000 0.930621 0.500000
O O2 0.812865 0.881022 0.553160
O O3 0.153951 0.843101 0.109833
O O4 0.149095 0.937280 0.943534
O O5 0.500000 0.203873 0.500000
O O6 0.272564 0.235770 0.150536
O O7 0.188929 0.265682 0.988076
O O8 0.304628 0.500000 0.261897
O O9 0.303682 0.565731 0.995825
O O10 0.052809 0.572868 0.634854
O O11 0.500000 0.585652 0.000000
O O12 0.500000 0.061395 0.500000
O O13 0.396364 0.115899 0.383023
O O14 0.427778 0.000000 0.348426
O O15 0.716090 0.214772 0.549217
O O16 0.880757 0.312094 0.385487
O O17 0.500000 0.294047 0.000000
O O18 0.000000 0.152079 0.000000
O O19 0.234939 0.373355 0.850032
O O20 0.000000 0.334366 0.500000
O O21 0.230591 0.500000 0.858644
#
# Coordination Sequence:
#
# PCOD9147919 Si02
#       8
#     4   4   4   4   4   4   4   4
#     4  11  20  39  66  94 127 165 211 264 312 377
#     4  11  23  40  62  87 123 171 211 260 328 378
#     4   8  13  22  40  69 104 143 192 237 294 369
#     4  10  24  43  65  95 131 171 212 255 309 381
#     4  11  24  37  59  96 127 164 215 263 319 384
#     4  10  22  39  66  92 128 167 206 262 314 376
#     4  10  19  37  53  81 125 155 202 268 312 381
#     4   9  16  28  49  76 111 158 198 250 322 378
#
# _framework density 26.114144
#
# number of rings (size 3 to 8) (size 9 to 14) (size 15 to 20)
#    0.000    2.000    3.750    1.500    5.250    3.000 
#    0.000    0.000    0.000    2.250    0.000    0.000 
#    0.000    3.500    0.000    0.000    0.000    0.875 
#
# Total GULP energy -178206.452751 kJ/mol
# GULP energy per Si atom -5568.951648 kJ/mol
# Density = 2.605471 g / cm^3
# Si number density = 26.114144 Si / 1000 Ang^3
#
#
#
# Elastic Constant Matrix: (Units=GPa)
#
#
# Indices 1 2 3 4 5 6 
#
# 1 99.4168 31.7919 22.7163 0.0000 -27.8418 0.0000
# 2 31.7919 159.3479 16.6095 0.0000 -14.3090 0.0000
# 3 22.7163 16.6095 80.5616 0.0000 -19.9286 0.0000
# 4 0.0000 0.0000 0.0000 -11.9448 0.0000 18.0980
# 5 -27.8418 -14.3090 -19.9286 0.0000 35.7553 0.0000
# 6 0.0000 0.0000 0.0000 18.0980 0.0000 -38.1313
#
#
#
# Elastic Compliance Matrix: (Units=1/GPa)
#
#
# Indices 1 2 3 4 5 6 
#
# 1 0.013435 -0.001740 -0.001176 0.000000 0.009110 0.000000
# 2 -0.001740 0.006781 -0.000663 0.000000 0.000989 0.000000
# 3 -0.001176 -0.000663 0.014602 0.000000 0.006958 0.000000
# 4 0.000000 0.000000 0.000000 -0.298050 0.000000 -0.141461
# 5 0.009110 0.000989 0.006958 0.000000 0.039335 0.000000
# 6 0.000000 0.000000 0.000000 -0.141461 0.000000 -0.093366
#
#
# Mechanical properties :
#
#
# Convention : Reuss Voigt Hill
#
# Bulk Modulus (GPa) = 36.15241 53.50685 44.82963
# Shear Modulus (GPa) = -16.61765 15.01641 -0.80062
#
# Velocity S-wave (km/s) = -2.52533 2.40058 -0.55430
# Velocity P-wave (km/s) = 2.31754 5.31204 4.09810
#
# Compressibility (1/GPa) = 0.02766068
#
# Stress axis : x y z
#
# Youngs Moduli (GPa) = 74.43273 147.47933 68.48255
#
# Poissons Ratio (x) = 0.25659 0.08054
# Poissons Ratio (y) = 0.12950 0.04538
# Poissons Ratio (z) = 0.08754 0.09772
#
# Static dielectric constant tensor:
#      x y z
#    x 1.922540 0.000000 0.313880 
#    y 0.000000 2.050550 0.000000 
#    z 0.313880 0.000000 2.061060 
# 
# From -- ./inp_files/30569.got.cif
#   From: 2010.05.17/outbox.cif.g08.bks.cpg/sg10_16_cif.got.tgz:30569.got - 2010.06.03 11:33:40.
