data_PCOD9147593
_publ_section_title
;
Structure prediction by ZEFSAII (Michael W. Deem and Ramdas Pophale) SiO2 
 PCOD9147593
Probable space group: P 2/M
;
_chemical_formula_sum "Si O2"
_cell_formula_units_Z 32
_cell_length_a 24.156367
_cell_length_b 7.999059
_cell_length_c 14.937518
_cell_angle_alpha 90.000000
_cell_angle_beta 150.621035
_cell_angle_gamma 90.000000
_cell_volume 1415.996654
_symmetry_space_group_name_H-M "P 2/M"
_symmetry_group_IT_number 10
_symmetry_cell_setting 'monoclinic'
loop_
_space_group_symop_operation_xyz
x,y,z
-x,y,-z
-x,-y,-z
x,-y,z
loop_
_atom_site_type_symbol
_atom_site_label
_atom_site_fract_x
_atom_site_fract_y
_atom_site_fract_z
Si Si1 0.430429 0.805128 0.993379
Si Si2 0.876237 0.691792 0.035612
Si Si3 0.102627 0.306525 0.262525
Si Si4 0.246489 0.811064 0.299854
Si Si5 0.489056 0.695032 0.704046
Si Si6 0.118485 0.697063 0.618434
Si Si7 0.736737 0.294778 0.009311
Si Si8 0.785825 0.193392 0.410378
O O1 0.311718 0.736317 0.791165
O O2 0.417260 0.000000 0.001296
O O3 0.500000 0.800800 0.000000
O O4 0.486627 0.714413 0.155712
O O5 0.908582 0.500000 0.103854
O O6 0.784209 0.695200 0.826863
O O7 0.815867 0.762263 0.038942
O O8 0.988600 0.766380 0.146873
O O9 0.082388 0.500000 0.210345
O O10 0.156114 0.220192 0.251711
O O11 0.193443 0.291208 0.470145
O O12 0.372724 0.782642 0.513853
O O13 0.235195 0.000000 0.251919
O O14 0.475202 0.500000 0.663200
O O15 0.605254 0.756467 0.820995
O O16 0.136109 0.500000 0.624925
O O17 0.111969 0.791726 0.514948
O O18 0.000000 0.712682 0.500000
O O19 0.209938 0.757310 0.820573
O O20 0.737400 0.500000 0.009601
O O21 0.760917 0.000000 0.397324
#
# Coordination Sequence:
#
# PCOD9147593 Si02
#       8
#     4   4   4   4   4   4   4   4
#     4  10  21  37  56  82 121 165 201 244 303 362
#     4  10  22  43  68  93 121 158 208 262 317 372
#     4  11  23  41  67  95 124 161 209 260 309 373
#     4  12  26  43  63  90 126 163 204 260 324 378
#     4  11  22  39  64  91 122 163 213 259 303 366
#     4  10  19  35  59  86 120 163 210 255 299 354
#     4   9  19  37  62  92 124 161 206 259 310 359
#     4  11  22  35  56  89 128 165 197 239 303 368
#
# _framework density 22.598922999999999
#
# number of rings (size 3 to 8) (size 9 to 14) (size 15 to 20)
#    0.000    1.500    1.250    4.125    0.000    7.000 
#    0.000    4.375    0.000    0.000    0.000    0.000 
#    0.000    0.000    0.000    0.000    0.000    0.000 
#
# Total GULP energy -178767.877836 kJ/mol
# GULP energy per Si atom -5586.496182 kJ/mol
# Density = 2.254749 g / cm^3
# Si number density = 22.598923 Si / 1000 Ang^3
#
#
#
# Elastic Constant Matrix: (Units=GPa)
#
#
# Indices 1 2 3 4 5 6 
#
# 1 95.1994 -1.4235 16.5614 0.0000 -0.6608 0.0000
# 2 -1.4235 29.4150 -3.5651 0.0000 9.7409 0.0000
# 3 16.5614 -3.5651 71.5936 0.0000 -0.3918 0.0000
# 4 0.0000 0.0000 0.0000 12.9106 0.0000 1.0758
# 5 -0.6608 9.7409 -0.3918 0.0000 37.4146 0.0000
# 6 0.0000 0.0000 0.0000 1.0758 0.0000 27.0704
#
#
#
# Elastic Compliance Matrix: (Units=1/GPa)
#
#
# Indices 1 2 3 4 5 6 
#
# 1 0.010947 0.000185 -0.002522 0.000000 0.000119 0.000000
# 2 0.000185 0.037440 0.001768 0.000000 -0.009726 0.000000
# 3 -0.002522 0.001768 0.014637 0.000000 -0.000352 0.000000
# 4 0.000000 0.000000 0.000000 0.077713 0.000000 -0.003089
# 5 0.000119 -0.009726 -0.000352 0.000000 0.029258 0.000000
# 6 0.000000 0.000000 0.000000 -0.003089 0.000000 0.037063
#
#
# Mechanical properties :
#
#
# Convention : Reuss Voigt Hill
#
# Bulk Modulus (GPa) = 16.15882 24.37264 20.26573
# Shear Modulus (GPa) = 21.85065 27.78813 24.81939
#
# Velocity S-wave (km/s) = 3.11286 3.51040 3.31759
# Velocity P-wave (km/s) = 4.48170 5.21908 4.86438
#
# Compressibility (1/GPa) = 0.06188571
#
# Stress axis : x y z
#
# Youngs Moduli (GPa) = 91.35208 26.70924 68.31831
#
# Poissons Ratio (x) = -0.00493 0.17233
# Poissons Ratio (y) = -0.01687 -0.12082
# Poissons Ratio (z) = 0.23043 -0.04723
#
# Static dielectric constant tensor:
#      x y z
#    x 1.933260 0.000000 0.104120 
#    y 0.000000 1.826600 0.000000 
#    z 0.104120 0.000000 1.906620 
# 
# From -- ./inp_files/71678.got.cif
#   From: 2010.05.17/outbox.cif.g08.bks.cpg/sg10_36_cif.got.tgz:71678.got - 2010.06.03 11:33:40.
