data_PCOD9147573
_publ_section_title
;
Structure prediction by ZEFSAII (Michael W. Deem and Ramdas Pophale) SiO2 
 PCOD9147573
Probable space group: P 2/M
;
_chemical_formula_sum "Si O2"
_cell_formula_units_Z 32
_cell_length_a 19.998142
_cell_length_b 11.206572
_cell_length_c 15.670127
_cell_angle_alpha 90.000000
_cell_angle_beta 153.070521
_cell_angle_gamma 90.000000
_cell_volume 1590.490291
_symmetry_space_group_name_H-M "P 2/M"
_symmetry_group_IT_number 10
_symmetry_cell_setting 'monoclinic'
loop_
_space_group_symop_operation_xyz
x,y,z
-x,y,-z
-x,-y,-z
x,-y,z
loop_
_atom_site_type_symbol
_atom_site_label
_atom_site_fract_x
_atom_site_fract_y
_atom_site_fract_z
Si Si1 0.377696 0.780785 0.190462
Si Si2 0.182705 0.864296 0.425192
Si Si3 0.843794 0.297298 0.302309
Si Si4 0.911342 0.135380 0.217951
Si Si5 0.364437 0.203621 0.790485
Si Si6 0.684417 0.858650 0.605739
Si Si7 0.545014 0.370024 0.883204
Si Si8 0.323582 0.634718 0.284229
O O1 0.507447 0.846999 0.389286
O O2 0.448004 0.722699 0.186103
O O3 0.310983 0.674102 0.171706
O O4 0.242324 0.861594 0.007679
O O5 0.305073 0.863064 0.639345
O O6 0.242077 0.822948 0.401566
O O7 0.038578 0.806134 0.303934
O O8 0.139263 0.000000 0.357473
O O9 0.884620 0.203160 0.275301
O O10 0.770524 0.231720 0.300234
O O11 0.000000 0.358141 0.500000
O O12 0.708193 0.371206 0.109670
O O13 0.955019 0.000000 0.287673
O O14 0.434500 0.323545 0.829897
O O15 0.500000 0.149207 0.000000
O O16 0.727672 0.751980 0.720302
O O17 0.716617 0.000000 0.662950
O O18 0.502240 0.500000 0.803223
O O19 0.500000 0.627351 0.500000
O O20 0.264505 0.500000 0.234534
#
# Coordination Sequence:
#
# PCOD9147573 Si02
#       8
#     4   4   4   4   4   4   4   4
#     4  10  19  35  59  84 112 143 187 237 280 345
#     4  10  20  36  54  78 114 150 186 229 281 341
#     4  10  20  34  54  76 108 140 187 237 275 340
#     4  10  21  35  55  81 113 151 184 228 288 346
#     4  10  20  35  53  77 107 144 186 236 282 332
#     4  10  20  35  58  87 118 149 187 235 285 342
#     4  10  21  36  55  77 105 146 187 235 292 340
#     4   9  19  35  59  89 117 147 187 235 285 341
#
# _framework density 20.119584
#
# number of rings (size 3 to 8) (size 9 to 14) (size 15 to 20)
#    0.000    2.125    2.500    0.750    0.000    6.750 
#    0.000    0.625    0.000    6.750    0.000    0.000 
#    0.000    0.000    0.000    0.000    0.000    0.000 
#
# Total GULP energy -178167.176078 kJ/mol
# GULP energy per Si atom -5567.724252 kJ/mol
# Density = 2.007379 g / cm^3
# Si number density = 20.119584 Si / 1000 Ang^3
#
#
#
# Elastic Constant Matrix: (Units=GPa)
#
#
# Indices 1 2 3 4 5 6 
#
# 1 124.4366 36.4129 20.3101 0.0000 10.4532 0.0000
# 2 36.4129 89.9526 4.3633 0.0000 4.5584 0.0000
# 3 20.3101 4.3633 37.4640 0.0000 15.3303 0.0000
# 4 0.0000 0.0000 0.0000 -20.1170 0.0000 5.3795
# 5 10.4532 4.5584 15.3303 0.0000 27.5145 0.0000
# 6 0.0000 0.0000 0.0000 5.3795 0.0000 2.5883
#
#
#
# Elastic Compliance Matrix: (Units=1/GPa)
#
#
# Indices 1 2 3 4 5 6 
#
# 1 0.009959 -0.003775 -0.004750 0.000000 -0.000512 0.000000
# 2 -0.003775 0.012657 0.001093 0.000000 -0.001271 0.000000
# 3 -0.004750 0.001093 0.036885 0.000000 -0.018928 0.000000
# 4 0.000000 0.000000 0.000000 -0.031951 0.000000 0.066407
# 5 -0.000512 -0.001271 -0.018928 0.000000 0.047296 0.000000
# 6 0.000000 0.000000 0.000000 0.066407 0.000000 0.248335
#
#
# Mechanical properties :
#
#
# Convention : Reuss Voigt Hill
#
# Bulk Modulus (GPa) = 22.40322 41.55843 31.98083
# Shear Modulus (GPa) = 14.16736 14.71496 14.44116
#
# Velocity S-wave (km/s) = 2.65648 2.70733 2.68202
# Velocity P-wave (km/s) = 4.53523 5.52027 5.05182
#
# Compressibility (1/GPa) = 0.04463644
#
# Stress axis : x y z
#
# Youngs Moduli (GPa) = 100.40980 79.01030 27.11096
#
# Poissons Ratio (x) = 0.29828 0.12878
# Poissons Ratio (y) = 0.37906 -0.02963
# Poissons Ratio (z) = 0.47695 -0.08635
#
# Static dielectric constant tensor:
#      x y z
#    x 1.735370 0.000000 0.000980 
#    y 0.000000 1.708280 0.000000 
#    z 0.000980 0.000000 1.735710 
# 
# From -- ./inp_files/69170.got.cif
#   From: 2010.05.17/outbox.cif.g08.bks.cpg/sg10_35_cif.got.tgz:69170.got - 2010.06.03 11:33:40.
