data_PCOD9147043
_publ_section_title
;
Structure prediction by ZEFSAII (Michael W. Deem and Ramdas Pophale) SiO2 
 PCOD9147043
Probable space group: P 2/M
;
_chemical_formula_sum "Si O2"
_cell_formula_units_Z 30
_cell_length_a 11.522568
_cell_length_b 7.612622
_cell_length_c 13.887902
_cell_angle_alpha 90.000000
_cell_angle_beta 97.106490
_cell_angle_gamma 90.000000
_cell_volume 1208.846139
_symmetry_space_group_name_H-M "P 2/M"
_symmetry_group_IT_number 10
_symmetry_cell_setting 'monoclinic'
loop_
_space_group_symop_operation_xyz
x,y,z
-x,y,-z
-x,-y,-z
x,-y,z
loop_
_atom_site_type_symbol
_atom_site_label
_atom_site_fract_x
_atom_site_fract_y
_atom_site_fract_z
Si Si1 0.932235 0.294865 0.858006
Si Si2 0.399279 0.704589 0.866910
Si Si3 0.542945 0.300287 0.614560
Si Si4 0.031127 0.713371 0.348621
Si Si5 0.252728 0.202560 0.471827
Si Si6 0.486391 0.000000 0.221067
Si Si7 0.230966 0.294548 0.680636
Si Si8 0.186872 0.200657 0.963201
O O1 0.904432 0.500000 0.858211
O O2 0.917546 0.228352 0.748722
O O3 0.070566 0.278299 0.899182
O O4 0.850924 0.207375 0.929228
O O5 0.432968 0.500000 0.857486
O O6 0.312123 0.776156 0.772492
O O7 0.309429 0.712066 0.947523
O O8 0.501887 0.843499 0.862424
O O9 0.500000 0.257172 0.500000
O O10 0.505058 0.500000 0.635701
O O11 0.681823 0.302182 0.606419
O O12 0.521911 0.155790 0.694016
O O13 0.027728 0.500000 0.351813
O O14 0.115198 0.774190 0.441241
O O15 0.898816 0.780348 0.336717
O O16 0.283774 0.271282 0.580704
O O17 0.284060 0.000000 0.469606
O O18 0.220179 0.500000 0.701651
O O19 0.195529 0.000000 0.933461
#
# Coordination Sequence:
#
# PCOD9147043 Si02
#       8
#     4   4   4   4   4   2   4   4
#     4  10  19  34  56  81 117 163 204 241 287 345
#     4  11  22  37  58  89 124 158 197 244 297 355
#     4  11  24  43  64  86 115 152 197 257 313 357
#     4  10  21  38  57  81 117 163 207 243 282 346
#     4  12  25  38  57  85 118 155 203 247 294 358
#     4  12  23  38  60  89 113 146 198 247 310 358
#     4  10  21  37  56  81 118 163 203 237 284 343
#     4  11  20  33  53  85 122 161 198 242 290 351
#
# _framework density 24.817053000000001
#
# number of rings (size 3 to 8) (size 9 to 14) (size 15 to 20)
#    0.000    1.200    2.667    5.400    2.800    5.333 
#    0.000    0.000    0.000    0.000    0.000    1.867 
#    0.000    4.267    0.000    0.000    0.000    0.000 
#
# Total GULP energy -167277.536959 kJ/mol
# GULP energy per Si atom -5575.917899 kJ/mol
# Density = 2.476057 g / cm^3
# Si number density = 24.817053 Si / 1000 Ang^3
#
#
#
# Elastic Constant Matrix: (Units=GPa)
#
#
# Indices 1 2 3 4 5 6 
#
# 1 50.1720 12.1304 17.1437 0.0000 -19.6610 0.0000
# 2 12.1304 137.1504 6.0770 0.0000 -14.7888 0.0000
# 3 17.1437 6.0770 85.4058 0.0000 -22.4616 0.0000
# 4 0.0000 0.0000 0.0000 23.5608 0.0000 -1.5147
# 5 -19.6610 -14.7888 -22.4616 0.0000 36.1631 0.0000
# 6 0.0000 0.0000 0.0000 -1.5147 0.0000 -27.8184
#
#
#
# Elastic Compliance Matrix: (Units=1/GPa)
#
#
# Indices 1 2 3 4 5 6 
#
# 1 0.025640 -0.000843 -0.001806 0.000000 0.012473 0.000000
# 2 -0.000843 0.007663 0.000392 0.000000 0.002919 0.000000
# 3 -0.001806 0.000392 0.014137 0.000000 0.007959 0.000000
# 4 0.000000 0.000000 0.000000 0.042295 0.000000 -0.002303
# 5 0.012473 0.002919 0.007959 0.000000 0.040571 0.000000
# 6 0.000000 0.000000 0.000000 -0.002303 0.000000 -0.035822
#
#
# Mechanical properties :
#
#
# Convention : Reuss Voigt Hill
#
# Bulk Modulus (GPa) = 23.29640 38.15893 30.72767
# Shear Modulus (GPa) = 44.12756 22.20626 33.16691
#
# Velocity S-wave (km/s) = 4.22134 2.99456 3.65972
# Velocity P-wave (km/s) = 5.75911 5.23125 5.50151
#
# Compressibility (1/GPa) = 0.04292509
#
# Stress axis : x y z
#
# Youngs Moduli (GPa) = 39.00092 130.49400 70.73818
#
# Poissons Ratio (x) = 0.10997 0.12778
# Poissons Ratio (y) = 0.03287 -0.02770
# Poissons Ratio (z) = 0.07045 -0.05109
#
# Static dielectric constant tensor:
#      x y z
#    x 2.102170 0.000000 -0.005910 
#    y 0.000000 1.922170 0.000000 
#    z -0.005910 0.000000 1.970610 
# 
# From -- ./inp_files/63467.got.cif
#   From: 2010.05.17/outbox.cif.g08.bks.cpg/sg10_32_cif.got.tgz:63467.got - 2010.06.03 11:33:40.
