data_PCOD9147285
_publ_section_title
;
Structure prediction by ZEFSAII (Michael W. Deem and Ramdas Pophale) SiO2 
 PCOD9147285
Probable space group: P 2/M
;
_chemical_formula_sum "Si O2"
_cell_formula_units_Z 24
_cell_length_a 22.671252
_cell_length_b 7.524121
_cell_length_c 11.889368
_cell_angle_alpha 90.000000
_cell_angle_beta 149.389856
_cell_angle_gamma 90.000000
_cell_volume 1032.697560
_symmetry_space_group_name_H-M "P 2/M"
_symmetry_group_IT_number 10
_symmetry_cell_setting 'monoclinic'
loop_
_space_group_symop_operation_xyz
x,y,z
-x,y,-z
-x,-y,-z
x,-y,z
loop_
_atom_site_type_symbol
_atom_site_label
_atom_site_fract_x
_atom_site_fract_y
_atom_site_fract_z
Si Si1 0.538794 0.715125 0.377463
Si Si2 0.753153 0.792264 0.867088
Si Si3 0.613505 0.716041 0.255574
Si Si4 0.836529 0.716145 0.477447
Si Si5 0.723204 0.706302 0.064724
Si Si6 0.944979 0.203999 0.022415
O O1 0.535245 0.500000 0.374967
O O2 0.619786 0.770126 0.613038
O O3 0.599834 0.773022 0.361639
O O4 0.406872 0.782382 0.157359
O O5 0.776144 0.715553 0.027740
O O6 0.779904 0.000000 0.918811
O O7 0.832435 0.714454 0.897269
O O8 0.612385 0.500000 0.253208
O O9 0.730960 0.769116 0.386550
O O10 0.500000 0.773252 0.000000
O O11 0.847114 0.500000 0.497240
O O12 0.954976 0.791445 0.719940
O O13 0.800685 0.777044 0.293583
O O14 0.706080 0.500000 0.067335
O O15 0.914556 0.000000 0.942146
O O16 0.000000 0.286701 0.000000
#
# Coordination Sequence:
#
# PCOD9147285 Si02
#       6
#     4   4   4   4   4   4
#     4  10  19  34  59  86 115 149 183 226 280 333
#     4  11  24  39  56  79 110 151 194 232 274 327
#     4   9  15  29  55  86 115 140 173 221 276 329
#     4  10  20  35  60  90 115 143 184 232 277 328
#     4  10  21  37  57  85 118 148 181 226 282 335
#     4  10  23  43  61  78 109 150 188 231 282 332
#
# _framework density 23.240103999999999
#
# number of rings (size 3 to 8) (size 9 to 14) (size 15 to 20)
#    0.000    2.000    1.667    2.000    0.000    5.667 
#    0.000    3.333    0.000    1.000    0.000    0.000 
#    0.000    0.000    0.000    0.000    0.000    0.000 
#
# Total GULP energy -134152.084878 kJ/mol
# GULP energy per Si atom -5589.670203 kJ/mol
# Density = 2.318721 g / cm^3
# Si number density = 23.240104 Si / 1000 Ang^3
#
#
#
# Elastic Constant Matrix: (Units=GPa)
#
#
# Indices 1 2 3 4 5 6 
#
# 1 106.5520 -5.2389 32.6199 0.0000 -16.3732 0.0000
# 2 -5.2389 58.8523 -8.4337 0.0000 1.3852 0.0000
# 3 32.6199 -8.4337 107.2903 0.0000 -11.7817 0.0000
# 4 0.0000 0.0000 0.0000 20.6616 0.0000 1.0219
# 5 -16.3732 1.3852 -11.7817 0.0000 41.6853 0.0000
# 6 0.0000 0.0000 0.0000 1.0219 0.0000 7.3882
#
#
#
# Elastic Compliance Matrix: (Units=1/GPa)
#
#
# Indices 1 2 3 4 5 6 
#
# 1 0.010814 0.000470 -0.002875 0.000000 0.003419 0.000000
# 2 0.000470 0.017207 0.001205 0.000000 -0.000047 0.000000
# 3 -0.002875 0.001205 0.010486 0.000000 0.001794 0.000000
# 4 0.000000 0.000000 0.000000 0.048732 0.000000 -0.006740
# 5 0.003419 -0.000047 0.001794 0.000000 0.025841 0.000000
# 6 0.000000 0.000000 0.000000 -0.006740 0.000000 0.136283
#
#
# Mechanical properties :
#
#
# Convention : Reuss Voigt Hill
#
# Bulk Modulus (GPa) = 27.69613 34.50992 31.10302
# Shear Modulus (GPa) = 18.95368 30.86350 24.90859
#
# Velocity S-wave (km/s) = 2.85890 3.64817 3.27738
# Velocity P-wave (km/s) = 4.77922 5.71201 5.26631
#
# Compressibility (1/GPa) = 0.03610613
#
# Stress axis : x y z
#
# Youngs Moduli (GPa) = 92.47376 58.11506 95.36117
#
# Poissons Ratio (x) = -0.02732 0.27420
# Poissons Ratio (y) = -0.04347 -0.11487
# Poissons Ratio (z) = 0.26590 -0.07000
#
# Static dielectric constant tensor:
#      x y z
#    x 1.891390 0.000000 0.011400 
#    y 0.000000 1.886610 0.000000 
#    z 0.011400 0.000000 1.827440 
# 
# From -- ./inp_files/45309.got.cif
#   From: 2010.05.17/outbox.cif.g08.bks.cpg/sg10_23_cif.got.tgz:45309.got - 2010.06.03 11:33:40.
