data_PCOD9147345
_publ_section_title
;
Structure prediction by ZEFSAII (Michael W. Deem and Ramdas Pophale) SiO2 
 PCOD9147345
Probable space group: P 2/M
;
_chemical_formula_sum "Si O2"
_cell_formula_units_Z 32
_cell_length_a 14.688433
_cell_length_b 12.251574
_cell_length_c 18.516820
_cell_angle_alpha 90.000000
_cell_angle_beta 25.477670
_cell_angle_gamma 90.000000
_cell_volume 1433.385720
_symmetry_space_group_name_H-M "P 2/M"
_symmetry_group_IT_number 10
_symmetry_cell_setting 'monoclinic'
loop_
_space_group_symop_operation_xyz
x,y,z
-x,y,-z
-x,-y,-z
x,-y,z
loop_
_atom_site_type_symbol
_atom_site_label
_atom_site_fract_x
_atom_site_fract_y
_atom_site_fract_z
Si Si1 0.333253 0.125605 0.511195
Si Si2 0.117539 0.662063 0.148786
Si Si3 0.676163 0.121653 0.977875
Si Si4 0.229468 0.782535 0.842231
Si Si5 0.214457 0.875213 0.271539
Si Si6 0.560518 0.622051 0.193856
Si Si7 0.885703 0.277417 0.450810
Si Si8 0.730908 0.323377 0.333618
O O1 0.579640 0.136480 0.313347
O O2 0.211056 0.183373 0.532457
O O3 0.298591 0.206490 0.603726
O O4 0.272653 0.000000 0.565642
O O5 0.038720 0.651885 0.287796
O O6 0.922501 0.623925 0.239710
O O7 0.164319 0.791416 0.104707
O O8 0.335745 0.617150 0.960328
O O9 0.427965 0.151208 0.162966
O O10 0.707228 0.000000 0.983866
O O11 0.719724 0.121857 0.860673
O O12 0.304368 0.712062 0.857854
O O13 0.215266 0.695331 0.787383
O O14 0.000000 0.836777 0.000000
O O15 0.030558 0.786807 0.403403
O O16 0.154220 0.000000 0.331871
O O17 0.580602 0.500000 0.210991
O O18 0.315027 0.657530 0.374902
O O19 0.500000 0.376312 0.500000
#
# Coordination Sequence:
#
# PCOD9147345 Si02
#       8
#     4   4   4   4   4   4   4   4
#     4   9  18  31  51  77 107 147 179 206 260 325
#     4  10  19  36  57  79 112 148 175 225 281 326
#     4   8  15  28  53  89 120 149 187 217 255 322
#     4  10  19  35  52  70 105 132 175 231 273 319
#     4   8  13  27  55  89 120 151 182 215 260 318
#     4  11  24  40  59  80 103 138 186 241 292 333
#     4   9  19  35  59  81 114 145 180 227 268 327
#     4   9  18  32  52  73 104 141 181 221 262 323
#
# _framework density 22.324764999999999
#
# number of rings (size 3 to 8) (size 9 to 14) (size 15 to 20)
#    0.000    2.750    1.250    1.875    0.000    6.250 
#    0.000    3.750    0.000    8.250    0.000    3.500 
#    0.000    0.000    0.000    0.000    0.000    0.000 
#
# Total GULP energy -178368.336536 kJ/mol
# GULP energy per Si atom -5574.010517 kJ/mol
# Density = 2.227395 g / cm^3
# Si number density = 22.324765 Si / 1000 Ang^3
#
#
#
# Elastic Constant Matrix: (Units=GPa)
#
#
# Indices 1 2 3 4 5 6 
#
# 1 55.8108 11.0753 45.8619 0.0000 2.5352 0.0000
# 2 11.0753 89.5426 31.6669 0.0000 -3.4699 0.0000
# 3 45.8619 31.6669 157.3753 0.0000 -0.4189 0.0000
# 4 0.0000 0.0000 0.0000 -27.8115 0.0000 8.3458
# 5 2.5352 -3.4699 -0.4189 0.0000 33.4827 0.0000
# 6 0.0000 0.0000 0.0000 8.3458 0.0000 -2.9196
#
#
#
# Elastic Compliance Matrix: (Units=1/GPa)
#
#
# Indices 1 2 3 4 5 6 
#
# 1 0.023707 -0.000606 -0.006792 0.000000 -0.001943 0.000000
# 2 -0.000606 0.012089 -0.002253 0.000000 0.001270 0.000000
# 3 -0.006792 -0.002253 0.008788 0.000000 0.000391 0.000000
# 4 0.000000 0.000000 0.000000 -0.252867 0.000000 -0.722835
# 5 -0.001943 0.001270 0.000391 0.000000 0.030150 0.000000
# 6 0.000000 0.000000 0.000000 -0.722835 0.000000 -2.408780
#
#
# Mechanical properties :
#
#
# Convention : Reuss Voigt Hill
#
# Bulk Modulus (GPa) = 39.55158 53.32632 46.43895
# Shear Modulus (GPa) = -1.95375 14.82531 6.43578
#
# Velocity S-wave (km/s) = -0.93651 2.57976 1.69972
# Velocity P-wave (km/s) = 4.07253 5.72818 4.96979
#
# Compressibility (1/GPa) = 0.02528344
#
# Stress axis : x y z
#
# Youngs Moduli (GPa) = 42.18088 82.72228 113.79305
#
# Poissons Ratio (x) = 0.05009 0.77289
# Poissons Ratio (y) = 0.02554 0.25633
# Poissons Ratio (z) = 0.28650 0.18634
#
# Static dielectric constant tensor:
#      x y z
#    x 1.814410 0.000000 0.017760 
#    y 0.000000 1.819770 0.000000 
#    z 0.017760 0.000000 1.948570 
# 
# From -- ./inp_files/90188.got.cif
#   From: 2010.05.17/outbox.cif.g08.bks.cpg/sg10_46_cif.got.tgz:90188.got - 2010.06.03 11:33:40.
