data_PCOD9147623
_publ_section_title
;
Structure prediction by ZEFSAII (Michael W. Deem and Ramdas Pophale) SiO2 
 PCOD9147623
Probable space group: P 2/M
;
_chemical_formula_sum "Si O2"
_cell_formula_units_Z 32
_cell_length_a 9.049663
_cell_length_b 24.152423
_cell_length_c 15.795921
_cell_angle_alpha 90.000000
_cell_angle_beta 29.221894
_cell_angle_gamma 90.000000
_cell_volume 1685.503971
_symmetry_space_group_name_H-M "P 2/M"
_symmetry_group_IT_number 10
_symmetry_cell_setting 'monoclinic'
loop_
_space_group_symop_operation_xyz
x,y,z
-x,y,-z
-x,-y,-z
x,-y,z
loop_
_atom_site_type_symbol
_atom_site_label
_atom_site_fract_x
_atom_site_fract_y
_atom_site_fract_z
Si Si1 0.859270 0.373613 0.159562
Si Si2 0.140347 0.260643 0.078404
Si Si3 0.140351 0.739357 0.281248
Si Si4 0.865015 0.137149 0.657950
Si Si5 0.130538 0.063632 0.184731
Si Si6 0.865015 0.137148 0.977034
Si Si7 0.859273 0.626386 0.481167
Si Si8 0.854016 0.433830 0.822993
O O1 0.499999 0.378162 0.336662
O O2 0.957436 0.310206 0.127732
O O3 0.991794 0.408634 0.171008
O O4 0.000000 0.391600 0.000000
O O5 0.096636 0.261757 0.201683
O O6 0.052233 0.200373 0.087859
O O7 0.499997 0.268819 0.882706
O O8 0.052235 0.799626 0.359909
O O9 0.957444 0.689792 0.414829
O O10 0.964908 0.096822 0.683742
O O11 0.000000 0.121971 0.500000
O O12 0.500000 0.135080 0.836668
O O13 0.035091 0.096821 0.148650
O O14 0.031544 0.000000 0.234229
O O15 0.500000 0.064034 0.000000
O O16 0.000000 0.121971 0.000000
O O17 0.000000 0.608398 0.500000
O O18 0.991793 0.591365 0.337198
O O19 0.877057 0.500000 0.811474
O O20 0.500000 0.417795 0.000000
#
# Coordination Sequence:
#
# PCOD9147623 Si02
#       8
#     4   4   4   4   4   4   4   4
#     4  12  25  41  64  94 126 161 201 245 298 358
#     4  10  19  35  60  86 119 156 193 240 296 358
#     4  10  19  35  60  86 119 156 193 240 296 358
#     4  10  20  35  56  84 113 150 192 237 292 348
#     4   9  18  35  57  78 106 149 198 239 286 353
#     4  10  20  35  56  84 113 150 192 237 292 348
#     4  12  25  41  64  94 126 161 201 245 298 358
#     4  11  25  46  69  92 122 161 204 251 300 349
#
# _framework density 18.985420000000001
#
# number of rings (size 3 to 8) (size 9 to 14) (size 15 to 20)
#    0.000    1.500    2.500    3.375    0.000    5.000 
#    0.000    0.625    0.000    0.750    0.000    0.000 
#    0.000    0.000    0.000    0.000    0.000    0.000 
#
# Total GULP energy -178918.092336 kJ/mol
# GULP energy per Si atom -5591.190385 kJ/mol
# Density = 1.894221 g / cm^3
# Si number density = 18.985420 Si / 1000 Ang^3
#
#
#
# Elastic Constant Matrix: (Units=GPa)
#
#
# Indices 1 2 3 4 5 6 
#
# 1 163.6355 66.9947 73.5995 0.0000 22.6614 0.0000
# 2 66.9947 98.8324 59.4132 0.0000 7.7249 0.0000
# 3 73.5995 59.4132 117.8701 0.0000 23.9913 0.0000
# 4 0.0000 0.0000 0.0000 -8.5123 0.0000 1.4968
# 5 22.6614 7.7249 23.9913 0.0000 32.5455 0.0000
# 6 0.0000 0.0000 0.0000 1.4968 0.0000 -7.0448
#
#
#
# Elastic Compliance Matrix: (Units=1/GPa)
#
#
# Indices 1 2 3 4 5 6 
#
# 1 0.009866 -0.004501 -0.003190 0.000000 -0.003450 0.000000
# 2 -0.004501 0.016717 -0.006408 0.000000 0.003889 0.000000
# 3 -0.003190 -0.006408 0.015229 0.000000 -0.007484 0.000000
# 4 0.000000 0.000000 0.000000 -0.122036 0.000000 -0.025928
# 5 -0.003450 0.003889 -0.007484 0.000000 0.037722 0.000000
# 6 0.000000 0.000000 0.000000 -0.025928 0.000000 -0.147458
#
#
# Mechanical properties :
#
#
# Convention : Reuss Voigt Hill
#
# Bulk Modulus (GPa) = 73.44423 86.70586 80.07504
# Shear Modulus (GPa) = -31.80168 15.41973 -8.19097
#
# Velocity S-wave (km/s) = -4.09719 2.85298 -2.07935
# Velocity P-wave (km/s) = 4.04795 7.52473 6.04183
#
# Compressibility (1/GPa) = 0.01361577
#
# Stress axis : x y z
#
# Youngs Moduli (GPa) = 101.35496 59.81928 65.66531
#
# Poissons Ratio (x) = 0.26924 0.20945
# Poissons Ratio (y) = 0.45618 0.42076
# Poissons Ratio (z) = 0.32329 0.38330
#
# Static dielectric constant tensor:
#      x y z
#    x 1.640810 0.000000 0.002260 
#    y 0.000000 1.643840 0.000000 
#    z 0.002260 0.000000 1.638590 
# 
# From -- ./inp_files/62671.got.cif
#   From: 2010.05.17/outbox.cif.g08.bks.cpg/sg10_32_cif.got.tgz:62671.got - 2010.06.03 11:33:40.
