data_PCOD9147033
_publ_section_title
;
Structure prediction by ZEFSAII (Michael W. Deem and Ramdas Pophale) SiO2 
 PCOD9147033
Probable space group: P 2/M
;
_chemical_formula_sum "Si O2"
_cell_formula_units_Z 24
_cell_length_a 8.999993
_cell_length_b 8.423786
_cell_length_c 16.943566
_cell_angle_alpha 90.000000
_cell_angle_beta 74.897115
_cell_angle_gamma 90.000000
_cell_volume 1240.190447
_symmetry_space_group_name_H-M "P 2/M"
_symmetry_group_IT_number 10
_symmetry_cell_setting 'monoclinic'
loop_
_space_group_symop_operation_xyz
x,y,z
-x,y,-z
-x,-y,-z
x,-y,z
loop_
_atom_site_type_symbol
_atom_site_label
_atom_site_fract_x
_atom_site_fract_y
_atom_site_fract_z
Si Si1 0.116105 0.687298 0.414967
Si Si2 0.778438 0.690651 0.085760
Si Si3 0.441629 0.812136 0.421150
Si Si4 0.979939 0.184812 0.739150
Si Si5 0.687296 0.688766 0.264358
Si Si6 0.133207 0.689728 0.090738
O O1 0.091722 0.500000 0.404893
O O2 0.288004 0.719649 0.419952
O O3 0.000000 0.740079 0.500000
O O4 0.083957 0.776373 0.337944
O O5 0.757932 0.500000 0.084814
O O6 0.679591 0.747184 0.174082
O O7 0.956036 0.715678 0.087398
O O8 0.764764 0.748855 0.997486
O O9 0.500000 0.765597 0.500000
O O10 0.571781 0.775153 0.338769
O O11 0.408386 0.000000 0.426981
O O12 0.137685 0.281728 0.731316
O O13 0.859994 0.231334 0.824847
O O14 0.017661 0.000000 0.741189
O O15 0.657185 0.500000 0.270023
O O16 0.154834 0.500000 0.096265
#
# Coordination Sequence:
#
# PCOD9147033 Si02
#       6
#     4   4   4   4   4   4
#     4  11  24  41  61  82 104 137 182 224 263 316
#     4   7  12  24  46  74 103 138 179 223 263 303
#     4  11  24  40  58  82 112 142 172 214 272 327
#     4  11  21  33  52  81 115 146 178 221 274 320
#     4  10  19  34  56  81 110 145 186 225 263 313
#     4   8  13  26  47  72 104 141 181 220 261 311
#
# _framework density 19.351869000000001
#
# number of rings (size 3 to 8) (size 9 to 14) (size 15 to 20)
#    0.000    2.333    0.000    6.000    0.000    5.333 
#    0.000    7.500    0.000    1.000    0.000    7.000 
#    0.000    0.000    0.000    0.000    0.000    0.000 
#
# Total GULP energy -133844.398069 kJ/mol
# GULP energy per Si atom -5576.849920 kJ/mol
# Density = 1.930782 g / cm^3
# Si number density = 19.351869 Si / 1000 Ang^3
#
#
#
# Elastic Constant Matrix: (Units=GPa)
#
#
# Indices 1 2 3 4 5 6 
#
# 1 29.3711 -12.6857 30.8772 0.0000 -4.4458 0.0000
# 2 -12.6857 20.7521 13.1660 0.0000 3.1466 0.0000
# 3 30.8772 13.1660 187.5503 0.0000 -9.9356 0.0000
# 4 0.0000 0.0000 0.0000 13.2511 0.0000 9.6047
# 5 -4.4458 3.1466 -9.9356 0.0000 21.1580 0.0000
# 6 0.0000 0.0000 0.0000 9.6047 0.0000 22.0959
#
#
#
# Elastic Compliance Matrix: (Units=1/GPa)
#
#
# Indices 1 2 3 4 5 6 
#
# 1 0.075984 0.056972 -0.016523 0.000000 -0.000266 0.000000
# 2 0.056972 0.095041 -0.016579 0.000000 -0.009948 0.000000
# 3 -0.016523 -0.016579 0.009396 0.000000 0.003406 0.000000
# 4 0.000000 0.000000 0.000000 0.110179 0.000000 -0.047892
# 5 -0.000266 -0.009948 0.003406 0.000000 0.050286 0.000000
# 6 0.000000 0.000000 0.000000 -0.047892 0.000000 0.066075
#
#
# Mechanical properties :
#
#
# Convention : Reuss Voigt Hill
#
# Bulk Modulus (GPa) = 4.38283 33.37650 18.87966
# Shear Modulus (GPa) = 11.48698 25.05542 18.27120
#
# Velocity S-wave (km/s) = 2.43900 3.60214 3.07605
# Velocity P-wave (km/s) = 3.19396 5.88091 4.73215
#
# Compressibility (1/GPa) = 0.22816325
#
# Stress axis : x y z
#
# Youngs Moduli (GPa) = 13.16064 10.52173 106.42343
#
# Poissons Ratio (x) = -0.59945 1.75845
# Poissons Ratio (y) = -0.74979 1.76434
# Poissons Ratio (z) = 0.21745 0.17443
#
# Static dielectric constant tensor:
#      x y z
#    x 1.668280 0.000000 0.073940 
#    y 0.000000 1.645260 0.000000 
#    z 0.073940 0.000000 2.059580 
# 
# From -- ./inp_files/60190.got.cif
#   From: 2010.05.17/outbox.cif.g08.bks.cpg/sg10_31_cif.got.tgz:60190.got - 2010.06.03 11:33:40.
