data_PCOD9147209
_publ_section_title
;
Structure prediction by ZEFSAII (Michael W. Deem and Ramdas Pophale) SiO2 
 PCOD9147209
Probable space group: P 2/M
;
_chemical_formula_sum "Si O2"
_cell_formula_units_Z 32
_cell_length_a 21.399424
_cell_length_b 9.161227
_cell_length_c 26.692626
_cell_angle_alpha 90.000000
_cell_angle_beta 159.125099
_cell_angle_gamma 90.000000
_cell_volume 1864.652322
_symmetry_space_group_name_H-M "P 2/M"
_symmetry_group_IT_number 10
_symmetry_cell_setting 'monoclinic'
loop_
_space_group_symop_operation_xyz
x,y,z
-x,y,-z
-x,-y,-z
x,-y,z
loop_
_atom_site_type_symbol
_atom_site_label
_atom_site_fract_x
_atom_site_fract_y
_atom_site_fract_z
Si Si1 0.956019 0.173029 0.408589
Si Si2 0.412881 0.672468 0.880764
Si Si3 0.838856 0.826112 0.022041
Si Si4 0.405179 0.328776 0.084027
Si Si5 0.212174 0.325392 0.291822
Si Si6 0.523930 0.325030 0.600421
Si Si7 0.533018 0.825252 0.714164
Si Si8 0.280172 0.671881 0.601043
O O1 0.763939 0.235977 0.254958
O O2 0.000000 0.198897 0.500000
O O3 0.099792 0.254997 0.482776
O O4 0.963751 0.000000 0.405245
O O5 0.372003 0.500000 0.842363
O O6 0.544759 0.714785 0.934734
O O7 0.500000 0.689235 0.000000
O O8 0.028446 0.755710 0.156956
O O9 0.852442 0.000000 0.035353
O O10 0.744155 0.763267 0.000524
O O11 0.707376 0.790196 0.877402
O O12 0.356073 0.500000 0.048023
O O13 0.581525 0.312824 0.249457
O O14 0.184079 0.500000 0.271858
O O15 0.343018 0.289414 0.435805
O O16 0.320096 0.291902 0.321950
O O17 0.525415 0.500000 0.610349
O O18 0.543685 0.239994 0.666791
O O19 0.371620 0.752152 0.622999
O O20 0.513688 0.000000 0.698733
O O21 0.258076 0.500000 0.574378
#
# Coordination Sequence:
#
# PCOD9147209 Si02
#       8
#     4   4   4   4   4   4   4   4
#     4  11  22  35  56  83 111 145 182 224 275 328
#     4  10  21  38  58  81 109 142 184 231 276 323
#     4  10  21  35  54  81 111 144 181 220 271 328
#     4   9  18  34  56  79 105 141 182 225 272 320
#     4   9  19  37  59  81 108 142 185 227 264 315
#     4   9  19  37  59  82 108 143 183 225 269 315
#     4  10  21  36  54  81 116 145 175 223 275 324
#     4  10  19  34  58  82 106 141 186 230 269 318
#
# _framework density 17.161377000000002
#
# number of rings (size 3 to 8) (size 9 to 14) (size 15 to 20)
#    0.000    2.250    1.250    2.250    0.000    4.750 
#    2.250    3.750    0.000    0.000    0.000    0.000 
#    0.000    0.000    0.000    0.000    0.000    0.000 
#
# Total GULP energy -178607.489122 kJ/mol
# GULP energy per Si atom -5581.484035 kJ/mol
# Density = 1.712232 g / cm^3
# Si number density = 17.161377 Si / 1000 Ang^3
#
#
#
# Elastic Constant Matrix: (Units=GPa)
#
#
# Indices 1 2 3 4 5 6 
#
# 1 149.9060 74.4306 83.0692 0.0000 8.9841 0.0000
# 2 74.4306 73.8402 73.0036 0.0000 11.5718 0.0000
# 3 83.0692 73.0036 106.3959 0.0000 24.1764 0.0000
# 4 0.0000 0.0000 0.0000 -10.6968 0.0000 -48.3664
# 5 8.9841 11.5718 24.1764 0.0000 22.1096 0.0000
# 6 0.0000 0.0000 0.0000 -48.3664 0.0000 -38.8190
#
#
#
# Elastic Compliance Matrix: (Units=1/GPa)
#
#
# Indices 1 2 3 4 5 6 
#
# 1 0.014332 -0.009312 -0.006100 0.000000 0.005721 0.000000
# 2 -0.009312 0.051026 -0.029983 0.000000 0.009863 0.000000
# 3 -0.006100 -0.029983 0.040724 0.000000 -0.026360 0.000000
# 4 0.000000 0.000000 0.000000 0.020175 0.000000 -0.025138
# 5 0.005721 0.009863 -0.026360 0.000000 0.066567 0.000000
# 6 0.000000 0.000000 0.000000 -0.025138 0.000000 0.005559
#
#
# Mechanical properties :
#
#
# Convention : Reuss Voigt Hill
#
# Bulk Modulus (GPa) = 65.39034 87.90542 76.64788
# Shear Modulus (GPa) = 16.99116 1.16133 9.07625
#
# Velocity S-wave (km/s) = 3.14997 0.82352 2.30223
# Velocity P-wave (km/s) = 7.17047 7.22760 7.19909
#
# Compressibility (1/GPa) = 0.01529278
#
# Stress axis : x y z
#
# Youngs Moduli (GPa) = 69.77450 19.59774 24.55554
#
# Poissons Ratio (x) = 0.18249 0.14980
# Poissons Ratio (y) = 0.64973 0.73624
# Poissons Ratio (z) = 0.42564 0.58759
#
# Static dielectric constant tensor:
#      x y z
#    x 1.563810 0.000000 -0.006670 
#    y 0.000000 1.568770 0.000000 
#    z -0.006670 0.000000 1.555400 
# 
# From -- ./inp_files/86974.got.cif
#   From: 2010.05.17/outbox.cif.g08.bks.cpg/sg10_44_cif.got.tgz:86974.got - 2010.06.03 11:33:40.
