data_PCOD9147023
_publ_section_title
;
Structure prediction by ZEFSAII (Michael W. Deem and Ramdas Pophale) SiO2 
 PCOD9147023
Probable space group: P 2/M
;
_chemical_formula_sum "Si O2"
_cell_formula_units_Z 26
_cell_length_a 9.592395
_cell_length_b 15.014755
_cell_length_c 8.977188
_cell_angle_alpha 90.000000
_cell_angle_beta 67.509446
_cell_angle_gamma 90.000000
_cell_volume 1194.622309
_symmetry_space_group_name_H-M "P 2/M"
_symmetry_group_IT_number 10
_symmetry_cell_setting 'monoclinic'
loop_
_space_group_symop_operation_xyz
x,y,z
-x,y,-z
-x,-y,-z
x,-y,z
loop_
_atom_site_type_symbol
_atom_site_label
_atom_site_fract_x
_atom_site_fract_y
_atom_site_fract_z
Si Si1 0.930410 0.266230 0.271146
Si Si2 0.654442 0.724800 0.157739
Si Si3 0.787670 0.406655 0.533444
Si Si4 0.210515 0.396373 0.120620
Si Si5 0.500000 0.648397 0.500000
Si Si6 0.525660 0.102049 0.248905
Si Si7 0.241978 0.100926 0.563303
O O1 0.814527 0.272933 0.179730
O O2 0.876997 0.324266 0.433700
O O3 0.897418 0.166178 0.343098
O O4 0.081521 0.319092 0.164697
O O5 0.540623 0.705917 0.339875
O O6 0.598254 0.819886 0.118964
O O7 0.662335 0.644140 0.038759
O O8 0.869581 0.500000 0.471541
O O9 0.748176 0.399184 0.722146
O O10 0.641712 0.407059 0.490643
O O11 0.170969 0.500000 0.095513
O O12 0.356491 0.122975 0.379634
O O13 0.642260 0.102151 0.342659
O O14 0.524859 0.000000 0.192234
O O15 0.189538 0.000000 0.564588
#
# Coordination Sequence:
#
# PCOD9147023 Si02
#       7
#     4   4   4   4   2   4   4
#     4  10  19  34  56  80 109 148 189 224 261 320
#     4  10  20  34  54  83 113 144 185 228 272 321
#     4  10  21  37  58  80 104 139 183 231 282 334
#     4  11  24  38  52  75 111 154 191 225 271 324
#     4  10  21  38  59  82 106 134 179 236 287 332
#     4   8  13  26  50  80 112 143 181 227 273 323
#     4   8  14  27  52  83 109 139 182 229 274 322
#
# _framework density 21.764199999999999
#
# number of rings (size 3 to 8) (size 9 to 14) (size 15 to 20)
#    0.000    2.462    0.000    5.308    0.000    6.154 
#    0.000    2.308    0.000    6.462    0.000    3.231 
#    0.000    0.000    0.000    0.000    0.000    0.615 
#
# Total GULP energy -144776.535678 kJ/mol
# GULP energy per Si atom -5568.328295 kJ/mol
# Density = 2.171466 g / cm^3
# Si number density = 21.764200 Si / 1000 Ang^3
#
#
#
# Elastic Constant Matrix: (Units=GPa)
#
#
# Indices 1 2 3 4 5 6 
#
# 1 51.0112 32.4081 -3.3457 0.0000 -4.5161 0.0000
# 2 32.4081 175.3962 55.1616 0.0000 -11.6367 0.0000
# 3 -3.3457 55.1616 80.9407 0.0000 -5.1921 0.0000
# 4 0.0000 0.0000 0.0000 34.9552 0.0000 -42.8297
# 5 -4.5161 -11.6367 -5.1921 0.0000 20.0523 0.0000
# 6 0.0000 0.0000 0.0000 -42.8297 0.0000 20.5702
#
#
#
# Elastic Compliance Matrix: (Units=1/GPa)
#
#
# Indices 1 2 3 4 5 6 
#
# 1 0.023944 -0.005830 0.005178 0.000000 0.003350 0.000000
# 2 -0.005830 0.008856 -0.006133 0.000000 0.002238 0.000000
# 3 0.005178 -0.006133 0.016875 0.000000 0.001977 0.000000
# 4 0.000000 0.000000 0.000000 -0.018443 0.000000 -0.038400
# 5 0.003350 0.002238 0.001977 0.000000 0.052435 0.000000
# 6 0.000000 0.000000 0.000000 -0.038400 0.000000 -0.031340
#
#
# Mechanical properties :
#
#
# Convention : Reuss Voigt Hill
#
# Bulk Modulus (GPa) = 27.69734 52.86623 40.28179
# Shear Modulus (GPa) = 64.15885 29.99048 47.07467
#
# Velocity S-wave (km/s) = 5.43535 3.71613 4.65579
# Velocity P-wave (km/s) = 7.22111 6.53881 6.88842
#
# Compressibility (1/GPa) = 0.03610456
#
# Stress axis : x y z
#
# Youngs Moduli (GPa) = 41.76446 112.91921 59.25903
#
# Poissons Ratio (x) = 0.65836 -0.30684
# Poissons Ratio (y) = 0.24350 0.36342
# Poissons Ratio (z) = -0.21626 0.69251
#
# Static dielectric constant tensor:
#      x y z
#    x 1.835750 0.000000 -0.047400 
#    y 0.000000 1.870570 0.000000 
#    z -0.047400 0.000000 1.846980 
# 
# From -- ./inp_files/24826.got.cif
#   From: 2010.05.17/outbox.cif.g08.bks.cpg/sg10_13_cif.got.tgz:24826.got - 2010.06.03 11:33:40.
