data_PCOD9147197
_publ_section_title
;
Structure prediction by ZEFSAII (Michael W. Deem and Ramdas Pophale) SiO2 
 PCOD9147197
Probable space group: P 2/M
;
_chemical_formula_sum "Si O2"
_cell_formula_units_Z 32
_cell_length_a 28.128427
_cell_length_b 7.629695
_cell_length_c 17.216707
_cell_angle_alpha 90.000000
_cell_angle_beta 23.717042
_cell_angle_gamma 90.000000
_cell_volume 1486.163173
_symmetry_space_group_name_H-M "P 2/M"
_symmetry_group_IT_number 10
_symmetry_cell_setting 'monoclinic'
loop_
_space_group_symop_operation_xyz
x,y,z
-x,y,-z
-x,-y,-z
x,-y,z
loop_
_atom_site_type_symbol
_atom_site_label
_atom_site_fract_x
_atom_site_fract_y
_atom_site_fract_z
Si Si1 0.634041 0.289538 0.798758
Si Si2 0.951552 0.207215 0.921804
Si Si3 0.960617 0.785920 0.729796
Si Si4 0.267541 0.785258 0.028392
Si Si5 0.284760 0.701936 0.638331
Si Si6 0.791957 0.789674 0.710522
Si Si7 0.215367 0.287649 0.574271
Si Si8 0.491933 0.796108 0.598356
O O1 0.628813 0.500000 0.798449
O O2 0.699714 0.249607 0.780595
O O3 0.711643 0.224487 0.609884
O O4 0.500000 0.222411 0.000000
O O5 0.958118 0.272127 0.823038
O O6 0.078619 0.236438 0.770644
O O7 0.927775 0.000000 0.955171
O O8 0.843407 0.289478 0.130058
O O9 0.843957 0.734452 0.857663
O O10 0.079449 0.724820 0.509230
O O11 0.963679 0.000000 0.726332
O O12 0.248578 0.723760 0.144862
O O13 0.269547 0.000000 0.028179
O O14 0.388129 0.722781 0.807927
O O15 0.321490 0.500000 0.576598
O O16 0.270865 0.775653 0.572216
O O17 0.383351 0.788646 0.544541
O O18 0.801966 0.000000 0.701761
O O19 0.218403 0.500000 0.570952
O O20 0.500000 0.717021 0.500000
O O21 0.459007 0.000000 0.636370
#
# Coordination Sequence:
#
# PCOD9147197 Si02
#       8
#     4   4   4   4   4   4   4   4
#     4  10  22  39  59  80 112 157 192 224 279 339
#     4  11  21  36  60  88 115 147 189 236 288 340
#     4   9  17  32  55  84 115 146 181 226 282 339
#     4   9  18  32  55  84 114 148 184 229 284 337
#     4  11  24  39  58  83 114 151 192 236 284 338
#     4  10  19  34  57  87 114 142 186 237 281 328
#     4  10  22  40  58  81 114 152 192 235 283 338
#     4  10  21  39  60  84 116 152 191 235 284 335
#
# _framework density 21.531956999999998
#
# number of rings (size 3 to 8) (size 9 to 14) (size 15 to 20)
#    0.000    2.000    1.250    2.250    1.750    6.500 
#    0.000    0.000    0.000    3.750    0.000    0.000 
#    0.000    0.000    0.000    0.000    0.000    0.000 
#
# Total GULP energy -178863.550201 kJ/mol
# GULP energy per Si atom -5589.485944 kJ/mol
# Density = 2.148295 g / cm^3
# Si number density = 21.531957 Si / 1000 Ang^3
#
#
#
# Elastic Constant Matrix: (Units=GPa)
#
#
# Indices 1 2 3 4 5 6 
#
# 1 164.8021 -6.3824 51.5474 0.0000 8.7410 0.0000
# 2 -6.3824 42.4055 -3.6630 0.0000 6.8071 0.0000
# 3 51.5474 -3.6630 65.6157 0.0000 -13.4194 0.0000
# 4 0.0000 0.0000 0.0000 9.8261 0.0000 -8.2004
# 5 8.7410 6.8071 -13.4194 0.0000 35.5469 0.0000
# 6 0.0000 0.0000 0.0000 -8.2004 0.0000 30.4406
#
#
#
# Elastic Compliance Matrix: (Units=1/GPa)
#
#
# Indices 1 2 3 4 5 6 
#
# 1 0.008948 0.001539 -0.008078 0.000000 -0.005544 0.000000
# 2 0.001539 0.024606 -0.000950 0.000000 -0.005449 0.000000
# 3 -0.008078 -0.000950 0.023815 0.000000 0.011159 0.000000
# 4 0.000000 0.000000 0.000000 0.131285 0.000000 0.035367
# 5 -0.005544 -0.005449 0.011159 0.000000 0.034751 0.000000
# 6 0.000000 0.000000 0.000000 0.035367 0.000000 0.042378
#
#
# Mechanical properties :
#
#
# Convention : Reuss Voigt Hill
#
# Bulk Modulus (GPa) = 23.58905 39.53637 31.56271
# Shear Modulus (GPa) = 16.95536 30.58413 23.76974
#
# Velocity S-wave (km/s) = 2.80920 3.77292 3.32615
# Velocity P-wave (km/s) = 4.63695 6.11404 5.42599
#
# Compressibility (1/GPa) = 0.04239255
#
# Stress axis : x y z
#
# Youngs Moduli (GPa) = 111.75533 40.64021 41.99011
#
# Poissons Ratio (x) = -0.06255 0.33918
# Poissons Ratio (y) = -0.17200 0.03988
# Poissons Ratio (z) = 0.90272 0.03860
#
# Static dielectric constant tensor:
#      x y z
#    x 1.738260 0.000000 0.027270 
#    y 0.000000 1.830510 0.000000 
#    z 0.027270 0.000000 1.748100 
# 
# From -- ./inp_files/49823.got.cif
#   From: 2010.05.17/outbox.cif.g08.bks.cpg/sg10_25_cif.got.tgz:49823.got - 2010.06.03 11:33:40.
