data_PCOD9147635
_publ_section_title
;
Structure prediction by ZEFSAII (Michael W. Deem and Ramdas Pophale) SiO2 
 PCOD9147635
Probable space group: P 2/M
;
_chemical_formula_sum "Si O2"
_cell_formula_units_Z 32
_cell_length_a 15.334022
_cell_length_b 8.610941
_cell_length_c 24.500772
_cell_angle_alpha 90.000000
_cell_angle_beta 150.897456
_cell_angle_gamma 90.000000
_cell_volume 1573.464587
_symmetry_space_group_name_H-M "P 2/M"
_symmetry_group_IT_number 10
_symmetry_cell_setting 'monoclinic'
loop_
_space_group_symop_operation_xyz
x,y,z
-x,y,-z
-x,-y,-z
x,-y,z
loop_
_atom_site_type_symbol
_atom_site_label
_atom_site_fract_x
_atom_site_fract_y
_atom_site_fract_z
Si Si1 0.339600 0.180471 0.376814
Si Si2 0.365528 0.326975 0.283268
Si Si3 0.012053 0.686521 0.764029
Si Si4 0.297830 0.311102 0.007775
Si Si5 0.969724 0.687378 0.615910
Si Si6 0.045959 0.677278 0.967923
Si Si7 0.341747 0.685227 0.638973
Si Si8 0.321177 0.815577 0.748972
O O1 0.500000 0.248114 0.500000
O O2 0.403644 0.203236 0.350201
O O3 0.156584 0.265753 0.291421
O O4 0.314517 0.000000 0.375855
O O5 0.433599 0.500000 0.336165
O O6 0.460470 0.290563 0.278193
O O7 0.152034 0.335266 0.164783
O O8 0.020630 0.500000 0.766336
O O9 0.191072 0.737896 0.894592
O O10 0.978904 0.743433 0.683918
O O11 0.300575 0.500000 0.010022
O O12 0.181386 0.258586 0.997088
O O13 0.497404 0.249095 0.124292
O O14 0.964779 0.500000 0.614926
O O15 0.148563 0.741843 0.683370
O O16 0.799599 0.734510 0.485398
O O17 0.111913 0.500000 0.016588
O O18 0.000000 0.759279 0.000000
O O19 0.318557 0.500000 0.635852
O O20 0.319098 0.769088 0.683964
O O21 0.315734 0.000000 0.751219
#
# Coordination Sequence:
#
# PCOD9147635 Si02
#       8
#     4   4   4   4   4   4   4   4
#     4  11  23  36  53  83 126 168 197 232 289 354
#     4  10  19  35  60  89 116 150 197 242 289 345
#     4  10  21  40  66  92 117 154 206 258 304 354
#     4  10  20  38  62  88 121 158 201 253 302 353
#     4  10  22  41  65  92 118 151 202 261 315 361
#     4   9  16  29  54  86 116 147 186 234 288 342
#     4  10  21  39  65  93 121 154 198 257 312 359
#     4  12  26  41  60  87 121 163 204 248 307 371
#
# _framework density 20.337285000000001
#
# number of rings (size 3 to 8) (size 9 to 14) (size 15 to 20)
#    0.000    1.750    1.250    3.375    0.000    8.000 
#    0.000    2.500    0.000    1.500    0.000    0.000 
#    0.000    0.000    0.000    0.000    0.000    0.000 
#
# Total GULP energy -178555.565754 kJ/mol
# GULP energy per Si atom -5579.861430 kJ/mol
# Density = 2.029100 g / cm^3
# Si number density = 20.337285 Si / 1000 Ang^3
#
#
#
# Elastic Constant Matrix: (Units=GPa)
#
#
# Indices 1 2 3 4 5 6 
#
# 1 77.6229 2.1437 12.3645 0.0000 -4.6180 0.0000
# 2 2.1437 -5.8914 13.6469 0.0000 -6.7115 0.0000
# 3 12.3645 13.6469 80.8215 0.0000 -5.3805 0.0000
# 4 0.0000 0.0000 0.0000 -4.2235 0.0000 -2.5098
# 5 -4.6180 -6.7115 -5.3805 0.0000 37.0814 0.0000
# 6 0.0000 0.0000 0.0000 -2.5098 0.0000 50.7707
#
#
#
# Elastic Compliance Matrix: (Units=1/GPa)
#
#
# Indices 1 2 3 4 5 6 
#
# 1 0.013268 -0.000792 -0.001813 0.000000 0.001246 0.000000
# 2 -0.000792 -0.109690 0.017483 0.000000 -0.017415 0.000000
# 3 -0.001813 0.017483 0.009990 0.000000 0.004388 0.000000
# 4 0.000000 0.000000 0.000000 -0.230013 0.000000 -0.011370
# 5 0.001246 -0.017415 0.004388 0.000000 0.024608 0.000000
# 6 0.000000 0.000000 0.000000 -0.011370 0.000000 0.019134
#
#
# Mechanical properties :
#
#
# Convention : Reuss Voigt Hill
#
# Bulk Modulus (GPa) = -17.64435 23.20703 2.78134
# Shear Modulus (GPa) = -15.55925 25.01891 4.72983
#
# Velocity S-wave (km/s) = -2.76897 3.51122 1.52668
# Velocity P-wave (km/s) = 4.34944 5.27959 2.11618
#
# Compressibility (1/GPa) = -0.05667536
#
# Stress axis : x y z
#
# Youngs Moduli (GPa) = 75.37160 -9.11659 100.09606
#
# Poissons Ratio (x) = -0.00722 0.18149
# Poissons Ratio (y) = 0.05966 -1.74999
# Poissons Ratio (z) = 0.13666 0.15939
#
# Static dielectric constant tensor:
#      x y z
#    x 1.724620 0.000000 -0.036550 
#    y 0.000000 1.702350 0.000000 
#    z -0.036550 0.000000 1.761170 
# 
# From -- ./inp_files/89482.got.cif
#   From: 2010.05.17/outbox.cif.g08.bks.cpg/sg10_45_cif.got.tgz:89482.got - 2010.06.03 11:33:40.
