data_PCOD9147137
_publ_section_title
;
Structure prediction by ZEFSAII (Michael W. Deem and Ramdas Pophale) SiO2 
 PCOD9147137
Probable space group: P 2/M
;
_chemical_formula_sum "Si O2"
_cell_formula_units_Z 26
_cell_length_a 10.194565
_cell_length_b 14.099276
_cell_length_c 17.809893
_cell_angle_alpha 90.000000
_cell_angle_beta 151.972258
_cell_angle_gamma 90.000000
_cell_volume 1202.905089
_symmetry_space_group_name_H-M "P 2/M"
_symmetry_group_IT_number 10
_symmetry_cell_setting 'monoclinic'
loop_
_space_group_symop_operation_xyz
x,y,z
-x,y,-z
-x,-y,-z
x,-y,z
loop_
_atom_site_type_symbol
_atom_site_label
_atom_site_fract_x
_atom_site_fract_y
_atom_site_fract_z
Si Si1 0.014652 0.291620 0.839089
Si Si2 0.137889 0.388265 0.748417
Si Si3 0.378083 0.389337 0.131362
Si Si4 0.500000 0.219603 0.500000
Si Si5 0.317298 0.893885 0.536641
Si Si6 0.019258 0.894337 0.097802
Si Si7 0.765298 0.303050 0.440048
O O1 0.153611 0.330197 0.833292
O O2 0.689178 0.279910 0.652280
O O3 0.108463 0.187980 0.915712
O O4 0.091233 0.359599 0.946885
O O5 0.129200 0.500000 0.761190
O O6 0.393927 0.371960 0.820390
O O7 0.858568 0.355355 0.563238
O O8 0.384282 0.500000 0.153251
O O9 0.478699 0.330125 0.254254
O O10 0.707103 0.150034 0.559030
O O11 0.650995 0.898858 0.717683
O O12 0.210527 0.809617 0.535162
O O13 0.202900 0.000000 0.487418
O O14 0.900113 0.000000 0.049084
O O15 0.000000 0.870951 0.000000
O O16 0.000000 0.335755 0.500000
#
# Coordination Sequence:
#
# PCOD9147137 Si02
#       7
#     4   4   4   2   4   4   4
#     4  11  20  35  59  86 112 144 194 241 284 330
#     4  10  20  37  59  83 113 150 193 238 287 341
#     4  10  21  37  60  85 111 152 199 237 280 342
#     4  10  21  36  55  82 116 154 185 234 283 336
#     4  10  19  34  57  82 111 148 193 229 275 344
#     4   9  19  35  57  82 110 149 190 232 284 343
#     4  10  20  36  59  88 116 150 187 240 293 337
#
# _framework density 21.614341
#
# number of rings (size 3 to 8) (size 9 to 14) (size 15 to 20)
#    0.000    2.000    1.538    2.538    0.000    4.000 
#    0.000    1.538    0.000    8.308    0.000    0.000 
#    0.000    0.000    0.000    0.000    0.000    0.000 
#
# Total GULP energy -145081.440705 kJ/mol
# GULP energy per Si atom -5580.055412 kJ/mol
# Density = 2.156515 g / cm^3
# Si number density = 21.614341 Si / 1000 Ang^3
#
#
#
# Elastic Constant Matrix: (Units=GPa)
#
#
# Indices 1 2 3 4 5 6 
#
# 1 58.5787 42.1795 23.2247 0.0000 -17.1151 0.0000
# 2 42.1795 109.1731 37.9623 0.0000 -20.4058 0.0000
# 3 23.2247 37.9623 112.9900 0.0000 -28.4833 0.0000
# 4 0.0000 0.0000 0.0000 28.0931 0.0000 -2.3921
# 5 -17.1151 -20.4058 -28.4833 0.0000 31.5518 0.0000
# 6 0.0000 0.0000 0.0000 -2.3921 0.0000 38.4543
#
#
#
# Elastic Compliance Matrix: (Units=1/GPa)
#
#
# Indices 1 2 3 4 5 6 
#
# 1 0.025520 -0.008182 -0.000441 0.000000 0.008153 0.000000
# 2 -0.008182 0.013540 -0.002303 0.000000 0.002240 0.000000
# 3 -0.000441 -0.002303 0.012013 0.000000 0.009116 0.000000
# 4 0.000000 0.000000 0.000000 0.035785 0.000000 0.002226
# 5 0.008153 0.002240 0.009116 0.000000 0.045794 0.000000
# 6 0.000000 0.000000 0.000000 0.002226 0.000000 0.026143
#
#
# Mechanical properties :
#
#
# Convention : Reuss Voigt Hill
#
# Bulk Modulus (GPa) = 34.22294 54.16385 44.19340
# Shear Modulus (GPa) = 26.26208 31.44487 28.85348
#
# Velocity S-wave (km/s) = 3.48951 3.81834 3.65762
# Velocity P-wave (km/s) = 5.66599 6.67482 6.19099
#
# Compressibility (1/GPa) = 0.02922017
#
# Stress axis : x y z
#
# Youngs Moduli (GPa) = 39.18540 73.85271 83.24531
#
# Poissons Ratio (x) = 0.60429 0.03672
# Poissons Ratio (y) = 0.32063 0.19170
# Poissons Ratio (z) = 0.01729 0.17007
#
# Static dielectric constant tensor:
#      x y z
#    x 1.833490 0.000000 0.008440 
#    y 0.000000 1.787050 0.000000 
#    z 0.008440 0.000000 1.839590 
# 
# From -- ./inp_files/76848.got.cif
#   From: 2010.05.17/outbox.cif.g08.bks.cpg/sg10_39_cif.got.tgz:76848.got - 2010.06.03 11:33:40.
