data_PCOD9147831
_publ_section_title
;
Structure prediction by ZEFSAII (Michael W. Deem and Ramdas Pophale) SiO2 
 PCOD9147831
Probable space group: P 2/M
;
_chemical_formula_sum "Si O2"
_cell_formula_units_Z 32
_cell_length_a 20.769295
_cell_length_b 7.557246
_cell_length_c 26.669039
_cell_angle_alpha 90.000000
_cell_angle_beta 159.243188
_cell_angle_gamma 90.000000
_cell_volume 1483.505323
_symmetry_space_group_name_H-M "P 2/M"
_symmetry_group_IT_number 10
_symmetry_cell_setting 'monoclinic'
loop_
_space_group_symop_operation_xyz
x,y,z
-x,y,-z
-x,-y,-z
x,-y,z
loop_
_atom_site_type_symbol
_atom_site_label
_atom_site_fract_x
_atom_site_fract_y
_atom_site_fract_z
Si Si1 0.691921 0.214055 0.660530
Si Si2 0.932425 0.285348 0.338759
Si Si3 0.209688 0.783320 0.156765
Si Si4 0.307924 0.207904 0.665402
Si Si5 0.827108 0.716457 0.153749
Si Si6 0.064334 0.292178 0.877173
Si Si7 0.385304 0.203410 0.184041
Si Si8 0.413707 0.295952 0.853719
O O1 0.500000 0.276641 0.500000
O O2 0.718422 0.272668 0.736989
O O3 0.862712 0.268553 0.751318
O O4 0.691185 0.000000 0.660229
O O5 0.931672 0.500000 0.339910
O O6 0.933539 0.230072 0.281385
O O7 0.744816 0.219484 0.227036
O O8 0.105777 0.227550 0.497003
O O9 0.325896 0.718640 0.194050
O O10 0.210445 0.000000 0.155524
O O11 0.000000 0.728779 0.000000
O O12 0.449863 0.282611 0.727870
O O13 0.342791 0.291008 0.744982
O O14 0.347869 0.000000 0.701385
O O15 0.826564 0.500000 0.152821
O O16 0.909850 0.773627 0.160855
O O17 0.617327 0.778059 0.004246
O O18 0.109777 0.500000 0.910585
O O19 0.208025 0.205244 0.019539
O O20 0.438223 0.000000 0.232669
O O21 0.433302 0.500000 0.884041
#
# Coordination Sequence:
#
# PCOD9147831 Si02
#       8
#     4   4   4   4   4   4   4   4
#     4  10  21  37  58  83 110 145 185 221 262 322
#     4  10  21  37  58  81 109 147 190 233 275 328
#     4   9  16  31  57  80 102 136 181 227 259 300
#     4  11  23  36  54  83 118 148 179 230 286 333
#     4   9  19  36  58  84 110 142 188 235 279 326
#     4  11  21  35  58  84 113 142 174 227 283 326
#     4  10  20  36  57  79 106 145 189 224 266 325
#     4  10  19  36  61  83 106 145 194 233 270 331
#
# _framework density 21.570532
#
# number of rings (size 3 to 8) (size 9 to 14) (size 15 to 20)
#    0.000    2.000    2.500    1.500    0.000    5.250 
#    0.000    4.375    0.000    1.500    0.000    0.000 
#    0.000    0.000    0.000    0.000    0.000    0.000 
#
# Total GULP energy -178800.796546 kJ/mol
# GULP energy per Si atom -5587.524892 kJ/mol
# Density = 2.152144 g / cm^3
# Si number density = 21.570532 Si / 1000 Ang^3
#
#
#
# Elastic Constant Matrix: (Units=GPa)
#
#
# Indices 1 2 3 4 5 6 
#
# 1 123.0752 -4.0360 13.0581 0.0000 2.3274 0.0000
# 2 -4.0360 54.4210 -10.4363 0.0000 1.5382 0.0000
# 3 13.0581 -10.4363 56.3596 0.0000 -15.4530 0.0000
# 4 0.0000 0.0000 0.0000 6.0484 0.0000 19.2340
# 5 2.3274 1.5382 -15.4530 0.0000 34.9751 0.0000
# 6 0.0000 0.0000 0.0000 19.2340 0.0000 -22.7718
#
#
#
# Elastic Compliance Matrix: (Units=1/GPa)
#
#
# Indices 1 2 3 4 5 6 
#
# 1 0.008412 0.000219 -0.002349 0.000000 -0.001607 0.000000
# 2 0.000219 0.019078 0.003696 0.000000 0.000779 0.000000
# 3 -0.002349 0.003696 0.021585 0.000000 0.009531 0.000000
# 4 0.000000 0.000000 0.000000 0.044855 0.000000 0.037886
# 5 -0.001607 0.000779 0.009531 0.000000 0.032875 0.000000
# 6 0.000000 0.000000 0.000000 0.037886 0.000000 -0.011914
#
#
# Mechanical properties :
#
#
# Convention : Reuss Voigt Hill
#
# Bulk Modulus (GPa) = 19.15492 25.66969 22.41230
# Shear Modulus (GPa) = 38.71083 19.33501 29.02292
#
# Velocity S-wave (km/s) = 4.24089 2.99718 3.67207
# Velocity P-wave (km/s) = 5.73407 4.88913 5.32838
#
# Compressibility (1/GPa) = 0.05220592
#
# Stress axis : x y z
#
# Youngs Moduli (GPa) = 118.87881 52.41584 46.32841
#
# Poissons Ratio (x) = -0.01147 0.10883
# Poissons Ratio (y) = -0.02601 -0.17122
# Poissons Ratio (z) = 0.27927 -0.19372
#
# Static dielectric constant tensor:
#      x y z
#    x 1.777040 0.000000 0.008910 
#    y 0.000000 1.858250 0.000000 
#    z 0.008910 0.000000 1.722790 
# 
# From -- ./inp_files/93706.got.cif
#   From: 2010.05.17/outbox.cif.g08.bks.cpg/sg10_47_cif.got.tgz:93706.got - 2010.06.03 11:33:40.
