data_PCOD9147183
_publ_section_title
;
Structure prediction by ZEFSAII (Michael W. Deem and Ramdas Pophale) SiO2 
 PCOD9147183
Probable space group: P 2/M
;
_chemical_formula_sum "Si O2"
_cell_formula_units_Z 28
_cell_length_a 12.210169
_cell_length_b 8.326470
_cell_length_c 16.132847
_cell_angle_alpha 90.000000
_cell_angle_beta 123.906838
_cell_angle_gamma 90.000000
_cell_volume 1361.266944
_symmetry_space_group_name_H-M "P 2/M"
_symmetry_group_IT_number 10
_symmetry_cell_setting 'monoclinic'
loop_
_space_group_symop_operation_xyz
x,y,z
-x,y,-z
-x,-y,-z
x,-y,z
loop_
_atom_site_type_symbol
_atom_site_label
_atom_site_fract_x
_atom_site_fract_y
_atom_site_fract_z
Si Si1 0.350381 0.804478 0.457021
Si Si2 0.641918 0.308146 0.828212
Si Si3 0.835704 0.191877 0.771031
Si Si4 0.363071 0.696401 0.983140
Si Si5 0.912792 0.308868 0.205882
Si Si6 0.642855 0.805682 0.352691
Si Si7 0.909143 0.193639 0.385352
O O1 0.500000 0.754989 0.500000
O O2 0.252199 0.747785 0.344190
O O3 0.318694 0.756432 0.537497
O O4 0.347670 0.000000 0.453814
O O5 0.650100 0.500000 0.830924
O O6 0.759710 0.241581 0.821703
O O7 0.500967 0.257406 0.730957
O O8 0.646872 0.252606 0.925482
O O9 0.981767 0.257247 0.818431
O O10 0.840227 0.000000 0.769120
O O11 0.363825 0.500000 0.982482
O O12 0.233651 0.750662 0.878952
O O13 0.500000 0.750186 0.000000
O O14 0.908959 0.500000 0.207659
O O15 0.953759 0.245972 0.313542
O O16 0.758847 0.752852 0.339938
O O17 0.636764 0.000000 0.349008
O O18 0.000000 0.249847 0.500000
O O19 0.911589 0.000000 0.388211
#
# Coordination Sequence:
#
# PCOD9147183 Si02
#       7
#     4   4   4   4   4   4   4
#     4   9  16  31  56  81 110 154 196 225 270 342
#     4  11  22  37  59  87 116 149 196 246 294 346
#     4  11  22  39  61  85 119 157 195 237 293 359
#     4   9  20  40  63  84 112 154 196 236 292 356
#     4  11  23  40  62  87 117 152 197 248 294 341
#     4  10  19  34  57  85 115 151 196 241 286 341
#     4  10  21  38  60  86 119 159 198 233 285 356
#
# _framework density 20.569071999999998
#
# number of rings (size 3 to 8) (size 9 to 14) (size 15 to 20)
#    0.000    1.857    1.429    3.000    0.000    4.857 
#    0.000    9.286    0.000    5.143    0.000    0.000 
#    0.000    0.000    0.000    0.000    0.000    0.000 
#
# Total GULP energy -156464.713109 kJ/mol
# GULP energy per Si atom -5588.025468 kJ/mol
# Density = 2.052226 g / cm^3
# Si number density = 20.569072 Si / 1000 Ang^3
#
#
#
# Elastic Constant Matrix: (Units=GPa)
#
#
# Indices 1 2 3 4 5 6 
#
# 1 145.0291 6.5254 49.7727 0.0000 3.3712 0.0000
# 2 6.5254 13.5704 9.3734 0.0000 4.4830 0.0000
# 3 49.7727 9.3734 108.6802 0.0000 -5.6550 0.0000
# 4 0.0000 0.0000 0.0000 19.5758 0.0000 -1.8097
# 5 3.3712 4.4830 -5.6550 0.0000 35.0039 0.0000
# 6 0.0000 0.0000 0.0000 -1.8097 0.0000 30.2786
#
#
#
# Elastic Compliance Matrix: (Units=1/GPa)
#
#
# Indices 1 2 3 4 5 6 
#
# 1 0.008261 -0.000945 -0.003769 0.000000 -0.001283 0.000000
# 2 -0.000945 0.083095 -0.007345 0.000000 -0.011738 0.000000
# 3 -0.003769 -0.007345 0.011727 0.000000 0.003198 0.000000
# 4 0.000000 0.000000 0.000000 0.051367 0.000000 0.003070
# 5 -0.001283 -0.011738 0.003198 0.000000 0.030712 0.000000
# 6 0.000000 0.000000 0.000000 0.003070 0.000000 0.033210
#
#
# Mechanical properties :
#
#
# Convention : Reuss Voigt Hill
#
# Bulk Modulus (GPa) = 12.66368 44.29142 28.47755
# Shear Modulus (GPa) = 18.60045 30.41219 24.50632
#
# Velocity S-wave (km/s) = 3.01041 3.84935 3.45543
# Velocity P-wave (km/s) = 4.27240 6.42934 5.45847
#
# Compressibility (1/GPa) = 0.07896598
#
# Stress axis : x y z
#
# Youngs Moduli (GPa) = 121.05288 12.03444 85.27298
#
# Poissons Ratio (x) = 0.01138 0.32135
# Poissons Ratio (y) = 0.11444 0.62629
# Poissons Ratio (z) = 0.45619 0.08839
#
# Static dielectric constant tensor:
#      x y z
#    x 1.725620 0.000000 0.003700 
#    y 0.000000 1.717530 0.000000 
#    z 0.003700 0.000000 1.725080 
# 
# From -- ./inp_files/63935.got.cif
#   From: 2010.05.17/outbox.cif.g08.bks.cpg/sg10_32_cif.got.tgz:63935.got - 2010.06.03 11:33:40.
