data_PCOD9147127
_publ_section_title
;
Structure prediction by ZEFSAII (Michael W. Deem and Ramdas Pophale) SiO2 
 PCOD9147127
Probable space group: P 2/M
;
_chemical_formula_sum "Si O2"
_cell_formula_units_Z 32
_cell_length_a 21.082694
_cell_length_b 8.630986
_cell_length_c 25.934971
_cell_angle_alpha 90.000000
_cell_angle_beta 22.637666
_cell_angle_gamma 90.000000
_cell_volume 1816.446561
_symmetry_space_group_name_H-M "P 2/M"
_symmetry_group_IT_number 10
_symmetry_cell_setting 'monoclinic'
loop_
_space_group_symop_operation_xyz
x,y,z
-x,y,-z
-x,-y,-z
x,-y,z
loop_
_atom_site_type_symbol
_atom_site_label
_atom_site_fract_x
_atom_site_fract_y
_atom_site_fract_z
Si Si1 0.399071 0.186371 0.423197
Si Si2 0.997404 0.185959 0.846381
Si Si3 0.135967 0.812545 0.439585
Si Si4 0.510251 0.813150 0.150170
Si Si5 0.353898 0.685541 0.571651
Si Si6 0.165121 0.314960 0.135761
Si Si7 0.335074 0.812197 0.855863
Si Si8 0.905145 0.685587 0.415137
O O1 0.384044 0.252325 0.491553
O O2 0.565041 0.239181 0.269094
O O3 0.246194 0.242242 0.503259
O O4 0.396597 0.000000 0.427228
O O5 0.175794 0.254581 0.723169
O O6 0.934766 0.239249 0.836922
O O7 0.006255 0.000000 0.839954
O O8 0.853061 0.237305 0.994006
O O9 0.321378 0.766169 0.284124
O O10 0.097832 0.747345 0.524669
O O11 0.000000 0.764160 0.500000
O O12 0.134907 0.000000 0.443649
O O13 0.564923 0.768062 0.167372
O O14 0.521164 0.000000 0.138760
O O15 0.647417 0.742161 0.009827
O O16 0.500000 0.736560 0.500000
O O17 0.350809 0.500000 0.572527
O O18 0.159288 0.500000 0.133719
O O19 0.071197 0.274633 0.258942
O O20 0.334222 0.000000 0.855534
O O21 0.887798 0.500000 0.428152
#
# Coordination Sequence:
#
# PCOD9147127 Si02
#       8
#     4   4   4   4   4   4   4   4
#     4  11  20  35  60  85 110 142 186 234 277 325
#     4  10  19  34  57  82 109 143 183 226 277 330
#     4  10  21  38  59  82 111 148 190 235 280 329
#     4   9  17  33  54  79 110 142 183 228 276 330
#     4  11  24  40  55  78 116 153 185 227 277 332
#     4  10  20  33  52  81 113 143 181 228 278 328
#     4   8  16  31  53  83 110 134 174 230 277 319
#     4  11  22  35  54  83 116 145 183 230 279 335
#
# _framework density 17.616814000000002
#
# number of rings (size 3 to 8) (size 9 to 14) (size 15 to 20)
#    0.000    2.000    2.500    2.625    0.000    3.250 
#    0.000    3.125    0.000    7.500    0.000    0.000 
#    0.000    0.000    0.000    0.000    0.000    0.000 
#
# Total GULP energy -178574.106049 kJ/mol
# GULP energy per Si atom -5580.440814 kJ/mol
# Density = 1.757672 g / cm^3
# Si number density = 17.616814 Si / 1000 Ang^3
#
#
#
# Elastic Constant Matrix: (Units=GPa)
#
#
# Indices 1 2 3 4 5 6 
#
# 1 88.8043 26.1080 69.7463 0.0000 -8.4078 0.0000
# 2 26.1080 34.1766 37.6695 0.0000 -1.7260 0.0000
# 3 69.7463 37.6695 182.2500 0.0000 -4.3957 0.0000
# 4 0.0000 0.0000 0.0000 -25.6937 0.0000 -2.1238
# 5 -8.4078 -1.7260 -4.3957 0.0000 25.7934 0.0000
# 6 0.0000 0.0000 0.0000 -2.1238 0.0000 22.9127
#
#
#
# Elastic Compliance Matrix: (Units=1/GPa)
#
#
# Indices 1 2 3 4 5 6 
#
# 1 0.018065 -0.007865 -0.005180 0.000000 0.004480 0.000000
# 2 -0.007865 0.041354 -0.005556 0.000000 -0.000743 0.000000
# 3 -0.005180 -0.005556 0.008603 0.000000 -0.000594 0.000000
# 4 0.000000 0.000000 0.000000 -0.038624 0.000000 -0.003580
# 5 0.004480 -0.000743 -0.000594 0.000000 0.040079 0.000000
# 6 0.000000 0.000000 0.000000 -0.003580 0.000000 0.043312
#
#
# Mechanical properties :
#
#
# Convention : Reuss Voigt Hill
#
# Bulk Modulus (GPa) = 32.44472 63.58652 48.01562
# Shear Modulus (GPa) = 31.19864 16.04962 23.62413
#
# Velocity S-wave (km/s) = 4.21284 3.02162 3.66594
# Velocity P-wave (km/s) = 6.49006 6.95314 6.72559
#
# Compressibility (1/GPa) = 0.03082165
#
# Stress axis : x y z
#
# Youngs Moduli (GPa) = 55.35476 24.18168 116.23544
#
# Poissons Ratio (x) = 0.19019 0.60208
# Poissons Ratio (y) = 0.43536 0.64575
# Poissons Ratio (z) = 0.28673 0.13434
#
# Static dielectric constant tensor:
#      x y z
#    x 1.560950 0.000000 0.006490 
#    y 0.000000 1.595320 0.000000 
#    z 0.006490 0.000000 1.624820 
# 
# From -- ./inp_files/93579.got.cif
#   From: 2010.05.17/outbox.cif.g08.bks.cpg/sg10_47_cif.got.tgz:93579.got - 2010.06.03 11:33:40.
