data_PCOD9147856
_publ_section_title
;
Structure prediction by ZEFSAII (Michael W. Deem and Ramdas Pophale) SiO2 
 PCOD9147856
Probable space group: P 2/M
;
_chemical_formula_sum "Si O2"
_cell_formula_units_Z 26
_cell_length_a 5.661578
_cell_length_b 11.038406
_cell_length_c 21.174964
_cell_angle_alpha 90.000000
_cell_angle_beta 65.443968
_cell_angle_gamma 90.000000
_cell_volume 1203.637315
_symmetry_space_group_name_H-M "P 2/M"
_symmetry_group_IT_number 10
_symmetry_cell_setting 'monoclinic'
loop_
_space_group_symop_operation_xyz
x,y,z
-x,y,-z
-x,-y,-z
x,-y,z
loop_
_atom_site_type_symbol
_atom_site_label
_atom_site_fract_x
_atom_site_fract_y
_atom_site_fract_z
Si Si1 0.432165 0.000000 0.235174
Si Si2 0.444893 0.230353 0.705845
Si Si3 0.697599 0.751669 0.920326
Si Si4 0.927980 0.632808 0.310350
Si Si5 0.938494 0.000000 0.848401
Si Si6 0.506977 0.635362 0.817832
Si Si7 0.871063 0.362128 0.576838
Si Si8 0.179750 0.500000 0.042612
O O1 0.410456 0.882856 0.281740
O O2 0.231924 0.000000 0.198668
O O3 0.746526 0.000000 0.186774
O O4 0.178622 0.235240 0.697605
O O5 0.353058 0.307930 0.777092
O O6 0.628486 0.295728 0.635004
O O7 0.853590 0.874914 0.891587
O O8 0.534101 0.718660 0.875689
O O9 0.861043 0.628596 0.917352
O O10 0.500000 0.770015 0.000000
O O11 0.806205 0.500000 0.305381
O O12 0.210596 0.627785 0.247151
O O13 0.936724 0.632235 0.384907
O O14 0.425704 0.500000 0.844672
O O15 0.793467 0.500000 0.569474
O O16 0.000000 0.308138 0.500000
O O17 0.500000 0.500000 0.000000
O O18 0.000000 0.500000 0.000000
#
# Coordination Sequence:
#
# PCOD9147856 Si02
#       8
#     2   4   4   4   2   4   4   2
#     4  12  28  44  74  93 133 175 236 282 343 392
#     4  11  21  38  61  91 126 176 218 284 323 406
#     4  11  23  44  68  98 138 178 228 285 351 415
#     4   9  18  33  57  91 125 166 214 268 327 398
#     4  12  27  50  70 102 130 186 232 294 340 418
#     4  10  19  36  61  92 129 165 221 276 341 403
#     4   9  19  36  62  97 136 170 210 268 337 408
#     4  10  24  46  68 100 138 178 219 274 351 418
#
# _framework density 21.601192000000001
#
# number of rings (size 3 to 8) (size 9 to 14) (size 15 to 20)
#    0.000    1.692    2.308    3.462    2.154    3.077 
#    5.538    3.846    0.000    0.923    0.000    0.000 
#    0.000    0.000    0.000    0.000    0.000    0.000 
#
# Total GULP energy -144884.531464 kJ/mol
# GULP energy per Si atom -5572.481979 kJ/mol
# Density = 2.155203 g / cm^3
# Si number density = 21.601192 Si / 1000 Ang^3
#
#
#
# Elastic Constant Matrix: (Units=GPa)
#
#
# Indices 1 2 3 4 5 6 
#
# 1 58.4260 18.4145 22.2166 0.0000 5.8256 0.0000
# 2 18.4145 101.7661 29.4966 0.0000 -6.7589 0.0000
# 3 22.2166 29.4966 140.4637 0.0000 -1.6476 0.0000
# 4 0.0000 0.0000 0.0000 24.6281 0.0000 1.6848
# 5 5.8256 -6.7589 -1.6476 0.0000 18.9198 0.0000
# 6 0.0000 0.0000 0.0000 1.6848 0.0000 22.1393
#
#
#
# Elastic Compliance Matrix: (Units=1/GPa)
#
#
# Indices 1 2 3 4 5 6 
#
# 1 0.019891 -0.003368 -0.002527 0.000000 -0.007548 0.000000
# 2 -0.003368 0.011277 -0.001778 0.000000 0.004911 0.000000
# 3 -0.002527 -0.001778 0.007902 0.000000 0.000831 0.000000
# 4 0.000000 0.000000 0.000000 0.040817 0.000000 -0.003106
# 5 -0.007548 0.004911 0.000831 0.000000 0.057006 0.000000
# 6 0.000000 0.000000 0.000000 -0.003106 0.000000 0.045405
#
#
# Mechanical properties :
#
#
# Convention : Reuss Voigt Hill
#
# Bulk Modulus (GPa) = 42.15163 48.99014 45.57089
# Shear Modulus (GPa) = 24.32480 28.50597 26.41538
#
# Velocity S-wave (km/s) = 3.35936 3.63664 3.50075
# Velocity P-wave (km/s) = 5.88243 6.35312 6.12230
#
# Compressibility (1/GPa) = 0.02372388
#
# Stress axis : x y z
#
# Youngs Moduli (GPa) = 50.27461 88.67319 126.54846
#
# Poissons Ratio (x) = 0.29865 0.31983
# Poissons Ratio (y) = 0.16932 0.22499
# Poissons Ratio (z) = 0.12706 0.15765
#
# Static dielectric constant tensor:
#      x y z
#    x 1.895680 0.000000 -0.007780 
#    y 0.000000 1.877070 0.000000 
#    z -0.007780 0.000000 1.756670 
# 
# From -- ./inp_files/81074.got.cif
#   From: 2010.05.17/outbox.cif.g08.bks.cpg/sg10_41_cif.got.tgz:81074.got - 2010.06.03 11:33:40.
