data_PCOD9147097
_publ_section_title
;
Structure prediction by ZEFSAII (Michael W. Deem and Ramdas Pophale) SiO2 
 PCOD9147097
Probable space group: P 2/M
;
_chemical_formula_sum "Si O2"
_cell_formula_units_Z 24
_cell_length_a 15.082107
_cell_length_b 7.587383
_cell_length_c 15.553029
_cell_angle_alpha 90.000000
_cell_angle_beta 139.555292
_cell_angle_gamma 90.000000
_cell_volume 1154.575221
_symmetry_space_group_name_H-M "P 2/M"
_symmetry_group_IT_number 10
_symmetry_cell_setting 'monoclinic'
loop_
_space_group_symop_operation_xyz
x,y,z
-x,y,-z
-x,-y,-z
x,-y,z
loop_
_atom_site_type_symbol
_atom_site_label
_atom_site_fract_x
_atom_site_fract_y
_atom_site_fract_z
Si Si1 0.858398 0.713798 0.120743
Si Si2 0.168779 0.793721 0.400153
Si Si3 0.849221 0.284287 0.918923
Si Si4 0.351240 0.704634 0.374983
Si Si5 0.851218 0.788458 0.422240
Si Si6 0.344582 0.711797 0.880347
O O1 0.860025 0.500000 0.123348
O O2 0.749634 0.776852 0.110740
O O3 0.010220 0.773395 0.257690
O O4 0.824778 0.769566 0.998939
O O5 0.262132 0.709786 0.395820
O O6 0.183433 0.721808 0.507834
O O7 0.204002 0.000000 0.426637
O O8 0.849421 0.500000 0.917249
O O9 0.738086 0.219220 0.768730
O O10 0.000000 0.229205 0.000000
O O11 0.500000 0.785162 0.500000
O O12 0.373582 0.500000 0.367665
O O13 0.735262 0.750735 0.266704
O O14 0.000000 0.722088 0.500000
O O15 0.864157 0.000000 0.439277
O O16 0.350835 0.500000 0.892859
O O17 0.500000 0.778441 0.000000
#
# Coordination Sequence:
#
# PCOD9147097 Si02
#       6
#     4   4   4   4   4   4
#     4  10  19  34  57  80 108 146 186 227 277 336
#     4  11  22  36  57  83 112 145 188 237 278 323
#     4   9  16  30  54  80 106 138 179 221 266 327
#     4  10  21  37  58  84 112 146 184 224 277 338
#     4  10  21  38  58  81 112 153 196 233 277 339
#     4  10  22  37  56  87 119 144 181 239 293 333
#
# _framework density 20.786864999999999
#
# number of rings (size 3 to 8) (size 9 to 14) (size 15 to 20)
#    0.000    2.000    3.333    0.500    0.000    3.667 
#    0.000    5.000    0.000    0.000    0.000    0.000 
#    0.000    0.000    0.000    0.000    0.000    0.000 
#
# Total GULP energy -134065.669134 kJ/mol
# GULP energy per Si atom -5586.069547 kJ/mol
# Density = 2.073955 g / cm^3
# Si number density = 20.786865 Si / 1000 Ang^3
#
#
#
# Elastic Constant Matrix: (Units=GPa)
#
#
# Indices 1 2 3 4 5 6 
#
# 1 134.8792 -14.0051 106.7955 0.0000 -13.0614 0.0000
# 2 -14.0051 43.4282 -8.3287 0.0000 -0.9702 0.0000
# 3 106.7955 -8.3287 212.0780 0.0000 -9.7030 0.0000
# 4 0.0000 0.0000 0.0000 -9.4713 0.0000 -62.6883
# 5 -13.0614 -0.9702 -9.7030 0.0000 45.2381 0.0000
# 6 0.0000 0.0000 0.0000 -62.6883 0.0000 -149.2451
#
#
#
# Elastic Compliance Matrix: (Units=1/GPa)
#
#
# Indices 1 2 3 4 5 6 
#
# 1 0.012943 0.003023 -0.006287 0.000000 0.002453 0.000000
# 2 0.003023 0.023929 -0.000524 0.000000 0.001274 0.000000
# 3 -0.006287 -0.000524 0.007854 0.000000 -0.000142 0.000000
# 4 0.000000 0.000000 0.000000 0.059312 0.000000 -0.024913
# 5 0.002453 0.001274 -0.000142 0.000000 0.022811 0.000000
# 6 0.000000 0.000000 0.000000 -0.024913 0.000000 0.003764
#
#
# Mechanical properties :
#
#
# Convention : Reuss Voigt Hill
#
# Bulk Modulus (GPa) = 26.91742 62.14544 44.53143
# Shear Modulus (GPa) = 33.20646 -2.30075 15.45286
#
# Velocity S-wave (km/s) = 4.00118 -1.05320 2.72949
# Velocity P-wave (km/s) = 5.85860 5.33689 5.60382
#
# Compressibility (1/GPa) = 0.03715066
#
# Stress axis : x y z
#
# Youngs Moduli (GPa) = 77.25931 41.78970 127.32293
#
# Poissons Ratio (x) = -0.12634 0.80047
# Poissons Ratio (y) = -0.23357 0.06676
# Poissons Ratio (z) = 0.48572 0.02191
#
# Static dielectric constant tensor:
#      x y z
#    x 1.716310 0.000000 -0.010060 
#    y 0.000000 1.768790 0.000000 
#    z -0.010060 0.000000 1.722860 
# 
# From -- ./inp_files/66306.got.cif
#   From: 2010.05.17/outbox.cif.g08.bks.cpg/sg10_34_cif.got.tgz:66306.got - 2010.06.03 11:33:40.
