data_PCOD9147290
_publ_section_title
;
Structure prediction by ZEFSAII (Michael W. Deem and Ramdas Pophale) SiO2 
 PCOD9147290
Probable space group: P 2/M
;
_chemical_formula_sum "Si O2"
_cell_formula_units_Z 28
_cell_length_a 9.800972
_cell_length_b 8.996100
_cell_length_c 28.255271
_cell_angle_alpha 90.000000
_cell_angle_beta 38.444322
_cell_angle_gamma 90.000000
_cell_volume 1548.964165
_symmetry_space_group_name_H-M "P 2/M"
_symmetry_group_IT_number 10
_symmetry_cell_setting 'monoclinic'
loop_
_space_group_symop_operation_xyz
x,y,z
-x,y,-z
-x,-y,-z
x,-y,z
loop_
_atom_site_type_symbol
_atom_site_label
_atom_site_fract_x
_atom_site_fract_y
_atom_site_fract_z
Si Si1 0.750476 0.324372 0.945384
Si Si2 0.004701 0.826112 0.793134
Si Si3 0.763440 0.170826 0.040760
Si Si4 0.362294 0.678067 0.631575
Si Si5 0.158800 0.178486 0.500910
Si Si6 0.318547 0.173867 0.207626
Si Si7 0.960573 0.677250 0.367325
O O1 0.782012 0.500000 0.930473
O O2 0.916218 0.238056 0.866163
O O3 0.500000 0.287148 0.000000
O O4 0.773513 0.275588 0.992988
O O5 0.207153 0.736919 0.715763
O O6 0.809053 0.811434 0.807701
O O7 0.059722 0.000000 0.782251
O O8 0.569732 0.215208 0.129357
O O9 0.710270 0.000000 0.040299
O O10 0.000000 0.170263 0.000000
O O11 0.382119 0.500000 0.627924
O O12 0.598885 0.753089 0.570511
O O13 0.234716 0.716040 0.617018
O O14 0.069104 0.241568 0.574873
O O15 0.000000 0.218156 0.500000
O O16 0.172641 0.000000 0.499283
O O17 0.185015 0.271534 0.281137
O O18 0.306638 0.000000 0.225008
O O19 0.955972 0.500000 0.375157
#
# Coordination Sequence:
#
# PCOD9147290 Si02
#       7
#     4   4   4   4   4   4   4
#     4  11  22  35  56  84 116 153 193 239 289 338
#     4  10  19  34  59  87 114 148 192 239 285 334
#     4  10  21  38  58  82 113 153 196 240 288 341
#     4  10  21  38  61  89 119 147 185 234 286 341
#     4  11  24  41  60  85 117 153 192 231 276 334
#     4   9  18  34  57  84 113 147 190 237 284 336
#     4  10  21  37  61  89 114 147 188 234 287 340
#
# _framework density 18.076595000000001
#
# number of rings (size 3 to 8) (size 9 to 14) (size 15 to 20)
#    0.000    1.857    1.429    2.571    0.000    6.571 
#    2.571    0.000    0.000    0.000    0.000    0.000 
#    0.000    0.000    0.000    0.000    0.000    0.000 
#
# Total GULP energy -156361.842444 kJ/mol
# GULP energy per Si atom -5584.351516 kJ/mol
# Density = 1.803545 g / cm^3
# Si number density = 18.076595 Si / 1000 Ang^3
#
#
#
# Elastic Constant Matrix: (Units=GPa)
#
#
# Indices 1 2 3 4 5 6 
#
# 1 80.6406 47.7511 69.9473 0.0000 -4.5208 0.0000
# 2 47.7511 57.8435 55.8923 0.0000 1.3329 0.0000
# 3 69.9473 55.8923 143.1009 0.0000 -8.0434 0.0000
# 4 0.0000 0.0000 0.0000 28.8271 0.0000 6.6019
# 5 -4.5208 1.3329 -8.0434 0.0000 21.1403 0.0000
# 6 0.0000 0.0000 0.0000 6.6019 0.0000 24.8659
#
#
#
# Elastic Compliance Matrix: (Units=1/GPa)
#
#
# Indices 1 2 3 4 5 6 
#
# 1 0.029092 -0.017066 -0.007300 0.000000 0.004520 0.000000
# 2 -0.017066 0.038546 -0.007209 0.000000 -0.008823 0.000000
# 3 -0.007300 -0.007209 0.013601 0.000000 0.004068 0.000000
# 4 0.000000 0.000000 0.000000 0.036935 0.000000 -0.009806
# 5 0.004520 -0.008823 0.004068 0.000000 0.050374 0.000000
# 6 0.000000 0.000000 0.000000 -0.009806 0.000000 0.042819
#
#
# Mechanical properties :
#
#
# Convention : Reuss Voigt Hill
#
# Bulk Modulus (GPa) = 55.28750 69.86295 62.57523
# Shear Modulus (GPa) = 17.82224 22.16629 19.99426
#
# Velocity S-wave (km/s) = 3.14336 3.50557 3.32939
# Velocity P-wave (km/s) = 6.62010 7.42412 7.03361
#
# Compressibility (1/GPa) = 0.01808727
#
# Stress axis : x y z
#
# Youngs Moduli (GPa) = 34.37353 25.94304 73.52438
#
# Poissons Ratio (x) = 0.44275 0.53676
# Poissons Ratio (y) = 0.58663 0.53006
# Poissons Ratio (z) = 0.25094 0.18703
#
# Static dielectric constant tensor:
#      x y z
#    x 1.599380 0.000000 -0.007910 
#    y 0.000000 1.610760 0.000000 
#    z -0.007910 0.000000 1.600570 
# 
# From -- ./inp_files/36979.got.cif
#   From: 2010.05.17/outbox.cif.g08.bks.cpg/sg10_19_cif.got.tgz:36979.got - 2010.06.03 11:33:40.
