data_PCOD9147215
_publ_section_title
;
Structure prediction by ZEFSAII (Michael W. Deem and Ramdas Pophale) SiO2 
 PCOD9147215
Probable space group: P 2/M
;
_chemical_formula_sum "Si O2"
_cell_formula_units_Z 32
_cell_length_a 20.052064
_cell_length_b 7.498303
_cell_length_c 25.074015
_cell_angle_alpha 90.000000
_cell_angle_beta 22.419246
_cell_angle_gamma 90.000000
_cell_volume 1437.821278
_symmetry_space_group_name_H-M "P 2/M"
_symmetry_group_IT_number 10
_symmetry_cell_setting 'monoclinic'
loop_
_space_group_symop_operation_xyz
x,y,z
-x,y,-z
-x,-y,-z
x,-y,z
loop_
_atom_site_type_symbol
_atom_site_label
_atom_site_fract_x
_atom_site_fract_y
_atom_site_fract_z
Si Si1 0.769219 0.209676 0.451146
Si Si2 0.680193 0.716593 0.338325
Si Si3 0.656039 0.281797 0.723227
Si Si4 0.350583 0.294669 0.872339
Si Si5 0.991440 0.207768 0.188594
Si Si6 0.653149 0.281801 0.847180
Si Si7 0.046816 0.715075 0.573517
Si Si8 0.630048 0.702742 0.258073
O O1 0.905401 0.279099 0.306489
O O2 0.848529 0.231354 0.451026
O O3 0.581063 0.299191 0.584421
O O4 0.740799 0.000000 0.461412
O O5 0.500000 0.774901 0.500000
O O6 0.675750 0.500000 0.340296
O O7 0.844401 0.772567 0.252037
O O8 0.689202 0.782174 0.270690
O O9 0.652015 0.500000 0.727040
O O10 0.504415 0.218512 0.795181
O O11 0.626860 0.225045 0.805401
O O12 0.841282 0.228517 0.560756
O O13 0.404132 0.500000 0.822435
O O14 0.325533 0.212879 0.832043
O O15 0.170506 0.293798 0.037310
O O16 0.031210 0.000000 0.167437
O O17 0.652066 0.500000 0.848605
O O18 0.846949 0.223290 0.721379
O O19 0.500000 0.222783 0.000000
O O20 0.042758 0.500000 0.575569
O O21 0.700397 0.500000 0.205618
#
# Coordination Sequence:
#
# PCOD9147215 Si02
#       8
#     4   4   4   4   4   4   4   4
#     4  11  23  37  56  83 115 151 193 238 281 336
#     4  10  20  36  62  88 112 145 188 238 288 340
#     4   9  17  32  54  83 114 146 183 229 285 334
#     4  10  21  37  59  85 116 148 188 239 285 335
#     4  11  25  40  55  81 118 155 192 232 284 344
#     4   9  18  30  50  86 120 145 181 231 284 333
#     4  10  19  34  58  83 113 149 188 235 282 335
#     4  10  20  38  62  89 114 142 189 240 287 338
#
# _framework density 22.255894999999999
#
# number of rings (size 3 to 8) (size 9 to 14) (size 15 to 20)
#    0.000    2.000    2.500    1.125    1.750    4.750 
#    0.000    2.500    0.000    2.625    0.000    0.000 
#    0.000    0.000    0.000    0.000    0.000    0.000 
#
# Total GULP energy -178828.547247 kJ/mol
# GULP energy per Si atom -5588.392101 kJ/mol
# Density = 2.220524 g / cm^3
# Si number density = 22.255895 Si / 1000 Ang^3
#
#
#
# Elastic Constant Matrix: (Units=GPa)
#
#
# Indices 1 2 3 4 5 6 
#
# 1 121.5751 -7.3737 37.5233 0.0000 25.4973 0.0000
# 2 -7.3737 63.0872 -6.0393 0.0000 3.3045 0.0000
# 3 37.5233 -6.0393 123.1437 0.0000 18.3197 0.0000
# 4 0.0000 0.0000 0.0000 37.4069 0.0000 -39.0233
# 5 25.4973 3.3045 18.3197 0.0000 39.1017 0.0000
# 6 0.0000 0.0000 0.0000 -39.0233 0.0000 37.7511
#
#
#
# Elastic Compliance Matrix: (Units=1/GPa)
#
#
# Indices 1 2 3 4 5 6 
#
# 1 0.010178 0.001280 -0.002188 0.000000 -0.005720 0.000000
# 2 0.001280 0.016211 0.000788 0.000000 -0.002574 0.000000
# 3 -0.002188 0.000788 0.009270 0.000000 -0.002983 0.000000
# 4 0.000000 0.000000 0.000000 -0.341116 0.000000 -0.352612
# 5 -0.005720 -0.002574 -0.002983 0.000000 0.030919 0.000000
# 6 0.000000 0.000000 0.000000 -0.352612 0.000000 -0.338006
#
#
# Mechanical properties :
#
#
# Convention : Reuss Voigt Hill
#
# Bulk Modulus (GPa) = 28.23379 39.55850 33.89614
# Shear Modulus (GPa) = -8.32641 41.76500 16.71930
#
# Velocity S-wave (km/s) = -1.93632 4.33665 2.74383
# Velocity P-wave (km/s) = 2.77748 6.54892 5.03005
#
# Compressibility (1/GPa) = 0.03541856
#
# Stress axis : x y z
#
# Youngs Moduli (GPa) = 98.25328 61.68687 107.87957
#
# Poissons Ratio (x) = -0.07895 0.23600
# Poissons Ratio (y) = -0.12574 -0.08500
# Poissons Ratio (z) = 0.21494 -0.04861
#
# Static dielectric constant tensor:
#      x y z
#    x 1.800170 0.000000 0.028000 
#    y 0.000000 1.852170 0.000000 
#    z 0.028000 0.000000 1.770140 
# 
# From -- ./inp_files/93642.got.cif
#   From: 2010.05.17/outbox.cif.g08.bks.cpg/sg10_47_cif.got.tgz:93642.got - 2010.06.03 11:33:40.
