data_PCOD9147068
_publ_section_title
;
Structure prediction by ZEFSAII (Michael W. Deem and Ramdas Pophale) SiO2 
 PCOD9147068
Probable space group: P 2/M
;
_chemical_formula_sum "Si O2"
_cell_formula_units_Z 32
_cell_length_a 12.573305
_cell_length_b 9.064135
_cell_length_c 31.398760
_cell_angle_alpha 90.000000
_cell_angle_beta 153.167390
_cell_angle_gamma 90.000000
_cell_volume 1615.235690
_symmetry_space_group_name_H-M "P 2/M"
_symmetry_group_IT_number 10
_symmetry_cell_setting 'monoclinic'
loop_
_space_group_symop_operation_xyz
x,y,z
-x,y,-z
-x,-y,-z
x,-y,z
loop_
_atom_site_type_symbol
_atom_site_label
_atom_site_fract_x
_atom_site_fract_y
_atom_site_fract_z
Si Si1 0.498934 0.324218 0.829591
Si Si2 0.952525 0.672932 0.391993
Si Si3 0.801984 0.172479 0.867744
Si Si4 0.871183 0.324108 0.081661
Si Si5 0.414768 0.176052 0.570799
Si Si6 0.576681 0.824811 0.106513
Si Si7 0.064624 0.824380 0.234103
Si Si8 0.659730 0.171001 0.357230
O O1 0.539047 0.500000 0.848029
O O2 0.256239 0.301278 0.716438
O O3 0.706496 0.248703 0.876377
O O4 0.463961 0.247030 0.862128
O O5 0.989069 0.500000 0.409075
O O6 0.851907 0.736904 0.400313
O O7 0.199633 0.749019 0.469673
O O8 0.582215 0.180071 0.756049
O O9 0.009491 0.259866 0.918544
O O10 0.860395 0.000000 0.895123
O O11 0.864059 0.500000 0.077983
O O12 0.017774 0.265582 0.174341
O O13 0.612042 0.253813 0.991355
O O14 0.683396 0.215688 0.655619
O O15 0.385164 0.215478 0.610316
O O16 0.390391 0.000000 0.558254
O O17 0.842160 0.801351 0.185147
O O18 0.531521 0.000000 0.091200
O O19 0.075599 0.000000 0.227060
O O20 0.733983 0.000000 0.383449
#
# Coordination Sequence:
#
# PCOD9147068 Si02
#       8
#     4   4   4   4   4   4   4   4
#     4  10  22  41  60  84 122 157 195 244 294 346
#     4  10  21  34  52  82 118 154 189 232 287 346
#     4  10  19  36  61  88 120 156 196 239 288 345
#     4  12  24  38  61  92 124 153 187 235 299 359
#     4  10  19  34  56  83 114 150 192 238 287 337
#     4  11  24  42  65  86 110 153 204 247 291 344
#     4  10  22  42  63  87 118 152 196 248 291 339
#     4   9  17  31  53  80 114 153 189 231 284 339
#
# _framework density 19.811349
#
# number of rings (size 3 to 8) (size 9 to 14) (size 15 to 20)
#    0.000    1.750    1.250    3.375    0.000    7.500 
#    0.000    3.125    0.000    3.750    0.000    0.000 
#    0.000    0.000    0.000    0.000    0.000    0.000 
#
# Total GULP energy -178880.583968 kJ/mol
# GULP energy per Si atom -5590.018249 kJ/mol
# Density = 1.976626 g / cm^3
# Si number density = 19.811349 Si / 1000 Ang^3
#
#
#
# Elastic Constant Matrix: (Units=GPa)
#
#
# Indices 1 2 3 4 5 6 
#
# 1 85.9094 55.5853 29.3742 0.0000 14.4357 0.0000
# 2 55.5853 89.5899 46.2292 0.0000 15.4745 0.0000
# 3 29.3742 46.2292 66.5570 0.0000 32.8265 0.0000
# 4 0.0000 0.0000 0.0000 19.2862 0.0000 13.8581
# 5 14.4357 15.4745 32.8265 0.0000 29.4257 0.0000
# 6 0.0000 0.0000 0.0000 13.8581 0.0000 -19.5018
#
#
#
# Elastic Compliance Matrix: (Units=1/GPa)
#
#
# Indices 1 2 3 4 5 6 
#
# 1 0.020075 -0.013209 0.003883 0.000000 -0.007233 0.000000
# 2 -0.013209 0.027410 -0.020666 0.000000 0.015120 0.000000
# 3 0.003883 -0.020666 0.051679 0.000000 -0.048689 0.000000
# 4 0.000000 0.000000 0.000000 0.034324 0.000000 0.024391
# 5 -0.007233 0.015120 -0.048689 0.000000 0.083897 0.000000
# 6 0.000000 0.000000 0.000000 0.024391 0.000000 -0.033945
#
#
# Mechanical properties :
#
#
# Convention : Reuss Voigt Hill
#
# Bulk Modulus (GPa) = 25.52450 56.04818 40.78634
# Shear Modulus (GPa) = 19.49438 13.23320 16.36379
#
# Velocity S-wave (km/s) = 3.14028 2.58730 2.87711
# Velocity P-wave (km/s) = 5.10492 6.10556 5.62752
#
# Compressibility (1/GPa) = 0.03917804
#
# Stress axis : x y z
#
# Youngs Moduli (GPa) = 49.81373 36.48336 19.35023
#
# Poissons Ratio (x) = 0.48192 -0.07513
# Poissons Ratio (y) = 0.65801 0.39989
# Poissons Ratio (z) = -0.19341 0.75396
#
# Static dielectric constant tensor:
#      x y z
#    x 1.680330 0.000000 0.005770 
#    y 0.000000 1.657630 0.000000 
#    z 0.005770 0.000000 1.758730 
# 
# From -- ./inp_files/95087.got.cif
#   From: 2010.05.17/outbox.cif.g08.bks.cpg/sg10_48_cif.got.tgz:95087.got - 2010.06.03 11:33:40.
