data_PCOD9147382
_publ_section_title
;
Structure prediction by ZEFSAII (Michael W. Deem and Ramdas Pophale) SiO2 
 PCOD9147382
Probable space group: P 2/M
;
_chemical_formula_sum "Si O2"
_cell_formula_units_Z 28
_cell_length_a 13.565531
_cell_length_b 7.731856
_cell_length_c 16.766379
_cell_angle_alpha 90.000000
_cell_angle_beta 135.562675
_cell_angle_gamma 90.000000
_cell_volume 1231.225700
_symmetry_space_group_name_H-M "P 2/M"
_symmetry_group_IT_number 10
_symmetry_cell_setting 'monoclinic'
loop_
_space_group_symop_operation_xyz
x,y,z
-x,y,-z
-x,-y,-z
x,-y,z
loop_
_atom_site_type_symbol
_atom_site_label
_atom_site_fract_x
_atom_site_fract_y
_atom_site_fract_z
Si Si1 0.398543 0.701450 0.828237
Si Si2 0.936699 0.698597 0.543989
Si Si3 0.289713 0.790145 0.026100
Si Si4 0.635131 0.710428 0.372424
Si Si5 0.411128 0.291513 0.369283
Si Si6 0.160297 0.791903 0.115796
Si Si7 0.845455 0.803197 0.205003
O O1 0.360320 0.500000 0.813536
O O2 0.565603 0.719136 0.925638
O O3 0.363824 0.764190 0.719062
O O4 0.307458 0.798261 0.841112
O O5 0.903620 0.500000 0.502667
O O6 0.788714 0.766715 0.490831
O O7 0.000000 0.781311 0.500000
O O8 0.052003 0.701825 0.678438
O O9 0.254609 0.731050 0.094697
O O10 0.298488 0.000000 0.030765
O O11 0.169786 0.739673 0.893766
O O12 0.619834 0.500000 0.365081
O O13 0.508425 0.775906 0.352752
O O14 0.500000 0.234276 0.500000
O O15 0.413610 0.500000 0.374668
O O16 0.249499 0.250217 0.248153
O O17 0.153624 0.000000 0.110080
O O18 0.000000 0.732924 0.000000
O O19 0.896050 0.000000 0.232703
#
# Coordination Sequence:
#
# PCOD9147382 Si02
#       7
#     4   4   4   4   4   4   4
#     4  11  20  35  59  83 109 147 194 233 275 337
#     4  10  19  35  55  76 108 149 190 231 277 332
#     4  10  22  39  56  80 116 153 188 236 291 339
#     4   9  18  34  56  81 110 144 181 230 284 334
#     4  10  21  39  63  91 120 150 192 248 305 357
#     4  10  22  41  64  88 118 158 201 244 296 357
#     4  11  23  36  52  81 120 153 188 235 286 339
#
# _framework density 22.741564
#
# number of rings (size 3 to 8) (size 9 to 14) (size 15 to 20)
#    0.000    1.857    2.857    1.286    0.000    4.857 
#    0.000    0.714    0.000    0.000    0.000    0.000 
#    0.000    0.000    0.000    0.000    0.000    0.000 
#
# Total GULP energy -156129.751606 kJ/mol
# GULP energy per Si atom -5576.062557 kJ/mol
# Density = 2.268980 g / cm^3
# Si number density = 22.741564 Si / 1000 Ang^3
#
#
#
# Elastic Constant Matrix: (Units=GPa)
#
#
# Indices 1 2 3 4 5 6 
#
# 1 40.3643 -2.3441 43.8513 0.0000 4.7864 0.0000
# 2 -2.3441 35.2442 5.2693 0.0000 -3.0476 0.0000
# 3 43.8513 5.2693 162.3197 0.0000 1.5025 0.0000
# 4 0.0000 0.0000 0.0000 20.7228 0.0000 6.2443
# 5 4.7864 -3.0476 1.5025 0.0000 39.2820 0.0000
# 6 0.0000 0.0000 0.0000 6.2443 0.0000 13.1479
#
#
#
# Elastic Compliance Matrix: (Units=1/GPa)
#
#
# Indices 1 2 3 4 5 6 
#
# 1 0.036111 0.003548 -0.009836 0.000000 -0.003748 0.000000
# 2 0.003548 0.029060 -0.001919 0.000000 0.001896 0.000000
# 3 -0.009836 -0.001919 0.008874 0.000000 0.000710 0.000000
# 4 0.000000 0.000000 0.000000 0.056315 0.000000 -0.026745
# 5 -0.003748 0.001896 0.000710 0.000000 0.026034 0.000000
# 6 0.000000 0.000000 0.000000 -0.026745 0.000000 0.088760
#
#
# Mechanical properties :
#
#
# Convention : Reuss Voigt Hill
#
# Bulk Modulus (GPa) = 17.35202 36.83122 27.09162
# Shear Modulus (GPa) = 17.80772 27.37399 22.59085
#
# Velocity S-wave (km/s) = 2.80133 3.47320 3.15520
# Velocity P-wave (km/s) = 4.25558 5.68462 5.02120
#
# Compressibility (1/GPa) = 0.05763018
#
# Stress axis : x y z
#
# Youngs Moduli (GPa) = 27.69275 34.41113 112.69361
#
# Poissons Ratio (x) = -0.12210 1.10844
# Poissons Ratio (y) = -0.09826 0.21631
# Poissons Ratio (z) = 0.27238 0.06605
#
# Static dielectric constant tensor:
#      x y z
#    x 1.841240 0.000000 0.024570 
#    y 0.000000 1.856930 0.000000 
#    z 0.024570 0.000000 1.924780 
# 
# From -- ./inp_files/77792.got.cif
#   From: 2010.05.17/outbox.cif.g08.bks.cpg/sg10_39_cif.got.tgz:77792.got - 2010.06.03 11:33:40.
