data_PCOD9147901
_publ_section_title
;
Structure prediction by ZEFSAII (Michael W. Deem and Ramdas Pophale) SiO2 
 PCOD9147901
Probable space group: P 2/M
;
_chemical_formula_sum "Si O2"
_cell_formula_units_Z 32
_cell_length_a 26.592319
_cell_length_b 8.491111
_cell_length_c 20.652729
_cell_angle_alpha 90.000000
_cell_angle_beta 20.799515
_cell_angle_gamma 90.000000
_cell_volume 1655.951779
_symmetry_space_group_name_H-M "P 2/M"
_symmetry_group_IT_number 10
_symmetry_cell_setting 'monoclinic'
loop_
_space_group_symop_operation_xyz
x,y,z
-x,y,-z
-x,-y,-z
x,-y,z
loop_
_atom_site_type_symbol
_atom_site_label
_atom_site_fract_x
_atom_site_fract_y
_atom_site_fract_z
Si Si1 0.146367 0.312290 0.426480
Si Si2 0.357451 0.811599 0.281518
Si Si3 0.840153 0.809582 0.212840
Si Si4 0.859813 0.809696 0.955607
Si Si5 0.838928 0.187752 0.833681
Si Si6 0.338256 0.311625 0.691660
Si Si7 0.172130 0.191564 0.625166
Si Si8 0.328513 0.687563 0.084484
O O1 0.121864 0.500000 0.455564
O O2 0.262969 0.268848 0.340003
O O3 0.998922 0.228652 0.619839
O O4 0.211941 0.265161 0.278391
O O5 0.292277 0.762487 0.429509
O O6 0.521287 0.766168 0.080941
O O7 0.341500 0.000000 0.294271
O O8 0.734008 0.743343 0.287660
O O9 0.809670 0.755776 0.322800
O O10 0.833067 0.000000 0.219799
O O11 0.000000 0.765388 0.000000
O O12 0.822320 0.758372 0.928056
O O13 0.018765 0.757320 0.783056
O O14 0.861144 0.000000 0.954388
O O15 0.751940 0.752566 0.139662
O O16 0.819359 0.000000 0.854981
O O17 0.730329 0.265754 0.914726
O O18 0.500000 0.255672 0.500000
O O19 0.336713 0.500000 0.696251
O O20 0.170190 0.000000 0.629009
O O21 0.346029 0.500000 0.067892
#
# Coordination Sequence:
#
# PCOD9147901 Si02
#       8
#     4   4   4   4   4   4   4   4
#     4  11  23  40  62  88 122 164 203 245 304 369
#     4  11  22  39  63  91 122 157 204 259 304 351
#     4  10  19  36  64  89 113 151 196 242 292 349
#     4  10  20  40  65  88 117 154 198 246 296 354
#     4  11  23  40  65  93 119 154 205 258 302 356
#     4  11  25  41  57  87 128 161 194 240 292 349
#     4   9  18  36  61  90 119 147 193 252 300 348
#     4  11  25  42  58  85 127 165 201 248 304 369
#
# _framework density 19.324233
#
# number of rings (size 3 to 8) (size 9 to 14) (size 15 to 20)
#    0.000    1.500    2.500    2.625    0.000    8.250 
#    0.000    5.000    0.000    0.000    0.000    0.000 
#    0.000    0.000    0.000    0.000    0.000    0.000 
#
# Total GULP energy -178873.388607 kJ/mol
# GULP energy per Si atom -5589.793394 kJ/mol
# Density = 1.928025 g / cm^3
# Si number density = 19.324233 Si / 1000 Ang^3
#
#
#
# Elastic Constant Matrix: (Units=GPa)
#
#
# Indices 1 2 3 4 5 6 
#
# 1 82.2656 -0.7078 -3.6114 0.0000 9.3528 0.0000
# 2 -0.7078 5.9443 -3.7995 0.0000 7.8976 0.0000
# 3 -3.6114 -3.7995 16.2699 0.0000 -0.6904 0.0000
# 4 0.0000 0.0000 0.0000 160.3607 0.0000 51.7879
# 5 9.3528 7.8976 -0.6904 0.0000 38.0187 0.0000
# 6 0.0000 0.0000 0.0000 51.7879 0.0000 64.7838
#
#
#
# Elastic Compliance Matrix: (Units=1/GPa)
#
#
# Indices 1 2 3 4 5 6 
#
# 1 0.013181 0.012965 0.005706 0.000000 -0.005832 0.000000
# 2 0.012965 0.299980 0.070207 0.000000 -0.064229 0.000000
# 3 0.005706 0.070207 0.078507 0.000000 -0.014562 0.000000
# 4 0.000000 0.000000 0.000000 0.008406 0.000000 -0.006720
# 5 -0.005832 -0.064229 -0.014562 0.000000 0.040815 0.000000
# 6 0.000000 0.000000 0.000000 -0.006720 0.000000 0.020808
#
#
# Mechanical properties :
#
#
# Convention : Reuss Voigt Hill
#
# Bulk Modulus (GPa) = 1.75616 9.80473 5.78044
# Shear Modulus (GPa) = 10.55409 60.13922 35.34665
#
# Velocity S-wave (km/s) = 2.33954 5.58468 4.28148
# Velocity P-wave (km/s) = 2.86508 6.83153 5.23825
#
# Compressibility (1/GPa) = 0.56942388
#
# Stress axis : x y z
#
# Youngs Moduli (GPa) = 75.86771 3.33355 12.73771
#
# Poissons Ratio (x) = -0.04322 -0.07268
# Poissons Ratio (y) = -0.98363 -0.89427
# Poissons Ratio (z) = -0.43290 -0.23404
#
# Static dielectric constant tensor:
#      x y z
#    x 1.656390 0.000000 0.016890 
#    y 0.000000 1.660450 0.000000 
#    z 0.016890 0.000000 1.645690 
# 
# From -- ./inp_files/86789.got.cif
#   From: 2010.05.17/outbox.cif.g08.bks.cpg/sg10_44_cif.got.tgz:86789.got - 2010.06.03 11:33:40.
