data_PCOD9147367
_publ_section_title
;
Structure prediction by ZEFSAII (Michael W. Deem and Ramdas Pophale) SiO2 
 PCOD9147367
Probable space group: P 2/M
;
_chemical_formula_sum "Si O2"
_cell_formula_units_Z 32
_cell_length_a 16.765497
_cell_length_b 8.721400
_cell_length_c 23.281077
_cell_angle_alpha 90.000000
_cell_angle_beta 150.129514
_cell_angle_gamma 90.000000
_cell_volume 1695.395034
_symmetry_space_group_name_H-M "P 2/M"
_symmetry_group_IT_number 10
_symmetry_cell_setting 'monoclinic'
loop_
_space_group_symop_operation_xyz
x,y,z
-x,y,-z
-x,-y,-z
x,-y,z
loop_
_atom_site_type_symbol
_atom_site_label
_atom_site_fract_x
_atom_site_fract_y
_atom_site_fract_z
Si Si1 0.987288 0.317226 0.403345
Si Si2 0.648364 0.172994 0.635312
Si Si3 0.406824 0.826286 0.584584
Si Si4 0.026430 0.678245 0.181975
Si Si5 0.877734 0.183245 0.974633
Si Si6 0.053717 0.819203 0.321543
Si Si7 0.527506 0.677119 0.766798
Si Si8 0.245651 0.817922 0.653362
O O1 0.007569 0.500000 0.419541
O O2 0.990748 0.260647 0.340032
O O3 0.129275 0.235694 0.528382
O O4 0.826869 0.265500 0.336234
O O5 0.500000 0.190404 0.500000
O O6 0.565905 0.179357 0.645693
O O7 0.784468 0.295483 0.710424
O O8 0.716377 0.000000 0.669153
O O9 0.247891 0.804155 0.447479
O O10 0.424188 0.701982 0.644505
O O11 0.394861 0.000000 0.602078
O O12 0.984007 0.500000 0.152914
O O13 0.994272 0.745632 0.225199
O O14 0.945055 0.767856 0.078719
O O15 0.701272 0.254877 0.861337
O O16 0.865112 0.000000 0.962704
O O17 0.000000 0.233729 0.000000
O O18 0.017675 0.000000 0.300153
O O19 0.539896 0.500000 0.789789
O O20 0.425621 0.767261 0.750883
O O21 0.233364 0.000000 0.651846
#
# Coordination Sequence:
#
# PCOD9147367 Si02
#       8
#     4   4   4   4   4   4   4   4
#     4  11  21  35  56  89 127 159 197 251 309 356
#     4  10  19  35  54  76 109 152 195 237 287 352
#     4  10  20  34  55  81 114 155 199 241 291 357
#     4  12  25  39  58  87 120 154 198 252 308 358
#     4  11  25  46  68  87 114 159 211 255 301 361
#     4  11  21  37  59  84 119 162 200 238 292 365
#     4  12  24  38  60  89 122 155 198 257 309 352
#     4  11  21  36  58  86 122 166 206 241 294 368
#
# _framework density 18.874658
#
# number of rings (size 3 to 8) (size 9 to 14) (size 15 to 20)
#    0.000    1.000    2.500    6.750    0.000    5.250 
#    0.000    0.000    0.000    0.750    0.000    5.250 
#    0.000    0.000    0.000    0.000    0.000    0.000 
#
# Total GULP energy -178824.999727 kJ/mol
# GULP energy per Si atom -5588.281241 kJ/mol
# Density = 1.883170 g / cm^3
# Si number density = 18.874658 Si / 1000 Ang^3
#
#
#
# Elastic Constant Matrix: (Units=GPa)
#
#
# Indices 1 2 3 4 5 6 
#
# 1 111.5299 26.3461 27.6184 0.0000 -0.1620 0.0000
# 2 26.3461 92.2446 13.8837 0.0000 3.4387 0.0000
# 3 27.6184 13.8837 45.1556 0.0000 -3.3007 0.0000
# 4 0.0000 0.0000 0.0000 53.2755 0.0000 11.1103
# 5 -0.1620 3.4387 -3.3007 0.0000 30.5174 0.0000
# 6 0.0000 0.0000 0.0000 11.1103 0.0000 29.0582
#
#
#
# Elastic Compliance Matrix: (Units=1/GPa)
#
#
# Indices 1 2 3 4 5 6 
#
# 1 0.010991 -0.002213 -0.006067 0.000000 -0.000349 0.000000
# 2 -0.002213 0.011898 -0.002423 0.000000 -0.001614 0.000000
# 3 -0.006067 -0.002423 0.026831 0.000000 0.003143 0.000000
# 4 0.000000 0.000000 0.000000 0.020397 0.000000 -0.007799
# 5 -0.000349 -0.001614 0.003143 0.000000 0.033288 0.000000
# 6 0.000000 0.000000 0.000000 -0.007799 0.000000 0.037395
#
#
# Mechanical properties :
#
#
# Convention : Reuss Voigt Hill
#
# Bulk Modulus (GPa) = 35.31843 42.73629 39.02736
# Shear Modulus (GPa) = 29.13007 34.64235 31.88621
#
# Velocity S-wave (km/s) = 3.93280 4.28879 4.11465
# Velocity P-wave (km/s) = 6.27497 6.87141 6.57995
#
# Compressibility (1/GPa) = 0.02831383
#
# Stress axis : x y z
#
# Youngs Moduli (GPa) = 90.98403 84.05065 37.27000
#
# Poissons Ratio (x) = 0.18600 0.22613
# Poissons Ratio (y) = 0.20134 0.09029
# Poissons Ratio (z) = 0.55204 0.20362
#
# Static dielectric constant tensor:
#      x y z
#    x 1.686680 0.000000 0.000290 
#    y 0.000000 1.646250 0.000000 
#    z 0.000290 0.000000 1.657950 
# 
# From -- ./inp_files/89951.got.cif
#   From: 2010.05.17/outbox.cif.g08.bks.cpg/sg10_45_cif.got.tgz:89951.got - 2010.06.03 11:33:40.
