data_PCOD9147701
_publ_section_title
;
Structure prediction by ZEFSAII (Michael W. Deem and Ramdas Pophale) SiO2 
 PCOD9147701
Probable space group: P 2/M
;
_chemical_formula_sum "Si O2"
_cell_formula_units_Z 32
_cell_length_a 20.336272
_cell_length_b 15.126678
_cell_length_c 14.697327
_cell_angle_alpha 90.000000
_cell_angle_beta 19.459518
_cell_angle_gamma 90.000000
_cell_volume 1506.194408
_symmetry_space_group_name_H-M "P 2/M"
_symmetry_group_IT_number 10
_symmetry_cell_setting 'monoclinic'
loop_
_space_group_symop_operation_xyz
x,y,z
-x,y,-z
-x,-y,-z
x,-y,z
loop_
_atom_site_type_symbol
_atom_site_label
_atom_site_fract_x
_atom_site_fract_y
_atom_site_fract_z
Si Si1 0.458456 0.404934 0.769067
Si Si2 0.077065 0.219251 0.149529
Si Si3 0.854036 0.899078 0.105315
Si Si4 0.636092 0.361619 0.905182
Si Si5 0.478516 0.214607 0.366197
Si Si6 0.002426 0.598754 0.686745
Si Si7 0.532660 0.160249 0.089686
Si Si8 0.179137 0.098204 0.418128
O O1 0.539543 0.500000 0.633097
O O2 0.572753 0.317835 0.586189
O O3 0.435439 0.402571 0.907649
O O4 0.229025 0.399506 0.036806
O O5 0.978147 0.316049 0.272932
O O6 0.987266 0.171489 0.354981
O O7 0.041437 0.155420 0.111228
O O8 0.310360 0.220909 0.860379
O O9 0.669247 0.841338 0.379953
O O10 0.802704 0.000000 0.145146
O O11 0.000000 0.903919 0.000000
O O12 0.857543 0.383018 0.583146
O O13 0.500000 0.391886 0.000000
O O14 0.596269 0.257590 0.972057
O O15 0.497620 0.167889 0.242526
O O16 0.048642 0.500000 0.661285
O O17 0.343870 0.126018 0.278981
O O18 0.712842 0.100934 0.819651
O O19 0.106672 0.000000 0.532447
#
# Coordination Sequence:
#
# PCOD9147701 Si02
#       8
#     4   4   4   4   4   4   4   4
#     4   9  20  36  55  82 117 157 194 229 282 348
#     4  11  22  40  60  89 117 146 195 247 292 336
#     4  11  25  45  67  87 111 150 194 236 292 358
#     4  11  18  30  51  82 118 155 195 242 280 323
#     4  10  23  38  63  87 116 151 190 247 293 333
#     4  10  20  36  56  80 116 158 194 230 283 348
#     4  10  19  36  54  82 120 158 195 231 282 352
#     4  11  21  36  57  81 116 162 196 233 290 357
#
# _framework density 21.245598000000001
#
# number of rings (size 3 to 8) (size 9 to 14) (size 15 to 20)
#    0.000    1.625    2.500    3.000    0.000    7.000 
#    0.000    1.250    0.000    3.750    0.000    0.000 
#    0.000    0.000    0.000    0.000    0.000    0.000 
#
# Total GULP energy -178641.993944 kJ/mol
# GULP energy per Si atom -5582.562311 kJ/mol
# Density = 2.119724 g / cm^3
# Si number density = 21.245598 Si / 1000 Ang^3
#
#
#
# Elastic Constant Matrix: (Units=GPa)
#
#
# Indices 1 2 3 4 5 6 
#
# 1 38.2200 14.1032 -9.6830 0.0000 15.9177 0.0000
# 2 14.1032 172.7765 36.0424 0.0000 14.7946 0.0000
# 3 -9.6830 36.0424 68.5611 0.0000 13.4542 0.0000
# 4 0.0000 0.0000 0.0000 22.2526 0.0000 0.1736
# 5 15.9177 14.7946 13.4542 0.0000 21.4315 0.0000
# 6 0.0000 0.0000 0.0000 0.1736 0.0000 17.9036
#
#
#
# Elastic Compliance Matrix: (Units=1/GPa)
#
#
# Indices 1 2 3 4 5 6 
#
# 1 0.052570 -0.004143 0.019050 0.000000 -0.048145 0.000000
# 2 -0.004143 0.006964 -0.004455 0.000000 0.001066 0.000000
# 3 0.019050 -0.004455 0.024853 0.000000 -0.026675 0.000000
# 4 0.000000 0.000000 0.000000 0.044942 0.000000 -0.000436
# 5 -0.048145 0.001066 -0.026675 0.000000 0.098428 0.000000
# 6 0.000000 0.000000 0.000000 -0.000436 0.000000 0.055859
#
#
# Mechanical properties :
#
#
# Convention : Reuss Voigt Hill
#
# Bulk Modulus (GPa) = 9.49742 40.05364 24.77553
# Shear Modulus (GPa) = 16.78927 28.25722 22.52325
#
# Velocity S-wave (km/s) = 2.81418 3.65091 3.25951
# Velocity P-wave (km/s) = 3.87808 6.05523 5.08455
#
# Compressibility (1/GPa) = 0.10529180
#
# Stress axis : x y z
#
# Youngs Moduli (GPa) = 19.02211 143.59408 40.23683
#
# Poissons Ratio (x) = 0.59485 -0.76652
# Poissons Ratio (y) = 0.07880 0.17927
# Poissons Ratio (z) = -0.36237 0.63976
#
# Static dielectric constant tensor:
#      x y z
#    x 1.774600 0.000000 -0.024750 
#    y 0.000000 1.824250 0.000000 
#    z -0.024750 0.000000 1.769250 
# 
# From -- ./inp_files/51660.got.cif
#   From: 2010.05.17/outbox.cif.g08.bks.cpg/sg10_26_cif.got.tgz:51660.got - 2010.06.03 11:33:40.
