data_PCOD9147014
_publ_section_title
;
Structure prediction by ZEFSAII (Michael W. Deem and Ramdas Pophale) SiO2 
 PCOD9147014
Probable space group: P 2/M
;
_chemical_formula_sum "Si O2"
_cell_formula_units_Z 32
_cell_length_a 11.569700
_cell_length_b 7.931877
_cell_length_c 19.937347
_cell_angle_alpha 90.000000
_cell_angle_beta 123.480732
_cell_angle_gamma 90.000000
_cell_volume 1526.049633
_symmetry_space_group_name_H-M "P 2/M"
_symmetry_group_IT_number 10
_symmetry_cell_setting 'monoclinic'
loop_
_space_group_symop_operation_xyz
x,y,z
-x,y,-z
-x,-y,-z
x,-y,z
loop_
_atom_site_type_symbol
_atom_site_label
_atom_site_fract_x
_atom_site_fract_y
_atom_site_fract_z
Si Si1 0.684528 0.199441 0.751058
Si Si2 0.876827 0.700368 0.167310
Si Si3 0.849105 0.690530 0.526849
Si Si4 0.433823 0.802079 0.911390
Si Si5 0.157286 0.806300 0.618602
Si Si6 0.038656 0.295734 0.087154
Si Si7 0.840488 0.201862 0.671871
Si Si8 0.444761 0.792386 0.768593
O O1 0.814203 0.225139 0.842142
O O2 0.736178 0.268360 0.696004
O O3 0.549543 0.268309 0.744971
O O4 0.661430 0.000000 0.734280
O O5 0.854569 0.500000 0.159935
O O6 0.732254 0.785418 0.139185
O O7 0.929030 0.753879 0.109790
O O8 0.004902 0.739469 0.257850
O O9 0.807813 0.500000 0.499556
O O10 0.806438 0.799542 0.448928
O O11 0.800303 0.744671 0.584446
O O12 0.016542 0.704663 0.583127
O O13 0.483609 0.733284 0.855605
O O14 0.470465 0.000000 0.922489
O O15 0.500000 0.726435 0.000000
O O16 0.287993 0.742524 0.701556
O O17 0.127051 0.000000 0.627846
O O18 0.046665 0.500000 0.090726
O O19 0.000000 0.241462 0.000000
O O20 0.842408 0.000000 0.675512
O O21 0.445935 0.000000 0.768536
#
# Coordination Sequence:
#
# PCOD9147014 Si02
#       8
#     4   4   4   4   4   4   4   4
#     4   9  19  35  55  78 102 135 181 226 265 313
#     4  10  20  34  52  75 105 137 176 222 268 318
#     4  11  21  34  55  83 115 140 175 226 269 318
#     4  10  21  35  53  78 108 143 179 220 269 323
#     4  10  19  34  57  82 110 147 183 219 269 321
#     4   9  19  34  51  73 103 137 174 219 271 319
#     4  10  19  34  56  80 105 137 178 221 269 321
#     4   9  19  36  55  77 108 141 177 222 269 319
#
# _framework density 20.969173999999999
#
# number of rings (size 3 to 8) (size 9 to 14) (size 15 to 20)
#    0.000    2.250    0.000    3.750    1.750    2.500 
#    0.000    3.125    0.000    3.750    0.000    0.000 
#    0.000    0.000    0.000    0.000    0.000    0.000 
#
# Total GULP energy -178669.629717 kJ/mol
# GULP energy per Si atom -5583.425929 kJ/mol
# Density = 2.092145 g / cm^3
# Si number density = 20.969174 Si / 1000 Ang^3
#
#
#
# Elastic Constant Matrix: (Units=GPa)
#
#
# Indices 1 2 3 4 5 6 
#
# 1 57.1908 -5.8988 21.7124 0.0000 -9.2540 0.0000
# 2 -5.8988 22.5033 -1.4747 0.0000 -4.3863 0.0000
# 3 21.7124 -1.4747 71.1385 0.0000 -25.5919 0.0000
# 4 0.0000 0.0000 0.0000 34.8059 0.0000 15.7590
# 5 -9.2540 -4.3863 -25.5919 0.0000 26.4900 0.0000
# 6 0.0000 0.0000 0.0000 15.7590 0.0000 21.3608
#
#
#
# Elastic Compliance Matrix: (Units=1/GPa)
#
#
# Indices 1 2 3 4 5 6 
#
# 1 0.020486 0.005696 -0.004936 0.000000 0.003331 0.000000
# 2 0.005696 0.049035 0.004468 0.000000 0.014425 0.000000
# 3 -0.004936 0.004468 0.023453 0.000000 0.021674 0.000000
# 4 0.000000 0.000000 0.000000 0.043141 0.000000 -0.031828
# 5 0.003331 0.014425 0.021674 0.000000 0.062241 0.000000
# 6 0.000000 0.000000 0.000000 -0.031828 0.000000 0.070296
#
#
# Mechanical properties :
#
#
# Convention : Reuss Voigt Hill
#
# Bulk Modulus (GPa) = 9.66854 19.94559 14.80707
# Shear Modulus (GPa) = 17.08384 25.63092 21.35738
#
# Velocity S-wave (km/s) = 2.85741 3.49995 3.19488
# Velocity P-wave (km/s) = 3.93792 5.08581 4.54822
#
# Compressibility (1/GPa) = 0.10342822
#
# Stress axis : x y z
#
# Youngs Moduli (GPa) = 48.81438 20.39348 42.63788
#
# Poissons Ratio (x) = -0.11615 0.21047
# Poissons Ratio (y) = -0.27803 -0.19049
# Poissons Ratio (z) = 0.24096 -0.09111
#
# Static dielectric constant tensor:
#      x y z
#    x 1.771500 0.000000 -0.043400 
#    y 0.000000 1.732860 0.000000 
#    z -0.043400 0.000000 1.738710 
# 
# From -- ./inp_files/83596.got.cif
#   From: 2010.05.17/outbox.cif.g08.bks.cpg/sg10_42_cif.got.tgz:83596.got - 2010.06.03 11:33:40.
