data_PCOD9147869
_publ_section_title
;
Structure prediction by ZEFSAII (Michael W. Deem and Ramdas Pophale) SiO2 
 PCOD9147869
Probable space group: P 2/M
;
_chemical_formula_sum "Si O2"
_cell_formula_units_Z 28
_cell_length_a 15.265676
_cell_length_b 7.858389
_cell_length_c 20.626722
_cell_angle_alpha 90.000000
_cell_angle_beta 148.096206
_cell_angle_gamma 90.000000
_cell_volume 1307.736642
_symmetry_space_group_name_H-M "P 2/M"
_symmetry_group_IT_number 10
_symmetry_cell_setting 'monoclinic'
loop_
_space_group_symop_operation_xyz
x,y,z
-x,y,-z
-x,-y,-z
x,-y,z
loop_
_atom_site_type_symbol
_atom_site_label
_atom_site_fract_x
_atom_site_fract_y
_atom_site_fract_z
Si Si1 0.890751 0.305942 0.799143
Si Si2 0.522867 0.205368 0.805611
Si Si3 0.796292 0.299635 0.073157
Si Si4 0.392013 0.796789 0.280585
Si Si5 0.174998 0.207616 0.638060
Si Si6 0.320059 0.199830 0.865690
Si Si7 0.649333 0.193689 0.541857
O O1 0.917164 0.500000 0.835221
O O2 0.772956 0.231202 0.780803
O O3 0.789439 0.294533 0.667802
O O4 0.066952 0.226780 0.890986
O O5 0.607127 0.266682 0.792109
O O6 0.329816 0.250385 0.689025
O O7 0.534235 0.000000 0.815642
O O8 0.620172 0.274139 0.928453
O O9 0.829372 0.500000 0.101971
O O10 0.793205 0.217766 0.141865
O O11 0.554766 0.729780 0.420816
O O12 0.416090 0.000000 0.293900
O O13 0.230210 0.267568 0.744719
O O14 0.000000 0.269183 0.500000
O O15 0.164095 0.000000 0.633938
O O16 0.349904 0.000000 0.870791
O O17 0.500000 0.274050 0.000000
O O18 0.500000 0.180550 0.500000
O O19 0.708496 0.000000 0.566203
#
# Coordination Sequence:
#
# PCOD9147869 Si02
#       7
#     4   4   4   4   4   4   4
#     4  10  21  35  51  76 111 149 190 231 272 330
#     4  10  20  37  58  81 110 144 186 231 280 340
#     4  11  24  38  54  80 112 150 191 230 279 332
#     4   9  19  34  55  81 110 145 183 230 286 334
#     4   9  18  34  59  90 118 141 176 231 287 337
#     4  10  19  36  62  88 110 143 188 230 279 338
#     4   8  15  30  51  76 104 135 178 228 278 329
#
# _framework density 21.41104
#
# number of rings (size 3 to 8) (size 9 to 14) (size 15 to 20)
#    0.000    2.429    1.429    1.714    0.000    7.429 
#    0.000    5.714    0.000    1.714    0.000    0.000 
#    0.000    0.000    0.000    0.000    0.000    0.000 
#
# Total GULP energy -156106.557272 kJ/mol
# GULP energy per Si atom -5575.234188 kJ/mol
# Density = 2.136231 g / cm^3
# Si number density = 21.411040 Si / 1000 Ang^3
#
#
#
# Elastic Constant Matrix: (Units=GPa)
#
#
# Indices 1 2 3 4 5 6 
#
# 1 114.7805 -0.9155 51.9273 0.0000 -10.5454 0.0000
# 2 -0.9155 19.6789 0.7464 0.0000 -0.8870 0.0000
# 3 51.9273 0.7464 111.5020 0.0000 4.1492 0.0000
# 4 0.0000 0.0000 0.0000 6.1199 0.0000 16.8894
# 5 -10.5454 -0.8870 4.1492 0.0000 34.7423 0.0000
# 6 0.0000 0.0000 0.0000 16.8894 0.0000 -6.8100
#
#
#
# Elastic Compliance Matrix: (Units=1/GPa)
#
#
# Indices 1 2 3 4 5 6 
#
# 1 0.011632 0.000943 -0.005581 0.000000 0.004221 0.000000
# 2 0.000943 0.050968 -0.000843 0.000000 0.001688 0.000000
# 3 -0.005581 -0.000843 0.011689 0.000000 -0.003111 0.000000
# 4 0.000000 0.000000 0.000000 0.020830 0.000000 0.051661
# 5 0.004221 0.001688 -0.003111 0.000000 0.030479 0.000000
# 6 0.000000 0.000000 0.000000 0.051661 0.000000 -0.018719
#
#
# Mechanical properties :
#
#
# Convention : Reuss Voigt Hill
#
# Bulk Modulus (GPa) = 15.79095 38.83086 27.31091
# Shear Modulus (GPa) = 35.98414 19.75730 27.87072
#
# Velocity S-wave (km/s) = 4.10400 3.04100 3.61182
# Velocity P-wave (km/s) = 5.46336 5.52318 5.49335
#
# Compressibility (1/GPa) = 0.06332743
#
# Stress axis : x y z
#
# Youngs Moduli (GPa) = 85.96700 19.62022 85.55168
#
# Poissons Ratio (x) = -0.01850 0.47744
# Poissons Ratio (y) = -0.08107 0.07214
# Poissons Ratio (z) = 0.47975 0.01654
#
# Static dielectric constant tensor:
#      x y z
#    x 1.790310 0.000000 -0.000340 
#    y 0.000000 1.777330 0.000000 
#    z -0.000340 0.000000 1.801390 
# 
# From -- ./inp_files/84979.got.cif
#   From: 2010.05.17/outbox.cif.g08.bks.cpg/sg10_43_cif.got.tgz:84979.got - 2010.06.03 11:33:40.
