data_PCOD9147954
_publ_section_title
;
Structure prediction by ZEFSAII (Michael W. Deem and Ramdas Pophale) SiO2 
 PCOD9147954
Probable space group: P 2/M
;
_chemical_formula_sum "Si O2"
_cell_formula_units_Z 25
_cell_length_a 12.141156
_cell_length_b 8.935042
_cell_length_c 12.460141
_cell_angle_alpha 90.000000
_cell_angle_beta 103.160315
_cell_angle_gamma 90.000000
_cell_volume 1316.197897
_symmetry_space_group_name_H-M "P 2/M"
_symmetry_group_IT_number 10
_symmetry_cell_setting 'monoclinic'
loop_
_space_group_symop_operation_xyz
x,y,z
-x,y,-z
-x,-y,-z
x,-y,z
loop_
_atom_site_type_symbol
_atom_site_label
_atom_site_fract_x
_atom_site_fract_y
_atom_site_fract_z
Si Si1 0.397761 0.322796 0.235403
Si Si2 0.299830 0.321996 0.447188
Si Si3 0.944806 0.178026 0.605551
Si Si4 0.500000 0.000000 0.000000
Si Si5 0.631726 0.179427 0.316650
Si Si6 0.721257 0.165812 0.977649
Si Si7 0.840183 0.817570 0.213101
O O1 0.413964 0.500000 0.231508
O O2 0.358747 0.285705 0.347471
O O3 0.515745 0.239043 0.241350
O O4 0.305903 0.266825 0.129808
O O5 0.307575 0.500000 0.465748
O O6 0.170350 0.268884 0.413016
O O7 0.356355 0.239524 0.560242
O O8 0.000000 0.196029 0.500000
O O9 0.038497 0.225804 0.713346
O O10 0.921071 0.000000 0.612970
O O11 0.601094 0.872781 0.008308
O O12 0.741527 0.229175 0.273741
O O13 0.628778 0.000000 0.314475
O O14 0.762751 0.000000 0.950770
O O15 0.805232 0.229506 0.086002
O O16 0.837900 0.000000 0.211643
#
# Coordination Sequence:
#
# PCOD9147954 Si02
#       7
#     4   4   4   1   4   4   4
#     4  11  24  39  54  81 123 160 191 235 287 351
#     4  11  24  40  55  80 121 159 194 237 289 348
#     4  10  19  37  61  87 112 145 193 246 291 339
#     4   8  16  32  58  84 110 148 192 240 282 330
#     4  11  21  36  62  88 115 149 193 239 294 348
#     4   9  18  34  59  83 111 150 191 233 290 338
#     4   9  18  34  59  87 117 141 179 248 295 331
#
# _framework density 18.994104
#
# number of rings (size 3 to 8) (size 9 to 14) (size 15 to 20)
#    0.480    1.440    1.600    2.880    2.240    4.800 
#    0.000    6.000    0.000    4.800    0.000    0.000 
#    0.000    0.000    0.000    0.000    0.000    0.000 
#
# Total GULP energy -139275.386403 kJ/mol
# GULP energy per Si atom -5571.015456 kJ/mol
# Density = 1.895087 g / cm^3
# Si number density = 18.994104 Si / 1000 Ang^3
#
#
#
# Elastic Constant Matrix: (Units=GPa)
#
#
# Indices 1 2 3 4 5 6 
#
# 1 44.6144 11.9450 17.2653 0.0000 16.5243 0.0000
# 2 11.9450 28.4032 25.7258 0.0000 -0.1256 0.0000
# 3 17.2653 25.7258 101.4551 0.0000 33.0394 0.0000
# 4 0.0000 0.0000 0.0000 26.0560 0.0000 -5.2286
# 5 16.5243 -0.1256 33.0394 0.0000 32.4809 0.0000
# 6 0.0000 0.0000 0.0000 -5.2286 0.0000 2.3435
#
#
#
# Elastic Compliance Matrix: (Units=1/GPa)
#
#
# Indices 1 2 3 4 5 6 
#
# 1 0.034898 -0.022264 0.008249 0.000000 -0.026231 0.000000
# 2 -0.022264 0.068108 -0.025803 0.000000 0.037836 0.000000
# 3 0.008249 -0.025803 0.024516 0.000000 -0.029233 0.000000
# 4 0.000000 0.000000 0.000000 0.069489 0.000000 0.155033
# 5 -0.026231 0.037836 -0.029233 0.000000 0.074014 0.000000
# 6 0.000000 0.000000 0.000000 0.155033 0.000000 0.772589
#
#
# Mechanical properties :
#
#
# Convention : Reuss Voigt Hill
#
# Bulk Modulus (GPa) = 20.88280 31.59390 26.23835
# Shear Modulus (GPa) = 4.38900 20.14521 12.26710
#
# Velocity S-wave (km/s) = 1.52175 3.26022 2.54409
# Velocity P-wave (km/s) = 3.75578 5.55353 4.74065
#
# Compressibility (1/GPa) = 0.04788630
#
# Stress axis : x y z
#
# Youngs Moduli (GPa) = 28.65475 14.68251 40.79034
#
# Poissons Ratio (x) = 0.32688 -0.33646
# Poissons Ratio (y) = 0.63796 1.05251
# Poissons Ratio (z) = -0.23636 0.37885
#
# Static dielectric constant tensor:
#      x y z
#    x 1.645130 0.000000 0.012770 
#    y 0.000000 1.636860 0.000000 
#    z 0.012770 0.000000 1.692810 
# 
# From -- ./inp_files/45200.got.cif
#   From: 2010.05.17/outbox.cif.g08.bks.cpg/sg10_23_cif.got.tgz:45200.got - 2010.06.03 11:33:40.
