data_PCOD9147046
_publ_section_title
;
Structure prediction by ZEFSAII (Michael W. Deem and Ramdas Pophale) SiO2 
 PCOD9147046
Probable space group: P 2/M
;
_chemical_formula_sum "Si O2"
_cell_formula_units_Z 21
_cell_length_a 7.964716
_cell_length_b 13.683968
_cell_length_c 8.315631
_cell_angle_alpha 90.000000
_cell_angle_beta 111.571745
_cell_angle_gamma 90.000000
_cell_volume 842.831672
_symmetry_space_group_name_H-M "P 2/M"
_symmetry_group_IT_number 10
_symmetry_cell_setting 'monoclinic'
loop_
_space_group_symop_operation_xyz
x,y,z
-x,y,-z
-x,-y,-z
x,-y,z
loop_
_atom_site_type_symbol
_atom_site_label
_atom_site_fract_x
_atom_site_fract_y
_atom_site_fract_z
Si Si1 0.000000 0.000000 0.000000
Si Si2 0.383694 0.300936 0.120289
Si Si3 0.762938 0.158708 0.713714
Si Si4 0.915708 0.500000 0.230435
Si Si5 0.786713 0.103941 0.381052
Si Si6 0.294912 0.500000 0.181141
Si Si7 0.098705 0.713115 0.769122
O O1 0.886359 0.084826 0.859234
O O2 0.392125 0.204561 0.230486
O O3 0.405308 0.399616 0.229943
O O4 0.500000 0.305676 0.000000
O O5 0.180684 0.296801 0.975867
O O6 0.700004 0.112395 0.525060
O O7 0.895004 0.248071 0.705179
O O8 0.885962 0.605213 0.301518
O O9 0.119840 0.500000 0.232774
O O10 0.780460 0.500000 0.029533
O O11 0.785648 0.201486 0.275201
O O12 0.000000 0.096921 0.500000
O O13 0.737269 0.000000 0.281182
#
# Coordination Sequence:
#
# PCOD9147046 Si02
#       7
#     1   4   4   2   4   2   4
#     4  12  20  32  64  82 110 142 186 232 284 328
#     4  11  21  34  55  83 112 145 187 227 275 331
#     4  11  20  35  57  84 107 144 180 227 280 326
#     4   9  16  30  56  84 110 137 183 227 283 326
#     4   9  19  33  55  81 109 140 182 223 275 334
#     4   9  17  32  53  81 112 146 175 230 279 331
#     4  10  19  34  56  82 111 143 180 229 277 327
#
# _framework density 24.916008999999999
#
# number of rings (size 3 to 8) (size 9 to 14) (size 15 to 20)
#    0.000    1.905    4.762    0.286    1.333    0.000 
#    0.000    6.667    0.000    1.143    0.000    5.333 
#    0.000    0.000    0.000    0.000    0.000    0.000 
#
# Total GULP energy -117034.715544 kJ/mol
# GULP energy per Si atom -5573.081693 kJ/mol
# Density = 2.485930 g / cm^3
# Si number density = 24.916009 Si / 1000 Ang^3
#
#
#
# Elastic Constant Matrix: (Units=GPa)
#
#
# Indices 1 2 3 4 5 6 
#
# 1 86.5883 18.6716 0.5175 0.0000 -19.3641 0.0000
# 2 18.6716 256.6949 47.5297 0.0000 -21.9959 0.0000
# 3 0.5175 47.5297 51.2411 0.0000 -5.6210 0.0000
# 4 0.0000 0.0000 0.0000 12.6689 0.0000 -16.6281
# 5 -19.3641 -21.9959 -5.6210 0.0000 31.1896 0.0000
# 6 0.0000 0.0000 0.0000 -16.6281 0.0000 -7.4873
#
#
#
# Elastic Compliance Matrix: (Units=1/GPa)
#
#
# Indices 1 2 3 4 5 6 
#
# 1 0.013494 -0.000504 0.001235 0.000000 0.008245 0.000000
# 2 -0.000504 0.004935 -0.004311 0.000000 0.002391 0.000000
# 3 0.001235 -0.004311 0.023721 0.000000 0.002002 0.000000
# 4 0.000000 0.000000 0.000000 0.020162 0.000000 -0.044777
# 5 0.008245 0.002391 0.002002 0.000000 0.039228 0.000000
# 6 0.000000 0.000000 0.000000 -0.044777 0.000000 -0.034116
#
#
# Mechanical properties :
#
#
# Convention : Reuss Voigt Hill
#
# Bulk Modulus (GPa) = 28.57731 58.66245 43.61988
# Shear Modulus (GPa) = 57.97317 29.12794 43.55055
#
# Velocity S-wave (km/s) = 4.82887 3.42284 4.18532
# Velocity P-wave (km/s) = 6.52571 6.26229 6.39536
#
# Compressibility (1/GPa) = 0.03499280
#
# Stress axis : x y z
#
# Youngs Moduli (GPa) = 74.10678 202.62066 42.15666
#
# Poissons Ratio (x) = 0.10208 -0.05208
# Poissons Ratio (y) = 0.03733 0.18172
# Poissons Ratio (z) = -0.09156 0.87340
#
# Static dielectric constant tensor:
#      x y z
#    x 2.052960 0.000000 -0.023410 
#    y 0.000000 2.066280 0.000000 
#    z -0.023410 0.000000 1.964340 
# 
# From -- ./inp_files/18722.got.cif
#   From: 2010.05.17/outbox.cif.g08.bks.cpg/sg10_10_cif.got.tgz:18722.got - 2010.06.03 11:33:40.
