data_PCOD9147922
_publ_section_title
;
Structure prediction by ZEFSAII (Michael W. Deem and Ramdas Pophale) SiO2 
 PCOD9147922
Probable space group: P 2/M
;
_chemical_formula_sum "Si O2"
_cell_formula_units_Z 32
_cell_length_a 15.217499
_cell_length_b 15.314692
_cell_length_c 20.945284
_cell_angle_alpha 90.000000
_cell_angle_beta 162.231869
_cell_angle_gamma 90.000000
_cell_volume 1489.613059
_symmetry_space_group_name_H-M "P 2/M"
_symmetry_group_IT_number 10
_symmetry_cell_setting 'monoclinic'
loop_
_space_group_symop_operation_xyz
x,y,z
-x,y,-z
-x,-y,-z
x,-y,z
loop_
_atom_site_type_symbol
_atom_site_label
_atom_site_fract_x
_atom_site_fract_y
_atom_site_fract_z
Si Si1 0.781170 0.401711 0.238218
Si Si2 0.467657 0.098957 0.322917
Si Si3 0.091337 0.278307 0.237480
Si Si4 0.572566 0.713384 0.206068
Si Si5 0.646960 0.289771 0.706547
Si Si6 0.921549 0.908096 0.743090
Si Si7 0.555734 0.904148 0.231394
Si Si8 0.415918 0.601595 0.657689
O O1 0.792003 0.500000 0.274384
O O2 0.742572 0.329984 0.265995
O O3 0.076887 0.391457 0.403901
O O4 0.500000 0.396972 0.000000
O O5 0.326106 0.188554 0.251176
O O6 0.485416 0.104874 0.258458
O O7 0.780311 0.100318 0.575251
O O8 0.350254 0.000000 0.255797
O O9 0.342335 0.305023 0.458983
O O10 0.124303 0.316089 0.189497
O O11 0.164438 0.175966 0.277243
O O12 0.773595 0.283875 0.046412
O O13 0.679369 0.810935 0.296219
O O14 0.585137 0.651346 0.276022
O O15 0.619883 0.350072 0.749084
O O16 0.818040 0.000000 0.698778
O O17 0.264756 0.909536 0.987561
O O18 0.698947 0.000000 0.323771
O O19 0.488132 0.500000 0.714165
#
# Coordination Sequence:
#
# PCOD9147922 Si02
#       8
#     4   4   4   4   4   4   4   4
#     4  10  22  41  66  91 110 136 184 242 294 344
#     4   9  16  29  51  78 112 154 197 236 281 332
#     4   9  20  33  55  80 116 156 191 231 280 342
#     4  11  20  37  59  86 116 150 184 234 292 338
#     4  10  19  37  54  81 116 154 194 233 280 336
#     4   8  15  28  47  75 112 153 196 241 279 322
#     4   9  17  31  52  82 116 152 192 232 280 339
#     4  11  23  39  60  84 111 143 185 237 289 343
#
# _framework density 21.482088999999998
#
# number of rings (size 3 to 8) (size 9 to 14) (size 15 to 20)
#    0.000    2.375    1.250    1.500    0.000    2.000 
#    0.000    6.250    0.000    6.375    0.000    0.000 
#    0.000    0.000    0.000    0.000    0.000    0.000 
#
# Total GULP energy -178295.582621 kJ/mol
# GULP energy per Si atom -5571.736957 kJ/mol
# Density = 2.143320 g / cm^3
# Si number density = 21.482089 Si / 1000 Ang^3
#
#
#
# Elastic Constant Matrix: (Units=GPa)
#
#
# Indices 1 2 3 4 5 6 
#
# 1 70.4603 52.2280 7.4765 0.0000 -0.8556 0.0000
# 2 52.2280 130.1074 -1.4413 0.0000 -8.2801 0.0000
# 3 7.4765 -1.4413 73.6355 0.0000 -11.4000 0.0000
# 4 0.0000 0.0000 0.0000 -26.3739 0.0000 -85.1240
# 5 -0.8556 -8.2801 -11.4000 0.0000 26.4893 0.0000
# 6 0.0000 0.0000 0.0000 -85.1240 0.0000 -130.2874
#
#
#
# Elastic Compliance Matrix: (Units=1/GPa)
#
#
# Indices 1 2 3 4 5 6 
#
# 1 0.020816 -0.008591 -0.002779 0.000000 -0.003209 0.000000
# 2 -0.008591 0.011410 0.001719 0.000000 0.004029 0.000000
# 3 -0.002779 0.001719 0.014962 0.000000 0.006887 0.000000
# 4 0.000000 0.000000 0.000000 0.034197 0.000000 -0.022343
# 5 -0.003209 0.004029 0.006887 0.000000 0.041871 0.000000
# 6 0.000000 0.000000 0.000000 -0.022343 0.000000 0.006922
#
#
# Mechanical properties :
#
#
# Convention : Reuss Voigt Hill
#
# Bulk Modulus (GPa) = 35.85728 43.41437 39.63582
# Shear Modulus (GPa) = 31.49097 -11.63840 9.92629
#
# Velocity S-wave (km/s) = 3.83288 -2.33013 2.15192
# Velocity P-wave (km/s) = 6.02627 3.60751 4.96639
#
# Compressibility (1/GPa) = 0.02788834
#
# Stress axis : x y z
#
# Youngs Moduli (GPa) = 48.03921 87.64180 66.83425
#
# Poissons Ratio (x) = 0.75294 0.18570
# Poissons Ratio (y) = 0.41271 -0.11491
# Poissons Ratio (z) = 0.13348 -0.15069
#
# Static dielectric constant tensor:
#      x y z
#    x 1.740400 0.000000 0.000450 
#    y 0.000000 1.807000 0.000000 
#    z 0.000450 0.000000 1.863430 
# 
# From -- ./inp_files/42998.got.cif
#   From: 2010.05.17/outbox.cif.g08.bks.cpg/sg10_22_cif.got.tgz:42998.got - 2010.06.03 11:33:40.
