data_PCOD9147932
_publ_section_title
;
Structure prediction by ZEFSAII (Michael W. Deem and Ramdas Pophale) SiO2 
 PCOD9147932
Probable space group: P 2/M
;
_chemical_formula_sum "Si O2"
_cell_formula_units_Z 28
_cell_length_a 9.907819
_cell_length_b 17.212930
_cell_length_c 21.739025
_cell_angle_alpha 90.000000
_cell_angle_beta 25.649716
_cell_angle_gamma 90.000000
_cell_volume 1604.828114
_symmetry_space_group_name_H-M "P 2/M"
_symmetry_group_IT_number 10
_symmetry_cell_setting 'monoclinic'
loop_
_space_group_symop_operation_xyz
x,y,z
-x,y,-z
-x,-y,-z
x,-y,z
loop_
_atom_site_type_symbol
_atom_site_label
_atom_site_fract_x
_atom_site_fract_y
_atom_site_fract_z
Si Si1 0.647220 0.250669 0.671219
Si Si2 0.882699 0.330905 0.185221
Si Si3 0.020324 0.500000 0.814083
Si Si4 0.200005 0.914146 0.355349
Si Si5 0.196942 0.770853 0.161519
Si Si6 0.658330 0.500000 0.840450
Si Si7 0.482394 0.664564 0.149876
Si Si8 0.868978 0.087324 0.360333
O O1 0.407591 0.281047 0.718804
O O2 0.593508 0.162390 0.717867
O O3 0.584210 0.305698 0.755061
O O4 0.000000 0.254520 0.500000
O O5 0.818620 0.420336 0.230389
O O6 0.019726 0.287116 0.188361
O O7 0.155715 0.333254 0.020946
O O8 0.935298 0.500000 0.776697
O O9 0.674733 0.500000 0.986893
O O10 0.000000 0.918763 0.500000
O O11 0.979445 0.901239 0.386070
O O12 0.349975 0.000000 0.285649
O O13 0.306894 0.720893 0.174487
O O14 0.011397 0.844762 0.261138
O O15 0.500000 0.798117 0.000000
O O16 0.649611 0.578335 0.805300
O O17 0.500000 0.089510 0.500000
O O18 0.975929 0.000000 0.299452
#
# Coordination Sequence:
#
# PCOD9147932 Si02
#       8
#     4   4   2   4   4   2   4   4
#     4  11  23  37  55  82 111 150 183 226 275 325
#     4  10  21  35  59  83 113 143 183 231 274 322
#     4   9  16  33  57  86 108 138 189 232 265 322
#     4   9  19  36  56  77 106 143 185 227 269 316
#     4  10  20  34  56  85 113 143 176 229 286 327
#     4   9  16  31  61  84 106 142 187 228 271 322
#     4  10  19  37  58  84 109 142 186 230 273 327
#     4  10  21  36  58  84 110 144 189 233 268 323
#
# _framework density 17.447351000000001
#
# number of rings (size 3 to 8) (size 9 to 14) (size 15 to 20)
#    0.000    2.143    2.857    0.429    4.000    0.857 
#    0.000    3.571    0.000    3.429    0.000    0.000 
#    0.000    0.000    0.000    0.000    0.000    0.000 
#
# Total GULP energy -156010.351547 kJ/mol
# GULP energy per Si atom -5571.798270 kJ/mol
# Density = 1.740764 g / cm^3
# Si number density = 17.447351 Si / 1000 Ang^3
#
#
#
# Elastic Constant Matrix: (Units=GPa)
#
#
# Indices 1 2 3 4 5 6 
#
# 1 40.3294 6.2831 9.9532 0.0000 -9.0797 0.0000
# 2 6.2831 132.1712 27.4362 0.0000 -10.3491 0.0000
# 3 9.9532 27.4362 31.3540 0.0000 -6.6223 0.0000
# 4 0.0000 0.0000 0.0000 8.2090 0.0000 3.7647
# 5 -9.0797 -10.3491 -6.6223 0.0000 27.8427 0.0000
# 6 0.0000 0.0000 0.0000 3.7647 0.0000 16.9781
#
#
#
# Elastic Compliance Matrix: (Units=1/GPa)
#
#
# Indices 1 2 3 4 5 6 
#
# 1 0.028404 0.000960 -0.008239 0.000000 0.007660 0.000000
# 2 0.000960 0.009345 -0.008089 0.000000 0.001863 0.000000
# 3 -0.008239 -0.008089 0.042521 0.000000 0.004420 0.000000
# 4 0.000000 0.000000 0.000000 0.135608 0.000000 -0.030069
# 5 0.007660 0.001863 0.004420 0.000000 0.040158 0.000000
# 6 0.000000 0.000000 0.000000 -0.030069 0.000000 0.065567
#
#
# Mechanical properties :
#
#
# Convention : Reuss Voigt Hill
#
# Bulk Modulus (GPa) = 20.18786 32.35552 26.27169
# Shear Modulus (GPa) = 13.55565 21.28477 17.42021
#
# Velocity S-wave (km/s) = 2.79040 3.49656 3.16324
# Velocity P-wave (km/s) = 4.68803 5.90645 5.33215
#
# Compressibility (1/GPa) = 0.04953471
#
# Stress axis : x y z
#
# Youngs Moduli (GPa) = 35.20612 107.00619 23.51783
#
# Poissons Ratio (x) = -0.10270 0.19376
# Poissons Ratio (y) = -0.03379 0.19023
# Poissons Ratio (z) = 0.29005 0.86555
#
# Static dielectric constant tensor:
#      x y z
#    x 1.591150 0.000000 -0.002950 
#    y 0.000000 1.609360 0.000000 
#    z -0.002950 0.000000 1.580630 
# 
# From -- ./inp_files/35375.got.cif
#   From: 2010.05.17/outbox.cif.g08.bks.cpg/sg10_18_cif.got.tgz:35375.got - 2010.06.03 11:33:40.
