data_PCOD9147729
_publ_section_title
;
Structure prediction by ZEFSAII (Michael W. Deem and Ramdas Pophale) SiO2 
 PCOD9147729
Probable space group: P 2/M
;
_chemical_formula_sum "Si O2"
_cell_formula_units_Z 28
_cell_length_a 15.155880
_cell_length_b 7.752441
_cell_length_c 15.392781
_cell_angle_alpha 90.000000
_cell_angle_beta 136.408878
_cell_angle_gamma 90.000000
_cell_volume 1247.026270
_symmetry_space_group_name_H-M "P 2/M"
_symmetry_group_IT_number 10
_symmetry_cell_setting 'monoclinic'
loop_
_space_group_symop_operation_xyz
x,y,z
-x,y,-z
-x,-y,-z
x,-y,z
loop_
_atom_site_type_symbol
_atom_site_label
_atom_site_fract_x
_atom_site_fract_y
_atom_site_fract_z
Si Si1 0.147815 0.708526 0.094501
Si Si2 0.426868 0.201412 0.760341
Si Si3 0.957649 0.796544 0.370222
Si Si4 0.649489 0.792001 0.607384
Si Si5 0.319876 0.303649 0.865325
Si Si6 0.215906 0.789267 0.474035
Si Si7 0.300601 0.301206 0.041426
O O1 0.143497 0.500000 0.087846
O O2 0.253934 0.749893 0.244195
O O3 0.205035 0.774764 0.043777
O O4 0.000000 0.768035 0.000000
O O5 0.398601 0.223371 0.842377
O O6 0.305168 0.262274 0.618464
O O7 0.554490 0.296097 0.820929
O O8 0.445348 0.000000 0.754724
O O9 0.826930 0.698352 0.266896
O O10 0.000000 0.784729 0.500000
O O11 0.071324 0.733333 0.389256
O O12 0.933452 0.000000 0.335433
O O13 0.500000 0.731218 0.500000
O O14 0.720009 0.732093 0.569601
O O15 0.642449 0.000000 0.599506
O O16 0.364500 0.500000 0.906540
O O17 0.315147 0.217856 0.956920
O O18 0.212082 0.000000 0.471487
O O19 0.260697 0.500000 0.999085
#
# Coordination Sequence:
#
# PCOD9147729 Si02
#       7
#     4   4   4   4   4   4   4
#     4  10  23  43  64  86 120 163 206 252 302 358
#     4  11  21  38  62  88 117 153 194 234 286 352
#     4  10  19  36  57  79 113 153 193 237 287 343
#     4  10  21  39  63  91 121 153 197 254 309 358
#     4  11  23  37  56  84 119 154 192 238 290 346
#     4   9  19  35  57  84 116 150 184 237 298 345
#     4  10  23  41  58  81 118 157 193 240 295 342
#
# _framework density 22.453417999999999
#
# number of rings (size 3 to 8) (size 9 to 14) (size 15 to 20)
#    0.000    1.857    1.429    2.143    2.000    5.429 
#    0.000    1.429    0.000    0.000    0.000    0.000 
#    0.000    0.000    0.000    0.000    0.000    0.000 
#
# Total GULP energy -156346.375799 kJ/mol
# GULP energy per Si atom -5583.799136 kJ/mol
# Density = 2.240231 g / cm^3
# Si number density = 22.453418 Si / 1000 Ang^3
#
#
#
# Elastic Constant Matrix: (Units=GPa)
#
#
# Indices 1 2 3 4 5 6 
#
# 1 190.7262 15.3893 69.0456 0.0000 22.0066 0.0000
# 2 15.3893 36.9130 8.7556 0.0000 1.6040 0.0000
# 3 69.0456 8.7556 102.3020 0.0000 12.1744 0.0000
# 4 0.0000 0.0000 0.0000 20.9559 0.0000 5.7946
# 5 22.0066 1.6040 12.1744 0.0000 42.0853 0.0000
# 6 0.0000 0.0000 0.0000 5.7946 0.0000 13.1240
#
#
#
# Elastic Compliance Matrix: (Units=1/GPa)
#
#
# Indices 1 2 3 4 5 6 
#
# 1 0.007296 -0.001875 -0.004472 0.000000 -0.002450 0.000000
# 2 -0.001875 0.028140 -0.001173 0.000000 0.000247 0.000000
# 3 -0.004472 -0.001173 0.013060 0.000000 -0.001395 0.000000
# 4 0.000000 0.000000 0.000000 0.054356 0.000000 -0.024000
# 5 -0.002450 0.000247 -0.001395 0.000000 0.025436 0.000000
# 6 0.000000 0.000000 0.000000 -0.024000 0.000000 0.086793
#
#
# Mechanical properties :
#
#
# Convention : Reuss Voigt Hill
#
# Bulk Modulus (GPa) = 29.88938 57.36911 43.62925
# Shear Modulus (GPa) = 20.72355 31.01642 25.86998
#
# Velocity S-wave (km/s) = 3.04132 3.72071 3.39803
# Velocity P-wave (km/s) = 5.06690 6.63807 5.90497
#
# Compressibility (1/GPa) = 0.03345670
#
# Stress axis : x y z
#
# Youngs Moduli (GPa) = 137.05979 35.53704 76.57122
#
# Poissons Ratio (x) = 0.06661 0.34245
# Poissons Ratio (y) = 0.25692 0.08979
# Poissons Ratio (z) = 0.61297 0.04167
#
# Static dielectric constant tensor:
#      x y z
#    x 1.820790 0.000000 -0.010170 
#    y 0.000000 1.841560 0.000000 
#    z -0.010170 0.000000 1.846450 
# 
# From -- ./inp_files/48979.got.cif
#   From: 2010.05.17/outbox.cif.g08.bks.cpg/sg10_25_cif.got.tgz:48979.got - 2010.06.03 11:33:40.
