data_PCOD9147453
_publ_section_title
;
Structure prediction by ZEFSAII (Michael W. Deem and Ramdas Pophale) SiO2 
 PCOD9147453
Probable space group: P 2/M
;
_chemical_formula_sum "Si O2"
_cell_formula_units_Z 28
_cell_length_a 15.003759
_cell_length_b 9.054102
_cell_length_c 22.348522
_cell_angle_alpha 90.000000
_cell_angle_beta 30.220596
_cell_angle_gamma 90.000000
_cell_volume 1528.085299
_symmetry_space_group_name_H-M "P 2/M"
_symmetry_group_IT_number 10
_symmetry_cell_setting 'monoclinic'
loop_
_space_group_symop_operation_xyz
x,y,z
-x,y,-z
-x,-y,-z
x,-y,z
loop_
_atom_site_type_symbol
_atom_site_label
_atom_site_fract_x
_atom_site_fract_y
_atom_site_fract_z
Si Si1 0.452461 0.323675 0.379214
Si Si2 0.833209 0.675207 0.355182
Si Si3 0.761355 0.175604 0.275769
Si Si4 0.549926 0.176905 0.875102
Si Si5 0.069589 0.674674 0.027297
Si Si6 0.486933 0.676427 0.789750
Si Si7 0.213336 0.821942 0.148871
O O1 0.493213 0.500000 0.356856
O O2 0.278847 0.298507 0.519649
O O3 0.613881 0.239080 0.316630
O O4 0.435768 0.279918 0.319631
O O5 0.840005 0.500000 0.340461
O O6 0.738538 0.753324 0.354236
O O7 0.028878 0.741478 0.246874
O O8 0.950571 0.229828 0.140698
O O9 0.753719 0.000000 0.283352
O O10 0.572106 0.248353 0.797830
O O11 0.697812 0.215067 0.838677
O O12 0.549258 0.000000 0.870306
O O13 0.359969 0.219808 0.014092
O O14 0.047141 0.500000 0.054187
O O15 0.276809 0.711238 0.910440
O O16 0.000000 0.697101 0.000000
O O17 0.503573 0.500000 0.785830
O O18 0.190040 0.000000 0.159590
#
# Coordination Sequence:
#
# PCOD9147453 Si02
#       7
#     4   4   4   4   4   4   4
#     4  10  22  41  57  75 109 151 191 230 272 324
#     4  11  23  38  59  81 106 145 191 233 276 326
#     4  12  24  36  55  83 114 146 185 231 279 331
#     4   9  19  36  59  85 113 145 175 217 279 337
#     4  10  19  35  57  79 110 147 183 224 271 322
#     4  10  20  35  57  82 109 145 185 227 273 321
#     4   9  19  38  60  83 113 143 177 224 277 330
#
# _framework density 18.323585999999999
#
# number of rings (size 3 to 8) (size 9 to 14) (size 15 to 20)
#    0.000    1.857    1.429    3.857    0.000    7.714 
#    0.000    2.143    0.000    4.286    0.000    0.000 
#    0.000    0.000    0.000    0.000    0.000    0.000 
#
# Total GULP energy -156443.670203 kJ/mol
# GULP energy per Si atom -5587.273936 kJ/mol
# Density = 1.828188 g / cm^3
# Si number density = 18.323586 Si / 1000 Ang^3
#
#
#
# Elastic Constant Matrix: (Units=GPa)
#
#
# Indices 1 2 3 4 5 6 
#
# 1 101.2663 35.4181 40.8237 0.0000 35.1989 0.0000
# 2 35.4181 43.4721 38.6767 0.0000 13.8197 0.0000
# 3 40.8237 38.6767 68.1314 0.0000 23.6009 0.0000
# 4 0.0000 0.0000 0.0000 -132.1291 0.0000 -39.4453
# 5 35.1989 13.8197 23.6009 0.0000 27.9931 0.0000
# 6 0.0000 0.0000 0.0000 -39.4453 0.0000 12.2907
#
#
#
# Elastic Compliance Matrix: (Units=1/GPa)
#
#
# Indices 1 2 3 4 5 6 
#
# 1 0.020850 -0.011435 0.001588 0.000000 -0.021911 0.000000
# 2 -0.011435 0.052767 -0.026923 0.000000 0.011026 0.000000
# 3 0.001588 -0.026923 0.035450 0.000000 -0.018594 0.000000
# 4 0.000000 0.000000 0.000000 -0.003865 0.000000 -0.012405
# 5 -0.021911 0.011026 -0.018594 0.000000 0.073507 0.000000
# 6 0.000000 0.000000 0.000000 -0.012405 0.000000 0.041551
#
#
# Mechanical properties :
#
#
# Convention : Reuss Voigt Hill
#
# Bulk Modulus (GPa) = 28.14628 49.18965 38.66797
# Shear Modulus (GPa) = 16.35901 -11.83897 2.26002
#
# Velocity S-wave (km/s) = 2.99119 -2.54462 1.11179
# Velocity P-wave (km/s) = 5.22720 4.27432 4.77459
#
# Compressibility (1/GPa) = 0.03552867
#
# Stress axis : x y z
#
# Youngs Moduli (GPa) = 47.96166 18.95122 28.20845
#
# Poissons Ratio (x) = 0.21670 -0.04480
# Poissons Ratio (y) = 0.54842 0.75945
# Poissons Ratio (z) = -0.07616 0.51022
#
# Static dielectric constant tensor:
#      x y z
#    x 1.618600 0.000000 0.014890 
#    y 0.000000 1.608850 0.000000 
#    z 0.014890 0.000000 1.626720 
# 
# From -- ./inp_files/49075.got.cif
#   From: 2010.05.17/outbox.cif.g08.bks.cpg/sg10_25_cif.got.tgz:49075.got - 2010.06.03 11:33:40.
