data_PCOD9147079
_publ_section_title
;
Structure prediction by ZEFSAII (Michael W. Deem and Ramdas Pophale) SiO2 
 PCOD9147079
Probable space group: P 2/M
;
_chemical_formula_sum "Si O2"
_cell_formula_units_Z 28
_cell_length_a 14.986919
_cell_length_b 7.631708
_cell_length_c 12.882081
_cell_angle_alpha 90.000000
_cell_angle_beta 122.057570
_cell_angle_gamma 90.000000
_cell_volume 1248.727377
_symmetry_space_group_name_H-M "P 2/M"
_symmetry_group_IT_number 10
_symmetry_cell_setting 'monoclinic'
loop_
_space_group_symop_operation_xyz
x,y,z
-x,y,-z
-x,-y,-z
x,-y,z
loop_
_atom_site_type_symbol
_atom_site_label
_atom_site_fract_x
_atom_site_fract_y
_atom_site_fract_z
Si Si1 0.941402 0.701605 0.565498
Si Si2 0.996736 0.201159 0.828240
Si Si3 0.773940 0.212994 0.763387
Si Si4 0.620424 0.785338 0.087558
Si Si5 0.595834 0.296697 0.491622
Si Si6 0.231657 0.214211 0.009142
Si Si7 0.289099 0.797207 0.637219
O O1 0.975454 0.500000 0.599407
O O2 0.971242 0.795556 0.690187
O O3 0.816889 0.706960 0.468190
O O4 0.000000 0.773698 0.500000
O O5 0.893710 0.276633 0.820447
O O6 0.111969 0.277335 0.918197
O O7 0.003518 0.000000 0.868732
O O8 0.698709 0.281500 0.627194
O O9 0.774336 0.000000 0.755374
O O10 0.734928 0.261995 0.853796
O O11 0.691823 0.727483 0.035188
O O12 0.669015 0.728096 0.227370
O O13 0.620400 0.000000 0.088823
O O14 0.500000 0.729514 0.000000
O O15 0.500000 0.220220 0.500000
O O16 0.571985 0.500000 0.456681
O O17 0.622990 0.213616 0.397939
O O18 0.230602 0.000000 0.003989
O O19 0.260027 0.000000 0.633929
#
# Coordination Sequence:
#
# PCOD9147079 Si02
#       7
#     4   4   4   4   4   4   4
#     4  11  23  37  56  83 120 163 199 238 290 348
#     4  10  19  34  56  86 117 149 193 242 295 346
#     4  10  20  35  60  90 116 149 194 242 292 349
#     4   9  19  34  54  85 119 150 187 237 293 343
#     4  11  25  42  60  84 120 160 196 241 298 353
#     4   9  18  33  55  84 121 155 186 238 297 347
#     4  11  22  38  63  91 117 151 197 248 295 345
#
# _framework density 22.422829
#
# number of rings (size 3 to 8) (size 9 to 14) (size 15 to 20)
#    0.000    1.857    1.429    2.571    2.000    5.143 
#    0.000    0.714    0.000    5.143    0.000    0.000 
#    0.000    0.000    0.000    0.000    0.000    0.000 
#
# Total GULP energy -156540.645740 kJ/mol
# GULP energy per Si atom -5590.737348 kJ/mol
# Density = 2.237179 g / cm^3
# Si number density = 22.422829 Si / 1000 Ang^3
#
#
#
# Elastic Constant Matrix: (Units=GPa)
#
#
# Indices 1 2 3 4 5 6 
#
# 1 131.1754 -4.8395 27.6187 0.0000 -27.4224 0.0000
# 2 -4.8395 47.3167 -4.1376 0.0000 -1.5168 0.0000
# 3 27.6187 -4.1376 92.2645 0.0000 -31.2111 0.0000
# 4 0.0000 0.0000 0.0000 -4.6975 0.0000 3.3901
# 5 -27.4224 -1.5168 -31.2111 0.0000 41.6651 0.0000
# 6 0.0000 0.0000 0.0000 3.3901 0.0000 8.8994
#
#
#
# Elastic Compliance Matrix: (Units=1/GPa)
#
#
# Indices 1 2 3 4 5 6 
#
# 1 0.008944 0.001011 -0.000841 0.000000 0.005293 0.000000
# 2 0.001011 0.021455 0.001539 0.000000 0.002599 0.000000
# 3 -0.000841 0.001539 0.014721 0.000000 0.010530 0.000000
# 4 0.000000 0.000000 0.000000 -0.166975 0.000000 0.063606
# 5 0.005293 0.002599 0.010530 0.000000 0.035467 0.000000
# 6 0.000000 0.000000 0.000000 0.063606 0.000000 0.088137
#
#
# Mechanical properties :
#
#
# Convention : Reuss Voigt Hill
#
# Bulk Modulus (GPa) = 20.60255 34.22663 27.41459
# Shear Modulus (GPa) = 344.52347 25.98108 185.25227
#
# Velocity S-wave (km/s) = 12.40895 3.40764 9.09929
# Velocity P-wave (km/s) = 14.64642 5.54798 11.07469
#
# Compressibility (1/GPa) = 0.04853768
#
# Stress axis : x y z
#
# Youngs Moduli (GPa) = 111.80150 46.60815 67.92867
#
# Poissons Ratio (x) = -0.04712 0.05716
# Poissons Ratio (y) = -0.11302 -0.10453
# Poissons Ratio (z) = 0.09408 -0.07172
#
# Static dielectric constant tensor:
#      x y z
#    x 1.819740 0.000000 -0.008320 
#    y 0.000000 1.839790 0.000000 
#    z -0.008320 0.000000 1.774490 
# 
# From -- ./inp_files/50055.got.cif
#   From: 2010.05.17/outbox.cif.g08.bks.cpg/sg10_26_cif.got.tgz:50055.got - 2010.06.03 11:33:40.
