data_PCOD9147996
_publ_section_title
;
Structure prediction by ZEFSAII (Michael W. Deem and Ramdas Pophale) SiO2 
 PCOD9147996
Probable space group: P 2/M
;
_chemical_formula_sum "Si O2"
_cell_formula_units_Z 32
_cell_length_a 24.336186
_cell_length_b 9.198262
_cell_length_c 11.188698
_cell_angle_alpha 90.000000
_cell_angle_beta 36.235416
_cell_angle_gamma 90.000000
_cell_volume 1480.478158
_symmetry_space_group_name_H-M "P 2/M"
_symmetry_group_IT_number 10
_symmetry_cell_setting 'monoclinic'
loop_
_space_group_symop_operation_xyz
x,y,z
-x,y,-z
-x,-y,-z
x,-y,z
loop_
_atom_site_type_symbol
_atom_site_label
_atom_site_fract_x
_atom_site_fract_y
_atom_site_fract_z
Si Si1 0.371037 0.330095 0.480973
Si Si2 0.870804 0.669250 0.474988
Si Si3 0.943650 0.670691 0.714709
Si Si4 0.790006 0.828784 0.122261
Si Si5 0.111568 0.831694 0.795604
Si Si6 0.706690 0.173012 0.873440
Si Si7 0.441206 0.329357 0.719919
Si Si8 0.389232 0.327703 0.181390
O O1 0.347827 0.500000 0.536503
O O2 0.310593 0.239999 0.680059
O O3 0.480701 0.316752 0.313614
O O4 0.350733 0.288119 0.380113
O O5 0.846300 0.500000 0.526826
O O6 0.855005 0.729432 0.370032
O O7 0.808436 0.758268 0.677876
O O8 0.979425 0.683838 0.315797
O O9 0.921844 0.500000 0.735244
O O10 0.000000 0.722701 0.500000
O O11 0.851864 0.755393 0.911957
O O12 0.843150 0.801544 0.155478
O O13 0.784147 0.000000 0.112967
O O14 0.132838 0.000000 0.726845
O O15 0.000000 0.818264 0.000000
O O16 0.653294 0.231292 0.848477
O O17 0.709963 0.000000 0.871850
O O18 0.647756 0.236921 0.087201
O O19 0.500000 0.286621 0.500000
O O20 0.415818 0.500000 0.752055
O O21 0.371262 0.500000 0.189731
O O22 0.500000 0.311309 0.000000
#
# Coordination Sequence:
#
# PCOD9147996 Si02
#       8
#     4   4   4   4   4   4   4   4
#     4  10  21  38  62  90 120 154 193 246 297 346
#     4  11  23  39  63  90 118 156 203 247 292 352
#     4  10  23  43  64  86 114 152 202 254 296 342
#     4  11  23  38  60  89 122 158 192 236 294 360
#     4  10  20  37  60  88 124 157 189 236 299 358
#     4  12  25  39  60  90 127 161 194 242 303 365
#     4  10  22  43  67  87 113 156 208 254 297 347
#     4  10  19  37  64  91 121 155 199 247 294 351
#
# _framework density 21.614637999999999
#
# number of rings (size 3 to 8) (size 9 to 14) (size 15 to 20)
#    0.000    1.500    2.500    2.625    0.000    6.500 
#    0.000    5.000    0.000    0.000    0.000    0.000 
#    0.000    0.000    0.000    0.000    0.000    0.000 
#
# Total GULP energy -179005.754826 kJ/mol
# GULP energy per Si atom -5593.929838 kJ/mol
# Density = 2.156544 g / cm^3
# Si number density = 21.614638 Si / 1000 Ang^3
#
#
#
# Elastic Constant Matrix: (Units=GPa)
#
#
# Indices 1 2 3 4 5 6 
#
# 1 26.5609 6.1680 -3.6365 0.0000 4.9583 0.0000
# 2 6.1680 93.5306 83.6585 0.0000 8.3429 0.0000
# 3 -3.6365 83.6585 148.5967 0.0000 6.2768 0.0000
# 4 0.0000 0.0000 0.0000 2.6192 0.0000 -14.2137
# 5 4.9583 8.3429 6.2768 0.0000 34.4730 0.0000
# 6 0.0000 0.0000 0.0000 -14.2137 0.0000 2.3255
#
#
#
# Elastic Compliance Matrix: (Units=1/GPa)
#
#
# Indices 1 2 3 4 5 6 
#
# 1 0.040850 -0.006693 0.004986 0.000000 -0.005164 0.000000
# 2 -0.006693 0.022952 -0.012991 0.000000 -0.002227 0.000000
# 3 0.004986 -0.012991 0.014172 0.000000 -0.000153 0.000000
# 4 0.000000 0.000000 0.000000 -0.011868 0.000000 -0.072542
# 5 -0.005164 -0.002227 -0.000153 0.000000 0.030318 0.000000
# 6 0.000000 0.000000 0.000000 -0.072542 0.000000 -0.013367
#
#
# Mechanical properties :
#
#
# Convention : Reuss Voigt Hill
#
# Bulk Modulus (GPa) = 20.58584 49.00757 34.79670
# Shear Modulus (GPa) = 38.86658 20.05007 29.45833
#
# Velocity S-wave (km/s) = 4.24507 3.04898 3.69574
# Velocity P-wave (km/s) = 5.79415 5.92601 5.86045
#
# Compressibility (1/GPa) = 0.04857709
#
# Stress axis : x y z
#
# Youngs Moduli (GPa) = 24.47979 43.56953 70.56097
#
# Poissons Ratio (x) = 0.29161 -0.35181
# Poissons Ratio (y) = 0.16384 0.91668
# Poissons Ratio (z) = -0.12205 0.56603
#
# Static dielectric constant tensor:
#      x y z
#    x 1.828030 0.000000 0.015590 
#    y 0.000000 1.717110 0.000000 
#    z 0.015590 0.000000 1.779880 
# 
# From -- ./inp_files/49928.got.cif
#   From: 2010.05.17/outbox.cif.g08.bks.cpg/sg10_25_cif.got.tgz:49928.got - 2010.06.03 11:33:40.
