data_PCOD9147308
_publ_section_title
;
Structure prediction by ZEFSAII (Michael W. Deem and Ramdas Pophale) SiO2 
 PCOD9147308
Probable space group: P 2/M
;
_chemical_formula_sum "Si O2"
_cell_formula_units_Z 30
_cell_length_a 12.485705
_cell_length_b 24.328807
_cell_length_c 5.351333
_cell_angle_alpha 90.000000
_cell_angle_beta 75.957135
_cell_angle_gamma 90.000000
_cell_volume 1576.953327
_symmetry_space_group_name_H-M "P 2/M"
_symmetry_group_IT_number 10
_symmetry_cell_setting 'monoclinic'
loop_
_space_group_symop_operation_xyz
x,y,z
-x,y,-z
-x,-y,-z
x,-y,z
loop_
_atom_site_type_symbol
_atom_site_label
_atom_site_fract_x
_atom_site_fract_y
_atom_site_fract_z
Si Si1 0.738381 0.777169 0.620991
Si Si2 0.425612 0.000000 0.291652
Si Si3 0.389891 0.670861 0.408682
Si Si4 0.424951 0.879227 0.293409
Si Si5 0.198003 0.360787 0.894776
Si Si6 0.097085 0.557818 0.645185
Si Si7 0.129256 0.243753 0.976562
Si Si8 0.320163 0.437309 0.205188
O O1 0.657073 0.723770 0.712972
O O2 0.661085 0.830029 0.642050
O O3 0.806023 0.767669 0.322495
O O4 0.817585 0.786409 0.815092
O O5 0.500000 0.000000 0.500000
O O6 0.369301 0.940132 0.320394
O O7 0.500000 0.000000 0.000000
O O8 0.500000 0.683424 0.500000
O O9 0.293513 0.660173 0.660462
O O10 0.399353 0.612332 0.255862
O O11 0.500000 0.876681 0.500000
O O12 0.500000 0.873748 0.000000
O O13 0.098925 0.387985 0.801869
O O14 0.149729 0.307282 0.051315
O O15 0.256632 0.409890 0.010117
O O16 0.089796 0.500000 0.789908
O O17 0.218221 0.557721 0.453979
O O18 0.000000 0.559265 0.500000
O O19 0.000000 0.234260 0.000000
O O20 0.363161 0.500000 0.142025
#
# Coordination Sequence:
#
# PCOD9147308 Si02
#       8
#     4   2   4   4   4   4   4   4
#     4  11  22  40  58  90 116 154 198 239 289 353
#     4   8  16  30  52  88 131 166 203 232 282 340
#     4  10  22  38  53  73 103 138 179 230 278 338
#     4  10  19  34  59  93 131 169 197 241 286 341
#     4  10  21  35  52  74  98 132 174 228 285 355
#     4   9  19  32  50  74  98 125 164 220 285 351
#     4  11  24  39  60  82 114 150 195 247 303 347
#     4  10  20  36  52  71  98 129 174 224 281 349
#
# _framework density 19.024025000000002
#
# number of rings (size 3 to 8) (size 9 to 14) (size 15 to 20)
#    0.000    2.000    1.333    2.000    1.867    2.400 
#    0.000    2.667    0.000    0.000    0.000    2.800 
#    0.000    0.000    0.000    0.000    0.000    0.000 
#
# Total GULP energy -167076.634635 kJ/mol
# GULP energy per Si atom -5569.221154 kJ/mol
# Density = 1.898073 g / cm^3
# Si number density = 19.024025 Si / 1000 Ang^3
#
#
#
# Elastic Constant Matrix: (Units=GPa)
#
#
# Indices 1 2 3 4 5 6 
#
# 1 100.0279 54.4992 30.8937 0.0000 15.8819 0.0000
# 2 54.4992 137.2365 26.4145 0.0000 5.5520 0.0000
# 3 30.8937 26.4145 81.7762 0.0000 9.4320 0.0000
# 4 0.0000 0.0000 0.0000 20.6241 0.0000 -2.2499
# 5 15.8819 5.5520 9.4320 0.0000 30.2312 0.0000
# 6 0.0000 0.0000 0.0000 -2.2499 0.0000 5.4605
#
#
#
# Elastic Compliance Matrix: (Units=1/GPa)
#
#
# Indices 1 2 3 4 5 6 
#
# 1 0.014609 -0.004942 -0.003260 0.000000 -0.005750 0.000000
# 2 -0.004942 0.009454 -0.001334 0.000000 0.001276 0.000000
# 3 -0.003260 -0.001334 0.014175 0.000000 -0.002465 0.000000
# 4 0.000000 0.000000 0.000000 0.050769 0.000000 0.020918
# 5 -0.005750 0.001276 -0.002465 0.000000 0.036634 0.000000
# 6 0.000000 0.000000 0.000000 0.020918 0.000000 0.191751
#
#
# Mechanical properties :
#
#
# Convention : Reuss Voigt Hill
#
# Bulk Modulus (GPa) = 52.17054 60.29506 56.23280
# Shear Modulus (GPa) = 14.58348 25.07870 19.83109
#
# Velocity S-wave (km/s) = 2.77173 3.63473 3.23216
# Velocity P-wave (km/s) = 6.14218 7.02695 6.59941
#
# Compressibility (1/GPa) = 0.01916791
#
# Stress axis : x y z
#
# Youngs Moduli (GPa) = 68.44911 105.77232 70.54556
#
# Poissons Ratio (x) = 0.52269 0.22996
# Poissons Ratio (y) = 0.33825 0.09412
# Poissons Ratio (z) = 0.22313 0.14112
#
# Static dielectric constant tensor:
#      x y z
#    x 1.668050 0.000000 0.024300 
#    y 0.000000 1.723600 0.000000 
#    z 0.024300 0.000000 1.776340 
# 
# From -- ./inp_files/7724.got.cif
#   From: 2010.05.17/outbox.cif.g08.bks.cpg/sg10_4_cif.got.tgz:7724.got - 2010.06.03 11:33:40.
