data_PCOD9147092
_publ_section_title
;
Structure prediction by ZEFSAII (Michael W. Deem and Ramdas Pophale) SiO2 
 PCOD9147092
Probable space group: P 2/M
;
_chemical_formula_sum "Si O2"
_cell_formula_units_Z 24
_cell_length_a 14.822485
_cell_length_b 7.670754
_cell_length_c 15.126615
_cell_angle_alpha 90.000000
_cell_angle_beta 36.005478
_cell_angle_gamma 90.000000
_cell_volume 1011.059370
_symmetry_space_group_name_H-M "P 2/M"
_symmetry_group_IT_number 10
_symmetry_cell_setting 'monoclinic'
loop_
_space_group_symop_operation_xyz
x,y,z
-x,y,-z
-x,-y,-z
x,-y,z
loop_
_atom_site_type_symbol
_atom_site_label
_atom_site_fract_x
_atom_site_fract_y
_atom_site_fract_z
Si Si1 0.262689 0.794243 0.431108
Si Si2 0.079693 0.213543 0.244920
Si Si3 0.575929 0.694790 0.527419
Si Si4 0.344556 0.787342 0.171916
Si Si5 0.171523 0.798936 0.982757
Si Si6 0.813965 0.203935 0.217117
O O1 0.395104 0.774425 0.400090
O O2 0.320211 0.723900 0.291419
O O3 0.094493 0.727246 0.595786
O O4 0.238135 0.000000 0.438545
O O5 0.194420 0.255564 0.233506
O O6 0.160384 0.277032 0.089649
O O7 0.072523 0.000000 0.240867
O O8 0.500000 0.780696 0.500000
O O9 0.517095 0.500000 0.583135
O O10 0.746404 0.691328 0.351348
O O11 0.353785 0.000000 0.167322
O O12 0.500000 0.727495 0.000000
O O13 0.994702 0.797523 0.091849
O O14 0.225909 0.000000 0.947145
O O15 0.242998 0.728956 0.834159
O O16 0.772157 0.000000 0.255581
#
# Coordination Sequence:
#
# PCOD9147092 Si02
#       6
#     4   4   4   4   4   4
#     4  10  19  34  57  80 102 138 183 221 261 317
#     4   9  15  27  50  79 110 141 172 211 261 313
#     4  11  24  38  51  72 106 144 179 221 271 317
#     4   9  18  30  48  82 117 136 164 217 274 320
#     4   8  14  25  48  79 107 132 164 213 261 302
#     4   9  16  30  51  77 104 134 174 214 256 309
#
# _framework density 23.737479
#
# number of rings (size 3 to 8) (size 9 to 14) (size 15 to 20)
#    0.000    2.667    1.667    2.000    0.000    4.667 
#    0.000    5.000    0.000    2.500    0.000    0.000 
#    0.000    0.000    0.000    0.000    0.000    0.000 
#
# Total GULP energy -133649.334045 kJ/mol
# GULP energy per Si atom -5568.722252 kJ/mol
# Density = 2.368345 g / cm^3
# Si number density = 23.737479 Si / 1000 Ang^3
#
#
#
# Elastic Constant Matrix: (Units=GPa)
#
#
# Indices 1 2 3 4 5 6 
#
# 1 160.9734 2.1686 68.9971 0.0000 39.9388 0.0000
# 2 2.1686 40.1835 21.5144 0.0000 0.0436 0.0000
# 3 68.9971 21.5144 77.7359 0.0000 36.0237 0.0000
# 4 0.0000 0.0000 0.0000 -71.9072 0.0000 16.2591
# 5 39.9388 0.0436 36.0237 0.0000 54.2244 0.0000
# 6 0.0000 0.0000 0.0000 16.2591 0.0000 -22.2995
#
#
#
# Elastic Compliance Matrix: (Units=1/GPa)
#
#
# Indices 1 2 3 4 5 6 
#
# 1 0.010978 0.005148 -0.010720 0.000000 -0.000968 0.000000
# 2 0.005148 0.034056 -0.017663 0.000000 0.007915 0.000000
# 3 -0.010720 -0.017663 0.034100 0.000000 -0.014744 0.000000
# 4 0.000000 0.000000 0.000000 -0.016652 0.000000 -0.012142
# 5 -0.000968 0.007915 -0.014744 0.000000 0.028944 0.000000
# 6 0.000000 0.000000 0.000000 -0.012142 0.000000 -0.053697
#
#
# Mechanical properties :
#
#
# Convention : Reuss Voigt Hill
#
# Bulk Modulus (GPa) = 30.61399 51.58367 41.09883
# Shear Modulus (GPa) = 52.58369 4.41773 28.50071
#
# Velocity S-wave (km/s) = 4.71172 1.36569 3.46882
# Velocity P-wave (km/s) = 6.52114 4.92594 5.77885
#
# Compressibility (1/GPa) = 0.03266480
#
# Stress axis : x y z
#
# Youngs Moduli (GPa) = 91.09215 29.36324 29.32550
#
# Poissons Ratio (x) = -0.15117 0.31437
# Poissons Ratio (y) = -0.46896 0.51797
# Poissons Ratio (z) = 0.97651 0.51864
#
# Static dielectric constant tensor:
#      x y z
#    x 1.911090 0.000000 -0.025800 
#    y 0.000000 1.917310 0.000000 
#    z -0.025800 0.000000 2.142520 
# 
# From -- ./inp_files/66317.got.cif
#   From: 2010.05.17/outbox.cif.g08.bks.cpg/sg10_34_cif.got.tgz:66317.got - 2010.06.03 11:33:40.
