data_PCOD9147814
_publ_section_title
;
Structure prediction by ZEFSAII (Michael W. Deem and Ramdas Pophale) SiO2 
 PCOD9147814
Probable space group: P 2/M
;
_chemical_formula_sum "Si O2"
_cell_formula_units_Z 26
_cell_length_a 16.259620
_cell_length_b 16.150002
_cell_length_c 9.251118
_cell_angle_alpha 90.000000
_cell_angle_beta 147.256123
_cell_angle_gamma 90.000000
_cell_volume 1313.958959
_symmetry_space_group_name_H-M "P 2/M"
_symmetry_group_IT_number 10
_symmetry_cell_setting 'monoclinic'
loop_
_space_group_symop_operation_xyz
x,y,z
-x,y,-z
-x,-y,-z
x,-y,z
loop_
_atom_site_type_symbol
_atom_site_label
_atom_site_fract_x
_atom_site_fract_y
_atom_site_fract_z
Si Si1 0.333622 0.089969 0.831520
Si Si2 0.280069 0.592470 0.733084
Si Si3 0.812461 0.258577 0.988964
Si Si4 0.951829 0.857088 0.774051
Si Si5 0.241344 0.296458 0.406532
Si Si6 0.416301 0.254303 0.112730
Si Si7 0.000000 0.360465 0.500000
O O1 0.182863 0.096081 0.508154
O O2 0.326282 0.000000 0.896131
O O3 0.500000 0.091563 0.000000
O O4 0.336040 0.173505 0.927763
O O5 0.344601 0.500000 0.832887
O O6 0.256773 0.625774 0.535584
O O7 0.121576 0.590860 0.585205
O O8 0.372353 0.664104 0.954578
O O9 0.892940 0.169803 0.077907
O O10 0.912607 0.303388 0.257157
O O11 0.807076 0.308876 0.830673
O O12 0.647625 0.258035 0.819770
O O13 0.874848 0.767835 0.694156
O O14 0.000000 0.894188 0.000000
O O15 0.403139 0.249789 0.634089
#
# Coordination Sequence:
#
# PCOD9147814 Si02
#       7
#     4   4   4   4   4   4   2
#     4  11  21  37  63  92 120 161 208 250 302 364
#     4  11  22  36  61  88 120 159 203 249 302 363
#     4  10  21  36  64  87 118 162 199 251 304 359
#     4  10  19  36  60  86 119 155 202 249 298 354
#     4  11  20  37  60  88 121 157 202 245 301 360
#     4  11  21  39  61  90 123 159 200 249 308 359
#     4  10  19  38  56  84 123 154 203 250 306 354
#
# _framework density 19.787527999999998
#
# number of rings (size 3 to 8) (size 9 to 14) (size 15 to 20)
#    0.000    1.385    4.615    2.077    0.000    1.538 
#    0.000    6.154    0.000    7.385    0.000    0.000 
#    0.000    0.000    0.000    0.000    0.000    0.000 
#
# Total GULP energy -144932.367492 kJ/mol
# GULP energy per Si atom -5574.321827 kJ/mol
# Density = 1.974249 g / cm^3
# Si number density = 19.787528 Si / 1000 Ang^3
#
#
#
# Elastic Constant Matrix: (Units=GPa)
#
#
# Indices 1 2 3 4 5 6 
#
# 1 101.7720 24.4207 31.0613 0.0000 -3.0204 0.0000
# 2 24.4207 108.8143 22.3848 0.0000 -13.2444 0.0000
# 3 31.0613 22.3848 98.3694 0.0000 -2.1476 0.0000
# 4 0.0000 0.0000 0.0000 0.0764 0.0000 -1.0388
# 5 -3.0204 -13.2444 -2.1476 0.0000 36.1656 0.0000
# 6 0.0000 0.0000 0.0000 -1.0388 0.0000 2.7464
#
#
#
# Elastic Compliance Matrix: (Units=1/GPa)
#
#
# Indices 1 2 3 4 5 6 
#
# 1 0.011228 -0.001870 -0.003118 0.000000 0.000068 0.000000
# 2 -0.001870 0.010391 -0.001696 0.000000 0.003548 0.000000
# 3 -0.003118 -0.001696 0.011532 0.000000 -0.000197 0.000000
# 4 0.000000 0.000000 0.000000 -3.159736 0.000000 -1.195126
# 5 0.000068 0.003548 -0.000197 0.000000 0.028944 0.000000
# 6 0.000000 0.000000 0.000000 -1.195126 0.000000 -0.087921
#
#
# Mechanical properties :
#
#
# Convention : Reuss Voigt Hill
#
# Bulk Modulus (GPa) = 50.55362 51.63212 51.09287
# Shear Modulus (GPa) = -1.57948 23.20360 10.81206
#
# Velocity S-wave (km/s) = -0.89440 3.42809 2.34007
# Velocity P-wave (km/s) = 4.95349 6.46676 5.76004
#
# Compressibility (1/GPa) = 0.01978098
#
# Stress axis : x y z
#
# Youngs Moduli (GPa) = 89.05970 96.24130 86.71378
#
# Poissons Ratio (x) = 0.17999 0.27041
# Poissons Ratio (y) = 0.16656 0.14711
# Poissons Ratio (z) = 0.27773 0.16327
#
# Static dielectric constant tensor:
#      x y z
#    x 1.742630 0.000000 0.020320 
#    y 0.000000 1.685690 0.000000 
#    z 0.020320 0.000000 1.720620 
# 
# From -- ./inp_files/29844.got.cif
#   From: 2010.05.17/outbox.cif.g08.bks.cpg/sg10_15_cif.got.tgz:29844.got - 2010.06.03 11:33:40.
