data_PCOD9147157
_publ_section_title
;
Structure prediction by ZEFSAII (Michael W. Deem and Ramdas Pophale) SiO2 
 PCOD9147157
Probable space group: P 2/M
;
_chemical_formula_sum "Si O2"
_cell_formula_units_Z 32
_cell_length_a 14.628116
_cell_length_b 7.825086
_cell_length_c 25.286736
_cell_angle_alpha 90.000000
_cell_angle_beta 149.987360
_cell_angle_gamma 90.000000
_cell_volume 1447.792086
_symmetry_space_group_name_H-M "P 2/M"
_symmetry_group_IT_number 10
_symmetry_cell_setting 'monoclinic'
loop_
_space_group_symop_operation_xyz
x,y,z
-x,y,-z
-x,-y,-z
x,-y,z
loop_
_atom_site_type_symbol
_atom_site_label
_atom_site_fract_x
_atom_site_fract_y
_atom_site_fract_z
Si Si1 0.794633 0.798127 0.895384
Si Si2 0.369939 0.291287 0.483808
Si Si3 0.640553 0.292111 0.023727
Si Si4 0.036734 0.294215 0.747290
Si Si5 0.152760 0.193659 0.538243
Si Si6 0.482570 0.798704 0.155171
Si Si7 0.481142 0.301256 0.328525
Si Si8 0.127057 0.696318 0.678010
O O1 0.659801 0.727286 0.873273
O O2 0.691561 0.778347 0.787836
O O3 0.810180 0.000000 0.914525
O O4 0.000000 0.726220 0.000000
O O5 0.500000 0.249716 0.500000
O O6 0.359659 0.500000 0.483076
O O7 0.453587 0.230917 0.581725
O O8 0.166253 0.230335 0.366900
O O9 0.635371 0.500000 0.019136
O O10 0.842580 0.233658 0.143284
O O11 0.500000 0.241139 0.000000
O O12 0.589693 0.228039 0.940400
O O13 0.021221 0.500000 0.745822
O O14 0.154493 0.263928 0.753250
O O15 0.343774 0.280869 0.622358
O O16 0.000000 0.275420 0.500000
O O17 0.037639 0.192939 0.426551
O O18 0.188510 0.000000 0.574478
O O19 0.684596 0.719436 0.258403
O O20 0.506375 0.000000 0.176612
O O21 0.439595 0.500000 0.314873
O O22 0.065074 0.500000 0.643746
#
# Coordination Sequence:
#
# PCOD9147157 Si02
#       8
#     4   4   4   4   4   4   4   4
#     4  10  24  46  65  81 115 165 203 242 302 360
#     4   9  18  34  57  87 121 153 188 236 293 349
#     4  10  19  34  57  83 115 158 198 236 293 358
#     4   9  17  32  53  79 113 152 189 230 286 347
#     4  11  23  37  55  84 122 162 199 237 293 360
#     4  11  23  38  58  87 119 155 202 250 300 359
#     4  11  22  38  64  95 120 150 198 251 298 348
#     4  11  20  35  58  84 117 153 195 245 296 353
#
# _framework density 22.102620000000002
#
# number of rings (size 3 to 8) (size 9 to 14) (size 15 to 20)
#    0.000    1.750    2.500    2.250    0.000    6.500 
#    0.000    1.250    0.000    1.500    0.000    0.000 
#    0.000    0.000    0.000    0.000    0.000    0.000 
#
# Total GULP energy -178721.038970 kJ/mol
# GULP energy per Si atom -5585.032468 kJ/mol
# Density = 2.205231 g / cm^3
# Si number density = 22.102620 Si / 1000 Ang^3
#
#
#
# Elastic Constant Matrix: (Units=GPa)
#
#
# Indices 1 2 3 4 5 6 
#
# 1 98.4389 1.7015 57.0310 0.0000 11.4745 0.0000
# 2 1.7015 29.3113 -2.0895 0.0000 2.6130 0.0000
# 3 57.0310 -2.0895 168.6164 0.0000 9.4243 0.0000
# 4 0.0000 0.0000 0.0000 111.6528 0.0000 -77.8429
# 5 11.4745 2.6130 9.4243 0.0000 34.8965 0.0000
# 6 0.0000 0.0000 0.0000 -77.8429 0.0000 97.7150
#
#
#
# Elastic Compliance Matrix: (Units=1/GPa)
#
#
# Indices 1 2 3 4 5 6 
#
# 1 0.012979 -0.000781 -0.004228 0.000000 -0.003067 0.000000
# 2 -0.000781 0.034448 0.000834 0.000000 -0.002548 0.000000
# 3 -0.004228 0.000834 0.007409 0.000000 -0.000673 0.000000
# 4 0.000000 0.000000 0.000000 0.020145 0.000000 0.016048
# 5 -0.003067 -0.002548 -0.000673 0.000000 0.030037 0.000000
# 6 0.000000 0.000000 0.000000 0.016048 0.000000 0.023018
#
#
# Mechanical properties :
#
#
# Convention : Reuss Voigt Hill
#
# Bulk Modulus (GPa) = 21.51264 45.51695 33.51479
# Shear Modulus (GPa) = 32.92000 64.83445 48.87722
#
# Velocity S-wave (km/s) = 3.86348 5.42191 4.70763
# Velocity P-wave (km/s) = 5.44575 7.73526 6.68919
#
# Compressibility (1/GPa) = 0.04648431
#
# Stress axis : x y z
#
# Youngs Moduli (GPa) = 77.04594 29.02887 134.97708
#
# Poissons Ratio (x) = 0.02268 0.57071
# Poissons Ratio (y) = 0.06020 -0.11251
# Poissons Ratio (z) = 0.32577 -0.02420
#
# Static dielectric constant tensor:
#      x y z
#    x 1.825210 0.000000 -0.016940 
#    y 0.000000 1.802720 0.000000 
#    z -0.016940 0.000000 1.821830 
# 
# From -- ./inp_files/89617.got.cif
#   From: 2010.05.17/outbox.cif.g08.bks.cpg/sg10_45_cif.got.tgz:89617.got - 2010.06.03 11:33:40.
