data_PCOD9147510
_publ_section_title
;
Structure prediction by ZEFSAII (Michael W. Deem and Ramdas Pophale) SiO2 
 PCOD9147510
Probable space group: P 2/M
;
_chemical_formula_sum "Si O2"
_cell_formula_units_Z 32
_cell_length_a 27.848911
_cell_length_b 7.625297
_cell_length_c 21.617138
_cell_angle_alpha 90.000000
_cell_angle_beta 160.626694
_cell_angle_gamma 90.000000
_cell_volume 1522.779400
_symmetry_space_group_name_H-M "P 2/M"
_symmetry_group_IT_number 10
_symmetry_cell_setting 'monoclinic'
loop_
_space_group_symop_operation_xyz
x,y,z
-x,y,-z
-x,-y,-z
x,-y,z
loop_
_atom_site_type_symbol
_atom_site_label
_atom_site_fract_x
_atom_site_fract_y
_atom_site_fract_z
Si Si1 0.495885 0.288855 0.191396
Si Si2 0.820005 0.209710 0.612650
Si Si3 0.230981 0.286326 0.792587
Si Si4 0.155220 0.214914 0.215898
Si Si5 0.622596 0.297514 0.820705
Si Si6 0.951421 0.795823 0.207765
Si Si7 0.429261 0.798963 0.474750
Si Si8 0.961612 0.287782 0.552294
O O1 0.485325 0.500000 0.178814
O O2 0.663806 0.243026 0.392625
O O3 0.432891 0.226652 0.180933
O O4 0.387537 0.226067 0.005999
O O5 0.823155 0.275356 0.687127
O O6 0.949404 0.277586 0.726753
O O7 0.838068 0.000000 0.637770
O O8 0.231377 0.500000 0.791557
O O9 0.169625 0.229705 0.651590
O O10 0.109669 0.237623 0.696257
O O11 0.284219 0.278130 0.328377
O O12 0.162244 0.000000 0.225634
O O13 0.000000 0.263894 0.000000
O O14 0.576325 0.500000 0.760336
O O15 0.547300 0.201491 0.672494
O O16 0.795295 0.290317 0.026481
O O17 0.035398 0.780468 0.374768
O O18 0.922628 0.000000 0.160121
O O19 0.500000 0.715441 0.500000
O O20 0.391373 0.000000 0.411603
O O21 0.960335 0.500000 0.553757
#
# Coordination Sequence:
#
# PCOD9147510 Si02
#       8
#     4   4   4   4   4   4   4   4
#     4  10  19  35  58  83 108 141 187 231 274 328
#     4  10  22  38  56  79 110 148 185 225 275 330
#     4   8  15  30  55  82 107 142 184 228 274 330
#     4   9  18  34  56  79 106 142 183 222 265 322
#     4  11  22  37  59  83 113 148 186 231 280 327
#     4  11  23  36  54  82 116 148 187 230 274 332
#     4  10  21  36  59  87 113 143 184 230 277 328
#     4   9  16  32  56  80 110 144 183 230 279 324
#
# _framework density 21.014205
#
# number of rings (size 3 to 8) (size 9 to 14) (size 15 to 20)
#    0.000    2.250    2.500    1.500    1.750    1.750 
#    0.000    2.500    0.000    4.500    0.000    0.000 
#    0.000    0.000    0.000    0.000    0.000    0.000 
#
# Total GULP energy -178663.674968 kJ/mol
# GULP energy per Si atom -5583.239843 kJ/mol
# Density = 2.096638 g / cm^3
# Si number density = 21.014205 Si / 1000 Ang^3
#
#
#
# Elastic Constant Matrix: (Units=GPa)
#
#
# Indices 1 2 3 4 5 6 
#
# 1 95.0248 -2.5001 38.4522 0.0000 13.2478 0.0000
# 2 -2.5001 43.4514 -7.9719 0.0000 1.4082 0.0000
# 3 38.4522 -7.9719 100.0427 0.0000 -2.6753 0.0000
# 4 0.0000 0.0000 0.0000 21.5438 0.0000 -2.2603
# 5 13.2478 1.4082 -2.6753 0.0000 28.1948 0.0000
# 6 0.0000 0.0000 0.0000 -2.2603 0.0000 8.4690
#
#
#
# Elastic Compliance Matrix: (Units=1/GPa)
#
#
# Indices 1 2 3 4 5 6 
#
# 1 0.013699 0.000014 -0.005450 0.000000 -0.006954 0.000000
# 2 0.000014 0.023383 0.001831 0.000000 -0.001001 0.000000
# 3 -0.005450 0.001831 0.012334 0.000000 0.003640 0.000000
# 4 0.000000 0.000000 0.000000 0.047754 0.000000 0.012745
# 5 -0.006954 -0.001001 0.003640 0.000000 0.039131 0.000000
# 6 0.000000 0.000000 0.000000 0.012745 0.000000 0.121479
#
#
# Mechanical properties :
#
#
# Convention : Reuss Voigt Hill
#
# Bulk Modulus (GPa) = 23.69348 32.71993 28.20670
# Shear Modulus (GPa) = 17.91736 25.67744 21.79740
#
# Velocity S-wave (km/s) = 2.92315 3.49937 3.22416
# Velocity P-wave (km/s) = 4.76367 5.65081 5.22610
#
# Compressibility (1/GPa) = 0.04220570
#
# Stress axis : x y z
#
# Youngs Moduli (GPa) = 72.99843 42.76537 81.07789
#
# Poissons Ratio (x) = -0.00058 0.44189
# Poissons Ratio (y) = -0.00100 -0.14848
# Poissons Ratio (z) = 0.39785 -0.07832
#
# Static dielectric constant tensor:
#      x y z
#    x 1.742530 0.000000 -0.004470 
#    y 0.000000 1.819290 0.000000 
#    z -0.004470 0.000000 1.733260 
# 
# From -- ./inp_files/86924.got.cif
#   From: 2010.05.17/outbox.cif.g08.bks.cpg/sg10_44_cif.got.tgz:86924.got - 2010.06.03 11:33:40.
