data_PCOD9147637
_publ_section_title
;
Structure prediction by ZEFSAII (Michael W. Deem and Ramdas Pophale) SiO2 
 PCOD9147637
Probable space group: P 2/M
;
_chemical_formula_sum "Si O2"
_cell_formula_units_Z 24
_cell_length_a 15.621606
_cell_length_b 7.680500
_cell_length_c 17.161444
_cell_angle_alpha 90.000000
_cell_angle_beta 142.367841
_cell_angle_gamma 90.000000
_cell_volume 1257.240958
_symmetry_space_group_name_H-M "P 2/M"
_symmetry_group_IT_number 10
_symmetry_cell_setting 'monoclinic'
loop_
_space_group_symop_operation_xyz
x,y,z
-x,y,-z
-x,-y,-z
x,-y,z
loop_
_atom_site_type_symbol
_atom_site_label
_atom_site_fract_x
_atom_site_fract_y
_atom_site_fract_z
Si Si1 0.620322 0.699541 0.851224
Si Si2 0.163933 0.702568 0.601054
Si Si3 0.308192 0.000000 0.801549
Si Si4 0.338429 0.711170 0.399534
Si Si5 0.368651 0.000000 0.018558
Si Si6 0.839319 0.794897 0.879907
Si Si7 0.678384 0.289360 0.437569
O O1 0.601415 0.500000 0.864148
O O2 0.656098 0.830498 0.946410
O O3 0.739522 0.706001 0.871393
O O4 0.474395 0.760445 0.706021
O O5 0.206663 0.500000 0.640901
O O6 0.207039 0.758031 0.544518
O O7 0.000000 0.714848 0.500000
O O8 0.242019 0.828788 0.716098
O O9 0.469912 0.000000 0.892464
O O10 0.286506 0.000000 0.878374
O O11 0.500000 0.763993 0.500000
O O12 0.336292 0.500000 0.396130
O O13 0.233053 0.771618 0.256432
O O14 0.299905 0.772857 0.458756
O O15 0.840512 0.000000 0.899557
O O16 0.000000 0.731967 0.000000
O O17 0.676597 0.500000 0.441275
#
# Coordination Sequence:
#
# PCOD9147637 Si02
#       7
#     4   4   2   4   2   4   4
#     4  11  21  40  66  86 120 168 206 256 312 362
#     4  10  21  40  63  89 123 161 205 258 314 371
#     4  11  23  40  64  89 123 163 197 257 322 371
#     4  10  19  35  60  90 119 153 205 257 301 364
#     4  11  24  40  61  94 123 153 209 261 302 375
#     4  11  24  41  58  87 131 169 206 254 305 368
#     4   9  18  35  60  88 117 152 203 258 302 357
#
# _framework density 19.089421000000002
#
# number of rings (size 3 to 8) (size 9 to 14) (size 15 to 20)
#    0.000    1.667    4.167    0.750    0.000    2.333 
#    6.000    1.667    0.000    0.000    0.000    0.000 
#    0.000    0.000    0.000    0.000    0.000    0.000 
#
# Total GULP energy -134029.339549 kJ/mol
# GULP energy per Si atom -5584.555815 kJ/mol
# Density = 1.904597 g / cm^3
# Si number density = 19.089421 Si / 1000 Ang^3
#
#
#
# Elastic Constant Matrix: (Units=GPa)
#
#
# Indices 1 2 3 4 5 6 
#
# 1 144.7760 32.1132 71.8966 0.0000 -16.0122 0.0000
# 2 32.1132 70.3560 28.7596 0.0000 -13.1392 0.0000
# 3 71.8966 28.7596 106.2547 0.0000 -20.4335 0.0000
# 4 0.0000 0.0000 0.0000 32.9274 0.0000 -8.7439
# 5 -16.0122 -13.1392 -20.4335 0.0000 41.9996 0.0000
# 6 0.0000 0.0000 0.0000 -8.7439 0.0000 24.2608
#
#
#
# Elastic Compliance Matrix: (Units=1/GPa)
#
#
# Indices 1 2 3 4 5 6 
#
# 1 0.010689 -0.002139 -0.006618 0.000000 0.000186 0.000000
# 2 -0.002139 0.016808 -0.002480 0.000000 0.003236 0.000000
# 3 -0.006618 -0.002480 0.015363 0.000000 0.004176 0.000000
# 4 0.000000 0.000000 0.000000 0.033584 0.000000 0.012104
# 5 0.000186 0.003236 0.004176 0.000000 0.026925 0.000000
# 6 0.000000 0.000000 0.000000 0.012104 0.000000 0.045581
#
#
# Mechanical properties :
#
#
# Convention : Reuss Voigt Hill
#
# Bulk Modulus (GPa) = 49.05009 65.21394 57.13201
# Shear Modulus (GPa) = 28.05554 32.41204 30.23379
#
# Velocity S-wave (km/s) = 3.83781 4.12504 3.98401
# Velocity P-wave (km/s) = 6.73714 7.54483 7.15239
#
# Compressibility (1/GPa) = 0.02038732
#
# Stress axis : x y z
#
# Youngs Moduli (GPa) = 93.55762 59.49666 65.08994
#
# Poissons Ratio (x) = 0.12725 0.43074
# Poissons Ratio (y) = 0.20010 0.16140
# Poissons Ratio (z) = 0.61913 0.14753
#
# Static dielectric constant tensor:
#      x y z
#    x 1.661330 0.000000 0.000280 
#    y 0.000000 1.683270 0.000000 
#    z 0.000280 0.000000 1.637140 
# 
# From -- ./inp_files/66707.got.cif
#   From: 2010.05.17/outbox.cif.g08.bks.cpg/sg10_34_cif.got.tgz:66707.got - 2010.06.03 11:33:40.
