data_PCOD9147075
_publ_section_title
;
Structure prediction by ZEFSAII (Michael W. Deem and Ramdas Pophale) SiO2 
 PCOD9147075
Probable space group: P 2/M
;
_chemical_formula_sum "Si O2"
_cell_formula_units_Z 22
_cell_length_a 5.087438
_cell_length_b 19.372491
_cell_length_c 13.058500
_cell_angle_alpha 90.000000
_cell_angle_beta 74.055814
_cell_angle_gamma 90.000000
_cell_volume 1237.486917
_symmetry_space_group_name_H-M "P 2/M"
_symmetry_group_IT_number 10
_symmetry_cell_setting 'monoclinic'
loop_
_space_group_symop_operation_xyz
x,y,z
-x,y,-z
-x,-y,-z
x,-y,z
loop_
_atom_site_type_symbol
_atom_site_label
_atom_site_fract_x
_atom_site_fract_y
_atom_site_fract_z
Si Si1 0.086735 0.500000 0.186923
Si Si2 0.481911 0.500000 0.334048
Si Si3 0.018500 0.287412 0.708137
Si Si4 0.196258 0.000000 0.576839
Si Si5 0.575397 0.651495 0.605489
Si Si6 0.807394 0.353386 0.927397
Si Si7 0.194208 0.151812 0.578624
O O1 0.340008 0.500000 0.238170
O O2 0.105562 0.430044 0.119781
O O3 0.807172 0.500000 0.282153
O O4 0.388054 0.569467 0.399365
O O5 0.836153 0.315648 0.632781
O O6 0.842618 0.301580 0.828032
O O7 0.297212 0.330684 0.695322
O O8 0.112877 0.210967 0.667137
O O9 0.500000 0.000000 0.500000
O O10 0.160859 0.075092 0.630808
O O11 0.000000 0.000000 0.500000
O O12 0.500000 0.676922 0.500000
O O13 0.500000 0.356485 0.000000
O O14 0.000000 0.332216 0.000000
O O15 0.500000 0.159239 0.500000
O O16 0.000000 0.156932 0.500000
#
# Coordination Sequence:
#
# PCOD9147075 Si02
#       7
#     2   2   4   2   4   4   4
#     4  12  22  41  59  73  98 133 183 241 292 326
#     4  12  21  39  54  75 104 141 176 221 273 322
#     4  12  23  38  55  80 110 139 183 224 269 328
#     4   8  16  30  52  82 116 144 176 204 240 308
#     4  12  23  37  55  77 109 145 177 216 266 328
#     4  12  24  40  58  77  99 136 183 238 292 323
#     4  10  19  34  56  85 116 148 173 207 256 314
#
# _framework density 17.777964999999998
#
# number of rings (size 3 to 8) (size 9 to 14) (size 15 to 20)
#    0.000    0.727    3.636    6.273    0.000    0.000 
#    0.000    2.727    0.000    0.000    0.000    1.273 
#    0.000    0.000    0.000    0.000    0.000    0.000 
#
# Total GULP energy -122898.606340 kJ/mol
# GULP energy per Si atom -5586.300288 kJ/mol
# Density = 1.773750 g / cm^3
# Si number density = 17.777965 Si / 1000 Ang^3
#
#
#
# Elastic Constant Matrix: (Units=GPa)
#
#
# Indices 1 2 3 4 5 6 
#
# 1 97.3311 20.7459 3.3791 0.0000 0.7071 0.0000
# 2 20.7459 156.7183 38.1538 0.0000 0.8522 0.0000
# 3 3.3791 38.1538 66.5194 0.0000 2.8264 0.0000
# 4 0.0000 0.0000 0.0000 27.6382 0.0000 -19.4404
# 5 0.7071 0.8522 2.8264 0.0000 27.9450 0.0000
# 6 0.0000 0.0000 0.0000 -19.4404 0.0000 31.7148
#
#
#
# Elastic Compliance Matrix: (Units=1/GPa)
#
#
# Indices 1 2 3 4 5 6 
#
# 1 0.010580 -0.001477 0.000321 0.000000 -0.000255 0.000000
# 2 -0.001477 0.007624 -0.004308 0.000000 0.000241 0.000000
# 3 0.000321 -0.004308 0.017558 0.000000 -0.001653 0.000000
# 4 0.000000 0.000000 0.000000 0.063606 0.000000 0.038989
# 5 -0.000255 0.000241 -0.001653 0.000000 0.035951 0.000000
# 6 0.000000 0.000000 0.000000 0.038989 0.000000 0.055430
#
#
# Mechanical properties :
#
#
# Convention : Reuss Voigt Hill
#
# Bulk Modulus (GPa) = 40.26953 49.45850 44.86401
# Shear Modulus (GPa) = 23.81446 34.67891 29.24669
#
# Velocity S-wave (km/s) = 3.66396 4.42143 4.06039
# Velocity P-wave (km/s) = 6.37181 7.34479 6.87553
#
# Compressibility (1/GPa) = 0.02483267
#
# Stress axis : x y z
#
# Youngs Moduli (GPa) = 94.51983 131.16575 56.95359
#
# Poissons Ratio (x) = 0.19376 -0.01826
# Poissons Ratio (y) = 0.13963 0.24536
# Poissons Ratio (z) = -0.03031 0.56507
#
# Static dielectric constant tensor:
#      x y z
#    x 1.609700 0.000000 -0.009830 
#    y 0.000000 1.644510 0.000000 
#    z -0.009830 0.000000 1.619660 
# 
# From -- ./inp_files/39368.got.cif
#   From: 2010.05.17/outbox.cif.g08.bks.cpg/sg10_20_cif.got.tgz:39368.got - 2010.06.03 11:33:40.
