data_PCOD9147475
_publ_section_title
;
Structure prediction by ZEFSAII (Michael W. Deem and Ramdas Pophale) SiO2 
 PCOD9147475
Probable space group: P 2/M
;
_chemical_formula_sum "Si O2"
_cell_formula_units_Z 28
_cell_length_a 13.740138
_cell_length_b 7.581551
_cell_length_c 12.890397
_cell_angle_alpha 90.000000
_cell_angle_beta 69.171918
_cell_angle_gamma 90.000000
_cell_volume 1255.061952
_symmetry_space_group_name_H-M "P 2/M"
_symmetry_group_IT_number 10
_symmetry_cell_setting 'monoclinic'
loop_
_space_group_symop_operation_xyz
x,y,z
-x,y,-z
-x,-y,-z
x,-y,z
loop_
_atom_site_type_symbol
_atom_site_label
_atom_site_fract_x
_atom_site_fract_y
_atom_site_fract_z
Si Si1 0.896366 0.216416 0.097931
Si Si2 0.494111 0.786530 0.181237
Si Si3 0.193775 0.787484 0.657425
Si Si4 0.117413 0.710066 0.456540
Si Si5 0.740800 0.704104 0.784799
Si Si6 0.573511 0.785248 0.378991
Si Si7 0.289098 0.203615 0.975654
O O1 0.885314 0.270286 0.222043
O O2 0.896806 0.000000 0.095364
O O3 0.794536 0.278443 0.073072
O O4 0.000000 0.274979 0.000000
O O5 0.380995 0.715534 0.197415
O O6 0.527173 0.737220 0.285413
O O7 0.483689 0.000000 0.176475
O O8 0.592891 0.725683 0.074954
O O9 0.165536 0.736385 0.551820
O O10 0.308830 0.725593 0.646293
O O11 0.195422 0.000000 0.658888
O O12 0.110917 0.500000 0.442757
O O13 0.190200 0.778908 0.335744
O O14 0.000000 0.782342 0.500000
O O15 0.768422 0.500000 0.788782
O O16 0.753971 0.790429 0.891994
O O17 0.500000 0.725677 0.500000
O O18 0.575241 0.000000 0.379631
O O19 0.300945 0.000000 0.938679
#
# Coordination Sequence:
#
# PCOD9147475 Si02
#       7
#     4   4   4   4   4   4   4
#     4   9  18  33  56  88 120 144 174 229 287 328
#     4  10  19  35  57  84 115 148 185 224 278 340
#     4  10  19  35  60  89 112 137 184 234 276 328
#     4  10  24  44  59  75 110 155 191 231 284 334
#     4  11  24  39  56  80 112 150 193 237 279 325
#     4   9  16  28  51  81 112 141 172 219 272 324
#     4  10  20  36  59  86 117 151 184 223 280 341
#
# _framework density 22.309654999999999
#
# number of rings (size 3 to 8) (size 9 to 14) (size 15 to 20)
#    0.000    2.143    1.429    1.714    2.000    4.857 
#    0.000    1.429    0.000    3.429    0.000    0.000 
#    0.000    0.000    0.000    0.000    0.000    0.000 
#
# Total GULP energy -156441.594010 kJ/mol
# GULP energy per Si atom -5587.199786 kJ/mol
# Density = 2.225888 g / cm^3
# Si number density = 22.309655 Si / 1000 Ang^3
#
#
#
# Elastic Constant Matrix: (Units=GPa)
#
#
# Indices 1 2 3 4 5 6 
#
# 1 52.7853 -6.5113 26.8144 0.0000 -6.8174 0.0000
# 2 -6.5113 46.8701 -5.7557 0.0000 -7.2664 0.0000
# 3 26.8144 -5.7557 167.9219 0.0000 -15.7418 0.0000
# 4 0.0000 0.0000 0.0000 12.0161 0.0000 -1.5123
# 5 -6.8174 -7.2664 -15.7418 0.0000 40.2181 0.0000
# 6 0.0000 0.0000 0.0000 -1.5123 0.0000 0.2267
#
#
#
# Elastic Compliance Matrix: (Units=1/GPa)
#
#
# Indices 1 2 3 4 5 6 
#
# 1 0.021231 0.003041 -0.003008 0.000000 0.002971 0.000000
# 2 0.003041 0.022608 0.000748 0.000000 0.004893 0.000000
# 3 -0.003008 0.000748 0.006671 0.000000 0.002236 0.000000
# 4 0.000000 0.000000 0.000000 0.518553 0.000000 3.458988
# 5 0.002971 0.004893 0.002236 0.000000 0.027127 0.000000
# 6 0.000000 0.000000 0.000000 3.458988 0.000000 27.483897
#
#
# Mechanical properties :
#
#
# Convention : Reuss Voigt Hill
#
# Bulk Modulus (GPa) = 19.20376 32.96355 26.08366
# Shear Modulus (GPa) = 0.17796 27.36085 13.76941
#
# Velocity S-wave (km/s) = 0.28274 3.50582 2.48704
# Velocity P-wave (km/s) = 2.95518 5.58527 4.46813
#
# Compressibility (1/GPa) = 0.05207313
#
# Stress axis : x y z
#
# Youngs Moduli (GPa) = 47.10023 44.23123 149.90957
#
# Poissons Ratio (x) = -0.13450 0.45086
# Poissons Ratio (y) = -0.14322 -0.11214
# Poissons Ratio (z) = 0.14166 -0.03309
#
# Static dielectric constant tensor:
#      x y z
#    x 1.785200 0.000000 -0.026970 
#    y 0.000000 1.877110 0.000000 
#    z -0.026970 0.000000 1.810550 
# 
# From -- ./inp_files/49584.got.cif
#   From: 2010.05.17/outbox.cif.g08.bks.cpg/sg10_25_cif.got.tgz:49584.got - 2010.06.03 11:33:40.
