data_PCOD9147819
_publ_section_title
;
Structure prediction by ZEFSAII (Michael W. Deem and Ramdas Pophale) SiO2 
 PCOD9147819
Probable space group: P 2/M
;
_chemical_formula_sum "Si O2"
_cell_formula_units_Z 32
_cell_length_a 23.838551
_cell_length_b 7.821721
_cell_length_c 14.897837
_cell_angle_alpha 90.000000
_cell_angle_beta 31.629152
_cell_angle_gamma 90.000000
_cell_volume 1456.746464
_symmetry_space_group_name_H-M "P 2/M"
_symmetry_group_IT_number 10
_symmetry_cell_setting 'monoclinic'
loop_
_space_group_symop_operation_xyz
x,y,z
-x,y,-z
-x,-y,-z
x,-y,z
loop_
_atom_site_type_symbol
_atom_site_label
_atom_site_fract_x
_atom_site_fract_y
_atom_site_fract_z
Si Si1 0.998445 0.291434 0.771210
Si Si2 0.325646 0.196331 0.514400
Si Si3 0.242859 0.298021 0.436434
Si Si4 0.594755 0.801654 0.931671
Si Si5 0.110093 0.294981 0.903393
Si Si6 0.518387 0.299516 0.375368
Si Si7 0.675192 0.703042 0.012872
Si Si8 0.916053 0.709378 0.688378
O O1 0.000048 0.500000 0.774422
O O2 0.121267 0.235758 0.617677
O O3 0.957385 0.241636 0.729949
O O4 0.917229 0.235564 0.959203
O O5 0.309915 0.268717 0.435826
O O6 0.211019 0.210667 0.719212
O O7 0.412358 0.286833 0.459008
O O8 0.358405 0.000000 0.461267
O O9 0.237573 0.500000 0.425361
O O10 0.299703 0.215205 0.273441
O O11 0.569161 0.000000 0.981151
O O12 0.500000 0.723895 0.000000
O O13 0.611694 0.725660 0.006653
O O14 0.130465 0.500000 0.874699
O O15 0.000000 0.266726 0.000000
O O16 0.500000 0.225016 0.500000
O O17 0.544037 0.500000 0.354083
O O18 0.612284 0.224995 0.184660
O O19 0.684864 0.500000 0.014402
O O20 0.795310 0.770541 0.837967
O O21 0.915413 0.500000 0.685688
O O22 0.000000 0.768635 0.500000
#
# Coordination Sequence:
#
# PCOD9147819 Si02
#       8
#     4   4   4   4   4   4   4   4
#     4   9  18  32  57  88 116 149 192 247 302 350
#     4  12  25  39  58  87 126 165 201 246 311 376
#     4  11  21  38  63  91 118 152 200 250 300 356
#     4  11  24  40  59  85 118 156 196 242 304 366
#     4  10  19  36  60  87 118 156 204 253 301 353
#     4  10  23  42  65  91 117 155 212 268 308 352
#     4  10  21  38  62  91 119 154 200 250 302 360
#     4   9  17  31  55  89 122 149 187 242 300 355
#
# _framework density 21.966761000000002
#
# number of rings (size 3 to 8) (size 9 to 14) (size 15 to 20)
#    0.000    1.750    1.250    3.375    1.750    6.000 
#    0.000    0.000    0.000    4.125    0.000    0.000 
#    0.000    0.000    0.000    0.000    0.000    0.000 
#
# Total GULP energy -178870.338653 kJ/mol
# GULP energy per Si atom -5589.698083 kJ/mol
# Density = 2.191676 g / cm^3
# Si number density = 21.966761 Si / 1000 Ang^3
#
#
#
# Elastic Constant Matrix: (Units=GPa)
#
#
# Indices 1 2 3 4 5 6 
#
# 1 118.1166 -0.7603 49.7938 0.0000 15.6177 0.0000
# 2 -0.7603 25.5504 4.0415 0.0000 0.2792 0.0000
# 3 49.7938 4.0415 129.7492 0.0000 17.3561 0.0000
# 4 0.0000 0.0000 0.0000 332.5802 0.0000 594.4870
# 5 15.6177 0.2792 17.3561 0.0000 32.5194 0.0000
# 6 0.0000 0.0000 0.0000 594.4870 0.0000 1028.3397
#
#
#
# Elastic Compliance Matrix: (Units=1/GPa)
#
#
# Indices 1 2 3 4 5 6 
#
# 1 0.010400 0.000914 -0.003608 0.000000 -0.003077 0.000000
# 2 0.000914 0.039416 -0.001588 0.000000 0.000070 0.000000
# 3 -0.003608 -0.001588 0.009593 0.000000 -0.003373 0.000000
# 4 0.000000 0.000000 0.000000 -0.090131 0.000000 0.052105
# 5 -0.003077 0.000070 -0.003373 0.000000 0.034028 0.000000
# 6 0.000000 0.000000 0.000000 0.052105 0.000000 -0.029150
#
#
# Mechanical properties :
#
#
# Convention : Reuss Voigt Hill
#
# Bulk Modulus (GPa) = 19.66793 42.17402 30.92097
# Shear Modulus (GPa) = -15056.51838 293.37728 -7381.57055
#
# Velocity S-wave (km/s) = -82.88008 11.56914 -58.03130
# Velocity P-wave (km/s) = 95.65478 14.06061 66.90343
#
# Compressibility (1/GPa) = 0.05084419
#
# Stress axis : x y z
#
# Youngs Moduli (GPa) = 96.15434 25.37049 104.24789
#
# Poissons Ratio (x) = -0.02318 0.37613
# Poissons Ratio (y) = -0.08787 0.16553
# Poissons Ratio (z) = 0.34693 0.04028
#
# Static dielectric constant tensor:
#      x y z
#    x 1.777720 0.000000 -0.000210 
#    y 0.000000 1.804730 0.000000 
#    z -0.000210 0.000000 1.811980 
# 
# From -- ./inp_files/71541.got.cif
#   From: 2010.05.17/outbox.cif.g08.bks.cpg/sg10_36_cif.got.tgz:71541.got - 2010.06.03 11:33:40.
