data_PCOD9147129
_publ_section_title
;
Structure prediction by ZEFSAII (Michael W. Deem and Ramdas Pophale) SiO2 
 PCOD9147129
Probable space group: P 2/M
;
_chemical_formula_sum "Si O2"
_cell_formula_units_Z 32
_cell_length_a 13.047981
_cell_length_b 8.574263
_cell_length_c 32.469164
_cell_angle_alpha 90.000000
_cell_angle_beta 152.944057
_cell_angle_gamma 90.000000
_cell_volume 1652.301173
_symmetry_space_group_name_H-M "P 2/M"
_symmetry_group_IT_number 10
_symmetry_cell_setting 'monoclinic'
loop_
_space_group_symop_operation_xyz
x,y,z
-x,y,-z
-x,-y,-z
x,-y,z
loop_
_atom_site_type_symbol
_atom_site_label
_atom_site_fract_x
_atom_site_fract_y
_atom_site_fract_z
Si Si1 0.073299 0.811802 0.376794
Si Si2 0.932413 0.189096 0.720411
Si Si3 0.126090 0.180536 0.171847
Si Si4 0.325303 0.313429 0.709829
Si Si5 0.439188 0.187313 0.572498
Si Si6 0.242146 0.313475 0.899469
Si Si7 0.610650 0.317336 0.358621
Si Si8 0.182269 0.183205 0.097617
O O1 0.074033 0.761457 0.329570
O O2 0.290196 0.758568 0.480553
O O3 0.856033 0.756791 0.324191
O O4 0.077238 0.000000 0.377678
O O5 0.698571 0.237743 0.658989
O O6 0.142640 0.258636 0.820192
O O7 0.943936 0.000000 0.726162
O O8 0.343131 0.286024 0.258488
O O9 0.080425 0.191673 0.106994
O O10 0.917360 0.233620 0.123959
O O11 0.185659 0.000000 0.202832
O O12 0.307000 0.500000 0.702792
O O13 0.292717 0.257251 0.650542
O O14 0.576705 0.266627 0.813987
O O15 0.331645 0.240958 0.577113
O O16 0.441259 0.000000 0.573036
O O17 0.223331 0.500000 0.895879
O O18 0.500000 0.269211 0.000000
O O19 0.659944 0.500000 0.379003
O O20 0.223962 0.000000 0.103158
O O21 0.000000 0.244691 0.000000
#
# Coordination Sequence:
#
# PCOD9147129 Si02
#       8
#     4   4   4   4   4   4   4   4
#     4  10  22  39  59  85 119 155 191 239 293 346
#     4  10  21  39  62  86 114 150 195 243 289 341
#     4  10  19  34  57  82 109 144 187 235 284 337
#     4  10  22  38  55  81 118 156 193 235 287 344
#     4  10  20  36  61  89 114 148 194 240 291 346
#     4  11  24  39  56  83 118 153 189 233 288 343
#     4  10  20  35  57  83 114 150 188 235 285 336
#     4   9  19  36  59  85 111 144 190 240 288 342
#
# _framework density 19.366928999999999
#
# number of rings (size 3 to 8) (size 9 to 14) (size 15 to 20)
#    0.000    2.000    1.250    1.875    0.000    7.250 
#    0.000    6.250    0.000    2.250    0.000    0.000 
#    0.000    0.000    0.000    0.000    0.000    0.000 
#
# Total GULP energy -178657.417008 kJ/mol
# GULP energy per Si atom -5583.044281 kJ/mol
# Density = 1.932285 g / cm^3
# Si number density = 19.366929 Si / 1000 Ang^3
#
#
#
# Elastic Constant Matrix: (Units=GPa)
#
#
# Indices 1 2 3 4 5 6 
#
# 1 88.5228 8.2342 34.5775 0.0000 -13.8631 0.0000
# 2 8.2342 10.0654 9.8090 0.0000 -6.9280 0.0000
# 3 34.5775 9.8090 102.0710 0.0000 -23.0953 0.0000
# 4 0.0000 0.0000 0.0000 -28.7242 0.0000 3.8452
# 5 -13.8631 -6.9280 -23.0953 0.0000 26.6276 0.0000
# 6 0.0000 0.0000 0.0000 3.8452 0.0000 17.6113
#
#
#
# Elastic Compliance Matrix: (Units=1/GPa)
#
#
# Indices 1 2 3 4 5 6 
#
# 1 0.013602 -0.006026 -0.003460 0.000000 0.002513 0.000000
# 2 -0.006026 0.126327 -0.004195 0.000000 0.026092 0.000000
# 3 -0.003460 -0.004195 0.013335 0.000000 0.008673 0.000000
# 4 0.000000 0.000000 0.000000 -0.033825 0.000000 0.007385
# 5 0.002513 0.026092 0.008673 0.000000 0.053174 0.000000
# 6 0.000000 0.000000 0.000000 0.007385 0.000000 0.055169
#
#
# Mechanical properties :
#
#
# Convention : Reuss Voigt Hill
#
# Bulk Modulus (GPa) = 7.94271 33.98898 20.96584
# Shear Modulus (GPa) = 16.82870 12.97217 14.90044
#
# Velocity S-wave (km/s) = 2.95098 2.59088 2.77677
# Velocity P-wave (km/s) = 3.96498 5.15153 4.59671
#
# Compressibility (1/GPa) = 0.12590168
#
# Stress axis : x y z
#
# Youngs Moduli (GPa) = 73.51788 7.91597 74.99169
#
# Poissons Ratio (x) = 0.04770 0.25949
# Poissons Ratio (y) = 0.44302 0.31458
# Poissons Ratio (z) = 0.25439 0.03321
#
# Static dielectric constant tensor:
#      x y z
#    x 1.671700 0.000000 -0.023970 
#    y 0.000000 1.665480 0.000000 
#    z -0.023970 0.000000 1.675030 
# 
# From -- ./inp_files/95041.got.cif
#   From: 2010.05.17/outbox.cif.g08.bks.cpg/sg10_48_cif.got.tgz:95041.got - 2010.06.03 11:33:40.
