data_PCOD9147218
_publ_section_title
;
Structure prediction by ZEFSAII (Michael W. Deem and Ramdas Pophale) SiO2 
 PCOD9147218
Probable space group: P 2/M
;
_chemical_formula_sum "Si O2"
_cell_formula_units_Z 28
_cell_length_a 16.488405
_cell_length_b 7.550380
_cell_length_c 20.560767
_cell_angle_alpha 90.000000
_cell_angle_beta 150.525132
_cell_angle_gamma 90.000000
_cell_volume 1259.472578
_symmetry_space_group_name_H-M "P 2/M"
_symmetry_group_IT_number 10
_symmetry_cell_setting 'monoclinic'
loop_
_space_group_symop_operation_xyz
x,y,z
-x,y,-z
-x,-y,-z
x,-y,z
loop_
_atom_site_type_symbol
_atom_site_label
_atom_site_fract_x
_atom_site_fract_y
_atom_site_fract_z
Si Si1 0.114538 0.714189 0.639737
Si Si2 0.367311 0.715594 0.351947
Si Si3 0.489156 0.790543 0.919930
Si Si4 0.538924 0.713508 0.340542
Si Si5 0.914713 0.283333 0.625559
Si Si6 0.951102 0.705969 0.798017
Si Si7 0.311921 0.208613 0.060996
O O1 0.111418 0.500000 0.637269
O O2 0.303469 0.769418 0.764828
O O3 0.000000 0.774126 0.500000
O O4 0.040294 0.775344 0.657082
O O5 0.500000 0.759673 0.500000
O O6 0.362480 0.500000 0.343775
O O7 0.434183 0.778920 0.329350
O O8 0.190017 0.780078 0.253421
O O9 0.523994 0.000000 0.948995
O O10 0.500000 0.714179 0.000000
O O11 0.617831 0.715875 0.957698
O O12 0.543620 0.500000 0.346895
O O13 0.728583 0.771494 0.477611
O O14 0.447344 0.762855 0.210745
O O15 0.920424 0.500000 0.629149
O O16 0.952277 0.221034 0.725108
O O17 0.905821 0.500000 0.758096
O O18 0.133875 0.715718 0.953811
O O19 0.287013 0.000000 0.036083
#
# Coordination Sequence:
#
# PCOD9147218 Si02
#       7
#     4   4   4   4   4   4   4
#     4  10  20  33  52  82 114 139 172 221 276 330
#     4   9  16  31  58  89 112 135 176 227 269 312
#     4  10  22  40  58  75 102 145 191 229 267 317
#     4  10  19  35  60  84 111 145 179 220 271 323
#     4   9  17  31  55  84 109 137 176 225 274 320
#     4  10  19  34  58  84 108 138 182 226 267 318
#     4  11  24  39  53  77 113 147 182 224 271 322
#
# _framework density 22.231528999999998
#
# number of rings (size 3 to 8) (size 9 to 14) (size 15 to 20)
#    0.000    2.143    1.429    2.143    0.000    3.429 
#    0.000    5.000    0.000    0.857    0.000    0.000 
#    0.000    0.000    0.000    0.000    0.000    0.000 
#
# Total GULP energy -156480.218922 kJ/mol
# GULP energy per Si atom -5588.579247 kJ/mol
# Density = 2.218093 g / cm^3
# Si number density = 22.231529 Si / 1000 Ang^3
#
#
#
# Elastic Constant Matrix: (Units=GPa)
#
#
# Indices 1 2 3 4 5 6 
#
# 1 83.2274 4.5435 -9.3029 0.0000 19.2014 0.0000
# 2 4.5435 51.5630 -16.0671 0.0000 0.6178 0.0000
# 3 -9.3029 -16.0671 61.8690 0.0000 12.9381 0.0000
# 4 0.0000 0.0000 0.0000 -38.5471 0.0000 -16.6620
# 5 19.2014 0.6178 12.9381 0.0000 42.6196 0.0000
# 6 0.0000 0.0000 0.0000 -16.6620 0.0000 -0.9140
#
#
#
# Elastic Compliance Matrix: (Units=1/GPa)
#
#
# Indices 1 2 3 4 5 6 
#
# 1 0.014159 -0.000006 0.003696 0.000000 -0.007501 0.000000
# 2 -0.000006 0.021279 0.005968 0.000000 -0.002117 0.000000
# 3 0.003696 0.005968 0.019898 0.000000 -0.007792 0.000000
# 4 0.000000 0.000000 0.000000 0.003771 0.000000 -0.068741
# 5 -0.007501 -0.002117 -0.007792 0.000000 0.029239 0.000000
# 6 0.000000 0.000000 0.000000 -0.068741 0.000000 0.159031
#
#
# Mechanical properties :
#
#
# Convention : Reuss Voigt Hill
#
# Bulk Modulus (GPa) = 13.39527 17.22293 15.30910
# Shear Modulus (GPa) = 19.76709 15.13077 17.44893
#
# Velocity S-wave (km/s) = 2.98509 2.61166 2.80460
# Velocity P-wave (km/s) = 4.23314 4.10588 4.16999
#
# Compressibility (1/GPa) = 0.07465320
#
# Stress axis : x y z
#
# Youngs Moduli (GPa) = 70.62473 46.99407 50.25541
#
# Poissons Ratio (x) = 0.00028 -0.18575
# Poissons Ratio (y) = 0.00043 -0.29993
# Poissons Ratio (z) = -0.26104 -0.28046
#
# Static dielectric constant tensor:
#      x y z
#    x 1.832920 0.000000 0.011330 
#    y 0.000000 1.860360 0.000000 
#    z 0.011330 0.000000 1.763460 
# 
# From -- ./inp_files/85002.got.cif
#   From: 2010.05.17/outbox.cif.g08.bks.cpg/sg10_43_cif.got.tgz:85002.got - 2010.06.03 11:33:40.
