data_PCOD9147834
_publ_section_title
;
Structure prediction by ZEFSAII (Michael W. Deem and Ramdas Pophale) SiO2 
 PCOD9147834
Probable space group: P 2/M
;
_chemical_formula_sum "Si O2"
_cell_formula_units_Z 30
_cell_length_a 12.151116
_cell_length_b 22.593700
_cell_length_c 8.113229
_cell_angle_alpha 90.000000
_cell_angle_beta 37.823477
_cell_angle_gamma 90.000000
_cell_volume 1365.907207
_symmetry_space_group_name_H-M "P 2/M"
_symmetry_group_IT_number 10
_symmetry_cell_setting 'monoclinic'
loop_
_space_group_symop_operation_xyz
x,y,z
-x,y,-z
-x,-y,-z
x,-y,z
loop_
_atom_site_type_symbol
_atom_site_label
_atom_site_fract_x
_atom_site_fract_y
_atom_site_fract_z
Si Si1 0.263946 0.877627 0.119883
Si Si2 0.180881 0.122043 0.863050
Si Si3 0.500000 0.215380 0.500000
Si Si4 0.064220 0.430279 0.168250
Si Si5 0.339071 0.931541 0.364968
Si Si6 0.626373 0.749966 0.005083
Si Si7 0.288257 0.427885 0.577266
Si Si8 0.625824 0.614231 0.003511
O O1 0.227714 0.905792 0.341182
O O2 0.170490 0.900270 0.063424
O O3 0.475595 0.894170 0.844880
O O4 0.241096 0.806423 0.149913
O O5 0.328550 0.173142 0.688925
O O6 0.244097 0.074715 0.653110
O O7 0.000000 0.146855 0.000000
O O8 0.476152 0.249546 0.698683
O O9 0.042824 0.500000 0.176282
O O10 0.861336 0.407752 0.381877
O O11 0.187633 0.411670 0.866170
O O12 0.189578 0.418786 0.176080
O O13 0.379411 0.000000 0.287173
O O14 0.684063 0.682493 0.914719
O O15 0.500000 0.763562 0.000000
O O16 0.315012 0.500000 0.542183
O O17 0.479231 0.397724 0.321314
O O18 0.500000 0.594914 0.000000
#
# Coordination Sequence:
#
# PCOD9147834 Si02
#       8
#     4   4   2   4   4   4   4   4
#     4  10  19  40  63  84 116 163 200 237 297 354
#     4  11  22  38  61  90 122 151 192 244 296 355
#     4  10  20  42  63  82 113 166 200 234 296 354
#     4   9  19  37  58  79 113 154 192 235 284 342
#     4  11  21  37  65  92 117 158 202 240 292 352
#     4  10  19  36  61  84 116 154 198 248 291 345
#     4   9  19  37  58  80 112 154 193 235 285 341
#     4  11  23  33  53  88 115 146 191 240 293 343
#
# _framework density 21.963424
#
# number of rings (size 3 to 8) (size 9 to 14) (size 15 to 20)
#    0.000    1.867    4.000    2.400    1.867    5.067 
#    0.000    4.667    0.000    6.400    0.000    0.000 
#    0.000    0.000    0.000    0.000    0.000    0.000 
#
# Total GULP energy -167275.659205 kJ/mol
# GULP energy per Si atom -5575.855307 kJ/mol
# Density = 2.191343 g / cm^3
# Si number density = 21.963424 Si / 1000 Ang^3
#
#
#
# Elastic Constant Matrix: (Units=GPa)
#
#
# Indices 1 2 3 4 5 6 
#
# 1 158.3490 2.4827 41.8905 0.0000 7.7558 0.0000
# 2 2.4827 35.3491 7.5053 0.0000 -6.7244 0.0000
# 3 41.8905 7.5053 58.8223 0.0000 -11.7824 0.0000
# 4 0.0000 0.0000 0.0000 0.4415 0.0000 9.0827
# 5 7.7558 -6.7244 -11.7824 0.0000 45.5112 0.0000
# 6 0.0000 0.0000 0.0000 9.0827 0.0000 25.9296
#
#
#
# Elastic Compliance Matrix: (Units=1/GPa)
#
#
# Indices 1 2 3 4 5 6 
#
# 1 0.008167 0.000220 -0.006451 0.000000 -0.003029 0.000000
# 2 0.000220 0.029627 -0.003235 0.000000 0.003502 0.000000
# 3 -0.006451 -0.003235 0.023342 0.000000 0.006664 0.000000
# 4 0.000000 0.000000 0.000000 -0.364964 0.000000 0.127841
# 5 -0.003029 0.003502 0.006664 0.000000 0.024732 0.000000
# 6 0.000000 0.000000 0.000000 0.127841 0.000000 -0.006215
#
#
# Mechanical properties :
#
#
# Convention : Reuss Voigt Hill
#
# Bulk Modulus (GPa) = 23.69483 39.58640 31.64062
# Shear Modulus (GPa) = -19.81673 27.75259 3.96793
#
# Velocity S-wave (km/s) = -3.00702 3.55855 1.34556
# Velocity P-wave (km/s) = 1.11558 5.91162 4.10504
#
# Compressibility (1/GPa) = 0.04220329
#
# Stress axis : x y z
#
# Youngs Moduli (GPa) = 122.45010 33.75306 42.84142
#
# Poissons Ratio (x) = -0.00742 0.27636
# Poissons Ratio (y) = -0.02691 0.13860
# Poissons Ratio (z) = 0.78989 0.10920
#
# Static dielectric constant tensor:
#      x y z
#    x 2.191340 0.000000 0.090150 
#    y 0.000000 1.779880 0.000000 
#    z 0.090150 0.000000 1.861720 
# 
# From -- ./inp_files/26166.got.cif
#   From: 2010.05.17/outbox.cif.g08.bks.cpg/sg10_14_cif.got.tgz:26166.got - 2010.06.03 11:33:40.
