data_PCOD9147287
_publ_section_title
;
Structure prediction by ZEFSAII (Michael W. Deem and Ramdas Pophale) SiO2 
 PCOD9147287
Probable space group: P 2/M
;
_chemical_formula_sum "Si O2"
_cell_formula_units_Z 28
_cell_length_a 26.019445
_cell_length_b 10.289459
_cell_length_c 8.820917
_cell_angle_alpha 90.000000
_cell_angle_beta 38.508888
_cell_angle_gamma 90.000000
_cell_volume 1470.410362
_symmetry_space_group_name_H-M "P 2/M"
_symmetry_group_IT_number 10
_symmetry_cell_setting 'monoclinic'
loop_
_space_group_symop_operation_xyz
x,y,z
-x,y,-z
-x,-y,-z
x,-y,z
loop_
_atom_site_type_symbol
_atom_site_label
_atom_site_fract_x
_atom_site_fract_y
_atom_site_fract_z
Si Si1 0.661213 0.655447 0.440713
Si Si2 0.485320 0.657644 0.704933
Si Si3 0.942955 0.250588 0.495503
Si Si4 0.135869 0.352260 0.611444
Si Si5 0.207000 0.147169 0.964237
Si Si6 0.084538 0.142618 0.968053
Si Si7 0.679833 0.343240 0.752846
O O1 0.675607 0.500000 0.384732
O O2 0.566678 0.684160 0.615559
O O3 0.722865 0.743143 0.199687
O O4 0.675481 0.687002 0.584542
O O5 0.500000 0.703921 0.500000
O O6 0.478873 0.500000 0.713556
O O7 0.400506 0.707539 0.973985
O O8 0.906163 0.346633 0.455369
O O9 0.000000 0.306264 0.500000
O O10 0.004185 0.158539 0.258849
O O11 0.865647 0.178173 0.749286
O O12 0.133809 0.500000 0.674942
O O13 0.231400 0.307047 0.384223
O O14 0.091530 0.255955 0.830054
O O15 0.238004 0.000000 0.914590
O O16 0.161257 0.153266 0.906631
O O17 0.085909 0.000000 0.893219
O O18 0.675975 0.500000 0.771331
#
# Coordination Sequence:
#
# PCOD9147287 Si02
#       7
#     4   4   4   4   4   4   4
#     4  10  19  34  59  86 116 152 189 232 285 340
#     4   9  18  31  54  86 117 150 190 231 273 334
#     4  10  23  39  57  83 114 154 198 240 286 343
#     4  11  23  38  60  88 120 151 187 242 297 341
#     4  10  21  38  60  86 116 150 193 243 293 340
#     4  10  21  40  63  84 111 150 199 242 285 345
#     4   9  18  34  54  83 117 148 185 230 281 337
#
# _framework density 19.042304000000001
#
# number of rings (size 3 to 8) (size 9 to 14) (size 15 to 20)
#    0.000    2.143    1.429    1.286    2.000    7.143 
#    0.000    2.857    0.000    3.000    0.000    0.000 
#    0.000    0.000    0.000    0.000    0.000    0.000 
#
# Total GULP energy -156183.668913 kJ/mol
# GULP energy per Si atom -5577.988175 kJ/mol
# Density = 1.899896 g / cm^3
# Si number density = 19.042304 Si / 1000 Ang^3
#
#
#
# Elastic Constant Matrix: (Units=GPa)
#
#
# Indices 1 2 3 4 5 6 
#
# 1 85.7251 29.0028 41.5134 0.0000 -3.6039 0.0000
# 2 29.0028 80.1887 56.2578 0.0000 -2.1524 0.0000
# 3 41.5134 56.2578 141.0248 0.0000 -16.1187 0.0000
# 4 0.0000 0.0000 0.0000 11.5124 0.0000 0.1889
# 5 -3.6039 -2.1524 -16.1187 0.0000 26.2102 0.0000
# 6 0.0000 0.0000 0.0000 0.1889 0.0000 12.7042
#
#
#
# Elastic Compliance Matrix: (Units=1/GPa)
#
#
# Indices 1 2 3 4 5 6 
#
# 1 0.014120 -0.003033 -0.002961 0.000000 -0.000129 0.000000
# 2 -0.003033 0.018197 -0.006715 0.000000 -0.003052 0.000000
# 3 -0.002961 -0.006715 0.011328 0.000000 0.006008 0.000000
# 4 0.000000 0.000000 0.000000 0.086884 0.000000 -0.001292
# 5 -0.000129 -0.003052 0.006008 0.000000 0.041579 0.000000
# 6 0.000000 0.000000 0.000000 -0.001292 0.000000 0.078733
#
#
# Mechanical properties :
#
#
# Convention : Reuss Voigt Hill
#
# Bulk Modulus (GPa) = 54.86603 62.27628 58.57116
# Shear Modulus (GPa) = 17.70943 22.09634 19.90289
#
# Velocity S-wave (km/s) = 3.05291 3.41013 3.23645
# Velocity P-wave (km/s) = 6.42668 6.94842 6.69264
#
# Compressibility (1/GPa) = 0.01822621
#
# Stress axis : x y z
#
# Youngs Moduli (GPa) = 70.82199 54.95495 88.27526
#
# Poissons Ratio (x) = 0.16667 0.26141
# Poissons Ratio (y) = 0.21479 0.59278
# Poissons Ratio (z) = 0.20973 0.36903
#
# Static dielectric constant tensor:
#      x y z
#    x 1.684080 0.000000 -0.004980 
#    y 0.000000 1.638100 0.000000 
#    z -0.004980 0.000000 1.661450 
# 
# From -- ./inp_files/36972.got.cif
#   From: 2010.05.17/outbox.cif.g08.bks.cpg/sg10_19_cif.got.tgz:36972.got - 2010.06.03 11:33:40.
