data_PCOD9147528
_publ_section_title
;
Structure prediction by ZEFSAII (Michael W. Deem and Ramdas Pophale) SiO2 
 PCOD9147528
Probable space group: P 2/M
;
_chemical_formula_sum "Si O2"
_cell_formula_units_Z 22
_cell_length_a 10.709898
_cell_length_b 13.150747
_cell_length_c 13.747540
_cell_angle_alpha 90.000000
_cell_angle_beta 148.362262
_cell_angle_gamma 90.000000
_cell_volume 1015.652117
_symmetry_space_group_name_H-M "P 2/M"
_symmetry_group_IT_number 10
_symmetry_cell_setting 'monoclinic'
loop_
_space_group_symop_operation_xyz
x,y,z
-x,y,-z
-x,-y,-z
x,-y,z
loop_
_atom_site_type_symbol
_atom_site_label
_atom_site_fract_x
_atom_site_fract_y
_atom_site_fract_z
Si Si1 0.323920 0.112845 0.290534
Si Si2 0.000000 0.279517 0.500000
Si Si3 0.742203 0.614489 0.507417
Si Si4 0.247144 0.883003 0.778852
Si Si5 0.261453 0.304072 0.125327
Si Si6 0.997991 0.221131 0.208665
O O1 0.500000 0.116283 0.500000
O O2 0.363635 0.198919 0.238011
O O3 0.075924 0.144215 0.175786
O O4 0.327907 0.000000 0.252432
O O5 0.093288 0.348263 0.473515
O O6 0.208402 0.201184 0.670486
O O7 0.801991 0.500000 0.577038
O O8 0.468589 0.619231 0.291637
O O9 0.800828 0.696455 0.630366
O O10 0.061374 0.846493 0.737932
O O11 0.209645 0.000000 0.723352
O O12 0.500000 0.877089 0.000000
O O13 0.214209 0.286342 0.979846
O O14 0.000000 0.326215 0.000000
#
# Coordination Sequence:
#
# PCOD9147528 Si02
#       6
#     4   2   4   4   4   4
#     4  10  19  35  58  85 117 152 186 221 273 338
#     4  10  22  40  60  84 112 150 194 240 282 342
#     4  11  23  41  61  82 111 149 196 247 294 336
#     4  10  20  35  57  86 120 152 184 228 284 342
#     4  10  22  38  59  87 119 151 189 235 285 341
#     4  10  21  37  58  84 117 151 193 234 279 337
#
# _framework density 21.660961
#
# number of rings (size 3 to 8) (size 9 to 14) (size 15 to 20)
#    0.000    1.818    1.818    2.182    0.000    5.091 
#    0.000    7.273    0.000    6.000    0.000    0.000 
#    0.000    0.000    0.000    0.000    0.000    0.000 
#
# Total GULP energy -122764.472942 kJ/mol
# GULP energy per Si atom -5580.203316 kJ/mol
# Density = 2.161166 g / cm^3
# Si number density = 21.660961 Si / 1000 Ang^3
#
#
#
# Elastic Constant Matrix: (Units=GPa)
#
#
# Indices 1 2 3 4 5 6 
#
# 1 20.7815 4.1438 -16.3637 0.0000 2.5133 0.0000
# 2 4.1438 115.4555 21.2523 0.0000 12.8553 0.0000
# 3 -16.3637 21.2523 101.1522 0.0000 4.1153 0.0000
# 4 0.0000 0.0000 0.0000 65.8126 0.0000 28.3451
# 5 2.5133 12.8553 4.1153 0.0000 23.9421 0.0000
# 6 0.0000 0.0000 0.0000 28.3451 0.0000 33.0629
#
#
#
# Elastic Compliance Matrix: (Units=1/GPa)
#
#
# Indices 1 2 3 4 5 6 
#
# 1 0.057575 -0.003280 0.010249 0.000000 -0.006045 0.000000
# 2 -0.003280 0.009716 -0.002390 0.000000 -0.004462 0.000000
# 3 0.010249 -0.002390 0.012123 0.000000 -0.001876 0.000000
# 4 0.000000 0.000000 0.000000 0.024089 0.000000 -0.020652
# 5 -0.006045 -0.004462 -0.001876 0.000000 0.045120 0.000000
# 6 0.000000 0.000000 0.000000 -0.020652 0.000000 0.047950
#
#
# Mechanical properties :
#
#
# Convention : Reuss Voigt Hill
#
# Bulk Modulus (GPa) = 11.29037 28.38379 19.83708
# Shear Modulus (GPa) = 23.04789 39.78732 31.41761
#
# Velocity S-wave (km/s) = 3.26548 4.29047 3.81258
# Velocity P-wave (km/s) = 4.40925 6.13810 5.34405
#
# Compressibility (1/GPa) = 0.08857103
#
# Stress axis : x y z
#
# Youngs Moduli (GPa) = 17.36863 102.92458 82.48993
#
# Poissons Ratio (x) = 0.33759 -0.84545
# Poissons Ratio (y) = 0.05697 0.19719
# Poissons Ratio (z) = -0.17801 0.24603
#
# Static dielectric constant tensor:
#      x y z
#    x 1.797740 0.000000 0.005320 
#    y 0.000000 1.738390 0.000000 
#    z 0.005320 0.000000 1.889750 
# 
# From -- ./inp_files/64715.got.cif
#   From: 2010.05.17/outbox.cif.g08.bks.cpg/sg10_33_cif.got.tgz:64715.got - 2010.06.03 11:33:40.
