data_PCOD9147940
_publ_section_title
;
Structure prediction by ZEFSAII (Michael W. Deem and Ramdas Pophale) SiO2 
 PCOD9147940
Probable space group: P 2/M
;
_chemical_formula_sum "Si O2"
_cell_formula_units_Z 32
_cell_length_a 11.827718
_cell_length_b 7.533766
_cell_length_c 19.270667
_cell_angle_alpha 90.000000
_cell_angle_beta 55.131795
_cell_angle_gamma 90.000000
_cell_volume 1408.873964
_symmetry_space_group_name_H-M "P 2/M"
_symmetry_group_IT_number 10
_symmetry_cell_setting 'monoclinic'
loop_
_space_group_symop_operation_xyz
x,y,z
-x,y,-z
-x,-y,-z
x,-y,z
loop_
_atom_site_type_symbol
_atom_site_label
_atom_site_fract_x
_atom_site_fract_y
_atom_site_fract_z
Si Si1 0.258062 0.297564 0.689924
Si Si2 0.474595 0.797748 0.333025
Si Si3 0.786307 0.285791 0.040006
Si Si4 0.994618 0.214909 0.420566
Si Si5 0.696557 0.297434 0.474960
Si Si6 0.936308 0.717224 0.128448
Si Si7 0.292475 0.217609 0.267881
Si Si8 0.509407 0.208941 0.919273
O O1 0.221634 0.500000 0.683962
O O2 0.384244 0.299100 0.699228
O O3 0.312823 0.216996 0.598858
O O4 0.129076 0.218749 0.776563
O O5 0.382126 0.795139 0.434740
O O6 0.384089 0.725335 0.301733
O O7 0.511693 0.000000 0.302966
O O8 0.784191 0.500000 0.041459
O O9 0.839994 0.228673 0.097133
O O10 0.636083 0.225565 0.069452
O O11 0.907782 0.229877 0.944258
O O12 0.135299 0.272230 0.334249
O O13 0.000000 0.261018 0.500000
O O14 0.857821 0.293033 0.435804
O O15 0.984399 0.000000 0.419934
O O16 0.643204 0.500000 0.493627
O O17 0.933487 0.500000 0.130853
O O18 0.368776 0.280457 0.172002
O O19 0.292069 0.000000 0.269360
O O20 0.539197 0.000000 0.916416
O O21 0.500000 0.285640 0.000000
#
# Coordination Sequence:
#
# PCOD9147940 Si02
#       8
#     4   4   4   4   4   4   4   4
#     4  10  21  36  52  76 112 145 172 213 272 322
#     4  11  21  36  57  78 103 139 184 224 260 311
#     4   9  17  33  58  81 102 136 181 220 256 308
#     4  10  19  37  60  77 100 139 183 223 264 310
#     4  11  23  36  52  78 111 142 173 218 272 321
#     4   8  16  33  56  79 105 139 175 215 265 315
#     4   9  19  36  57  79 104 138 178 219 266 315
#     4  10  21  36  53  77 111 144 171 211 269 321
#
# _framework density 22.713173999999999
#
# number of rings (size 3 to 8) (size 9 to 14) (size 15 to 20)
#    0.000    2.250    1.250    2.625    0.000    4.000 
#    0.000    3.125    0.000    0.000    0.000    0.000 
#    0.000    0.000    0.000    0.000    0.000    0.000 
#
# Total GULP energy -178809.672900 kJ/mol
# GULP energy per Si atom -5587.802278 kJ/mol
# Density = 2.266148 g / cm^3
# Si number density = 22.713174 Si / 1000 Ang^3
#
#
#
# Elastic Constant Matrix: (Units=GPa)
#
#
# Indices 1 2 3 4 5 6 
#
# 1 60.7046 -2.4090 17.3576 0.0000 -17.5834 0.0000
# 2 -2.4090 58.9478 4.0702 0.0000 5.1445 0.0000
# 3 17.3576 4.0702 155.8193 0.0000 -8.8653 0.0000
# 4 0.0000 0.0000 0.0000 -35.3036 0.0000 2.4722
# 5 -17.5834 5.1445 -8.8653 0.0000 27.4284 0.0000
# 6 0.0000 0.0000 0.0000 2.4722 0.0000 18.2078
#
#
#
# Elastic Compliance Matrix: (Units=1/GPa)
#
#
# Indices 1 2 3 4 5 6 
#
# 1 0.020602 -0.000161 -0.001566 0.000000 0.012731 0.000000
# 2 -0.000161 0.017312 -0.000637 0.000000 -0.003556 0.000000
# 3 -0.001566 -0.000637 0.006681 0.000000 0.001275 0.000000
# 4 0.000000 0.000000 0.000000 -0.028059 0.000000 0.003810
# 5 0.012731 -0.003556 0.001275 0.000000 0.045699 0.000000
# 6 0.000000 0.000000 0.000000 0.003810 0.000000 0.054404
#
#
# Mechanical properties :
#
#
# Convention : Reuss Voigt Hill
#
# Bulk Modulus (GPa) = 25.08304 34.83438 29.95871
# Shear Modulus (GPa) = 37.13124 19.16338 28.14731
#
# Velocity S-wave (km/s) = 4.04764 2.90782 3.52412
# Velocity P-wave (km/s) = 5.73689 5.16177 5.45691
#
# Compressibility (1/GPa) = 0.03986757
#
# Stress axis : x y z
#
# Youngs Moduli (GPa) = 48.53787 57.76386 149.67058
#
# Poissons Ratio (x) = 0.00930 0.23445
# Poissons Ratio (y) = 0.00781 0.09528
# Poissons Ratio (z) = 0.07603 0.03677
#
# Static dielectric constant tensor:
#      x y z
#    x 1.794190 0.000000 0.018470 
#    y 0.000000 1.878770 0.000000 
#    z 0.018470 0.000000 1.865950 
# 
# From -- ./inp_files/63816.got.cif
#   From: 2010.05.17/outbox.cif.g08.bks.cpg/sg10_32_cif.got.tgz:63816.got - 2010.06.03 11:33:40.
