data_PCOD9147520
_publ_section_title
;
Structure prediction by ZEFSAII (Michael W. Deem and Ramdas Pophale) SiO2 
 PCOD9147520
Probable space group: P 2/M
;
_chemical_formula_sum "Si O2"
_cell_formula_units_Z 28
_cell_length_a 15.192456
_cell_length_b 8.608673
_cell_length_c 22.551574
_cell_angle_alpha 90.000000
_cell_angle_beta 30.342323
_cell_angle_gamma 90.000000
_cell_volume 1489.959730
_symmetry_space_group_name_H-M "P 2/M"
_symmetry_group_IT_number 10
_symmetry_cell_setting 'monoclinic'
loop_
_space_group_symop_operation_xyz
x,y,z
-x,y,-z
-x,-y,-z
x,-y,z
loop_
_atom_site_type_symbol
_atom_site_label
_atom_site_fract_x
_atom_site_fract_y
_atom_site_fract_z
Si Si1 0.450912 0.188623 0.621791
Si Si2 0.532687 0.187752 0.702558
Si Si3 0.428934 0.812166 0.892893
Si Si4 0.217255 0.811853 0.648554
Si Si5 0.169297 0.315959 0.137413
Si Si6 0.077252 0.685760 0.519672
Si Si7 0.762964 0.814208 0.777221
O O1 0.440339 0.241459 0.695684
O O2 0.637390 0.232470 0.484780
O O3 0.300473 0.235970 0.663484
O O4 0.448180 0.000000 0.623104
O O5 0.448292 0.239498 0.813553
O O6 0.732601 0.241547 0.584269
O O7 0.531297 0.000000 0.703710
O O8 0.603699 0.766609 0.827250
O O9 0.418136 0.000000 0.900390
O O10 0.266194 0.743851 0.022515
O O11 0.030645 0.738664 0.746301
O O12 0.201156 0.000000 0.656734
O O13 0.179394 0.500000 0.135233
O O14 0.260488 0.243063 0.142276
O O15 0.089536 0.500000 0.515921
O O16 0.000000 0.728545 0.500000
O O17 0.941662 0.746220 0.647160
O O18 0.773386 0.000000 0.770701
#
# Coordination Sequence:
#
# PCOD9147520 Si02
#       7
#     4   4   4   4   4   4   4
#     4   8  16  32  60  90 111 136 176 228 279 324
#     4  10  19  35  58  84 112 147 191 232 274 325
#     4  10  22  38  56  78 107 147 193 234 273 325
#     4   9  17  35  60  86 113 141 177 224 277 331
#     4  12  25  38  55  80 110 146 186 230 284 337
#     4  11  22  34  52  82 120 152 180 219 272 328
#     4  11  22  38  59  81 107 145 192 236 276 323
#
# _framework density 18.792455
#
# number of rings (size 3 to 8) (size 9 to 14) (size 15 to 20)
#    0.000    1.857    1.429    4.286    0.000    5.143 
#    0.000    2.857    0.000    4.286    0.000    0.000 
#    0.000    0.000    0.000    0.000    0.000    0.000 
#
# Total GULP energy -156416.585853 kJ/mol
# GULP energy per Si atom -5586.306638 kJ/mol
# Density = 1.874968 g / cm^3
# Si number density = 18.792455 Si / 1000 Ang^3
#
#
#
# Elastic Constant Matrix: (Units=GPa)
#
#
# Indices 1 2 3 4 5 6 
#
# 1 116.5762 12.9263 34.6742 0.0000 31.4732 0.0000
# 2 12.9263 4.0785 7.7295 0.0000 9.6015 0.0000
# 3 34.6742 7.7295 63.1439 0.0000 18.7641 0.0000
# 4 0.0000 0.0000 0.0000 -389.6205 0.0000 33.5559
# 5 31.4732 9.6015 18.7641 0.0000 23.7133 0.0000
# 6 0.0000 0.0000 0.0000 33.5559 0.0000 8.6217
#
#
#
# Elastic Compliance Matrix: (Units=1/GPa)
#
#
# Indices 1 2 3 4 5 6 
#
# 1 0.013755 -0.011270 -0.002752 0.000000 -0.011516 0.000000
# 2 -0.011270 5.258507 -0.012082 0.000000 -2.104657 0.000000
# 3 -0.002752 -0.012082 0.021295 0.000000 -0.008306 0.000000
# 4 0.000000 0.000000 0.000000 -0.001922 0.000000 0.007482
# 5 -0.011516 -2.104657 -0.008306 0.000000 0.916205 0.000000
# 6 0.000000 0.000000 0.000000 0.007482 0.000000 0.086869
#
#
# Mechanical properties :
#
#
# Convention : Reuss Voigt Hill
#
# Bulk Modulus (GPa) = 0.19079 32.71763 16.45421
# Shear Modulus (GPa) = 0.61774 -62.89253 -31.13739
#
# Velocity S-wave (km/s) = 0.57396 -5.79133 -4.07493
# Velocity P-wave (km/s) = 0.73552 5.22222 3.65586
#
# Compressibility (1/GPa) = 5.24135066
#
# Stress axis : x y z
#
# Youngs Moduli (GPa) = 72.69957 0.19017 46.95880
#
# Poissons Ratio (x) = 0.00214 0.12922
# Poissons Ratio (y) = 0.81931 0.56735
# Poissons Ratio (z) = 0.20005 0.00230
#
# Static dielectric constant tensor:
#      x y z
#    x 1.665390 0.000000 0.023860 
#    y 0.000000 1.625070 0.000000 
#    z 0.023860 0.000000 1.621490 
# 
# From -- ./inp_files/49165.got.cif
#   From: 2010.05.17/outbox.cif.g08.bks.cpg/sg10_25_cif.got.tgz:49165.got - 2010.06.03 11:33:40.
