data_PCOD9147091
_publ_section_title
;
Structure prediction by ZEFSAII (Michael W. Deem and Ramdas Pophale) SiO2 
 PCOD9147091
Probable space group: P 2/M
;
_chemical_formula_sum "Si O2"
_cell_formula_units_Z 28
_cell_length_a 24.940883
_cell_length_b 7.489548
_cell_length_c 22.337046
_cell_angle_alpha 90.000000
_cell_angle_beta 18.213858
_cell_angle_gamma 90.000000
_cell_volume 1304.166585
_symmetry_space_group_name_H-M "P 2/M"
_symmetry_group_IT_number 10
_symmetry_cell_setting 'monoclinic'
loop_
_space_group_symop_operation_xyz
x,y,z
-x,y,-z
-x,-y,-z
x,-y,z
loop_
_atom_site_type_symbol
_atom_site_label
_atom_site_fract_x
_atom_site_fract_y
_atom_site_fract_z
Si Si1 0.199938 0.782268 0.299750
Si Si2 0.344671 0.707274 0.853282
Si Si3 0.915974 0.712782 0.149680
Si Si4 0.457185 0.787398 0.131061
Si Si5 0.629190 0.713960 0.640484
Si Si6 0.478196 0.787898 0.455462
Si Si7 0.984188 0.280119 0.210064
O O1 0.297528 0.725986 0.258166
O O2 0.000000 0.723549 0.500000
O O3 0.191210 0.000000 0.308509
O O4 0.351015 0.726061 0.092429
O O5 0.332161 0.500000 0.883558
O O6 0.489232 0.786994 0.742352
O O7 0.398967 0.714224 0.726163
O O8 0.156322 0.784477 0.058649
O O9 0.946256 0.500000 0.117496
O O10 0.714116 0.746081 0.360757
O O11 0.982426 0.779912 0.142789
O O12 0.000000 0.786888 0.000000
O O13 0.419680 0.749298 0.239634
O O14 0.461711 0.000000 0.117557
O O15 0.636453 0.500000 0.624974
O O16 0.815205 0.780038 0.423447
O O17 0.500000 0.718470 0.500000
O O18 0.504892 0.000000 0.428647
O O19 0.985603 0.500000 0.207521
#
# Coordination Sequence:
#
# PCOD9147091 Si02
#       7
#     4   4   4   4   4   4   4
#     4   8  15  31  54  78 107 141 178 221 259 298
#     4  10  20  37  59  76  99 139 183 224 263 316
#     4  10  19  34  57  80 100 131 181 227 265 322
#     4   9  18  32  53  80 105 138 183 219 255 309
#     4  10  20  35  53  77 112 144 173 217 274 322
#     4  11  23  36  51  76 110 138 168 219 282 335
#     4   9  18  34  54  78 102 131 177 225 266 315
#
# _framework density 21.469649
#
# number of rings (size 3 to 8) (size 9 to 14) (size 15 to 20)
#    0.000    2.429    1.429    2.143    0.000    4.286 
#    0.000    2.857    0.000    0.857    0.000    0.000 
#    0.000    0.000    0.000    0.000    0.000    0.000 
#
# Total GULP energy -156214.956207 kJ/mol
# GULP energy per Si atom -5579.105579 kJ/mol
# Density = 2.142078 g / cm^3
# Si number density = 21.469649 Si / 1000 Ang^3
#
#
#
# Elastic Constant Matrix: (Units=GPa)
#
#
# Indices 1 2 3 4 5 6 
#
# 1 129.9457 -2.9468 110.4223 0.0000 -3.6696 0.0000
# 2 -2.9468 58.2040 1.9567 0.0000 -4.2651 0.0000
# 3 110.4223 1.9567 202.9464 0.0000 -23.3923 0.0000
# 4 0.0000 0.0000 0.0000 -84.1358 0.0000 50.2488
# 5 -3.6696 -4.2651 -23.3923 0.0000 43.8279 0.0000
# 6 0.0000 0.0000 0.0000 50.2488 0.0000 -10.2361
#
#
#
# Elastic Compliance Matrix: (Units=1/GPa)
#
#
# Indices 1 2 3 4 5 6 
#
# 1 0.014771 0.000798 -0.008410 0.000000 -0.003174 0.000000
# 2 0.000798 0.017348 -0.000425 0.000000 0.001528 0.000000
# 3 -0.008410 -0.000425 0.010039 0.000000 0.004613 0.000000
# 4 0.000000 0.000000 0.000000 0.006153 0.000000 0.030203
# 5 -0.003174 0.001528 0.004613 0.000000 0.025161 0.000000
# 6 0.000000 0.000000 0.000000 0.030203 0.000000 0.050571
#
#
# Mechanical properties :
#
#
# Convention : Reuss Voigt Hill
#
# Bulk Modulus (GPa) = 38.34027 67.77338 53.05683
# Shear Modulus (GPa) = 33.59956 8.66879 21.13418
#
# Velocity S-wave (km/s) = 3.96027 2.01158 3.14088
# Velocity P-wave (km/s) = 6.22964 6.08530 6.15789
#
# Compressibility (1/GPa) = 0.02608224
#
# Stress axis : x y z
#
# Youngs Moduli (GPa) = 67.70200 57.64478 99.61012
#
# Poissons Ratio (x) = -0.04600 0.83774
# Poissons Ratio (y) = -0.05402 0.04236
# Poissons Ratio (z) = 0.56939 0.02451
#
# Static dielectric constant tensor:
#      x y z
#    x 1.778030 0.000000 -0.003640 
#    y 0.000000 1.807460 0.000000 
#    z -0.003640 0.000000 1.789890 
# 
# From -- ./inp_files/86441.got.cif
#   From: 2010.05.17/outbox.cif.g08.bks.cpg/sg10_44_cif.got.tgz:86441.got - 2010.06.03 11:33:40.
