data_PCOD9147200
_publ_section_title
;
Structure prediction by ZEFSAII (Michael W. Deem and Ramdas Pophale) SiO2 
 PCOD9147200
Probable space group: P 2/M
;
_chemical_formula_sum "Si O2"
_cell_formula_units_Z 28
_cell_length_a 15.127245
_cell_length_b 11.321303
_cell_length_c 9.394393
_cell_angle_alpha 90.000000
_cell_angle_beta 58.049345
_cell_angle_gamma 90.000000
_cell_volume 1365.145549
_symmetry_space_group_name_H-M "P 2/M"
_symmetry_group_IT_number 10
_symmetry_cell_setting 'monoclinic'
loop_
_space_group_symop_operation_xyz
x,y,z
-x,y,-z
-x,-y,-z
x,-y,z
loop_
_atom_site_type_symbol
_atom_site_label
_atom_site_fract_x
_atom_site_fract_y
_atom_site_fract_z
Si Si1 0.541386 0.864322 0.309971
Si Si2 0.760034 0.864702 0.254788
Si Si3 0.424939 0.294481 0.182676
Si Si4 0.079739 0.864976 0.119021
Si Si5 0.075629 0.725668 0.564372
Si Si6 0.236164 0.865496 0.247339
Si Si7 0.264712 0.625311 0.542929
O O1 0.500000 0.822702 0.500000
O O2 0.665454 0.863622 0.221695
O O3 0.496215 0.789306 0.220622
O O4 0.506151 0.000000 0.323530
O O5 0.738069 0.750988 0.371853
O O6 0.757946 0.000000 0.318610
O O7 0.868170 0.848313 0.078792
O O8 0.335201 0.218144 0.180906
O O9 0.359613 0.370613 0.350712
O O10 0.500000 0.350310 0.000000
O O11 0.173901 0.854024 0.152987
O O12 0.993231 0.775674 0.248390
O O13 0.040811 0.000000 0.161671
O O14 0.149375 0.829319 0.438191
O O15 0.156625 0.629558 0.548584
O O16 0.000000 0.688665 0.500000
O O17 0.269514 0.000000 0.237337
O O18 0.270774 0.500000 0.619523
#
# Coordination Sequence:
#
# PCOD9147200 Si02
#       7
#     4   4   4   4   4   4   4
#     4  10  19  34  57  87 124 163 197 237 293 352
#     4  10  21  38  60  86 121 161 199 238 287 350
#     4  11  22  36  58  86 115 154 203 250 295 349
#     4   9  17  32  56  88 123 157 194 241 293 346
#     4   9  19  36  58  83 112 151 193 240 297 356
#     4   9  17  30  53  88 126 155 191 244 296 343
#     4  11  25  43  61  84 116 152 195 246 300 359
#
# _framework density 20.510634
#
# number of rings (size 3 to 8) (size 9 to 14) (size 15 to 20)
#    0.000    2.143    1.429    1.714    0.000    8.000 
#    0.000    4.286    0.000    8.571    0.000    0.000 
#    0.000    0.000    0.000    0.000    0.000    0.000 
#
# Total GULP energy -156201.619422 kJ/mol
# GULP energy per Si atom -5578.629265 kJ/mol
# Density = 2.046395 g / cm^3
# Si number density = 20.510634 Si / 1000 Ang^3
#
#
#
# Elastic Constant Matrix: (Units=GPa)
#
#
# Indices 1 2 3 4 5 6 
#
# 1 80.1682 23.4413 15.7064 0.0000 -3.8538 0.0000
# 2 23.4413 114.5786 44.6847 0.0000 3.4619 0.0000
# 3 15.7064 44.6847 111.6260 0.0000 -22.0104 0.0000
# 4 0.0000 0.0000 0.0000 -10.8397 0.0000 20.8556
# 5 -3.8538 3.4619 -22.0104 0.0000 31.3480 0.0000
# 6 0.0000 0.0000 0.0000 20.8556 0.0000 -24.6244
#
#
#
# Elastic Compliance Matrix: (Units=1/GPa)
#
#
# Indices 1 2 3 4 5 6 
#
# 1 0.013409 -0.002575 -0.000551 0.000000 0.001546 0.000000
# 2 -0.002575 0.011470 -0.005271 0.000000 -0.005284 0.000000
# 3 -0.000551 -0.005271 0.013055 0.000000 0.009681 0.000000
# 4 0.000000 0.000000 0.000000 0.146543 0.000000 0.124114
# 5 0.001546 -0.005284 0.009681 0.000000 0.039471 0.000000
# 6 0.000000 0.000000 0.000000 0.124114 0.000000 0.064509
#
#
# Mechanical properties :
#
#
# Convention : Reuss Voigt Hill
#
# Bulk Modulus (GPa) = 47.30537 52.67084 49.98811
# Shear Modulus (GPa) = 16.01041 14.01279 15.01160
#
# Velocity S-wave (km/s) = 2.79694 2.61664 2.70829
# Velocity P-wave (km/s) = 5.79175 5.90462 5.84846
#
# Compressibility (1/GPa) = 0.02113925
#
# Stress axis : x y z
#
# Youngs Moduli (GPa) = 74.57667 87.18549 76.59961
#
# Poissons Ratio (x) = 0.22451 0.04221
# Poissons Ratio (y) = 0.19204 0.40376
# Poissons Ratio (z) = 0.04110 0.45956
#
# Static dielectric constant tensor:
#      x y z
#    x 1.756360 0.000000 0.005050 
#    y 0.000000 1.718690 0.000000 
#    z 0.005050 0.000000 1.769760 
# 
# From -- ./inp_files/28484.got.cif
#   From: 2010.05.17/outbox.cif.g08.bks.cpg/sg10_15_cif.got.tgz:28484.got - 2010.06.03 11:33:40.
