data_PCOD9147611
_publ_section_title
;
Structure prediction by ZEFSAII (Michael W. Deem and Ramdas Pophale) SiO2 
 PCOD9147611
Probable space group: P 2/M
;
_chemical_formula_sum "Si O2"
_cell_formula_units_Z 24
_cell_length_a 9.685063
_cell_length_b 7.872275
_cell_length_c 15.206195
_cell_angle_alpha 90.000000
_cell_angle_beta 98.175088
_cell_angle_gamma 90.000000
_cell_volume 1147.591840
_symmetry_space_group_name_H-M "P 2/M"
_symmetry_group_IT_number 10
_symmetry_cell_setting 'monoclinic'
loop_
_space_group_symop_operation_xyz
x,y,z
-x,y,-z
-x,-y,-z
x,-y,z
loop_
_atom_site_type_symbol
_atom_site_label
_atom_site_fract_x
_atom_site_fract_y
_atom_site_fract_z
Si Si1 0.393800 0.792368 0.913586
Si Si2 0.449860 0.206314 0.248816
Si Si3 0.873355 0.798471 0.555656
Si Si4 0.388933 0.193620 0.567345
Si Si5 0.127926 0.695885 0.243310
Si Si6 0.081325 0.198385 0.922677
O O1 0.464250 0.738664 0.828719
O O2 0.235765 0.731095 0.916123
O O3 0.389960 0.000000 0.910886
O O4 0.500000 0.742541 0.000000
O O5 0.533724 0.269552 0.341925
O O6 0.288667 0.260040 0.236271
O O7 0.447101 0.000000 0.251609
O O8 0.743105 0.722161 0.490566
O O9 0.894792 0.726797 0.654843
O O10 0.000000 0.782006 0.500000
O O11 0.845359 0.000000 0.567901
O O12 0.500000 0.180504 0.500000
O O13 0.345820 0.000000 0.589858
O O14 0.104680 0.500000 0.221650
O O15 0.019223 0.792336 0.170981
O O16 0.106001 0.000000 0.946337
O O17 0.000000 0.272961 0.000000
#
# Coordination Sequence:
#
# PCOD9147611 Si02
#       6
#     4   4   4   4   4   4
#     4   9  18  33  59  93 117 138 181 244 301 344
#     4  10  19  35  60  84 113 149 196 248 290 342
#     4  10  21  37  61  87 114 150 199 250 295 343
#     4   9  16  30  54  84 109 139 185 241 292 332
#     4  12  25  39  56  83 123 164 197 233 290 356
#     4  10  21  39  65  92 118 150 193 244 296 349
#
# _framework density 20.913359
#
# number of rings (size 3 to 8) (size 9 to 14) (size 15 to 20)
#    0.000    2.000    1.667    2.500    2.333    3.333 
#    0.000    2.500    0.000    2.000    0.000    0.000 
#    0.000    0.000    0.000    0.000    0.000    0.000 
#
# Total GULP energy -133942.247113 kJ/mol
# GULP energy per Si atom -5580.926963 kJ/mol
# Density = 2.086576 g / cm^3
# Si number density = 20.913359 Si / 1000 Ang^3
#
#
#
# Elastic Constant Matrix: (Units=GPa)
#
#
# Indices 1 2 3 4 5 6 
#
# 1 92.9072 -1.2807 70.5460 0.0000 7.8321 0.0000
# 2 -1.2807 24.9361 -11.2371 0.0000 -10.7031 0.0000
# 3 70.5460 -11.2371 155.8304 0.0000 -0.7861 0.0000
# 4 0.0000 0.0000 0.0000-2838.4978 0.0000 385.0202
# 5 7.8321 -10.7031 -0.7861 0.0000 36.4957 0.0000
# 6 0.0000 0.0000 0.0000 385.0202 0.0000 -61.1863
#
#
#
# Elastic Compliance Matrix: (Units=1/GPa)
#
#
# Indices 1 2 3 4 5 6 
#
# 1 0.017456 -0.005183 -0.008304 0.000000 -0.005445 0.000000
# 2 -0.005183 0.049264 0.005978 0.000000 0.015689 0.000000
# 3 -0.008304 0.005978 0.010627 0.000000 0.003764 0.000000
# 4 0.000000 0.000000 0.000000 -0.002405 0.000000 -0.015136
# 5 -0.005445 0.015689 0.003764 0.000000 0.033251 0.000000
# 6 0.000000 0.000000 0.000000 -0.015136 0.000000 -0.111591
#
#
# Mechanical properties :
#
#
# Convention : Reuss Voigt Hill
#
# Bulk Modulus (GPa) = 16.04369 43.30334 29.67351
# Shear Modulus (GPa) = 154.34504 -558.26130 -201.95813
#
# Velocity S-wave (km/s) = 8.60014 -16.35602 -9.83761
# Velocity P-wave (km/s) = 10.31041 18.32871 10.71534
#
# Compressibility (1/GPa) = 0.06232979
#
# Stress axis : x y z
#
# Youngs Moduli (GPa) = 57.28621 20.29877 94.10429
#
# Poissons Ratio (x) = 0.10520 0.78142
# Poissons Ratio (y) = 0.29689 -0.56254
# Poissons Ratio (z) = 0.47569 -0.12134
#
# Static dielectric constant tensor:
#      x y z
#    x 1.722060 0.000000 -0.009860 
#    y 0.000000 1.779830 0.000000 
#    z -0.009860 0.000000 1.753970 
# 
# From -- ./inp_files/60383.got.cif
#   From: 2010.05.17/outbox.cif.g08.bks.cpg/sg10_31_cif.got.tgz:60383.got - 2010.06.03 11:33:40.
