data_PCOD9147385
_publ_section_title
;
Structure prediction by ZEFSAII (Michael W. Deem and Ramdas Pophale) SiO2 
 PCOD9147385
Probable space group: P 2/M
;
_chemical_formula_sum "Si O2"
_cell_formula_units_Z 32
_cell_length_a 25.292684
_cell_length_b 7.418977
_cell_length_c 14.408564
_cell_angle_alpha 90.000000
_cell_angle_beta 149.678471
_cell_angle_gamma 90.000000
_cell_volume 1364.971970
_symmetry_space_group_name_H-M "P 2/M"
_symmetry_group_IT_number 10
_symmetry_cell_setting 'monoclinic'
loop_
_space_group_symop_operation_xyz
x,y,z
-x,y,-z
-x,-y,-z
x,-y,z
loop_
_atom_site_type_symbol
_atom_site_label
_atom_site_fract_x
_atom_site_fract_y
_atom_site_fract_z
Si Si1 0.113213 0.292676 0.186705
Si Si2 0.779753 0.707780 0.311792
Si Si3 0.400212 0.212154 0.403636
Si Si4 0.613952 0.280261 0.210506
Si Si5 0.052453 0.217241 0.291318
Si Si6 0.115712 0.718783 0.708188
Si Si7 0.827333 0.789515 0.993308
Si Si8 0.660810 0.281968 0.490480
O O1 0.106817 0.500000 0.146416
O O2 0.121029 0.288384 0.310108
O O3 0.220380 0.214626 0.310443
O O4 0.000000 0.204309 0.000000
O O5 0.747744 0.500000 0.250871
O O6 0.699409 0.786394 0.265181
O O7 0.892990 0.715811 0.532822
O O8 0.799615 0.783454 0.239766
O O9 0.500000 0.287653 0.500000
O O10 0.409534 0.230428 0.528781
O O11 0.395753 0.000000 0.373575
O O12 0.286217 0.289510 0.202533
O O13 0.621520 0.500000 0.224695
O O14 0.628734 0.219770 0.339254
O O15 0.500000 0.233013 0.000000
O O16 0.932450 0.282235 0.102815
O O17 0.054353 0.000000 0.294015
O O18 0.114884 0.500000 0.705250
O O19 0.146747 0.775236 0.858305
O O20 0.000000 0.778859 0.500000
O O21 0.823856 0.000000 0.963173
O O22 0.664931 0.500000 0.494118
#
# Coordination Sequence:
#
# PCOD9147385 Si02
#       8
#     4   4   4   4   4   4   4   4
#     4  10  20  34  54  82 114 147 181 223 280 338
#     4  10  19  35  55  77 111 148 184 226 277 335
#     4  10  23  43  62  80 110 154 195 234 285 336
#     4   9  18  34  57  83 112 145 181 225 278 334
#     4  11  21  32  52  81 112 146 185 228 279 332
#     4  10  20  33  55  85 113 148 190 232 282 336
#     4  10  22  38  56  81 114 152 192 235 286 340
#     4  10  20  36  60  88 112 143 187 232 281 332
#
# _framework density 23.443705000000001
#
# number of rings (size 3 to 8) (size 9 to 14) (size 15 to 20)
#    0.000    2.000    2.500    1.125    0.000    3.750 
#    0.000    1.250    0.000    1.500    0.000    0.000 
#    0.000    0.000    0.000    0.000    0.000    0.000 
#
# Total GULP energy -178798.427924 kJ/mol
# GULP energy per Si atom -5587.450873 kJ/mol
# Density = 2.339035 g / cm^3
# Si number density = 23.443705 Si / 1000 Ang^3
#
#
#
# Elastic Constant Matrix: (Units=GPa)
#
#
# Indices 1 2 3 4 5 6 
#
# 1 180.6539 -1.0533 53.0195 0.0000 20.4808 0.0000
# 2 -1.0533 81.8153 -0.5895 0.0000 5.0066 0.0000
# 3 53.0195 -0.5895 99.1871 0.0000 17.7637 0.0000
# 4 0.0000 0.0000 0.0000 7.2839 0.0000 -9.3288
# 5 20.4808 5.0066 17.7637 0.0000 39.9772 0.0000
# 6 0.0000 0.0000 0.0000 -9.3288 0.0000 21.7148
#
#
#
# Elastic Compliance Matrix: (Units=1/GPa)
#
#
# Indices 1 2 3 4 5 6 
#
# 1 0.006713 0.000187 -0.003224 0.000000 -0.002030 0.000000
# 2 0.000187 0.012335 0.000290 0.000000 -0.001770 0.000000
# 3 -0.003224 0.000290 0.012513 0.000000 -0.003945 0.000000
# 4 0.000000 0.000000 0.000000 0.305235 0.000000 0.131131
# 5 -0.002030 -0.001770 -0.003945 0.000000 0.028029 0.000000
# 6 0.000000 0.000000 0.000000 0.131131 0.000000 0.102387
#
#
# Mechanical properties :
#
#
# Convention : Reuss Voigt Hill
#
# Bulk Modulus (GPa) = 38.35903 51.60107 44.98005
# Shear Modulus (GPa) = 10.38650 34.48048 22.43349
#
# Velocity S-wave (km/s) = 2.10714 3.83923 3.09675
# Velocity P-wave (km/s) = 4.72416 6.45843 5.65814
#
# Compressibility (1/GPa) = 0.02606948
#
# Stress axis : x y z
#
# Youngs Moduli (GPa) = 148.96990 81.06716 79.91470
#
# Poissons Ratio (x) = -0.01519 0.25761
# Poissons Ratio (y) = -0.02792 -0.02318
# Poissons Ratio (z) = 0.48021 -0.02352
#
# Static dielectric constant tensor:
#      x y z
#    x 1.896480 0.000000 0.006320 
#    y 0.000000 1.866210 0.000000 
#    z 0.006320 0.000000 1.892090 
# 
# From -- ./inp_files/71454.got.cif
#   From: 2010.05.17/outbox.cif.g08.bks.cpg/sg10_36_cif.got.tgz:71454.got - 2010.06.03 11:33:40.
