data_PCOD9147863
_publ_section_title
;
Structure prediction by ZEFSAII (Michael W. Deem and Ramdas Pophale) SiO2 
 PCOD9147863
Probable space group: P 2/M
;
_chemical_formula_sum "Si O2"
_cell_formula_units_Z 32
_cell_length_a 16.472817
_cell_length_b 13.869928
_cell_length_c 12.070404
_cell_angle_alpha 90.000000
_cell_angle_beta 145.606140
_cell_angle_gamma 90.000000
_cell_volume 1557.826159
_symmetry_space_group_name_H-M "P 2/M"
_symmetry_group_IT_number 10
_symmetry_cell_setting 'monoclinic'
loop_
_space_group_symop_operation_xyz
x,y,z
-x,y,-z
-x,-y,-z
x,-y,z
loop_
_atom_site_type_symbol
_atom_site_label
_atom_site_fract_x
_atom_site_fract_y
_atom_site_fract_z
Si Si1 0.504170 0.703048 0.629464
Si Si2 0.002122 0.806972 0.870706
Si Si3 0.309302 0.107763 0.213639
Si Si4 0.306664 0.850902 0.469061
Si Si5 0.843340 0.275333 0.377491
Si Si6 0.639516 0.109733 0.231412
Si Si7 0.982729 0.392430 0.724537
Si Si8 0.297310 0.393123 0.968443
O O1 0.500000 0.661620 0.500000
O O2 0.591197 0.804730 0.715174
O O3 0.348447 0.738730 0.494633
O O4 0.584233 0.640033 0.809960
O O5 0.857566 0.863264 0.678533
O O6 0.990217 0.698015 0.814870
O O7 0.000000 0.804073 0.000000
O O8 0.147869 0.860192 0.000144
O O9 0.320473 0.105694 0.361181
O O10 0.343400 0.000000 0.212070
O O11 0.394692 0.883840 0.675455
O O12 0.764967 0.184727 0.343593
O O13 0.879377 0.357566 0.508655
O O14 0.733992 0.318007 0.163925
O O15 0.000000 0.251836 0.500000
O O16 0.682251 0.000000 0.254467
O O17 0.500000 0.132295 0.000000
O O18 0.944497 0.500000 0.722353
O O19 0.144034 0.397950 0.857913
O O20 0.330898 0.500000 0.963383
#
# Coordination Sequence:
#
# PCOD9147863 Si02
#       8
#     4   4   4   4   4   4   4   4
#     4  10  21  37  59  86 119 153 191 236 282 335
#     4  10  20  36  57  86 117 151 186 234 290 342
#     4  10  21  37  59  87 116 151 196 234 278 339
#     4  10  21  37  58  82 121 153 187 235 282 337
#     4  10  21  39  62  85 112 144 195 246 283 336
#     4  11  23  38  58  83 116 159 193 225 285 346
#     4  10  19  36  62  87 110 145 190 239 293 345
#     4  10  20  37  62  86 111 148 193 241 290 340
#
# _framework density 20.541446000000001
#
# number of rings (size 3 to 8) (size 9 to 14) (size 15 to 20)
#    0.000    1.875    2.500    1.500    0.000    7.750 
#    0.000    1.250    0.000    1.500    0.000    0.000 
#    0.000    0.000    0.000    0.000    0.000    0.000 
#
# Total GULP energy -178478.670164 kJ/mol
# GULP energy per Si atom -5577.458443 kJ/mol
# Density = 2.049469 g / cm^3
# Si number density = 20.541446 Si / 1000 Ang^3
#
#
#
# Elastic Constant Matrix: (Units=GPa)
#
#
# Indices 1 2 3 4 5 6 
#
# 1 33.4095 15.6831 13.9785 0.0000 -0.6454 0.0000
# 2 15.6831 70.1790 1.9911 0.0000 -3.0595 0.0000
# 3 13.9785 1.9911 93.7333 0.0000 -15.4653 0.0000
# 4 0.0000 0.0000 0.0000 -5.0281 0.0000 -3.7782
# 5 -0.6454 -3.0595 -15.4653 0.0000 26.6416 0.0000
# 6 0.0000 0.0000 0.0000 -3.7782 0.0000 11.8780
#
#
#
# Elastic Compliance Matrix: (Units=1/GPa)
#
#
# Indices 1 2 3 4 5 6 
#
# 1 0.036054 -0.008042 -0.005766 0.000000 -0.003397 0.000000
# 2 -0.008042 0.016115 0.001250 0.000000 0.002381 0.000000
# 3 -0.005766 0.001250 0.012721 0.000000 0.007388 0.000000
# 4 0.000000 0.000000 0.000000 -0.160517 0.000000 -0.051058
# 5 -0.003397 0.002381 0.007388 0.000000 0.042015 0.000000
# 6 0.000000 0.000000 0.000000 -0.051058 0.000000 0.067948
#
#
# Mechanical properties :
#
#
# Convention : Reuss Voigt Hill
#
# Bulk Modulus (GPa) = 25.14268 28.95858 27.05063
# Shear Modulus (GPa) = 94.85892 17.74291 56.30091
#
# Velocity S-wave (km/s) = 6.80291 2.94217 5.24099
# Velocity P-wave (km/s) = 8.60073 5.06656 7.05842
#
# Compressibility (1/GPa) = 0.03977300
#
# Stress axis : x y z
#
# Youngs Moduli (GPa) = 27.73655 62.05516 78.61033
#
# Poissons Ratio (x) = 0.49902 0.45330
# Poissons Ratio (y) = 0.22304 -0.09825
# Poissons Ratio (z) = 0.15994 -0.07756
#
# Static dielectric constant tensor:
#      x y z
#    x 1.758880 0.000000 0.021820 
#    y 0.000000 1.724630 0.000000 
#    z 0.021820 0.000000 1.780030 
# 
# From -- ./inp_files/54051.got.cif
#   From: 2010.05.17/outbox.cif.g08.bks.cpg/sg10_28_cif.got.tgz:54051.got - 2010.06.03 11:33:40.
