data_PCOD9147548
_publ_section_title
;
Structure prediction by ZEFSAII (Michael W. Deem and Ramdas Pophale) SiO2 
 PCOD9147548
Probable space group: P 2/M
;
_chemical_formula_sum "Si O2"
_cell_formula_units_Z 24
_cell_length_a 17.175560
_cell_length_b 7.653163
_cell_length_c 16.622613
_cell_angle_alpha 90.000000
_cell_angle_beta 144.519673
_cell_angle_gamma 90.000000
_cell_volume 1268.224290
_symmetry_space_group_name_H-M "P 2/M"
_symmetry_group_IT_number 10
_symmetry_cell_setting 'monoclinic'
loop_
_space_group_symop_operation_xyz
x,y,z
-x,y,-z
-x,-y,-z
x,-y,z
loop_
_atom_site_type_symbol
_atom_site_label
_atom_site_fract_x
_atom_site_fract_y
_atom_site_fract_z
Si Si1 0.294610 0.000000 0.882788
Si Si2 0.400580 0.000000 0.795611
Si Si3 0.613767 0.298256 0.346433
Si Si4 0.868020 0.796311 0.663476
Si Si5 0.169209 0.298659 0.880034
Si Si6 0.669833 0.288422 0.824088
Si Si7 0.857650 0.712070 0.840708
O O1 0.217952 0.830256 0.851611
O O2 0.313089 0.000000 0.802779
O O3 0.443743 0.000000 0.046586
O O4 0.374405 0.169901 0.719100
O O5 0.591760 0.500000 0.303409
O O6 0.744967 0.285871 0.511728
O O7 0.483041 0.238534 0.287327
O O8 0.846957 0.777452 0.741185
O O9 0.010488 0.713159 0.760586
O O10 0.874402 0.000000 0.647698
O O11 0.207588 0.500000 0.897159
O O12 0.241237 0.239338 0.023576
O O13 0.673479 0.500000 0.823291
O O14 0.740007 0.226778 0.801494
O O15 0.855744 0.500000 0.835521
O O16 0.000000 0.762415 0.000000
#
# Coordination Sequence:
#
# PCOD9147548 Si02
#       7
#     2   2   4   4   4   4   4
#     4  11  24  41  69 102 128 155 200 265 312 376
#     4  11  24  43  67 100 131 156 200 261 319 373
#     4  11  23  43  65  89 128 173 209 252 316 379
#     4  12  24  39  60  92 129 168 213 263 311 367
#     4  11  21  40  65  93 126 167 209 251 311 374
#     4   9  19  36  62  88 122 169 211 254 302 362
#     4  10  19  35  58  89 126 164 213 263 304 356
#
# _framework density 18.924097
#
# number of rings (size 3 to 8) (size 9 to 14) (size 15 to 20)
#    0.000    1.333    5.000    1.500    0.000    1.667 
#    3.000    6.667    0.000    2.000    0.000    0.000 
#    0.000    0.000    0.000    0.000    0.000    0.000 
#
# Total GULP energy -134124.998269 kJ/mol
# GULP energy per Si atom -5588.541595 kJ/mol
# Density = 1.888103 g / cm^3
# Si number density = 18.924097 Si / 1000 Ang^3
#
#
#
# Elastic Constant Matrix: (Units=GPa)
#
#
# Indices 1 2 3 4 5 6 
#
# 1 166.3026 46.8734 59.1034 0.0000 -3.8682 0.0000
# 2 46.8734 96.3225 14.7934 0.0000 -8.4503 0.0000
# 3 59.1034 14.7934 107.8532 0.0000 10.0301 0.0000
# 4 0.0000 0.0000 0.0000 33.4700 0.0000 -10.6340
# 5 -3.8682 -8.4503 10.0301 0.0000 28.9158 0.0000
# 6 0.0000 0.0000 0.0000 -10.6340 0.0000 20.0521
#
#
#
# Elastic Compliance Matrix: (Units=1/GPa)
#
#
# Indices 1 2 3 4 5 6 
#
# 1 0.008553 -0.003340 -0.004386 0.000000 0.001689 0.000000
# 2 -0.003340 0.012312 -0.000157 0.000000 0.003206 0.000000
# 3 -0.004386 -0.000157 0.012147 0.000000 -0.004846 0.000000
# 4 0.000000 0.000000 0.000000 0.035932 0.000000 0.019055
# 5 0.001689 0.003206 -0.004846 0.000000 0.037427 0.000000
# 6 0.000000 0.000000 0.000000 0.019055 0.000000 0.059975
#
#
# Mechanical properties :
#
#
# Convention : Reuss Voigt Hill
#
# Bulk Modulus (GPa) = 57.97918 68.00205 62.99061
# Shear Modulus (GPa) = 26.61550 33.13478 29.87514
#
# Velocity S-wave (km/s) = 3.75431 4.18895 3.97757
# Velocity P-wave (km/s) = 7.03544 7.70769 7.37923
#
# Compressibility (1/GPa) = 0.01724757
#
# Stress axis : x y z
#
# Youngs Moduli (GPa) = 116.92423 81.21838 82.32224
#
# Poissons Ratio (x) = 0.27128 0.36104
# Poissons Ratio (y) = 0.39054 0.01289
# Poissons Ratio (z) = 0.51280 0.01271
#
# Static dielectric constant tensor:
#      x y z
#    x 1.632350 0.000000 0.017620 
#    y 0.000000 1.687410 0.000000 
#    z 0.017620 0.000000 1.629700 
# 
# From -- ./inp_files/66715.got.cif
#   From: 2010.05.17/outbox.cif.g08.bks.cpg/sg10_34_cif.got.tgz:66715.got - 2010.06.03 11:33:40.
