data_PCOD9147784
_publ_section_title
;
Structure prediction by ZEFSAII (Michael W. Deem and Ramdas Pophale) SiO2 
 PCOD9147784
Probable space group: P 2/M
;
_chemical_formula_sum "Si O2"
_cell_formula_units_Z 24
_cell_length_a 12.930203
_cell_length_b 17.755525
_cell_length_c 11.385973
_cell_angle_alpha 90.000000
_cell_angle_beta 23.349187
_cell_angle_gamma 90.000000
_cell_volume 1036.024783
_symmetry_space_group_name_H-M "P 2/M"
_symmetry_group_IT_number 10
_symmetry_cell_setting 'monoclinic'
loop_
_space_group_symop_operation_xyz
x,y,z
-x,y,-z
-x,-y,-z
x,-y,z
loop_
_atom_site_type_symbol
_atom_site_label
_atom_site_fract_x
_atom_site_fract_y
_atom_site_fract_z
Si Si1 0.000000 0.639820 0.000000
Si Si2 0.142990 0.411808 0.104434
Si Si3 0.381128 0.592470 0.248481
Si Si4 0.445283 0.835708 0.329712
Si Si5 0.001512 0.170582 0.633150
Si Si6 0.500000 0.741181 0.500000
Si Si7 0.009271 0.000000 0.632811
Si Si8 0.475120 0.000000 0.668920
O O1 0.253520 0.690816 0.725679
O O2 0.943247 0.594967 0.939981
O O3 0.161417 0.500000 0.112059
O O4 0.910239 0.379686 0.425927
O O5 0.422625 0.381209 0.853103
O O6 0.366071 0.500000 0.264935
O O7 0.500000 0.614628 0.000000
O O8 0.545196 0.792131 0.340135
O O9 0.198259 0.794894 0.524676
O O10 0.396198 0.920956 0.428012
O O11 0.697972 0.834485 0.982649
O O12 0.116267 0.085162 0.525099
O O13 0.000000 0.197004 0.500000
O O14 0.000000 0.000000 0.500000
O O15 0.788723 0.000000 0.969876
O O16 0.500000 0.000000 0.500000
#
# Coordination Sequence:
#
# PCOD9147784 Si02
#       8
#     2   4   4   4   4   2   2   2
#     4  12  25  42  62  83 118 160 202 240 292 349
#     4  10  20  36  61  91 120 152 195 243 287 340
#     4   9  17  31  56  91 127 156 184 232 297 350
#     4  11  22  40  61  89 118 154 196 246 300 356
#     4  10  20  36  61  88 117 151 192 241 300 362
#     4  12  26  43  61  82 116 162 198 244 294 360
#     4   8  17  32  52  87 124 155 185 239 312 377
#     4  10  19  36  59  92 122 151 201 258 309 357
#
# _framework density 23.165468000000001
#
# number of rings (size 3 to 8) (size 9 to 14) (size 15 to 20)
#    0.000    1.833    0.833    3.750    0.000    2.000 
#    0.000   10.000    0.000   20.000    0.000    0.000 
#    0.000    0.000    0.000    0.000    0.000    0.000 
#
# Total GULP energy -133648.347765 kJ/mol
# GULP energy per Si atom -5568.681157 kJ/mol
# Density = 2.311274 g / cm^3
# Si number density = 23.165468 Si / 1000 Ang^3
#
#
#
# Elastic Constant Matrix: (Units=GPa)
#
#
# Indices 1 2 3 4 5 6 
#
# 1 119.7925 -0.0064 26.8253 0.0000 6.2213 0.0000
# 2 -0.0064 35.1797 6.3963 0.0000 -6.7425 0.0000
# 3 26.8253 6.3963 71.7674 0.0000 17.4338 0.0000
# 4 0.0000 0.0000 0.0000 8.5065 0.0000 -3.1521
# 5 6.2213 -6.7425 17.4338 0.0000 43.3219 0.0000
# 6 0.0000 0.0000 0.0000 -3.1521 0.0000 -9.8281
#
#
#
# Elastic Compliance Matrix: (Units=1/GPa)
#
#
# Indices 1 2 3 4 5 6 
#
# 1 0.009126 0.000683 -0.003524 0.000000 0.000214 0.000000
# 2 0.000683 0.030494 -0.004547 0.000000 0.006478 0.000000
# 3 -0.003524 -0.004547 0.017407 0.000000 -0.007207 0.000000
# 4 0.000000 0.000000 0.000000 0.105069 0.000000 -0.033699
# 5 0.000214 0.006478 -0.007207 0.000000 0.026961 0.000000
# 6 0.000000 0.000000 0.000000 -0.033699 0.000000 -0.090941
#
#
# Mechanical properties :
#
#
# Convention : Reuss Voigt Hill
#
# Bulk Modulus (GPa) = 23.66757 32.57445 28.12101
# Shear Modulus (GPa) = 39.37811 21.30170 30.33990
#
# Velocity S-wave (km/s) = 4.12741 3.03569 3.62291
# Velocity P-wave (km/s) = 5.74047 5.13609 5.44667
#
# Compressibility (1/GPa) = 0.04225191
#
# Stress axis : x y z
#
# Youngs Moduli (GPa) = 109.57934 32.79362 57.44843
#
# Poissons Ratio (x) = -0.02241 0.20244
# Poissons Ratio (y) = -0.07488 0.26120
# Poissons Ratio (z) = 0.38615 0.14910
#
# Static dielectric constant tensor:
#      x y z
#    x 1.969850 0.000000 -0.045460 
#    y 0.000000 1.904130 0.000000 
#    z -0.045460 0.000000 1.896500 
# 
# From -- ./inp_files/26162.got.cif
#   From: 2010.05.17/outbox.cif.g08.bks.cpg/sg10_14_cif.got.tgz:26162.got - 2010.06.03 11:33:40.
