data_PCOD9147107
_publ_section_title
;
Structure prediction by ZEFSAII (Michael W. Deem and Ramdas Pophale) SiO2 
 PCOD9147107
Probable space group: P 2/M
;
_chemical_formula_sum "Si O2"
_cell_formula_units_Z 32
_cell_length_a 25.832689
_cell_length_b 7.555379
_cell_length_c 20.363950
_cell_angle_alpha 90.000000
_cell_angle_beta 158.176971
_cell_angle_gamma 90.000000
_cell_volume 1477.502919
_symmetry_space_group_name_H-M "P 2/M"
_symmetry_group_IT_number 10
_symmetry_cell_setting 'monoclinic'
loop_
_space_group_symop_operation_xyz
x,y,z
-x,y,-z
-x,-y,-z
x,-y,z
loop_
_atom_site_type_symbol
_atom_site_label
_atom_site_fract_x
_atom_site_fract_y
_atom_site_fract_z
Si Si1 0.582851 0.288816 0.395394
Si Si2 0.912828 0.794431 0.568435
Si Si3 0.103923 0.702908 0.676493
Si Si4 0.879267 0.213506 0.677235
Si Si5 0.399319 0.286098 0.822752
Si Si6 0.078757 0.786368 0.027270
Si Si7 0.605087 0.710297 0.569641
Si Si8 0.408631 0.716842 0.071271
O O1 0.565210 0.500000 0.379303
O O2 0.729514 0.259418 0.531326
O O3 0.588937 0.216820 0.476628
O O4 0.459880 0.222401 0.203131
O O5 0.902178 0.721602 0.630059
O O6 0.757064 0.781523 0.356249
O O7 0.021051 0.703564 0.647348
O O8 0.953803 0.000000 0.619835
O O9 0.128632 0.500000 0.683194
O O10 0.000000 0.785114 0.500000
O O11 0.257315 0.779681 0.869305
O O12 0.884179 0.000000 0.680065
O O13 0.997440 0.276032 0.866993
O O14 0.391693 0.500000 0.815118
O O15 0.472910 0.232807 0.841564
O O16 0.500000 0.229445 0.000000
O O17 0.238384 0.734707 0.221063
O O18 0.071779 0.000000 0.018864
O O19 0.000000 0.723337 0.000000
O O20 0.500000 0.784746 0.500000
O O21 0.578753 0.500000 0.533904
O O22 0.403865 0.500000 0.066787
#
# Coordination Sequence:
#
# PCOD9147107 Si02
#       8
#     4   4   4   4   4   4   4   4
#     4  10  19  34  57  81 110 146 185 231 283 338
#     4  11  23  37  55  83 118 149 181 229 283 336
#     4  10  21  39  61  83 112 151 192 234 278 330
#     4  10  21  37  56  82 115 147 187 235 280 331
#     4  10  19  34  58  84 109 141 185 232 273 325
#     4  10  20  36  59  82 108 150 197 235 275 332
#     4  10  22  37  54  83 119 148 181 232 289 339
#     4   9  18  33  55  82 107 140 188 231 274 329
#
# _framework density 21.658163999999999
#
# number of rings (size 3 to 8) (size 9 to 14) (size 15 to 20)
#    0.000    2.000    2.500    1.125    0.000    5.000 
#    0.000    2.500    0.000    0.000    0.000    0.000 
#    0.000    0.000    0.000    0.000    0.000    0.000 
#
# Total GULP energy -178796.708401 kJ/mol
# GULP energy per Si atom -5587.397138 kJ/mol
# Density = 2.160887 g / cm^3
# Si number density = 21.658164 Si / 1000 Ang^3
#
#
#
# Elastic Constant Matrix: (Units=GPa)
#
#
# Indices 1 2 3 4 5 6 
#
# 1 70.8418 -4.7863 19.8682 0.0000 -5.2029 0.0000
# 2 -4.7863 52.9010 -6.0104 0.0000 -5.3983 0.0000
# 3 19.8682 -6.0104 100.7474 0.0000 -6.8596 0.0000
# 4 0.0000 0.0000 0.0000 -6.3950 0.0000 14.2743
# 5 -5.2029 -5.3983 -6.8596 0.0000 45.9796 0.0000
# 6 0.0000 0.0000 0.0000 14.2743 0.0000 35.2936
#
#
#
# Elastic Compliance Matrix: (Units=1/GPa)
#
#
# Indices 1 2 3 4 5 6 
#
# 1 0.015089 0.001192 -0.002807 0.000000 0.001429 0.000000
# 2 0.001192 0.019399 0.001098 0.000000 0.002576 0.000000
# 3 -0.002807 0.001098 0.010640 0.000000 0.001399 0.000000
# 4 0.000000 0.000000 0.000000 -0.082181 0.000000 0.033238
# 5 0.001429 0.002576 0.001399 0.000000 0.022422 0.000000
# 6 0.000000 0.000000 0.000000 0.033238 0.000000 0.014891
#
#
# Mechanical properties :
#
#
# Convention : Reuss Voigt Hill
#
# Bulk Modulus (GPa) = 22.67974 26.95927 24.81950
# Shear Modulus (GPa) = 312.67418 29.33688 171.00553
#
# Velocity S-wave (km/s) = 12.02835 3.68440 8.89539
# Velocity P-wave (km/s) = 14.26193 5.52941 10.81612
#
# Compressibility (1/GPa) = 0.04409223
#
# Stress axis : x y z
#
# Youngs Moduli (GPa) = 66.27466 51.54996 93.98375
#
# Poissons Ratio (x) = -0.06145 0.26384
# Poissons Ratio (y) = -0.07900 -0.10316
# Poissons Ratio (z) = 0.18605 -0.05658
#
# Static dielectric constant tensor:
#      x y z
#    x 1.777320 0.000000 -0.034670 
#    y 0.000000 1.844720 0.000000 
#    z -0.034670 0.000000 1.765720 
# 
# From -- ./inp_files/87040.got.cif
#   From: 2010.05.17/outbox.cif.g08.bks.cpg/sg10_44_cif.got.tgz:87040.got - 2010.06.03 11:33:40.
