data_PCOD9147113
_publ_section_title
;
Structure prediction by ZEFSAII (Michael W. Deem and Ramdas Pophale) SiO2 
 PCOD9147113
Probable space group: P 2/M
;
_chemical_formula_sum "Si O2"
_cell_formula_units_Z 28
_cell_length_a 25.867698
_cell_length_b 7.490216
_cell_length_c 9.712516
_cell_angle_alpha 90.000000
_cell_angle_beta 40.085199
_cell_angle_gamma 90.000000
_cell_volume 1211.769001
_symmetry_space_group_name_H-M "P 2/M"
_symmetry_group_IT_number 10
_symmetry_cell_setting 'monoclinic'
loop_
_space_group_symop_operation_xyz
x,y,z
-x,y,-z
-x,-y,-z
x,-y,z
loop_
_atom_site_type_symbol
_atom_site_label
_atom_site_fract_x
_atom_site_fract_y
_atom_site_fract_z
Si Si1 0.070593 0.200545 0.442479
Si Si2 0.830179 0.292345 0.005400
Si Si3 0.183325 0.784007 0.441811
Si Si4 0.501149 0.281214 0.838383
Si Si5 0.084432 0.784667 0.893630
Si Si6 0.652936 0.717558 0.349340
Si Si7 0.646978 0.710785 0.044794
O O1 0.109992 0.282700 0.495837
O O2 0.000000 0.290847 0.500000
O O3 0.041866 0.000000 0.538648
O O4 0.141824 0.191136 0.187005
O O5 0.825448 0.500000 0.975879
O O6 0.894415 0.272097 0.995746
O O7 0.740775 0.233007 0.227465
O O8 0.158841 0.728293 0.644710
O O9 0.181073 0.000000 0.440720
O O10 0.267865 0.731118 0.205231
O O11 0.500396 0.500000 0.841739
O O12 0.580445 0.223569 0.593989
O O13 0.423735 0.219810 0.909187
O O14 0.500000 0.224192 0.000000
O O15 0.081476 0.000000 0.900212
O O16 0.000000 0.723857 0.000000
O O17 0.649282 0.500000 0.355362
O O18 0.646983 0.779634 0.202101
O O19 0.632132 0.500000 0.089505
#
# Coordination Sequence:
#
# PCOD9147113 Si02
#       7
#     4   4   4   4   4   4   4
#     4  10  20  37  60  82 108 149 196 233 270 330
#     4  11  22  35  56  87 120 146 179 236 290 335
#     4  10  21  36  57  83 111 144 188 238 280 330
#     4   9  18  31  53  83 110 144 188 226 264 326
#     4  10  22  41  60  78 108 153 199 235 275 336
#     4   9  18  33  51  80 116 146 178 220 278 335
#     4  10  19  34  57  81 112 148 181 226 279 333
#
# _framework density 23.106715000000001
#
# number of rings (size 3 to 8) (size 9 to 14) (size 15 to 20)
#    0.000    2.143    1.429    1.714    2.000    5.143 
#    0.000    1.429    0.000    3.857    0.000    0.000 
#    0.000    0.000    0.000    0.000    0.000    0.000 
#
# Total GULP energy -156428.761364 kJ/mol
# GULP energy per Si atom -5586.741477 kJ/mol
# Density = 2.305412 g / cm^3
# Si number density = 23.106715 Si / 1000 Ang^3
#
#
#
# Elastic Constant Matrix: (Units=GPa)
#
#
# Indices 1 2 3 4 5 6 
#
# 1 107.1606 2.8094 28.2595 0.0000 -2.6128 0.0000
# 2 2.8094 66.6992 -2.1204 0.0000 0.5002 0.0000
# 3 28.2595 -2.1204 121.0859 0.0000 4.4470 0.0000
# 4 0.0000 0.0000 0.0000 19.9950 0.0000 -7.7471
# 5 -2.6128 0.5002 4.4470 0.0000 44.0155 0.0000
# 6 0.0000 0.0000 0.0000 -7.7471 0.0000 13.4020
#
#
#
# Elastic Compliance Matrix: (Units=1/GPa)
#
#
# Indices 1 2 3 4 5 6 
#
# 1 0.009991 -0.000502 -0.002371 0.000000 0.000838 0.000000
# 2 -0.000502 0.015028 0.000389 0.000000 -0.000240 0.000000
# 3 -0.002371 0.000389 0.008857 0.000000 -0.001040 0.000000
# 4 0.000000 0.000000 0.000000 0.064446 0.000000 0.037254
# 5 0.000838 -0.000240 -0.001040 0.000000 0.022877 0.000000
# 6 0.000000 0.000000 0.000000 0.037254 0.000000 0.096150
#
#
# Mechanical properties :
#
#
# Convention : Reuss Voigt Hill
#
# Bulk Modulus (GPa) = 34.59394 39.20473 36.89933
# Shear Modulus (GPa) = 21.55600 33.21564 27.38582
#
# Velocity S-wave (km/s) = 3.05764 3.79554 3.44639
# Velocity P-wave (km/s) = 5.24113 6.01762 5.64275
#
# Compressibility (1/GPa) = 0.02890680
#
# Stress axis : x y z
#
# Youngs Moduli (GPa) = 100.09280 66.54231 112.90473
#
# Poissons Ratio (x) = 0.03344 0.26773
# Poissons Ratio (y) = 0.05030 -0.04395
# Poissons Ratio (z) = 0.23735 -0.02590
#
# Static dielectric constant tensor:
#      x y z
#    x 1.837310 0.000000 -0.024200 
#    y 0.000000 1.916060 0.000000 
#    z -0.024200 0.000000 1.832790 
# 
# From -- ./inp_files/36956.got.cif
#   From: 2010.05.17/outbox.cif.g08.bks.cpg/sg10_19_cif.got.tgz:36956.got - 2010.06.03 11:33:40.
