data_PCOD9147956
_publ_section_title
;
Structure prediction by ZEFSAII (Michael W. Deem and Ramdas Pophale) SiO2 
 PCOD9147956
Probable space group: P 2/M
;
_chemical_formula_sum "Si O2"
_cell_formula_units_Z 23
_cell_length_a 10.610504
_cell_length_b 11.387341
_cell_length_c 12.394641
_cell_angle_alpha 90.000000
_cell_angle_beta 52.810055
_cell_angle_gamma 90.000000
_cell_volume 1193.032363
_symmetry_space_group_name_H-M "P 2/M"
_symmetry_group_IT_number 10
_symmetry_cell_setting 'monoclinic'
loop_
_space_group_symop_operation_xyz
x,y,z
-x,y,-z
-x,-y,-z
x,-y,z
loop_
_atom_site_type_symbol
_atom_site_label
_atom_site_fract_x
_atom_site_fract_y
_atom_site_fract_z
Si Si1 0.937976 0.240067 0.413776
Si Si2 0.849259 0.500000 0.896835
Si Si3 0.139258 0.500000 0.610422
Si Si4 0.244945 0.247171 0.134572
Si Si5 0.500000 0.500000 0.500000
Si Si6 0.408749 0.860349 0.443259
Si Si7 0.481762 0.756229 0.832778
Si Si8 0.611493 0.500000 0.195819
O O1 0.913154 0.380836 0.421994
O O2 0.768945 0.186309 0.473349
O O3 0.000000 0.206620 0.500000
O O4 0.072528 0.203547 0.258284
O O5 0.777162 0.385681 0.876508
O O6 0.035527 0.500000 0.774834
O O7 0.787920 0.500000 0.051495
O O8 0.326510 0.500000 0.528623
O O9 0.364899 0.227924 0.171232
O O10 0.331684 0.203135 0.981736
O O11 0.591966 0.500000 0.333692
O O12 0.500000 0.808229 0.500000
O O13 0.498655 0.824017 0.288489
O O14 0.404407 0.000000 0.454910
O O15 0.465972 0.618755 0.811236
#
# Coordination Sequence:
#
# PCOD9147956 Si02
#       8
#     4   2   2   4   1   4   4   2
#     4  11  21  39  64  93 125 157 200 252 303 360
#     4   8  17  36  52  80 132 162 191 230 301 367
#     4  10  23  34  57  91 128 159 196 243 299 362
#     4   9  18  34  60  95 118 160 194 246 303 358
#     4  12  24  30  46  86 126 170 210 230 278 348
#     4  11  26  45  63  85 122 166 204 254 313 361
#     4  10  19  37  61  89 127 153 202 243 305 364
#     4  10  21  31  56  89 120 165 192 242 294 369
#
# _framework density 19.278607000000001
#
# number of rings (size 3 to 8) (size 9 to 14) (size 15 to 20)
#    0.000    1.913    1.739    1.826    4.870    2.783 
#    0.000    3.478    0.000    2.087    0.000    0.000 
#    0.000    0.000    0.000    0.000    0.000    0.000 
#
# Total GULP energy -128092.380473 kJ/mol
# GULP energy per Si atom -5569.233934 kJ/mol
# Density = 1.923473 g / cm^3
# Si number density = 19.278607 Si / 1000 Ang^3
#
#
#
# Elastic Constant Matrix: (Units=GPa)
#
#
# Indices 1 2 3 4 5 6 
#
# 1 116.8782 17.7117 84.6961 0.0000 -4.7525 0.0000
# 2 17.7117 30.1498 25.5429 0.0000 -2.8003 0.0000
# 3 84.6961 25.5429 171.8986 0.0000 1.0690 0.0000
# 4 0.0000 0.0000 0.0000 -29.3017 0.0000 10.1316
# 5 -4.7525 -2.8003 1.0690 0.0000 35.3775 0.0000
# 6 0.0000 0.0000 0.0000 10.1316 0.0000 2.2749
#
#
#
# Elastic Compliance Matrix: (Units=1/GPa)
#
#
# Indices 1 2 3 4 5 6 
#
# 1 0.013602 -0.002441 -0.006350 0.000000 0.001826 0.000000
# 2 -0.002441 0.038742 -0.004572 0.000000 0.002877 0.000000
# 3 -0.006350 -0.004572 0.009635 0.000000 -0.001506 0.000000
# 4 0.000000 0.000000 0.000000 -0.013437 0.000000 0.059841
# 5 0.001826 0.002877 -0.001506 0.000000 0.028785 0.000000
# 6 0.000000 0.000000 0.000000 0.059841 0.000000 0.173067
#
#
# Mechanical properties :
#
#
# Convention : Reuss Voigt Hill
#
# Bulk Modulus (GPa) = 28.36677 63.86976 46.11826
# Shear Modulus (GPa) = 17.30870 14.40187 15.85528
#
# Velocity S-wave (km/s) = 2.99961 2.73617 2.87091
# Velocity P-wave (km/s) = 5.17136 6.57145 5.91299
#
# Compressibility (1/GPa) = 0.03525252
#
# Stress axis : x y z
#
# Youngs Moduli (GPa) = 73.51899 25.81155 103.78761
#
# Poissons Ratio (x) = 0.06300 0.65910
# Poissons Ratio (y) = 0.17945 0.47453
# Poissons Ratio (z) = 0.46688 0.11801
#
# Static dielectric constant tensor:
#      x y z
#    x 1.638560 0.000000 -0.013830 
#    y 0.000000 1.675870 0.000000 
#    z -0.013830 0.000000 1.708810 
# 
# From -- ./inp_files/45879.got.cif
#   From: 2010.05.17/outbox.cif.g08.bks.cpg/sg10_23_cif.got.tgz:45879.got - 2010.06.03 11:33:40.
