data_PCOD9147408
_publ_section_title
;
Structure prediction by ZEFSAII (Michael W. Deem and Ramdas Pophale) SiO2 
 PCOD9147408
Probable space group: P 2/M
;
_chemical_formula_sum "Si O2"
_cell_formula_units_Z 24
_cell_length_a 12.286742
_cell_length_b 13.991432
_cell_length_c 14.810621
_cell_angle_alpha 90.000000
_cell_angle_beta 151.256384
_cell_angle_gamma 90.000000
_cell_volume 1224.387521
_symmetry_space_group_name_H-M "P 2/M"
_symmetry_group_IT_number 10
_symmetry_cell_setting 'monoclinic'
loop_
_space_group_symop_operation_xyz
x,y,z
-x,y,-z
-x,-y,-z
x,-y,z
loop_
_atom_site_type_symbol
_atom_site_label
_atom_site_fract_x
_atom_site_fract_y
_atom_site_fract_z
Si Si1 0.781666 0.103918 0.466543
Si Si2 0.700461 0.390019 0.720953
Si Si3 0.041053 0.614812 0.820732
Si Si4 0.716070 0.137727 0.210657
Si Si5 0.650986 0.321191 0.400658
Si Si6 0.529627 0.656107 0.117848
O O1 0.734224 0.099958 0.324987
O O2 0.679724 0.206012 0.420659
O O3 0.052380 0.115693 0.671733
O O4 0.712551 0.000000 0.455472
O O5 0.500000 0.388051 0.500000
O O6 0.739854 0.500000 0.774081
O O7 0.587526 0.340845 0.724093
O O8 0.921792 0.355410 0.828391
O O9 0.085432 0.500000 0.856591
O O10 0.854046 0.634994 0.607558
O O11 0.271120 0.669113 0.963641
O O12 0.671532 0.250620 0.191614
O O13 0.500000 0.102214 0.000000
O O14 0.649710 0.369421 0.300125
O O15 0.500000 0.602506 0.000000
#
# Coordination Sequence:
#
# PCOD9147408 Si02
#       6
#     4   4   4   4   4   4
#     4  10  20  31  49  79 105 134 179 217 254 311
#     4   8  16  33  57  80  98 129 181 226 261 307
#     4  10  21  37  57  80 105 136 180 226 261 308
#     4   9  17  32  51  72 103 139 174 215 257 300
#     4  10  19  35  56  76 107 143 171 218 274 308
#     4  10  21  34  50  78 111 141 174 210 257 320
#
# _framework density 19.601637
#
# number of rings (size 3 to 8) (size 9 to 14) (size 15 to 20)
#    0.000    2.500    0.000    4.500    0.000    5.667 
#    0.000    2.500    0.000    4.500    0.000    4.667 
#    0.000    0.000    0.000    0.000    0.000    0.000 
#
# Total GULP energy -133615.681260 kJ/mol
# GULP energy per Si atom -5567.320052 kJ/mol
# Density = 1.955702 g / cm^3
# Si number density = 19.601637 Si / 1000 Ang^3
#
#
#
# Elastic Constant Matrix: (Units=GPa)
#
#
# Indices 1 2 3 4 5 6 
#
# 1 86.9447 22.5730 13.6519 0.0000 -0.9504 0.0000
# 2 22.5730 73.0331 -4.7344 0.0000 1.9466 0.0000
# 3 13.6519 -4.7344 88.6716 0.0000 -3.6450 0.0000
# 4 0.0000 0.0000 0.0000 -4.6605 0.0000 3.2406
# 5 -0.9504 1.9466 -3.6450 0.0000 30.1452 0.0000
# 6 0.0000 0.0000 0.0000 3.2406 0.0000 11.8167
#
#
#
# Elastic Compliance Matrix: (Units=1/GPa)
#
#
# Indices 1 2 3 4 5 6 
#
# 1 0.012928 -0.004149 -0.002195 0.000000 0.000410 0.000000
# 2 -0.004149 0.015091 0.001406 0.000000 -0.000935 0.000000
# 3 -0.002195 0.001406 0.011742 0.000000 0.001260 0.000000
# 4 0.000000 0.000000 0.000000 -0.180208 0.000000 0.049419
# 5 0.000410 -0.000935 0.001260 0.000000 0.033398 0.000000
# 6 0.000000 0.000000 0.000000 0.049419 0.000000 0.071073
#
#
# Mechanical properties :
#
#
# Convention : Reuss Voigt Hill
#
# Bulk Modulus (GPa) = 33.46132 34.62558 34.04345
# Shear Modulus (GPa) = -309.83993 21.93755 -143.95119
#
# Velocity S-wave (km/s) = -12.58617 3.34903 -8.57891
# Velocity P-wave (km/s) = 13.93225 5.71469 8.98471
#
# Compressibility (1/GPa) = 0.02988526
#
# Stress axis : x y z
#
# Youngs Moduli (GPa) = 77.35220 66.26530 85.16159
#
# Poissons Ratio (x) = 0.27493 0.18693
# Poissons Ratio (y) = 0.32093 -0.11974
# Poissons Ratio (z) = 0.16979 -0.09317
#
# Static dielectric constant tensor:
#      x y z
#    x 1.706060 0.000000 -0.035330 
#    y 0.000000 1.721300 0.000000 
#    z -0.035330 0.000000 1.735060 
# 
# From -- ./inp_files/65162.got.cif
#   From: 2010.05.17/outbox.cif.g08.bks.cpg/sg10_33_cif.got.tgz:65162.got - 2010.06.03 11:33:40.
