data_PCOD9147610
_publ_section_title
;
Structure prediction by ZEFSAII (Michael W. Deem and Ramdas Pophale) SiO2 
 PCOD9147610
Probable space group: P 2/M
;
_chemical_formula_sum "Si O2"
_cell_formula_units_Z 28
_cell_length_a 14.388243
_cell_length_b 7.689671
_cell_length_c 17.637545
_cell_angle_alpha 90.000000
_cell_angle_beta 40.207535
_cell_angle_gamma 90.000000
_cell_volume 1259.763474
_symmetry_space_group_name_H-M "P 2/M"
_symmetry_group_IT_number 10
_symmetry_cell_setting 'monoclinic'
loop_
_space_group_symop_operation_xyz
x,y,z
-x,y,-z
-x,-y,-z
x,-y,z
loop_
_atom_site_type_symbol
_atom_site_label
_atom_site_fract_x
_atom_site_fract_y
_atom_site_fract_z
Si Si1 0.929462 0.795573 0.303213
Si Si2 0.333410 0.207306 0.793480
Si Si3 0.180325 0.293397 0.037525
Si Si4 0.477402 0.712482 0.928555
Si Si5 0.364994 0.704091 0.316805
Si Si6 0.661760 0.212990 0.380047
Si Si7 0.947299 0.198509 0.453697
O O1 0.778275 0.722473 0.367803
O O2 0.986033 0.720695 0.347870
O O3 0.041540 0.780875 0.164977
O O4 0.906765 0.000000 0.332616
O O5 0.487606 0.275329 0.727545
O O6 0.302269 0.268678 0.727948
O O7 0.346857 0.000000 0.783081
O O8 0.211342 0.253144 0.930580
O O9 0.172916 0.500000 0.050375
O O10 0.323047 0.230374 0.992799
O O11 0.478010 0.500000 0.927688
O O12 0.595821 0.765864 0.792780
O O13 0.500000 0.771321 0.000000
O O14 0.329765 0.500000 0.336283
O O15 0.226422 0.799238 0.435646
O O16 0.500000 0.265830 0.500000
O O17 0.665834 0.000000 0.379048
O O18 0.000000 0.280820 0.500000
O O19 0.003956 0.000000 0.419470
#
# Coordination Sequence:
#
# PCOD9147610 Si02
#       7
#     4   4   4   4   4   4   4
#     4  10  21  38  58  81 113 148 189 235 278 335
#     4  10  19  35  60  84 111 146 187 233 280 329
#     4  10  21  36  55  81 116 149 185 231 282 337
#     4   8  16  31  51  74 101 138 181 223 264 317
#     4  10  20  34  55  82 111 144 184 229 279 335
#     4   9  18  34  59  86 108 144 193 233 273 328
#     4  10  22  38  56  80 113 150 186 232 286 335
#
# _framework density 22.226396999999999
#
# number of rings (size 3 to 8) (size 9 to 14) (size 15 to 20)
#    0.000    2.429    0.000    3.000    2.000    3.714 
#    0.000    4.286    0.000    5.571    0.000    0.000 
#    0.000    0.000    0.000    0.000    0.000    0.000 
#
# Total GULP energy -156360.687605 kJ/mol
# GULP energy per Si atom -5584.310272 kJ/mol
# Density = 2.217581 g / cm^3
# Si number density = 22.226397 Si / 1000 Ang^3
#
#
#
# Elastic Constant Matrix: (Units=GPa)
#
#
# Indices 1 2 3 4 5 6 
#
# 1 105.7896 3.3821 46.8930 0.0000 38.5019 0.0000
# 2 3.3821 46.8836 -5.3989 0.0000 2.8356 0.0000
# 3 46.8930 -5.3989 99.1528 0.0000 14.3738 0.0000
# 4 0.0000 0.0000 0.0000 436.6171 0.0000 -44.9131
# 5 38.5019 2.8356 14.3738 0.0000 36.2297 0.0000
# 6 0.0000 0.0000 0.0000 -44.9131 0.0000 12.0074
#
#
#
# Elastic Compliance Matrix: (Units=1/GPa)
#
#
# Indices 1 2 3 4 5 6 
#
# 1 0.018508 -0.001032 -0.006334 0.000000 -0.017075 0.000000
# 2 -0.001032 0.021700 0.001864 0.000000 -0.001341 0.000000
# 3 -0.006334 0.001864 0.012974 0.000000 0.001438 0.000000
# 4 0.000000 0.000000 0.000000 0.003723 0.000000 0.013925
# 5 -0.017075 -0.001341 0.001438 0.000000 0.045282 0.000000
# 6 0.000000 0.000000 0.000000 0.013925 0.000000 0.135366
#
#
# Mechanical properties :
#
#
# Convention : Reuss Voigt Hill
#
# Bulk Modulus (GPa) = 23.70910 37.95316 30.83113
# Shear Modulus (GPa) = 19.03932 110.76750 64.90341
#
# Velocity S-wave (km/s) = 2.92996 7.06712 5.40966
# Velocity P-wave (km/s) = 4.70494 9.14905 7.27467
#
# Compressibility (1/GPa) = 0.04217789
#
# Stress axis : x y z
#
# Youngs Moduli (GPa) = 54.03188 46.08377 77.07724
#
# Poissons Ratio (x) = 0.04755 0.48820
# Poissons Ratio (y) = 0.05575 -0.14367
# Poissons Ratio (z) = 0.34223 -0.08590
#
# Static dielectric constant tensor:
#      x y z
#    x 1.825280 0.000000 0.037230 
#    y 0.000000 1.817840 0.000000 
#    z 0.037230 0.000000 1.830930 
# 
# From -- ./inp_files/77705.got.cif
#   From: 2010.05.17/outbox.cif.g08.bks.cpg/sg10_39_cif.got.tgz:77705.got - 2010.06.03 11:33:40.
