data_PCOD9147274
_publ_section_title
;
Structure prediction by ZEFSAII (Michael W. Deem and Ramdas Pophale) SiO2 
 PCOD9147274
Probable space group: P 2/M
;
_chemical_formula_sum "Si O2"
_cell_formula_units_Z 20
_cell_length_a 13.124823
_cell_length_b 7.724898
_cell_length_c 11.253155
_cell_angle_alpha 90.000000
_cell_angle_beta 126.990793
_cell_angle_gamma 90.000000
_cell_volume 911.300705
_symmetry_space_group_name_H-M "P 2/M"
_symmetry_group_IT_number 10
_symmetry_cell_setting 'monoclinic'
loop_
_space_group_symop_operation_xyz
x,y,z
-x,y,-z
-x,-y,-z
x,-y,z
loop_
_atom_site_type_symbol
_atom_site_label
_atom_site_fract_x
_atom_site_fract_y
_atom_site_fract_z
Si Si1 0.082350 0.712219 0.674929
Si Si2 0.975355 0.303976 0.852866
Si Si3 0.374370 0.289497 0.841538
Si Si4 0.297818 0.805602 0.309075
Si Si5 0.462372 0.704588 0.642919
O O1 0.078183 0.500000 0.670755
O O2 0.231022 0.766801 0.773171
O O3 0.000000 0.766139 0.500000
O O4 0.025070 0.769970 0.762425
O O5 0.029173 0.500000 0.896594
O O6 0.822988 0.307468 0.743198
O O7 0.000000 0.221505 0.000000
O O8 0.373121 0.500000 0.851623
O O9 0.403416 0.245838 0.726077
O O10 0.500000 0.227759 0.000000
O O11 0.387888 0.800299 0.487084
O O12 0.387221 0.741489 0.264740
O O13 0.255197 0.000000 0.255428
O O14 0.444671 0.500000 0.611609
#
# Coordination Sequence:
#
# PCOD9147274 Si02
#       5
#     4   4   4   4   4
#     4   9  17  31  52  80 114 146 178 226 287 341
#     4  10  21  35  57  85 111 143 190 239 282 331
#     4   9  18  30  52  85 115 140 176 235 292 334
#     4  11  22  36  55  79 114 152 187 226 282 340
#     4  10  19  34  59  85 110 141 188 235 278 332
#
# _framework density 21.946650999999999
#
# number of rings (size 3 to 8) (size 9 to 14) (size 15 to 20)
#    0.000    2.200    0.000    4.800    2.800    3.600 
#    0.000    0.000    0.000    9.000    0.000    0.000 
#    0.000    0.000    0.000    0.000    0.000    0.000 
#
# Total GULP energy -111536.125683 kJ/mol
# GULP energy per Si atom -5576.806284 kJ/mol
# Density = 2.189670 g / cm^3
# Si number density = 21.946651 Si / 1000 Ang^3
#
#
#
# Elastic Constant Matrix: (Units=GPa)
#
#
# Indices 1 2 3 4 5 6 
#
# 1 212.0548 6.1211 85.7860 0.0000 5.1992 0.0000
# 2 6.1211 46.7552 3.6941 0.0000 -4.2351 0.0000
# 3 85.7860 3.6941 126.0252 0.0000 3.2452 0.0000
# 4 0.0000 0.0000 0.0000 5.0788 0.0000 0.1003
# 5 5.1992 -4.2351 3.2452 0.0000 34.3245 0.0000
# 6 0.0000 0.0000 0.0000 0.1003 0.0000 -7.0710
#
#
#
# Elastic Compliance Matrix: (Units=1/GPa)
#
#
# Indices 1 2 3 4 5 6 
#
# 1 0.006534 -0.000565 -0.004414 0.000000 -0.000642 0.000000
# 2 -0.000565 0.021741 -0.000325 0.000000 0.002799 0.000000
# 3 -0.004414 -0.000325 0.010960 0.000000 -0.000408 0.000000
# 4 0.000000 0.000000 0.000000 0.196842 0.000000 0.002792
# 5 -0.000642 0.002799 -0.000408 0.000000 0.029615 0.000000
# 6 0.000000 0.000000 0.000000 0.002792 0.000000 -0.141383
#
#
# Mechanical properties :
#
#
# Convention : Reuss Voigt Hill
#
# Bulk Modulus (GPa) = 34.93270 64.00418 49.46844
# Shear Modulus (GPa) = 34.61189 25.74873 30.18031
#
# Velocity S-wave (km/s) = 3.97557 3.42898 3.71235
# Velocity P-wave (km/s) = 6.08483 6.70105 6.40036
#
# Compressibility (1/GPa) = 0.02862648
#
# Stress axis : x y z
#
# Youngs Moduli (GPa) = 153.05425 45.99577 91.24219
#
# Poissons Ratio (x) = 0.02598 0.40278
# Poissons Ratio (y) = 0.08644 0.02965
# Poissons Ratio (z) = 0.67564 0.01495
#
# Static dielectric constant tensor:
#      x y z
#    x 1.808220 0.000000 0.020110 
#    y 0.000000 1.812760 0.000000 
#    z 0.020110 0.000000 1.888450 
# 
# From -- ./inp_files/45374.got.cif
#   From: 2010.05.17/outbox.cif.g08.bks.cpg/sg10_23_cif.got.tgz:45374.got - 2010.06.03 11:33:40.
