data_PCOD9147482
_publ_section_title
;
Structure prediction by ZEFSAII (Michael W. Deem and Ramdas Pophale) SiO2 
 PCOD9147482
Probable space group: P 2/M
;
_chemical_formula_sum "Si O2"
_cell_formula_units_Z 18
_cell_length_a 9.757212
_cell_length_b 12.680901
_cell_length_c 7.831607
_cell_angle_alpha 90.000000
_cell_angle_beta 71.118605
_cell_angle_gamma 90.000000
_cell_volume 916.864839
_symmetry_space_group_name_H-M "P 2/M"
_symmetry_group_IT_number 10
_symmetry_cell_setting 'monoclinic'
loop_
_space_group_symop_operation_xyz
x,y,z
-x,y,-z
-x,-y,-z
x,-y,z
loop_
_atom_site_type_symbol
_atom_site_label
_atom_site_fract_x
_atom_site_fract_y
_atom_site_fract_z
Si Si1 0.808826 0.876568 0.385621
Si Si2 0.000000 0.273421 0.500000
Si Si3 0.433643 0.378322 0.207697
Si Si4 0.128177 0.382381 0.160330
Si Si5 0.000000 0.790021 0.000000
Si Si6 0.500000 0.229797 0.500000
O O1 0.645571 0.838499 0.413630
O O2 0.867811 0.806851 0.520365
O O3 0.810761 0.000000 0.423906
O O4 0.920895 0.854247 0.182795
O O5 0.001523 0.349492 0.662495
O O6 0.480408 0.500000 0.220509
O O7 0.263943 0.378954 0.232491
O O8 0.475216 0.304271 0.345941
O O9 0.500000 0.343859 0.000000
O O10 0.119673 0.500000 0.092460
O O11 0.122343 0.290162 0.024371
#
# Coordination Sequence:
#
# PCOD9147482 Si02
#       6
#     4   2   4   4   2   2
#     4  11  23  40  62  85 118 160 210 259 305 355
#     4  10  20  38  58  84 114 156 196 246 300 362
#     4  10  21  37  59  89 127 164 198 245 308 379
#     4  10  19  35  57  88 119 151 192 243 303 369
#     4  10  22  38  62  88 120 162 200 254 312 368
#     4  12  22  40  64  92 124 160 210 256 312 360
#
# _framework density 19.632117999999998
#
# number of rings (size 3 to 8) (size 9 to 14) (size 15 to 20)
#    0.000    1.556    2.222    3.333    0.000    0.000 
#    0.000    2.222    0.000    2.667    0.000    0.000 
#    0.000    0.000    0.000    0.000    0.000    0.000 
#
# Total GULP energy -100324.222192 kJ/mol
# GULP energy per Si atom -5573.567900 kJ/mol
# Density = 1.958743 g / cm^3
# Si number density = 19.632118 Si / 1000 Ang^3
#
#
#
# Elastic Constant Matrix: (Units=GPa)
#
#
# Indices 1 2 3 4 5 6 
#
# 1 84.0859 24.9330 -2.9374 0.0000 0.5965 0.0000
# 2 24.9330 79.6386 20.8835 0.0000 -6.5654 0.0000
# 3 -2.9374 20.8835 56.3869 0.0000 -5.6918 0.0000
# 4 0.0000 0.0000 0.0000 24.7345 0.0000 -8.8157
# 5 0.5965 -6.5654 -5.6918 0.0000 23.0849 0.0000
# 6 0.0000 0.0000 0.0000 -8.8157 0.0000 28.7840
#
#
#
# Elastic Compliance Matrix: (Units=1/GPa)
#
#
# Indices 1 2 3 4 5 6 
#
# 1 0.013450 -0.004939 0.002413 0.000000 -0.001157 0.000000
# 2 -0.004939 0.015894 -0.005819 0.000000 0.003213 0.000000
# 3 0.002413 -0.005819 0.020349 0.000000 0.003300 0.000000
# 4 0.000000 0.000000 0.000000 0.045383 0.000000 0.013900
# 5 -0.001157 0.003213 0.003300 0.000000 0.045076 0.000000
# 6 0.000000 0.000000 0.000000 0.013900 0.000000 0.038998
#
#
# Mechanical properties :
#
#
# Convention : Reuss Voigt Hill
#
# Bulk Modulus (GPa) = 30.30167 33.98551 32.14359
# Shear Modulus (GPa) = 24.17319 27.13618 25.65469
#
# Velocity S-wave (km/s) = 3.51281 3.72187 3.61885
# Velocity P-wave (km/s) = 5.64990 5.98486 5.81979
#
# Compressibility (1/GPa) = 0.03300148
#
# Stress axis : x y z
#
# Youngs Moduli (GPa) = 74.35174 62.91729 49.14321
#
# Poissons Ratio (x) = 0.31074 -0.11858
# Poissons Ratio (y) = 0.36722 0.28599
# Poissons Ratio (z) = -0.17941 0.36614
#
# Static dielectric constant tensor:
#      x y z
#    x 1.868750 0.000000 -0.106880 
#    y 0.000000 1.663120 0.000000 
#    z -0.106880 0.000000 1.766660 
# 
# From -- ./inp_files/17793.got.cif
#   From: 2010.05.17/outbox.cif.g08.bks.cpg/sg10_9_cif.got.tgz:17793.got - 2010.06.03 11:33:40.
