data_PCOD9147142
_publ_section_title
;
Structure prediction by ZEFSAII (Michael W. Deem and Ramdas Pophale) SiO2 
 PCOD9147142
Probable space group: P 2/M
;
_chemical_formula_sum "Si O2"
_cell_formula_units_Z 32
_cell_length_a 20.501119
_cell_length_b 9.410379
_cell_length_c 25.493104
_cell_angle_alpha 90.000000
_cell_angle_beta 22.789254
_cell_angle_gamma 90.000000
_cell_volume 1905.034099
_symmetry_space_group_name_H-M "P 2/M"
_symmetry_group_IT_number 10
_symmetry_cell_setting 'monoclinic'
loop_
_space_group_symop_operation_xyz
x,y,z
-x,y,-z
-x,-y,-z
x,-y,z
loop_
_atom_site_type_symbol
_atom_site_label
_atom_site_fract_x
_atom_site_fract_y
_atom_site_fract_z
Si Si1 0.666628 0.163577 0.839234
Si Si2 0.358462 0.330035 0.867750
Si Si3 0.153309 0.169653 0.847824
Si Si4 0.040625 0.331000 0.829818
Si Si5 0.817042 0.670250 0.391066
Si Si6 0.529959 0.668277 0.098392
Si Si7 0.855518 0.331887 0.784170
Si Si8 0.481967 0.829874 0.673342
O O1 0.610902 0.243714 0.827896
O O2 0.808486 0.243512 0.767590
O O3 0.709286 0.000000 0.798054
O O4 0.500000 0.167840 0.000000
O O5 0.376879 0.500000 0.844647
O O6 0.445498 0.297105 0.858865
O O7 0.433799 0.240682 0.764437
O O8 0.159019 0.299868 0.020673
O O9 0.328212 0.199993 0.747343
O O10 0.131316 0.248112 0.809193
O O11 0.140612 0.000000 0.849232
O O12 0.000000 0.212475 0.000000
O O13 0.059575 0.500000 0.823844
O O14 0.114850 0.297241 0.717681
O O15 0.784570 0.500000 0.417719
O O16 0.651812 0.758525 0.526656
O O17 0.966574 0.702123 0.321296
O O18 0.495119 0.500000 0.119380
O O19 0.708121 0.693387 0.936512
O O20 0.851054 0.500000 0.775420
O O21 0.497928 0.000000 0.666352
#
# Coordination Sequence:
#
# PCOD9147142 Si02
#       8
#     4   4   4   4   4   4   4   4
#     4   9  17  27  42  73 112 143 175 216 260 309
#     4  10  19  34  57  83 108 137 179 228 272 316
#     4  10  21  38  56  77 109 146 181 220 267 323
#     4  10  20  35  59  86 107 135 180 229 273 317
#     4  10  21  38  57  81 112 142 179 226 273 321
#     4   9  16  29  51  78 106 137 176 220 266 317
#     4   9  16  30  52  75 104 142 177 215 265 319
#     4  11  24  39  55  78 109 146 184 219 267 329
#
# _framework density 16.797599000000002
#
# number of rings (size 3 to 8) (size 9 to 14) (size 15 to 20)
#    0.000    2.250    2.500    0.750    0.000    4.750 
#    0.000    2.500    0.000    0.750    0.000    5.250 
#    0.000    0.000    0.000    0.000    0.000    0.000 
#
# Total GULP energy -178535.683766 kJ/mol
# GULP energy per Si atom -5579.240118 kJ/mol
# Density = 1.675937 g / cm^3
# Si number density = 16.797599 Si / 1000 Ang^3
#
#
#
# Elastic Constant Matrix: (Units=GPa)
#
#
# Indices 1 2 3 4 5 6 
#
# 1 168.4064 87.4796 70.5727 0.0000 -15.7099 0.0000
# 2 87.4796 64.4317 61.2696 0.0000 -8.6981 0.0000
# 3 70.5727 61.2696 102.4318 0.0000 -6.5054 0.0000
# 4 0.0000 0.0000 0.0000 23.2560 0.0000 -5.0920
# 5 -15.7099 -8.6981 -6.5054 0.0000 20.1339 0.0000
# 6 0.0000 0.0000 0.0000 -5.0920 0.0000 -3.1676
#
#
#
# Elastic Compliance Matrix: (Units=1/GPa)
#
#
# Indices 1 2 3 4 5 6 
#
# 1 0.022016 -0.035185 0.006129 0.000000 0.003958 0.000000
# 2 -0.035185 0.093809 -0.031690 0.000000 0.002833 0.000000
# 3 0.006129 -0.031690 0.024431 0.000000 -0.001015 0.000000
# 4 0.000000 0.000000 0.000000 0.031805 0.000000 -0.051128
# 5 0.003958 0.002833 -0.001015 0.000000 0.053652 0.000000
# 6 0.000000 0.000000 0.000000 -0.051128 0.000000 -0.233508
#
#
# Mechanical properties :
#
#
# Convention : Reuss Voigt Hill
#
# Bulk Modulus (GPa) = 53.29620 85.99041 69.64330
# Shear Modulus (GPa) = 41.68316 15.77432 28.72874
#
# Velocity S-wave (km/s) = 4.98687 3.06777 4.14005
# Velocity P-wave (km/s) = 8.05951 7.99071 8.02519
#
# Compressibility (1/GPa) = 0.01876306
#
# Stress axis : x y z
#
# Youngs Moduli (GPa) = 45.42174 10.65996 40.93140
#
# Poissons Ratio (x) = 0.37507 -0.25087
# Poissons Ratio (y) = 1.59816 1.29713
# Poissons Ratio (z) = -0.27839 0.33782
#
# Static dielectric constant tensor:
#      x y z
#    x 1.547420 0.000000 -0.002970 
#    y 0.000000 1.555230 0.000000 
#    z -0.002970 0.000000 1.548240 
# 
# From -- ./inp_files/93594.got.cif
#   From: 2010.05.17/outbox.cif.g08.bks.cpg/sg10_47_cif.got.tgz:93594.got - 2010.06.03 11:33:40.
