data_PCOD9147852
_publ_section_title
;
Structure prediction by ZEFSAII (Michael W. Deem and Ramdas Pophale) SiO2 
 PCOD9147852
Probable space group: P 2/M
;
_chemical_formula_sum "Si O2"
_cell_formula_units_Z 28
_cell_length_a 13.971494
_cell_length_b 13.265558
_cell_length_c 7.417751
_cell_angle_alpha 90.000000
_cell_angle_beta 112.677917
_cell_angle_gamma 90.000000
_cell_volume 1268.512963
_symmetry_space_group_name_H-M "P 2/M"
_symmetry_group_IT_number 10
_symmetry_cell_setting 'monoclinic'
loop_
_space_group_symop_operation_xyz
x,y,z
-x,y,-z
-x,-y,-z
x,-y,z
loop_
_atom_site_type_symbol
_atom_site_label
_atom_site_fract_x
_atom_site_fract_y
_atom_site_fract_z
Si Si1 0.475403 0.830683 0.279274
Si Si2 0.466640 0.611509 0.767224
Si Si3 0.747783 0.887274 0.818410
Si Si4 0.855391 0.686891 0.015436
Si Si5 0.761763 0.672829 0.302155
Si Si6 0.302422 0.887136 0.647993
Si Si7 0.934112 0.386688 0.706971
O O1 0.500000 0.865407 0.500000
O O2 0.478313 0.708847 0.277967
O O3 0.361567 0.870870 0.157351
O O4 0.573972 0.868466 0.238460
O O5 0.489082 0.500000 0.709700
O O6 0.342925 0.631930 0.682061
O O7 0.500000 0.612505 0.000000
O O8 0.723109 0.877865 0.585579
O O9 0.786496 0.000000 0.879079
O O10 0.822361 0.797860 0.930600
O O11 0.775146 0.643594 0.103521
O O12 0.967413 0.685111 0.193644
O O13 0.868179 0.623288 0.842947
O O14 0.754974 0.794210 0.302021
O O15 0.859883 0.637826 0.488156
O O16 0.275040 0.000000 0.685356
O O17 0.975013 0.500000 0.720328
#
# Coordination Sequence:
#
# PCOD9147852 Si02
#       7
#     4   4   4   4   4   4   4
#     4   9  18  33  56  85 120 158 204 246 289 351
#     4  10  21  36  53  83 125 162 198 244 298 356
#     4  10  19  36  61  90 124 161 202 248 304 362
#     4  11  23  40  64  92 122 153 202 260 308 356
#     4  11  22  40  65  90 125 162 203 252 302 363
#     4   9  18  35  60  90 125 163 201 247 298 356
#     4  11  25  45  65  90 119 155 208 257 307 364
#
# _framework density 22.073089
#
# number of rings (size 3 to 8) (size 9 to 14) (size 15 to 20)
#    0.000    1.857    1.429    3.000    0.000    5.429 
#    0.000    3.571    0.000    6.429    0.000    0.000 
#    0.000    0.000    0.000    0.000    0.000    0.000 
#
# Total GULP energy -156537.537363 kJ/mol
# GULP energy per Si atom -5590.626334 kJ/mol
# Density = 2.202285 g / cm^3
# Si number density = 22.073089 Si / 1000 Ang^3
#
#
#
# Elastic Constant Matrix: (Units=GPa)
#
#
# Indices 1 2 3 4 5 6 
#
# 1 37.8173 11.9682 12.5878 0.0000 -1.2079 0.0000
# 2 11.9682 109.6778 22.0511 0.0000 26.4848 0.0000
# 3 12.5878 22.0511 78.1554 0.0000 10.6108 0.0000
# 4 0.0000 0.0000 0.0000 3738.7342 0.0000 -750.3916
# 5 -1.2079 26.4848 10.6108 0.0000 39.4243 0.0000
# 6 0.0000 0.0000 0.0000 -750.3916 0.0000 166.0769
#
#
#
# Elastic Compliance Matrix: (Units=1/GPa)
#
#
# Indices 1 2 3 4 5 6 
#
# 1 0.029077 -0.003342 -0.004324 0.000000 0.004300 0.000000
# 2 -0.003342 0.011629 -0.001732 0.000000 -0.007449 0.000000
# 3 -0.004324 -0.001732 0.014365 0.000000 -0.002835 0.000000
# 4 0.000000 0.000000 0.000000 0.002872 0.000000 0.012976
# 5 0.004300 -0.007449 -0.002835 0.000000 0.031264 0.000000
# 6 0.000000 0.000000 0.000000 0.012976 0.000000 0.064650
#
#
# Mechanical properties :
#
#
# Convention : Reuss Voigt Hill
#
# Bulk Modulus (GPa) = 27.56624 35.42942 31.49783
# Shear Modulus (GPa) = 27.06440 800.78331 413.92386
#
# Velocity S-wave (km/s) = 3.50541 19.06764 13.70880
# Velocity P-wave (km/s) = 5.37583 22.37973 16.27501
#
# Compressibility (1/GPa) = 0.03627626
#
# Stress axis : x y z
#
# Youngs Moduli (GPa) = 34.39122 85.99112 69.61376
#
# Poissons Ratio (x) = 0.28737 0.30102
# Poissons Ratio (y) = 0.11493 0.12054
# Poissons Ratio (z) = 0.14871 0.14890
#
# Static dielectric constant tensor:
#      x y z
#    x 1.837110 0.000000 -0.038940 
#    y 0.000000 1.787220 0.000000 
#    z -0.038940 0.000000 1.818400 
# 
# From -- ./inp_files/28672.got.cif
#   From: 2010.05.17/outbox.cif.g08.bks.cpg/sg10_15_cif.got.tgz:28672.got - 2010.06.03 11:33:40.
