data_PCOD9147585
_publ_section_title
;
Structure prediction by ZEFSAII (Michael W. Deem and Ramdas Pophale) SiO2 
 PCOD9147585
Probable space group: P 2/M
;
_chemical_formula_sum "Si O2"
_cell_formula_units_Z 28
_cell_length_a 10.178748
_cell_length_b 8.011418
_cell_length_c 30.128612
_cell_angle_alpha 90.000000
_cell_angle_beta 146.873825
_cell_angle_gamma 90.000000
_cell_volume 1342.643806
_symmetry_space_group_name_H-M "P 2/M"
_symmetry_group_IT_number 10
_symmetry_cell_setting 'monoclinic'
loop_
_space_group_symop_operation_xyz
x,y,z
-x,y,-z
-x,-y,-z
x,-y,z
loop_
_atom_site_type_symbol
_atom_site_label
_atom_site_fract_x
_atom_site_fract_y
_atom_site_fract_z
Si Si1 0.296381 0.301660 0.858534
Si Si2 0.596774 0.699514 0.434697
Si Si3 0.176044 0.704291 0.010461
Si Si4 0.507422 0.700742 0.693796
Si Si5 0.055316 0.800891 0.621062
Si Si6 0.037895 0.295601 0.871807
Si Si7 0.916653 0.197984 0.678751
O O1 0.328880 0.500000 0.872744
O O2 0.546010 0.238572 0.908321
O O3 0.227862 0.237966 0.888258
O O4 0.071847 0.273061 0.762632
O O5 0.578724 0.500000 0.428796
O O6 0.577025 0.762233 0.378444
O O7 0.843979 0.745324 0.528265
O O8 0.364764 0.766766 0.394830
O O9 0.172160 0.500000 0.011131
O O10 0.000000 0.762281 0.000000
O O11 0.089380 0.754355 0.936762
O O12 0.518895 0.500000 0.694684
O O13 0.773556 0.759822 0.781493
O O14 0.310793 0.746798 0.674437
O O15 0.004485 0.735148 0.656112
O O16 0.047739 0.000000 0.620945
O O17 0.041570 0.500000 0.872491
O O18 0.954548 0.000000 0.690863
#
# Coordination Sequence:
#
# PCOD9147585 Si02
#       7
#     4   4   4   4   4   4   4
#     4  10  19  35  59  85 115 152 194 237 287 341
#     4  11  22  40  63  89 114 146 197 246 293 345
#     4   9  18  30  53  90 121 147 184 234 289 343
#     4  10  21  37  59  87 118 150 193 244 290 341
#     4  11  25  40  56  83 119 158 196 236 293 350
#     4   9  17  33  54  83 119 150 184 235 290 339
#     4  11  24  40  58  83 119 157 196 240 288 346
#
# _framework density 20.854378000000001
#
# number of rings (size 3 to 8) (size 9 to 14) (size 15 to 20)
#    0.000    1.857    1.429    2.571    2.000    8.571 
#    0.000    0.000    0.000    3.000    0.000    0.000 
#    0.000    0.000    0.000    0.000    0.000    0.000 
#
# Total GULP energy -156445.786243 kJ/mol
# GULP energy per Si atom -5587.349509 kJ/mol
# Density = 2.080691 g / cm^3
# Si number density = 20.854378 Si / 1000 Ang^3
#
#
#
# Elastic Constant Matrix: (Units=GPa)
#
#
# Indices 1 2 3 4 5 6 
#
# 1 806.2302 -180.5967 340.2492 0.0000 -137.4641 0.0000
# 2 -180.5967 65.1420 -91.0376 0.0000 45.0293 0.0000
# 3 340.2492 -91.0376 219.0165 0.0000 -60.8696 0.0000
# 4 0.0000 0.0000 0.0000 -22.6237 0.0000 1.2457
# 5 -137.4641 45.0293 -60.8696 0.0000 72.4250 0.0000
# 6 0.0000 0.0000 0.0000 1.2457 0.0000 35.4250
#
#
#
# Elastic Compliance Matrix: (Units=1/GPa)
#
#
# Indices 1 2 3 4 5 6 
#
# 1 0.004624 0.005451 -0.004462 0.000000 0.001636 0.000000
# 2 0.005451 0.055713 0.010358 0.000000 -0.015588 0.000000
# 3 -0.004462 0.010358 0.015214 0.000000 -0.002123 0.000000
# 4 0.000000 0.000000 0.000000 -0.044116 0.000000 0.001551
# 5 0.001636 -0.015588 -0.002123 0.000000 0.024820 0.000000
# 6 0.000000 0.000000 0.000000 0.001551 0.000000 0.028174
#
#
# Mechanical properties :
#
#
# Convention : Reuss Voigt Hill
#
# Bulk Modulus (GPa) = 10.17891 136.40206 73.29048
# Shear Modulus (GPa) = 52.91938 85.16350 69.04144
#
# Velocity S-wave (km/s) = 5.04289 6.39733 5.76006
# Velocity P-wave (km/s) = 6.22890 10.95978 8.91392
#
# Compressibility (1/GPa) = 0.09824239
#
# Stress axis : x y z
#
# Youngs Moduli (GPa) = 216.28532 17.94916 65.73072
#
# Poissons Ratio (x) = -0.09784 0.29331
# Poissons Ratio (y) = -1.17892 -0.68083
# Poissons Ratio (z) = 0.96514 -0.18591
#
# Static dielectric constant tensor:
#      x y z
#    x 1.751150 0.000000 -0.003200 
#    y 0.000000 1.746500 0.000000 
#    z -0.003200 0.000000 1.728970 
# 
# From -- ./inp_files/37058.got.cif
#   From: 2010.05.17/outbox.cif.g08.bks.cpg/sg10_19_cif.got.tgz:37058.got - 2010.06.03 11:33:40.
