data_PCOD9147007
_publ_section_title
;
Structure prediction by ZEFSAII (Michael W. Deem and Ramdas Pophale) SiO2 
 PCOD9147007
Probable space group: P 2/M
;
_chemical_formula_sum "Si O2"
_cell_formula_units_Z 16
_cell_length_a 8.033449
_cell_length_b 5.559433
_cell_length_c 20.214273
_cell_angle_alpha 90.000000
_cell_angle_beta 118.834408
_cell_angle_gamma 90.000000
_cell_volume 790.866734
_symmetry_space_group_name_H-M "P 2/M"
_symmetry_group_IT_number 10
_symmetry_cell_setting 'monoclinic'
loop_
_space_group_symop_operation_xyz
x,y,z
-x,y,-z
-x,-y,-z
x,-y,z
loop_
_atom_site_type_symbol
_atom_site_label
_atom_site_fract_x
_atom_site_fract_y
_atom_site_fract_z
Si Si1 0.035343 0.000000 0.318576
Si Si2 0.940651 0.500000 0.911118
Si Si3 0.314486 0.500000 0.560204
Si Si4 0.753762 0.000000 0.142507
Si Si5 0.345517 0.500000 0.912886
Si Si6 0.478150 0.000000 0.416126
Si Si7 0.940353 0.000000 0.911832
Si Si8 0.989664 0.500000 0.608112
O O1 0.260875 0.000000 0.352134
O O2 0.992697 0.250596 0.348423
O O3 0.914864 0.000000 0.228751
O O4 0.837516 0.249891 0.877436
O O5 0.133680 0.500000 0.904670
O O6 0.000000 0.500000 0.000000
O O7 0.427529 0.250375 0.588736
O O8 0.149946 0.500000 0.583016
O O9 0.213072 0.500000 0.468642
O O10 0.638693 0.750921 0.123146
O O11 0.864986 0.000000 0.093354
O O12 0.500000 0.500000 0.000000
O O13 0.500000 0.000000 0.500000
O O14 0.000000 0.000000 0.000000
#
# Coordination Sequence:
#
# PCOD9147007 Si02
#       8
#     2   2   2   2   2   2   2   2
#     4  12  23  37  61  87 125 164 203 255 314 368
#     4   8  14  25  45  70  94 120 158 209 257 311
#     4  11  22  38  60  87 122 158 216 262 294 356
#     4  10  21  35  54  84 114 148 188 240 307 365
#     4  10  19  34  56  79 106 136 186 236 286 346
#     4  12  21  37  60  93 124 155 211 267 300 344
#     4   8  14  27  48  70  97 128 168 217 260 328
#     4  11  22  38  60  87 118 170 206 249 310 366
#
# _framework density 20.230968000000001
#
# number of rings (size 3 to 8) (size 9 to 14) (size 15 to 20)
#    0.000    1.750    2.500    3.000    0.000    2.000 
#    0.000    0.000    0.000   36.000    0.000    0.000 
#    0.000    0.000    0.000    0.000    0.000    0.000 
#
# Total GULP energy -89207.626427 kJ/mol
# GULP energy per Si atom -5575.476652 kJ/mol
# Density = 2.018492 g / cm^3
# Si number density = 20.230968 Si / 1000 Ang^3
#
#
#
# Elastic Constant Matrix: (Units=GPa)
#
#
# Indices 1 2 3 4 5 6 
#
# 1 41.7257 39.4460 19.5106 0.0000 2.3914 0.0000
# 2 39.4460 274.4098 45.6209 0.0000 11.8610 0.0000
# 3 19.5106 45.6209 82.6470 0.0000 24.8346 0.0000
# 4 0.0000 0.0000 0.0000 15.0844 0.0000 3.4931
# 5 2.3914 11.8610 24.8346 0.0000 22.8690 0.0000
# 6 0.0000 0.0000 0.0000 3.4931 0.0000 15.7497
#
#
#
# Elastic Compliance Matrix: (Units=1/GPa)
#
#
# Indices 1 2 3 4 5 6 
#
# 1 0.030184 -0.003426 -0.007155 0.000000 0.006390 0.000000
# 2 -0.003426 0.004405 -0.001550 0.000000 -0.000244 0.000000
# 3 -0.007155 -0.001550 0.021045 0.000000 -0.021302 0.000000
# 4 0.000000 0.000000 0.000000 0.069883 0.000000 -0.015499
# 5 0.006390 -0.000244 -0.021302 0.000000 0.066318 0.000000
# 6 0.000000 0.000000 0.000000 -0.015499 0.000000 0.066931
#
#
# Mechanical properties :
#
#
# Convention : Reuss Voigt Hill
#
# Bulk Modulus (GPa) = 31.87370 67.54860 49.71115
# Shear Modulus (GPa) = 17.03678 30.35431 23.69554
#
# Velocity S-wave (km/s) = 2.90507 3.87769 3.42607
# Velocity P-wave (km/s) = 5.20016 7.31504 6.34632
#
# Compressibility (1/GPa) = 0.03137383
#
# Stress axis : x y z
#
# Youngs Moduli (GPa) = 33.13045 227.02788 47.51708
#
# Poissons Ratio (x) = 0.77770 0.33997
# Poissons Ratio (y) = 0.11349 0.07363
# Poissons Ratio (z) = 0.23704 0.35178
#
# Static dielectric constant tensor:
#      x y z
#    x 1.694310 0.000000 -0.029180 
#    y 0.000000 1.848330 0.000000 
#    z -0.029180 0.000000 1.666260 
# 
# From -- ./inp_files/81548.got.cif
#   From: 2010.05.17/outbox.cif.g08.bks.cpg/sg10_41_cif.got.tgz:81548.got - 2010.06.03 11:33:40.
