data_PCOD9147094
_publ_section_title
;
Structure prediction by ZEFSAII (Michael W. Deem and Ramdas Pophale) SiO2 
 PCOD9147094
Probable space group: P 2/M
;
_chemical_formula_sum "Si O2"
_cell_formula_units_Z 16
_cell_length_a 8.018013
_cell_length_b 19.805165
_cell_length_c 9.402949
_cell_angle_alpha 90.000000
_cell_angle_beta 147.484911
_cell_angle_gamma 90.000000
_cell_volume 802.611360
_symmetry_space_group_name_H-M "P 2/M"
_symmetry_group_IT_number 10
_symmetry_cell_setting 'monoclinic'
loop_
_space_group_symop_operation_xyz
x,y,z
-x,y,-z
-x,-y,-z
x,-y,z
loop_
_atom_site_type_symbol
_atom_site_label
_atom_site_fract_x
_atom_site_fract_y
_atom_site_fract_z
Si Si1 0.566773 0.280714 0.881637
Si Si2 0.369434 0.852867 0.246826
Si Si3 0.369527 0.000000 0.247266
Si Si4 0.803935 0.353834 0.617458
Si Si5 0.132066 0.500000 0.254527
O O1 0.921690 0.306760 0.126153
O O2 0.500000 0.276957 0.000000
O O3 0.530906 0.208656 0.779939
O O4 0.329266 0.330379 0.629738
O O5 0.500000 0.845223 0.500000
O O6 0.459958 0.926990 0.250506
O O7 0.000000 0.851248 0.000000
O O8 0.500000 0.000000 0.500000
O O9 0.000000 0.000000 0.000000
O O10 0.500000 0.350336 0.500000
O O11 0.939390 0.429852 0.718783
O O12 0.500000 0.500000 0.500000
O O13 0.000000 0.500000 0.000000
#
# Coordination Sequence:
#
# PCOD9147094 Si02
#       5
#     4   4   2   4   2
#     4  12  24  37  54  85 120 149 182 228 278 330
#     4  10  19  34  57  80 106 144 187 227 271 325
#     4   8  16  30  51  80 105 132 181 234 269 312
#     4  11  22  40  62  83 108 146 190 231 275 330
#     4  10  20  36  61  88 107 134 187 242 275 318
#
# _framework density 19.934927999999999
#
# number of rings (size 3 to 8) (size 9 to 14) (size 15 to 20)
#    0.000    1.500    0.000    8.250    0.000    0.000 
#    0.000    4.375    0.000    0.000    0.000   14.000 
#    0.000    0.000    0.000    0.000    0.000    0.000 
#
# Total GULP energy -89328.035081 kJ/mol
# GULP energy per Si atom -5583.002193 kJ/mol
# Density = 1.988955 g / cm^3
# Si number density = 19.934928 Si / 1000 Ang^3
#
#
#
# Elastic Constant Matrix: (Units=GPa)
#
#
# Indices 1 2 3 4 5 6 
#
# 1 50.8280 50.4729 26.1314 0.0000 -19.5796 0.0000
# 2 50.4729 201.3120 65.1168 0.0000 -30.4303 0.0000
# 3 26.1314 65.1168 173.9014 0.0000 -16.6635 0.0000
# 4 0.0000 0.0000 0.0000 33.9822 0.0000 -2.1871
# 5 -19.5796 -30.4303 -16.6635 0.0000 35.4022 0.0000
# 6 0.0000 0.0000 0.0000 -2.1871 0.0000 -5.3254
#
#
#
# Elastic Compliance Matrix: (Units=1/GPa)
#
#
# Indices 1 2 3 4 5 6 
#
# 1 0.030122 -0.005372 -0.001425 0.000000 0.011370 0.000000
# 2 -0.005372 0.007223 -0.001662 0.000000 0.002455 0.000000
# 3 -0.001425 -0.001662 0.006676 0.000000 0.000925 0.000000
# 4 0.000000 0.000000 0.000000 0.028669 0.000000 -0.011774
# 5 0.011370 0.002455 0.000925 0.000000 0.037081 0.000000
# 6 0.000000 0.000000 0.000000 -0.011774 0.000000 -0.182942
#
#
# Mechanical properties :
#
#
# Convention : Reuss Voigt Hill
#
# Bulk Modulus (GPa) = 36.89868 78.83151 57.86509
# Shear Modulus (GPa) = -105.89138 31.76648 -37.06245
#
# Velocity S-wave (km/s) = -7.29615 3.99621 -4.31649
# Velocity P-wave (km/s) = 7.24077 7.80533 2.06088
#
# Compressibility (1/GPa) = 0.02710124
#
# Stress axis : x y z
#
# Youngs Moduli (GPa) = 33.19863 138.44412 149.80006
#
# Poissons Ratio (x) = 0.74378 0.21347
# Poissons Ratio (y) = 0.17836 0.24899
# Poissons Ratio (z) = 0.04731 0.23011
#
# Static dielectric constant tensor:
#      x y z
#    x 1.668860 0.000000 0.011870 
#    y 0.000000 1.805720 0.000000 
#    z 0.011870 0.000000 1.664980 
# 
# From -- ./inp_files/14670.got.cif
#   From: 2010.05.17/outbox.cif.g08.bks.cpg/sg10_8_cif.got.tgz:14670.got - 2010.06.03 11:33:40.
