data_PCOD9147462
_publ_section_title
;
Structure prediction by ZEFSAII (Michael W. Deem and Ramdas Pophale) SiO2 
 PCOD9147462
Probable space group: P 2/M
;
_chemical_formula_sum "Si O2"
_cell_formula_units_Z 28
_cell_length_a 5.183306
_cell_length_b 16.223571
_cell_length_c 19.872057
_cell_angle_alpha 90.000000
_cell_angle_beta 71.150800
_cell_angle_gamma 90.000000
_cell_volume 1581.459564
_symmetry_space_group_name_H-M "P 2/M"
_symmetry_group_IT_number 10
_symmetry_cell_setting 'monoclinic'
loop_
_space_group_symop_operation_xyz
x,y,z
-x,y,-z
-x,-y,-z
x,-y,z
loop_
_atom_site_type_symbol
_atom_site_label
_atom_site_fract_x
_atom_site_fract_y
_atom_site_fract_z
Si Si1 0.122824 0.698638 0.178490
Si Si2 0.589256 0.404263 0.196858
Si Si3 0.690174 0.500000 0.546926
Si Si4 0.887776 0.241184 0.338910
Si Si5 0.186986 0.179598 0.050568
Si Si6 0.812128 0.000000 0.950145
Si Si7 0.812873 0.097752 0.450562
Si Si8 0.355243 0.345043 0.355724
O O1 0.415282 0.654509 0.162425
O O2 0.124866 0.755253 0.113012
O O3 0.890536 0.629808 0.186351
O O4 0.040365 0.750441 0.253098
O O5 0.590557 0.500000 0.177160
O O6 0.428150 0.390724 0.280026
O O7 0.500000 0.500000 0.500000
O O8 0.636143 0.416577 0.591408
O O9 0.000000 0.500000 0.500000
O O10 0.876252 0.155107 0.380454
O O11 0.585496 0.276697 0.351627
O O12 0.063120 0.302510 0.371278
O O13 0.500000 0.185200 0.000000
O O14 0.139389 0.088421 0.086627
O O15 0.000000 0.188425 0.000000
O O16 0.500000 0.000000 0.000000
O O17 0.000000 0.000000 0.000000
O O18 0.500000 0.110409 0.500000
O O19 0.000000 0.117869 0.500000
O O20 0.850488 0.000000 0.432347
#
# Coordination Sequence:
#
# PCOD9147462 Si02
#       8
#     4   4   2   4   4   2   4   4
#     4  10  21  34  56  87 104 139 187 221 270 314
#     4  10  19  36  58  74 104 140 183 225 260 319
#     4  12  24  34  48  76 110 136 172 216 272 332
#     4  10  21  36  56  79 107 134 185 229 260 318
#     4  10  19  35  57  81 116 147 176 216 266 326
#     4   8  16  30  52  78 104 144 176 198 250 324
#     4  10  21  37  57  78 105 144 183 217 267 327
#     4  10  21  36  52  74 103 140 173 221 271 314
#
# _framework density 17.705164
#
# number of rings (size 3 to 8) (size 9 to 14) (size 15 to 20)
#    0.000    2.000    0.714    3.000    0.000    3.429 
#    1.286    0.000    0.000    8.571    0.000    0.000 
#    0.000    0.000    0.000    0.000    0.000    0.000 
#
# Total GULP energy -156091.495238 kJ/mol
# GULP energy per Si atom -5574.696258 kJ/mol
# Density = 1.766487 g / cm^3
# Si number density = 17.705164 Si / 1000 Ang^3
#
#
#
# Elastic Constant Matrix: (Units=GPa)
#
#
# Indices 1 2 3 4 5 6 
#
# 1 93.5264 6.4670 10.6886 0.0000 15.8227 0.0000
# 2 6.4670 94.5682 48.7684 0.0000 19.0078 0.0000
# 3 10.6886 48.7684 58.3989 0.0000 18.2360 0.0000
# 4 0.0000 0.0000 0.0000 35.3403 0.0000 11.7406
# 5 15.8227 19.0078 18.2360 0.0000 22.2773 0.0000
# 6 0.0000 0.0000 0.0000 11.7406 0.0000 22.8954
#
#
#
# Elastic Compliance Matrix: (Units=1/GPa)
#
#
# Indices 1 2 3 4 5 6 
#
# 1 0.012249 0.001226 -0.000299 0.000000 -0.009502 0.000000
# 2 0.001226 0.018997 -0.014449 0.000000 -0.005253 0.000000
# 3 -0.000299 -0.014449 0.034026 0.000000 -0.015313 0.000000
# 4 0.000000 0.000000 0.000000 0.034107 0.000000 -0.017490
# 5 -0.009502 -0.005253 -0.015313 0.000000 0.068654 0.000000
# 6 0.000000 0.000000 0.000000 -0.017490 0.000000 0.052645
#
#
# Mechanical properties :
#
#
# Convention : Reuss Voigt Hill
#
# Bulk Modulus (GPa) = 26.15768 42.03793 34.09780
# Shear Modulus (GPa) = 19.19642 28.14056 23.66849
#
# Velocity S-wave (km/s) = 3.29633 3.99105 3.66021
# Velocity P-wave (km/s) = 5.41238 6.71065 6.09618
#
# Compressibility (1/GPa) = 0.03822969
#
# Stress axis : x y z
#
# Youngs Moduli (GPa) = 81.63929 52.63858 29.38916
#
# Poissons Ratio (x) = -0.06455 0.00879
# Poissons Ratio (y) = -0.10011 0.42464
# Poissons Ratio (z) = 0.02441 0.76057
#
# Static dielectric constant tensor:
#      x y z
#    x 1.605710 0.000000 0.003830 
#    y 0.000000 1.537720 0.000000 
#    z 0.003830 0.000000 1.580570 
# 
# From -- ./inp_files/13507.got.cif
#   From: 2010.05.17/outbox.cif.g08.bks.cpg/sg10_7_cif.got.tgz:13507.got - 2010.06.03 11:33:40.
