data_PCOD9147881
_publ_section_title
;
Structure prediction by ZEFSAII (Michael W. Deem and Ramdas Pophale) SiO2 
 PCOD9147881
Probable space group: P 2/M
;
_chemical_formula_sum "Si O2"
_cell_formula_units_Z 32
_cell_length_a 14.765049
_cell_length_b 7.952885
_cell_length_c 12.773885
_cell_angle_alpha 90.000000
_cell_angle_beta 89.847511
_cell_angle_gamma 90.000000
_cell_volume 1499.964771
_symmetry_space_group_name_H-M "P 2/M"
_symmetry_group_IT_number 10
_symmetry_cell_setting 'monoclinic'
loop_
_space_group_symop_operation_xyz
x,y,z
-x,y,-z
-x,-y,-z
x,-y,z
loop_
_atom_site_type_symbol
_atom_site_label
_atom_site_fract_x
_atom_site_fract_y
_atom_site_fract_z
Si Si1 0.844605 0.299164 0.300867
Si Si2 0.675504 0.800432 0.889140
Si Si3 0.281683 0.303839 0.886994
Si Si4 0.703766 0.195681 0.458405
Si Si5 0.230163 0.205798 0.322138
Si Si6 0.483039 0.806594 0.838855
Si Si7 0.971456 0.203013 0.616496
Si Si8 0.475410 0.693005 0.615038
O O1 0.833344 0.500000 0.308649
O O2 0.786684 0.236250 0.201271
O O3 0.800699 0.215366 0.403826
O O4 0.950113 0.256325 0.303500
O O5 0.728675 0.734648 0.787588
O O6 0.571911 0.734180 0.895245
O O7 0.664502 0.000000 0.872855
O O8 0.725885 0.773306 0.997773
O O9 0.262561 0.500000 0.896835
O O10 0.386811 0.281010 0.854237
O O11 0.709404 0.255081 0.577841
O O12 0.633448 0.299420 0.389810
O O13 0.677471 0.000000 0.455085
O O14 0.127653 0.261165 0.346493
O O15 0.229414 0.000000 0.321958
O O16 0.506598 0.795254 0.715234
O O17 0.468544 0.000000 0.870664
O O18 0.000000 0.264104 0.500000
O O19 0.968792 0.000000 0.612251
O O20 0.500000 0.760425 0.500000
O O21 0.505905 0.500000 0.623726
#
# Coordination Sequence:
#
# PCOD9147881 Si02
#       8
#     4   4   4   4   4   4   4   4
#     4  11  23  38  57  86 120 152 191 241 296 349
#     4  10  22  40  61  86 116 151 198 249 294 346
#     4  11  24  41  60  83 118 158 198 245 296 350
#     4  11  20  35  60  85 115 154 195 239 292 350
#     4   9  19  37  60  88 120 150 189 246 298 347
#     4  11  22  37  60  87 114 151 202 251 292 344
#     4  10  19  36  62  90 118 152 194 238 292 356
#     4  11  23  36  51  80 123 162 195 237 291 353
#
# _framework density 21.333835000000001
#
# number of rings (size 3 to 8) (size 9 to 14) (size 15 to 20)
#    0.000    1.500    2.500    3.000    0.000    6.250 
#    0.000    2.500    0.000    3.750    0.000    0.000 
#    0.000    0.000    0.000    0.000    0.000    0.000 
#
# Total GULP energy -178828.129928 kJ/mol
# GULP energy per Si atom -5588.379060 kJ/mol
# Density = 2.128528 g / cm^3
# Si number density = 21.333835 Si / 1000 Ang^3
#
#
#
# Elastic Constant Matrix: (Units=GPa)
#
#
# Indices 1 2 3 4 5 6 
#
# 1 89.2960 3.5496 36.4542 0.0000 13.8066 0.0000
# 2 3.5496 32.5356 3.3423 0.0000 -0.7885 0.0000
# 3 36.4542 3.3423 132.2918 0.0000 12.6877 0.0000
# 4 0.0000 0.0000 0.0000 11.9062 0.0000 7.2973
# 5 13.8066 -0.7885 12.6877 0.0000 28.7171 0.0000
# 6 0.0000 0.0000 0.0000 7.2973 0.0000 25.2868
#
#
#
# Elastic Compliance Matrix: (Units=1/GPa)
#
#
# Indices 1 2 3 4 5 6 
#
# 1 0.013316 -0.001251 -0.003154 0.000000 -0.005043 0.000000
# 2 -0.001251 0.030976 -0.000603 0.000000 0.001718 0.000000
# 3 -0.003154 -0.000603 0.008667 0.000000 -0.002329 0.000000
# 4 0.000000 0.000000 0.000000 0.102038 0.000000 -0.029446
# 5 -0.005043 0.001718 -0.002329 0.000000 0.038323 0.000000
# 6 0.000000 0.000000 0.000000 -0.029446 0.000000 0.048044
#
#
# Mechanical properties :
#
#
# Convention : Reuss Voigt Hill
#
# Bulk Modulus (GPa) = 23.28676 37.86839 30.57757
# Shear Modulus (GPa) = 18.81872 27.23384 23.02628
#
# Velocity S-wave (km/s) = 2.97325 3.57677 3.28888
# Velocity P-wave (km/s) = 4.76719 5.90310 5.36529
#
# Compressibility (1/GPa) = 0.04294286
#
# Stress axis : x y z
#
# Youngs Moduli (GPa) = 75.09912 32.28345 115.38305
#
# Poissons Ratio (x) = 0.04039 0.36392
# Poissons Ratio (y) = 0.09395 0.06954
# Poissons Ratio (z) = 0.23686 0.01946
#
# Static dielectric constant tensor:
#      x y z
#    x 1.816080 0.000000 -0.012140 
#    y 0.000000 1.743670 0.000000 
#    z -0.012140 0.000000 1.780760 
# 
# From -- ./inp_files/49973.got.cif
#   From: 2010.05.17/outbox.cif.g08.bks.cpg/sg10_25_cif.got.tgz:49973.got - 2010.06.03 11:33:40.
