data_PCOD9147776
_publ_section_title
;
Structure prediction by ZEFSAII (Michael W. Deem and Ramdas Pophale) SiO2 
 PCOD9147776
Probable space group: P 2/M
;
_chemical_formula_sum "Si O2"
_cell_formula_units_Z 32
_cell_length_a 23.446988
_cell_length_b 7.680327
_cell_length_c 14.546579
_cell_angle_alpha 90.000000
_cell_angle_beta 147.006780
_cell_angle_gamma 90.000000
_cell_volume 1426.452323
_symmetry_space_group_name_H-M "P 2/M"
_symmetry_group_IT_number 10
_symmetry_cell_setting 'monoclinic'
loop_
_space_group_symop_operation_xyz
x,y,z
-x,y,-z
-x,-y,-z
x,-y,z
loop_
_atom_site_type_symbol
_atom_site_label
_atom_site_fract_x
_atom_site_fract_y
_atom_site_fract_z
Si Si1 0.804848 0.787435 0.452950
Si Si2 0.403963 0.210844 0.935018
Si Si3 0.989863 0.213627 0.380587
Si Si4 0.262185 0.791833 0.436386
Si Si5 0.404528 0.802723 0.315621
Si Si6 0.906920 0.297613 0.938007
Si Si7 0.493741 0.699735 0.250527
Si Si8 0.177248 0.797382 0.985307
O O1 0.704681 0.732964 0.257300
O O2 0.910677 0.732098 0.545978
O O3 0.788826 0.729851 0.536463
O O4 0.804630 0.000000 0.454641
O O5 0.403720 0.000000 0.937826
O O6 0.500000 0.265280 0.000000
O O7 0.428475 0.276055 0.069440
O O8 0.000000 0.268510 0.500000
O O9 0.886061 0.274723 0.186949
O O10 0.802014 0.000000 0.008676
O O11 0.199129 0.718369 0.264635
O O12 0.385168 0.748954 0.602224
O O13 0.252166 0.000000 0.418603
O O14 0.500000 0.718285 0.500000
O O15 0.442858 0.808875 0.263011
O O16 0.392602 0.000000 0.338717
O O17 0.290153 0.717991 0.161645
O O18 0.930021 0.500000 0.986593
O O19 0.892744 0.211095 0.017697
O O20 0.000000 0.224634 0.000000
O O21 0.489950 0.500000 0.274506
O O22 0.011393 0.000000 0.621237
#
# Coordination Sequence:
#
# PCOD9147776 Si02
#       8
#     4   4   4   4   4   4   4   4
#     4   9  18  32  55  84 116 152 192 246 302 348
#     4  10  19  36  59  84 115 155 203 251 299 352
#     4   9  18  32  54  88 120 146 190 250 303 348
#     4  11  21  38  62  88 117 154 203 253 298 356
#     4  10  22  40  62  88 117 155 205 254 300 359
#     4  11  24  40  60  89 125 162 196 239 303 365
#     4  12  25  38  57  88 124 158 194 241 308 378
#     4  10  21  38  62  90 118 156 205 257 304 350
#
# _framework density 22.433278999999999
#
# number of rings (size 3 to 8) (size 9 to 14) (size 15 to 20)
#    0.000    1.750    1.250    3.375    1.750    4.000 
#    0.000    0.000    0.000    1.125    0.000    0.000 
#    0.000    0.000    0.000    0.000    0.000    0.000 
#
# Total GULP energy -178920.468987 kJ/mol
# GULP energy per Si atom -5591.264656 kJ/mol
# Density = 2.238222 g / cm^3
# Si number density = 22.433279 Si / 1000 Ang^3
#
#
#
# Elastic Constant Matrix: (Units=GPa)
#
#
# Indices 1 2 3 4 5 6 
#
# 1 96.9929 -1.0508 41.8467 0.0000 -7.5110 0.0000
# 2 -1.0508 51.0357 -0.6417 0.0000 3.7053 0.0000
# 3 41.8467 -0.6417 148.3425 0.0000 -9.4927 0.0000
# 4 0.0000 0.0000 0.0000 5.4088 0.0000 4.7174
# 5 -7.5110 3.7053 -9.4927 0.0000 41.6262 0.0000
# 6 0.0000 0.0000 0.0000 4.7174 0.0000 0.2712
#
#
#
# Elastic Compliance Matrix: (Units=1/GPa)
#
#
# Indices 1 2 3 4 5 6 
#
# 1 0.011818 0.000102 -0.003245 0.000000 0.001383 0.000000
# 2 0.000102 0.019723 -0.000055 0.000000 -0.001750 0.000000
# 3 -0.003245 -0.000055 0.007732 0.000000 0.001183 0.000000
# 4 0.000000 0.000000 0.000000 -0.013046 0.000000 0.226939
# 5 0.001383 -0.001750 0.001183 0.000000 0.024698 0.000000
# 6 0.000000 0.000000 0.000000 0.226939 0.000000 -0.260201
#
#
# Mechanical properties :
#
#
# Convention : Reuss Voigt Hill
#
# Bulk Modulus (GPa) = 30.41706 41.85325 36.13515
# Shear Modulus (GPa) = -26.05247 26.54238 0.24496
#
# Velocity S-wave (km/s) = -3.41153 3.44346 0.33080
# Velocity P-wave (km/s) = 1.38914 5.87428 4.03593
#
# Compressibility (1/GPa) = 0.03287629
#
# Stress axis : x y z
#
# Youngs Moduli (GPa) = 84.61491 50.70329 129.33316
#
# Poissons Ratio (x) = -0.00518 0.41967
# Poissons Ratio (y) = -0.00864 0.00717
# Poissons Ratio (z) = 0.27457 0.00281
#
# Static dielectric constant tensor:
#      x y z
#    x 1.842760 0.000000 -0.022730 
#    y 0.000000 1.855950 0.000000 
#    z -0.022730 0.000000 1.849870 
# 
# From -- ./inp_files/71618.got.cif
#   From: 2010.05.17/outbox.cif.g08.bks.cpg/sg10_36_cif.got.tgz:71618.got - 2010.06.03 11:33:40.
