data_PCOD9147478
_publ_section_title
;
Structure prediction by ZEFSAII (Michael W. Deem and Ramdas Pophale) SiO2 
 PCOD9147478
Probable space group: P 2/M
;
_chemical_formula_sum "Si O2"
_cell_formula_units_Z 32
_cell_length_a 16.465992
_cell_length_b 8.946392
_cell_length_c 12.351137
_cell_angle_alpha 90.000000
_cell_angle_beta 90.846648
_cell_angle_gamma 90.000000
_cell_volume 1819.262409
_symmetry_space_group_name_H-M "P 2/M"
_symmetry_group_IT_number 10
_symmetry_cell_setting 'monoclinic'
loop_
_space_group_symop_operation_xyz
x,y,z
-x,y,-z
-x,-y,-z
x,-y,z
loop_
_atom_site_type_symbol
_atom_site_label
_atom_site_fract_x
_atom_site_fract_y
_atom_site_fract_z
Si Si1 0.733384 0.677368 0.423907
Si Si2 0.375230 0.177984 0.753096
Si Si3 0.711407 0.322083 0.855793
Si Si4 0.536382 0.821464 0.881548
Si Si5 0.124771 0.322009 0.746892
Si Si6 0.233383 0.822635 0.923901
Si Si7 0.211410 0.822081 0.355786
Si Si8 0.036379 0.678544 0.381550
O O1 0.729779 0.500000 0.442132
O O2 0.658108 0.733198 0.350369
O O3 0.813224 0.708326 0.351429
O O4 0.742827 0.762315 0.536551
O O5 0.465656 0.214038 0.794208
O O6 0.313225 0.208296 0.851420
O O7 0.370447 0.000000 0.731771
O O8 0.715903 0.500000 0.850597
O O9 0.618457 0.267722 0.864338
O O10 0.749996 0.249990 0.750007
O O11 0.757165 0.262317 0.963458
O O12 0.553471 0.000000 0.876808
O O13 0.500000 0.791867 0.000000
O O14 0.129553 0.500000 0.768192
O O15 0.158111 0.233218 0.850366
O O16 0.034344 0.285943 0.705792
O O17 0.229763 0.000000 0.942130
O O18 0.118464 0.767699 0.364329
O O19 0.215895 0.000000 0.350601
O O20 0.053451 0.500000 0.376825
O O21 0.000000 0.708173 0.500000
#
# Coordination Sequence:
#
# PCOD9147478 Si02
#       8
#     4   4   4   4   4   4   4   4
#     4  10  19  35  57  84 118 153 191 235 287 340
#     4   9  18  33  57  87 118 151 187 233 287 340
#     4  12  25  40  59  84 117 155 197 239 290 347
#     4  10  19  37  61  87 119 152 190 237 289 341
#     4   9  18  33  57  87 118 151 187 233 287 340
#     4  10  19  35  57  84 118 153 191 235 287 340
#     4  12  25  40  59  84 117 155 197 239 290 347
#     4  10  19  37  61  87 119 152 190 237 289 341
#
# _framework density 17.589545999999999
#
# number of rings (size 3 to 8) (size 9 to 14) (size 15 to 20)
#    0.000    1.750    2.500    3.000    0.000    2.500 
#    0.000    1.250    0.000    7.500    0.000    0.000 
#    0.000    0.000    0.000    0.000    0.000    0.000 
#
# Total GULP energy -178754.247200 kJ/mol
# GULP energy per Si atom -5586.070225 kJ/mol
# Density = 1.754951 g / cm^3
# Si number density = 17.589546 Si / 1000 Ang^3
#
#
#
# Elastic Constant Matrix: (Units=GPa)
#
#
# Indices 1 2 3 4 5 6 
#
# 1 82.3013 67.2524 77.3913 0.0000 15.4024 0.0000
# 2 67.2524 111.8922 98.6626 0.0000 7.0977 0.0000
# 3 77.3913 98.6626 148.1931 0.0000 13.6261 0.0000
# 4 0.0000 0.0000 0.0000 30.4493 0.0000 4.7334
# 5 15.4024 7.0977 13.6261 0.0000 24.5227 0.0000
# 6 0.0000 0.0000 0.0000 4.7334 0.0000 31.8885
#
#
#
# Elastic Compliance Matrix: (Units=1/GPa)
#
#
# Indices 1 2 3 4 5 6 
#
# 1 0.030239 -0.010792 -0.007532 0.000000 -0.011684 0.000000
# 2 -0.010792 0.025573 -0.011943 0.000000 0.006013 0.000000
# 3 -0.007532 -0.011943 0.018842 0.000000 -0.002282 0.000000
# 4 0.000000 0.000000 0.000000 0.033617 0.000000 -0.004990
# 5 -0.011684 0.006013 -0.002282 0.000000 0.047645 0.000000
# 6 0.000000 0.000000 0.000000 -0.004990 0.000000 0.032100
#
#
# Mechanical properties :
#
#
# Convention : Reuss Voigt Hill
#
# Bulk Modulus (GPa) = 70.82070 92.11104 81.46587
# Shear Modulus (GPa) = 19.74285 23.97744 21.86015
#
# Velocity S-wave (km/s) = 3.35389 3.69611 3.52915
# Velocity P-wave (km/s) = 7.43965 8.40807 7.93864
#
# Compressibility (1/GPa) = 0.01412016
#
# Stress axis : x y z
#
# Youngs Moduli (GPa) = 33.07028 39.10419 53.07171
#
# Poissons Ratio (x) = 0.42201 0.39976
# Poissons Ratio (y) = 0.35689 0.63381
# Poissons Ratio (z) = 0.24910 0.46700
#
# Static dielectric constant tensor:
#      x y z
#    x 1.585940 0.000000 0.011360 
#    y 0.000000 1.584670 0.000000 
#    z 0.011360 0.000000 1.579910 
# 
# From -- ./inp_files/49902.got.cif
#   From: 2010.05.17/outbox.cif.g08.bks.cpg/sg10_25_cif.got.tgz:49902.got - 2010.06.03 11:33:40.
