data_PCOD9147820
_publ_section_title
;
Structure prediction by ZEFSAII (Michael W. Deem and Ramdas Pophale) SiO2 
 PCOD9147820
Probable space group: P 2/M
;
_chemical_formula_sum "Si O2"
_cell_formula_units_Z 28
_cell_length_a 15.537687
_cell_length_b 7.989438
_cell_length_c 21.049142
_cell_angle_alpha 90.000000
_cell_angle_beta 148.438476
_cell_angle_gamma 90.000000
_cell_volume 1367.672728
_symmetry_space_group_name_H-M "P 2/M"
_symmetry_group_IT_number 10
_symmetry_cell_setting 'monoclinic'
loop_
_space_group_symop_operation_xyz
x,y,z
-x,y,-z
-x,-y,-z
x,-y,z
loop_
_atom_site_type_symbol
_atom_site_label
_atom_site_fract_x
_atom_site_fract_y
_atom_site_fract_z
Si Si1 0.051909 0.692544 0.829295
Si Si2 0.231486 0.000000 0.872186
Si Si3 0.735313 0.688145 0.303245
Si Si4 0.764859 0.188100 0.572820
Si Si5 0.571315 0.300136 0.613462
Si Si6 0.600529 0.000000 0.153481
Si Si7 0.084459 0.689395 0.452605
Si Si8 0.072931 0.296659 0.113722
O O1 0.110142 0.500000 0.857614
O O2 0.145558 0.833857 0.847319
O O3 0.862817 0.701393 0.685560
O O4 0.043706 0.737657 0.898780
O O5 0.259323 0.000000 0.813613
O O6 0.419145 0.000000 0.012493
O O7 0.669749 0.500000 0.253666
O O8 0.791523 0.710904 0.410973
O O9 0.903660 0.701193 0.368409
O O10 0.621340 0.834283 0.207978
O O11 0.585942 0.256255 0.442483
O O12 0.874342 0.190900 0.578546
O O13 0.753889 0.000000 0.590552
O O14 0.500000 0.238721 0.500000
O O15 0.588238 0.500000 0.618868
O O16 0.743359 0.235751 0.750618
O O17 0.102517 0.500000 0.438722
O O18 0.083138 0.500000 0.116062
O O19 0.000000 0.237793 0.000000
#
# Coordination Sequence:
#
# PCOD9147820 Si02
#       8
#     4   2   4   4   4   2   4   4
#     4  11  22  42  67  89 123 161 206 264 312 365
#     4  11  26  44  59  95 116 157 215 257 307 371
#     4   9  20  38  61  88 119 160 202 248 310 375
#     4  12  23  34  57  93 126 156 204 255 309 369
#     4  10  19  36  60  87 120 158 202 253 311 365
#     4  11  24  41  64  82 126 160 203 261 305 372
#     4   9  19  36  58  88 121 156 204 249 304 374
#     4   9  19  39  66  91 119 166 215 253 311 379
#
# _framework density 20.472735
#
# number of rings (size 3 to 8) (size 9 to 14) (size 15 to 20)
#    0.000    1.857    2.143    3.000    2.000    3.143 
#    3.857    1.786    0.000    0.000    0.000    0.000 
#    0.000    0.000    0.000    0.000    0.000    0.000 
#
# Total GULP energy -156196.047265 kJ/mol
# GULP energy per Si atom -5578.430259 kJ/mol
# Density = 2.042614 g / cm^3
# Si number density = 20.472735 Si / 1000 Ang^3
#
#
#
# Elastic Constant Matrix: (Units=GPa)
#
#
# Indices 1 2 3 4 5 6 
#
# 1 69.7075 27.6639 25.1960 0.0000 -6.3115 0.0000
# 2 27.6639 92.8402 38.8463 0.0000 -11.6200 0.0000
# 3 25.1960 38.8463 89.0152 0.0000 -5.3621 0.0000
# 4 0.0000 0.0000 0.0000 22.9155 0.0000 4.4645
# 5 -6.3115 -11.6200 -5.3621 0.0000 23.1734 0.0000
# 6 0.0000 0.0000 0.0000 4.4645 0.0000 33.2490
#
#
#
# Elastic Compliance Matrix: (Units=1/GPa)
#
#
# Indices 1 2 3 4 5 6 
#
# 1 0.017075 -0.003485 -0.003182 0.000000 0.002167 0.000000
# 2 -0.003485 0.014577 -0.005062 0.000000 0.005189 0.000000
# 3 -0.003182 -0.005062 0.014339 0.000000 -0.000087 0.000000
# 4 0.000000 0.000000 0.000000 0.044811 0.000000 -0.006017
# 5 0.002167 0.005189 -0.000087 0.000000 0.046325 0.000000
# 6 0.000000 0.000000 0.000000 -0.006017 0.000000 0.030884
#
#
# Mechanical properties :
#
#
# Convention : Reuss Voigt Hill
#
# Bulk Modulus (GPa) = 44.38114 48.33059 46.35586
# Shear Modulus (GPa) = 25.12810 26.52471 25.82640
#
# Velocity S-wave (km/s) = 3.50722 3.60337 3.55562
# Velocity P-wave (km/s) = 6.17463 6.40085 6.28875
#
# Compressibility (1/GPa) = 0.02253209
#
# Stress axis : x y z
#
# Youngs Moduli (GPa) = 58.56500 68.59895 69.74188
#
# Poissons Ratio (x) = 0.23910 0.22189
# Poissons Ratio (y) = 0.20413 0.35307
# Poissons Ratio (z) = 0.18633 0.34728
#
# Static dielectric constant tensor:
#      x y z
#    x 1.793590 0.000000 0.016220 
#    y 0.000000 1.722130 0.000000 
#    z 0.016220 0.000000 1.734000 
# 
# From -- ./inp_files/85005.got.cif
#   From: 2010.05.17/outbox.cif.g08.bks.cpg/sg10_43_cif.got.tgz:85005.got - 2010.06.03 11:33:40.
