data_PCOD9147203
_publ_section_title
;
Structure prediction by ZEFSAII (Michael W. Deem and Ramdas Pophale) SiO2 
 PCOD9147203
Probable space group: P 2/M
;
_chemical_formula_sum "Si O2"
_cell_formula_units_Z 32
_cell_length_a 9.333194
_cell_length_b 21.920570
_cell_length_c 14.566125
_cell_angle_alpha 90.000000
_cell_angle_beta 146.670036
_cell_angle_gamma 90.000000
_cell_volume 1637.427682
_symmetry_space_group_name_H-M "P 2/M"
_symmetry_group_IT_number 10
_symmetry_cell_setting 'monoclinic'
loop_
_space_group_symop_operation_xyz
x,y,z
-x,y,-z
-x,-y,-z
x,-y,z
loop_
_atom_site_type_symbol
_atom_site_label
_atom_site_fract_x
_atom_site_fract_y
_atom_site_fract_z
Si Si1 0.574506 0.825791 0.645439
Si Si2 0.965608 0.774074 0.581097
Si Si3 0.517992 0.840486 0.116610
Si Si4 0.065874 0.251571 0.850027
Si Si5 0.688789 0.069203 0.841464
Si Si6 0.747216 0.569782 0.819700
Si Si7 0.181510 0.426702 0.510800
Si Si8 0.202314 0.368795 0.331121
O O1 0.500000 0.833715 0.500000
O O2 0.337609 0.791494 0.569788
O O3 0.844948 0.788329 0.784038
O O4 0.599978 0.890446 0.707979
O O5 0.035674 0.750566 0.721707
O O6 0.000000 0.741134 0.500000
O O7 0.185227 0.827512 0.693582
O O8 0.394075 0.891947 0.114089
O O9 0.500000 0.858570 0.000000
O O10 0.340667 0.778394 0.025626
O O11 0.986956 0.321540 0.820864
O O12 0.587712 0.000000 0.789173
O O13 0.000000 0.066754 0.000000
O O14 0.735467 0.500000 0.845495
O O15 0.467843 0.597309 0.691700
O O16 0.768748 0.574344 0.721659
O O17 0.000000 0.598221 0.000000
O O18 0.195352 0.500000 0.498368
O O19 0.107028 0.391067 0.378808
O O20 0.000000 0.418328 0.500000
O O21 0.500000 0.342440 0.500000
#
# Coordination Sequence:
#
# PCOD9147203 Si02
#       8
#     4   4   4   4   4   4   4   4
#     4  10  20  37  59  82 111 146 181 228 279 332
#     4  10  19  34  58  81 105 143 183 222 277 332
#     4  10  21  39  58  81 113 146 180 226 283 338
#     4  10  21  37  55  78 112 149 187 227 274 333
#     4  11  22  38  61  87 112 146 189 230 276 339
#     4   9  18  35  56  80 112 149 189 231 278 331
#     4   9  18  34  58  84 114 151 186 232 289 335
#     4  10  19  35  56  83 110 145 196 236 270 329
#
# _framework density 19.542846999999998
#
# number of rings (size 3 to 8) (size 9 to 14) (size 15 to 20)
#    0.000    2.125    2.500    1.500    0.000    2.500 
#    2.250    6.875    0.000    3.000    0.000    0.000 
#    0.000    0.000    0.000    0.000    0.000    0.000 
#
# Total GULP energy -178163.228824 kJ/mol
# GULP energy per Si atom -5567.600901 kJ/mol
# Density = 1.949837 g / cm^3
# Si number density = 19.542847 Si / 1000 Ang^3
#
#
#
# Elastic Constant Matrix: (Units=GPa)
#
#
# Indices 1 2 3 4 5 6 
#
# 1 118.6862 27.1026 26.7533 0.0000 7.4310 0.0000
# 2 27.1026 63.4583 9.7228 0.0000 6.2608 0.0000
# 3 26.7533 9.7228 53.6742 0.0000 12.0363 0.0000
# 4 0.0000 0.0000 0.0000 19.6278 0.0000 -0.0101
# 5 7.4310 6.2608 12.0363 0.0000 20.1247 0.0000
# 6 0.0000 0.0000 0.0000 -0.0101 0.0000 28.9123
#
#
#
# Elastic Compliance Matrix: (Units=1/GPa)
#
#
# Indices 1 2 3 4 5 6 
#
# 1 0.010275 -0.003708 -0.004455 0.000000 0.000024 0.000000
# 2 -0.003708 0.017801 -0.000510 0.000000 -0.003864 0.000000
# 3 -0.004455 -0.000510 0.023721 0.000000 -0.012384 0.000000
# 4 0.000000 0.000000 0.000000 0.050948 0.000000 0.000018
# 5 0.000024 -0.003864 -0.012384 0.000000 0.058290 0.000000
# 6 0.000000 0.000000 0.000000 0.000018 0.000000 0.034587
#
#
# Mechanical properties :
#
#
# Convention : Reuss Voigt Hill
#
# Bulk Modulus (GPa) = 29.02681 40.33067 34.67874
# Shear Modulus (GPa) = 22.27638 25.21562 23.74600
#
# Velocity S-wave (km/s) = 3.37986 3.59593 3.48957
# Velocity P-wave (km/s) = 5.48785 6.15815 5.83264
#
# Compressibility (1/GPa) = 0.03445090
#
# Stress axis : x y z
#
# Youngs Moduli (GPa) = 97.32259 56.17513 42.15694
#
# Poissons Ratio (x) = 0.20831 0.18782
# Poissons Ratio (y) = 0.36089 0.02150
# Poissons Ratio (z) = 0.43359 0.02864
#
# Static dielectric constant tensor:
#      x y z
#    x 1.712540 0.000000 0.006710 
#    y 0.000000 1.703250 0.000000 
#    z 0.006710 0.000000 1.719230 
# 
# From -- ./inp_files/62725.got.cif
#   From: 2010.05.17/outbox.cif.g08.bks.cpg/sg10_32_cif.got.tgz:62725.got - 2010.06.03 11:33:40.
