data_PCOD9147193
_publ_section_title
;
Structure prediction by ZEFSAII (Michael W. Deem and Ramdas Pophale) SiO2 
 PCOD9147193
Probable space group: P 2/M
;
_chemical_formula_sum "Si O2"
_cell_formula_units_Z 32
_cell_length_a 17.070647
_cell_length_b 9.253769
_cell_length_c 25.915214
_cell_angle_alpha 90.000000
_cell_angle_beta 155.602752
_cell_angle_gamma 90.000000
_cell_volume 1690.975438
_symmetry_space_group_name_H-M "P 2/M"
_symmetry_group_IT_number 10
_symmetry_cell_setting 'monoclinic'
loop_
_space_group_symop_operation_xyz
x,y,z
-x,y,-z
-x,-y,-z
x,-y,z
loop_
_atom_site_type_symbol
_atom_site_label
_atom_site_fract_x
_atom_site_fract_y
_atom_site_fract_z
Si Si1 0.071495 0.828680 0.669250
Si Si2 0.840351 0.668815 0.722461
Si Si3 0.645934 0.671471 0.228288
Si Si4 0.749271 0.833353 0.391011
Si Si5 0.685475 0.167987 0.831363
Si Si6 0.215899 0.172809 0.417272
Si Si7 0.773433 0.671555 0.986325
Si Si8 0.593210 0.329336 0.676768
O O1 0.256186 0.743509 0.762220
O O2 0.907205 0.799598 0.528154
O O3 0.976347 0.791569 0.666793
O O4 0.109259 0.000000 0.690908
O O5 0.827227 0.500000 0.698318
O O6 0.794560 0.770096 0.647084
O O7 0.699051 0.688534 0.685732
O O8 0.049368 0.696862 0.870304
O O9 0.663558 0.500000 0.236290
O O10 0.750501 0.732331 0.341982
O O11 0.424881 0.708714 0.104667
O O12 0.539810 0.823384 0.290152
O O13 0.775997 0.000000 0.390225
O O14 0.786353 0.240010 0.940981
O O15 0.708729 0.255791 0.792547
O O16 0.736024 0.000000 0.855814
O O17 0.391541 0.251211 0.550153
O O18 0.242867 0.000000 0.436131
O O19 0.768365 0.500000 0.970883
O O20 0.571152 0.500000 0.673654
#
# Coordination Sequence:
#
# PCOD9147193 Si02
#       8
#     4   4   4   4   4   4   4   4
#     4  10  20  35  53  77 111 149 181 219 280 340
#     4  10  23  42  61  81 109 152 195 232 281 339
#     4  10  20  32  52  83 110 141 186 231 272 320
#     4   9  17  32  51  74 111 152 180 214 275 339
#     4  10  19  34  57  86 118 150 187 231 280 332
#     4  11  23  40  60  85 115 146 186 236 285 334
#     4   9  20  40  59  79 115 154 191 232 277 332
#     4  11  22  37  60  87 115 147 186 230 285 344
#
# _framework density 18.923988000000001
#
# number of rings (size 3 to 8) (size 9 to 14) (size 15 to 20)
#    0.000    2.000    1.250    2.250    0.000    7.500 
#    0.000    3.125    0.000    3.750    0.000    0.000 
#    0.000    0.000    0.000    0.000    0.000    0.000 
#
# Total GULP energy -178762.799575 kJ/mol
# GULP energy per Si atom -5586.337487 kJ/mol
# Density = 1.888092 g / cm^3
# Si number density = 18.923988 Si / 1000 Ang^3
#
#
#
# Elastic Constant Matrix: (Units=GPa)
#
#
# Indices 1 2 3 4 5 6 
#
# 1 179.1074 122.7368 33.9526 0.0000 -50.4533 0.0000
# 2 122.7368 122.2973 40.9654 0.0000 -39.4286 0.0000
# 3 33.9526 40.9654 38.0235 0.0000 -9.2243 0.0000
# 4 0.0000 0.0000 0.0000 15.4042 0.0000 2.7519
# 5 -50.4533 -39.4286 -9.2243 0.0000 44.1708 0.0000
# 6 0.0000 0.0000 0.0000 2.7519 0.0000 35.0070
#
#
#
# Elastic Compliance Matrix: (Units=1/GPa)
#
#
# Indices 1 2 3 4 5 6 
#
# 1 0.019701 -0.019373 0.004787 0.000000 0.006209 0.000000
# 2 -0.019373 0.036466 -0.020498 0.000000 0.006142 0.000000
# 3 0.004787 -0.020498 0.043185 0.000000 -0.003812 0.000000
# 4 0.000000 0.000000 0.000000 0.065842 0.000000 -0.005176
# 5 0.006209 0.006142 -0.003812 0.000000 0.034418 0.000000
# 6 0.000000 0.000000 0.000000 -0.005176 0.000000 0.028973
#
#
# Mechanical properties :
#
#
# Convention : Reuss Voigt Hill
#
# Bulk Modulus (GPa) = 34.26757 81.63753 57.95255
# Shear Modulus (GPa) = 16.20852 28.36796 22.28824
#
# Velocity S-wave (km/s) = 2.92979 3.87595 3.43560
# Velocity P-wave (km/s) = 5.43987 7.95387 6.81382
#
# Compressibility (1/GPa) = 0.02918211
#
# Stress axis : x y z
#
# Youngs Moduli (GPa) = 50.75964 27.42309 23.15640
#
# Poissons Ratio (x) = 0.53127 -0.11084
# Poissons Ratio (y) = 0.98337 0.47466
# Poissons Ratio (z) = -0.24297 0.56212
#
# Static dielectric constant tensor:
#      x y z
#    x 1.665250 0.000000 0.027240 
#    y 0.000000 1.631830 0.000000 
#    z 0.027240 0.000000 1.645030 
# 
# From -- ./inp_files/71445.got.cif
#   From: 2010.05.17/outbox.cif.g08.bks.cpg/sg10_36_cif.got.tgz:71445.got - 2010.06.03 11:33:40.
