data_PCOD9147196
_publ_section_title
;
Structure prediction by ZEFSAII (Michael W. Deem and Ramdas Pophale) SiO2 
 PCOD9147196
Probable space group: P 2/M
;
_chemical_formula_sum "Si O2"
_cell_formula_units_Z 20
_cell_length_a 19.431910
_cell_length_b 8.290952
_cell_length_c 21.168375
_cell_angle_alpha 90.000000
_cell_angle_beta 166.080249
_cell_angle_gamma 90.000000
_cell_volume 820.418826
_symmetry_space_group_name_H-M "P 2/M"
_symmetry_group_IT_number 10
_symmetry_cell_setting 'monoclinic'
loop_
_space_group_symop_operation_xyz
x,y,z
-x,y,-z
-x,-y,-z
x,-y,z
loop_
_atom_site_type_symbol
_atom_site_label
_atom_site_fract_x
_atom_site_fract_y
_atom_site_fract_z
Si Si1 0.781038 0.500000 0.173246
Si Si2 0.179164 0.304177 0.348098
Si Si3 0.080564 0.824450 0.645244
Si Si4 0.540605 0.500000 0.242283
Si Si5 0.147575 0.304789 0.067236
Si Si6 0.356613 0.175870 0.630157
O O1 0.750557 0.665898 0.183828
O O2 0.114257 0.500000 0.448491
O O3 0.570717 0.500000 0.927362
O O4 0.147103 0.500000 0.328182
O O5 0.515748 0.272566 0.634245
O O6 0.136146 0.212661 0.376565
O O7 0.012008 0.245653 0.137661
O O8 0.000000 0.813206 0.500000
O O9 0.804588 0.824823 0.445845
O O10 0.218193 0.000000 0.779759
O O11 0.448117 0.335354 0.193123
O O12 0.114505 0.500000 0.036815
O O13 0.000000 0.245965 0.000000
O O14 0.486494 0.000000 0.736795
#
# Coordination Sequence:
#
# PCOD9147196 Si02
#       6
#     2   4   4   2   4   4
#     4  10  21  38  62  86 118 154 202 254 312 362
#     4  10  19  34  57  86 122 156 198 250 298 358
#     4   9  19  38  63  91 124 165 212 260 310 366
#     4  10  22  40  61  88 119 158 201 252 303 364
#     4   9  18  33  58  89 119 157 200 243 298 361
#     4  10  21  39  61  89 125 164 207 256 311 367
#
# _framework density 24.377793
#
# number of rings (size 3 to 8) (size 9 to 14) (size 15 to 20)
#    0.000    2.400    1.000    0.900    0.000    6.400 
#    0.000   13.000    0.000   14.400    0.000    0.000 
#    0.000    0.000    0.000    0.000    0.000    0.000 
#
# Total GULP energy -111845.748769 kJ/mol
# GULP energy per Si atom -5592.287438 kJ/mol
# Density = 2.432231 g / cm^3
# Si number density = 24.377793 Si / 1000 Ang^3
#
#
#
# Elastic Constant Matrix: (Units=GPa)
#
#
# Indices 1 2 3 4 5 6 
#
# 1 167.5259 20.9184 62.1216 0.0000 -24.0106 0.0000
# 2 20.9184 193.9376 35.4650 0.0000 -22.9004 0.0000
# 3 62.1216 35.4650 102.2121 0.0000 -21.5977 0.0000
# 4 0.0000 0.0000 0.0000 50.7042 0.0000 11.3096
# 5 -24.0106 -22.9004 -21.5977 0.0000 40.1541 0.0000
# 6 0.0000 0.0000 0.0000 11.3096 0.0000 4.9336
#
#
#
# Elastic Compliance Matrix: (Units=1/GPa)
#
#
# Indices 1 2 3 4 5 6 
#
# 1 0.007919 0.000242 -0.004363 0.000000 0.002527 0.000000
# 2 0.000242 0.005723 -0.001594 0.000000 0.002551 0.000000
# 3 -0.004363 -0.001594 0.013815 0.000000 0.003913 0.000000
# 4 0.000000 0.000000 0.000000 0.040357 0.000000 -0.092514
# 5 0.002527 0.002551 0.003913 0.000000 0.029974 0.000000
# 6 0.000000 0.000000 0.000000 -0.092514 0.000000 0.414767
#
#
# Mechanical properties :
#
#
# Convention : Reuss Voigt Hill
#
# Bulk Modulus (GPa) = 62.39252 77.85395 70.12324
# Shear Modulus (GPa) = 9.44593 42.16976 25.80784
#
# Velocity S-wave (km/s) = 1.97059 4.16365 3.25724
# Velocity P-wave (km/s) = 5.55222 7.42431 6.55544
#
# Compressibility (1/GPa) = 0.01602756
#
# Stress axis : x y z
#
# Youngs Moduli (GPa) = 126.27813 174.73672 72.38457
#
# Poissons Ratio (x) = -0.04229 0.31582
# Poissons Ratio (y) = -0.03057 0.11536
# Poissons Ratio (z) = 0.55096 0.27848
#
# Static dielectric constant tensor:
#      x y z
#    x 1.961880 0.000000 0.042510 
#    y 0.000000 1.988610 0.000000 
#    z 0.042510 0.000000 1.944410 
# 
# From -- ./inp_files/78839.got.cif
#   From: 2010.05.17/outbox.cif.g08.bks.cpg/sg10_40_cif.got.tgz:78839.got - 2010.06.03 11:33:40.
