data_PCOD9147089
_publ_section_title
;
Structure prediction by ZEFSAII (Michael W. Deem and Ramdas Pophale) SiO2 
 PCOD9147089
Probable space group: P 2/M
;
_chemical_formula_sum "Si O2"
_cell_formula_units_Z 24
_cell_length_a 14.855544
_cell_length_b 10.783878
_cell_length_c 7.016456
_cell_angle_alpha 90.000000
_cell_angle_beta 109.644902
_cell_angle_gamma 90.000000
_cell_volume 1058.613378
_symmetry_space_group_name_H-M "P 2/M"
_symmetry_group_IT_number 10
_symmetry_cell_setting 'monoclinic'
loop_
_space_group_symop_operation_xyz
x,y,z
-x,y,-z
-x,-y,-z
x,-y,z
loop_
_atom_site_type_symbol
_atom_site_label
_atom_site_fract_x
_atom_site_fract_y
_atom_site_fract_z
Si Si1 0.373260 0.639699 0.226447
Si Si2 0.274296 0.136577 0.670336
Si Si3 0.953685 0.364553 0.757711
Si Si4 0.412660 0.641278 0.711442
Si Si5 0.792222 0.209400 0.778513
Si Si6 0.084445 0.862550 0.786492
O O1 0.341111 0.500000 0.157214
O O2 0.393524 0.642051 0.468935
O O3 0.473484 0.663590 0.193506
O O4 0.290923 0.739958 0.144270
O O5 0.346676 0.251040 0.749207
O O6 0.250409 0.134714 0.427303
O O7 0.173968 0.152968 0.708343
O O8 0.312524 0.000000 0.753199
O O9 0.961152 0.500000 0.672065
O O10 0.010167 0.248810 0.710297
O O11 0.844548 0.325823 0.714501
O O12 0.000000 0.374847 0.000000
O O13 0.392148 0.500000 0.761545
O O14 0.870648 0.145956 0.968300
O O15 0.042420 0.000000 0.732116
#
# Coordination Sequence:
#
# PCOD9147089 Si02
#       6
#     4   4   4   4   4   4
#     4   8  14  28  52  79 106 136 171 212 259 310
#     4  10  21  36  54  78 106 138 176 215 256 306
#     4   9  19  35  56  81 107 136 173 217 261 305
#     4   8  15  30  52  78 106 137 172 212 259 307
#     4  10  19  34  57  79 103 137 175 212 259 310
#     4  10  22  38  54  75 107 141 173 214 261 308
#
# _framework density 22.671164999999998
#
# number of rings (size 3 to 8) (size 9 to 14) (size 15 to 20)
#    0.000    2.833    0.000    2.000    0.000    6.333 
#    0.000   10.833    0.000    4.000    0.000    0.000 
#    0.000    0.000    0.000    0.000    0.000    0.000 
#
# Total GULP energy -134064.175420 kJ/mol
# GULP energy per Si atom -5586.007309 kJ/mol
# Density = 2.261956 g / cm^3
# Si number density = 22.671165 Si / 1000 Ang^3
#
#
#
# Elastic Constant Matrix: (Units=GPa)
#
#
# Indices 1 2 3 4 5 6 
#
# 1 110.8317 96.2014 7.8226 0.0000 -13.6017 0.0000
# 2 96.2014 190.2392 11.1816 0.0000 -3.5539 0.0000
# 3 7.8226 11.1816 66.6814 0.0000 -9.9160 0.0000
# 4 0.0000 0.0000 0.0000 -0.4270 0.0000 -6.3971
# 5 -13.6017 -3.5539 -9.9160 0.0000 35.5107 0.0000
# 6 0.0000 0.0000 0.0000 -6.3971 0.0000 21.1167
#
#
#
# Elastic Compliance Matrix: (Units=1/GPa)
#
#
# Indices 1 2 3 4 5 6 
#
# 1 0.017172 -0.008592 0.000289 0.000000 0.005798 0.000000
# 2 -0.008592 0.009611 -0.000991 0.000000 -0.002606 0.000000
# 3 0.000289 -0.000991 0.015786 0.000000 0.004419 0.000000
# 4 0.000000 0.000000 0.000000 -0.422846 0.000000 -0.128096
# 5 0.005798 -0.002606 0.004419 0.000000 0.031355 0.000000
# 6 0.000000 0.000000 0.000000 -0.128096 0.000000 0.008551
#
#
# Mechanical properties :
#
#
# Convention : Reuss Voigt Hill
#
# Bulk Modulus (GPa) = 41.70244 66.46261 54.08253
# Shear Modulus (GPa) = -15.93432 28.07653 6.07111
#
# Velocity S-wave (km/s) = -2.65400 3.52294 1.63820
# Velocity P-wave (km/s) = 3.00713 6.77700 5.24264
#
# Compressibility (1/GPa) = 0.02397941
#
# Stress axis : x y z
#
# Youngs Moduli (GPa) = 58.23456 104.04624 63.34629
#
# Poissons Ratio (x) = 0.89399 -0.01828
# Poissons Ratio (y) = 0.50037 0.06279
# Poissons Ratio (z) = -0.01680 0.10313
#
# Static dielectric constant tensor:
#      x y z
#    x 1.825610 0.000000 -0.012910 
#    y 0.000000 1.831730 0.000000 
#    z -0.012910 0.000000 1.878380 
# 
# From -- ./inp_files/27993.got.cif
#   From: 2010.05.17/outbox.cif.g08.bks.cpg/sg10_14_cif.got.tgz:27993.got - 2010.06.03 11:33:40.
