data_PCOD9147130
_publ_section_title
;
Structure prediction by ZEFSAII (Michael W. Deem and Ramdas Pophale) SiO2 
 PCOD9147130
Probable space group: P 2/M
;
_chemical_formula_sum "Si O2"
_cell_formula_units_Z 24
_cell_length_a 10.433069
_cell_length_b 8.666087
_cell_length_c 15.242333
_cell_angle_alpha 90.000000
_cell_angle_beta 99.453585
_cell_angle_gamma 90.000000
_cell_volume 1359.402270
_symmetry_space_group_name_H-M "P 2/M"
_symmetry_group_IT_number 10
_symmetry_cell_setting 'monoclinic'
loop_
_space_group_symop_operation_xyz
x,y,z
-x,y,-z
-x,-y,-z
x,-y,z
loop_
_atom_site_type_symbol
_atom_site_label
_atom_site_fract_x
_atom_site_fract_y
_atom_site_fract_z
Si Si1 0.039963 0.183876 0.230544
Si Si2 0.113218 0.684817 0.943467
Si Si3 0.083371 0.313284 0.424422
Si Si4 0.675466 0.685296 0.773690
Si Si5 0.380884 0.815216 0.049100
Si Si6 0.620880 0.687503 0.571146
O O1 0.027651 0.241590 0.328933
O O2 0.176597 0.253560 0.211500
O O3 0.927943 0.245701 0.154428
O O4 0.045985 0.000000 0.227980
O O5 0.118493 0.500000 0.938454
O O6 0.248329 0.748815 0.994157
O O7 0.000000 0.726758 0.000000
O O8 0.079926 0.500000 0.415713
O O9 0.235700 0.267109 0.446919
O O10 0.000000 0.269734 0.500000
O O11 0.679306 0.500000 0.778699
O O12 0.605400 0.751313 0.850943
O O13 0.614381 0.731373 0.673037
O O14 0.372843 0.000000 0.051571
O O15 0.500000 0.770676 0.000000
O O16 0.500000 0.744257 0.500000
O O17 0.618043 0.500000 0.568286
#
# Coordination Sequence:
#
# PCOD9147130 Si02
#       6
#     4   4   4   4   4   4
#     4  11  21  34  57  84 113 147 185 228 284 339
#     4  11  22  37  61  87 110 142 192 240 274 328
#     4   9  18  34  55  79 110 143 181 229 277 325
#     4  10  19  34  57  82 109 144 190 233 274 327
#     4  11  24  40  57  81 117 153 183 224 286 343
#     4   8  15  30  53  78 104 134 176 225 269 315
#
# _framework density 17.654816
#
# number of rings (size 3 to 8) (size 9 to 14) (size 15 to 20)
#    0.000    2.000    1.667    4.000    0.000    2.333 
#    3.000    0.000    0.000   12.500    0.000    0.000 
#    0.000    0.000    0.000    0.000    0.000    0.000 
#
# Total GULP energy -133974.367062 kJ/mol
# GULP energy per Si atom -5582.265294 kJ/mol
# Density = 1.761463 g / cm^3
# Si number density = 17.654816 Si / 1000 Ang^3
#
#
#
# Elastic Constant Matrix: (Units=GPa)
#
#
# Indices 1 2 3 4 5 6 
#
# 1 111.7247 37.3032 95.6386 0.0000 0.8379 0.0000
# 2 37.3032 46.0349 40.8117 0.0000 -6.2948 0.0000
# 3 95.6386 40.8117 165.7956 0.0000 -4.4706 0.0000
# 4 0.0000 0.0000 0.0000 7.4030 0.0000 -11.7337
# 5 0.8379 -6.2948 -4.4706 0.0000 36.9182 0.0000
# 6 0.0000 0.0000 0.0000 -11.7337 0.0000 11.7492
#
#
#
# Elastic Compliance Matrix: (Units=1/GPa)
#
#
# Indices 1 2 3 4 5 6 
#
# 1 0.019808 -0.008003 -0.009536 0.000000 -0.002969 0.000000
# 2 -0.008003 0.031597 -0.003021 0.000000 0.005203 0.000000
# 3 -0.009536 -0.003021 0.012308 0.000000 0.001192 0.000000
# 4 0.000000 0.000000 0.000000 -0.231734 0.000000 -0.231429
# 5 -0.002969 0.005203 0.001192 0.000000 0.028186 0.000000
# 6 0.000000 0.000000 0.000000 -0.231429 0.000000 -0.146013
#
#
# Mechanical properties :
#
#
# Convention : Reuss Voigt Hill
#
# Bulk Modulus (GPa) = 44.26102 74.56249 59.41175
# Shear Modulus (GPa) = -21.07968 21.20086 0.06059
#
# Velocity S-wave (km/s) = -3.45916 3.46909 0.18546
# Velocity P-wave (km/s) = 3.02824 7.64011 5.81126
#
# Compressibility (1/GPa) = 0.02259324
#
# Stress axis : x y z
#
# Youngs Moduli (GPa) = 50.48424 31.64826 81.24504
#
# Poissons Ratio (x) = 0.25327 0.77479
# Poissons Ratio (y) = 0.40400 0.24547
# Poissons Ratio (z) = 0.48144 0.09562
#
# Static dielectric constant tensor:
#      x y z
#    x 1.583010 0.000000 0.000170 
#    y 0.000000 1.586650 0.000000 
#    z 0.000170 0.000000 1.603640 
# 
# From -- ./inp_files/33952.got.cif
#   From: 2010.05.17/outbox.cif.g08.bks.cpg/sg10_17_cif.got.tgz:33952.got - 2010.06.03 11:33:40.
