data_PCOD9147791
_publ_section_title
;
Structure prediction by ZEFSAII (Michael W. Deem and Ramdas Pophale) SiO2 
 PCOD9147791
Probable space group: P 2/M
;
_chemical_formula_sum "Si O2"
_cell_formula_units_Z 20
_cell_length_a 6.982580
_cell_length_b 9.153820
_cell_length_c 23.281760
_cell_angle_alpha 90.000000
_cell_angle_beta 145.512842
_cell_angle_gamma 90.000000
_cell_volume 842.598066
_symmetry_space_group_name_H-M "P 2/M"
_symmetry_group_IT_number 10
_symmetry_cell_setting 'monoclinic'
loop_
_space_group_symop_operation_xyz
x,y,z
-x,y,-z
-x,-y,-z
x,-y,z
loop_
_atom_site_type_symbol
_atom_site_label
_atom_site_fract_x
_atom_site_fract_y
_atom_site_fract_z
Si Si1 0.883479 0.656190 0.841062
Si Si2 0.695651 0.164452 0.972057
Si Si3 0.359395 0.000000 0.551773
Si Si4 0.068343 0.000000 0.659574
Si Si5 0.561521 0.668252 0.637058
Si Si6 0.713262 0.715836 0.225610
O O1 0.062323 0.500000 0.880115
O O2 0.692314 0.684203 0.734488
O O3 0.589035 0.640570 0.815930
O O4 0.139177 0.774657 0.929410
O O5 0.408931 0.258765 0.869825
O O6 0.571484 0.000000 0.947811
O O7 0.000000 0.162592 0.000000
O O8 0.383782 0.172376 0.580937
O O9 0.705226 0.000000 0.600741
O O10 0.019193 0.000000 0.429145
O O11 0.266499 0.863873 0.732885
O O12 0.408203 0.500000 0.593954
O O13 0.902040 0.661808 0.682098
#
# Coordination Sequence:
#
# PCOD9147791 Si02
#       6
#     4   4   2   2   4   4
#     4  10  22  36  54  83 119 153 189 233 281 337
#     4   9  18  32  54  82 113 151 189 231 276 333
#     4   9  20  39  62  88 114 150 187 243 297 338
#     4   9  18  37  61  88 113 143 196 240 282 354
#     4  10  22  39  59  86 117 150 193 238 284 343
#     4  10  19  36  60  81 114 152 190 234 284 336
#
# _framework density 23.736111000000001
#
# number of rings (size 3 to 8) (size 9 to 14) (size 15 to 20)
#    0.000    2.400    1.000    0.600    2.800    5.200 
#    0.000   14.000    0.000    2.400    0.000    0.000 
#    0.000    0.000    0.000    0.000    0.000    0.000 
#
# Total GULP energy -111380.670167 kJ/mol
# GULP energy per Si atom -5569.033508 kJ/mol
# Density = 2.368209 g / cm^3
# Si number density = 23.736111 Si / 1000 Ang^3
#
#
#
# Elastic Constant Matrix: (Units=GPa)
#
#
# Indices 1 2 3 4 5 6 
#
# 1 58.8459 24.8895 9.9423 0.0000 6.7354 0.0000
# 2 24.8895 182.8292 58.1518 0.0000 -18.1145 0.0000
# 3 9.9423 58.1518 73.6324 0.0000 -10.0541 0.0000
# 4 0.0000 0.0000 0.0000 -37.5829 0.0000 -15.7348
# 5 6.7354 -18.1145 -10.0541 0.0000 41.4481 0.0000
# 6 0.0000 0.0000 0.0000 -15.7348 0.0000 15.2871
#
#
#
# Elastic Compliance Matrix: (Units=1/GPa)
#
#
# Indices 1 2 3 4 5 6 
#
# 1 0.018813 -0.002674 -0.001040 0.000000 -0.004478 0.000000
# 2 -0.002674 0.007825 -0.005474 0.000000 0.002527 0.000000
# 3 -0.001040 -0.005474 0.018349 0.000000 0.002228 0.000000
# 4 0.000000 0.000000 0.000000 -0.018595 0.000000 -0.019139
# 5 -0.004478 0.002527 0.002228 0.000000 0.026499 0.000000
# 6 0.000000 0.000000 0.000000 -0.019139 0.000000 0.045715
#
#
# Mechanical properties :
#
#
# Convention : Reuss Voigt Hill
#
# Bulk Modulus (GPa) = 37.57846 55.69719 46.63783
# Shear Modulus (GPa) = 39.72963 18.65205 29.19084
#
# Velocity S-wave (km/s) = 4.09566 2.80627 3.51067
# Velocity P-wave (km/s) = 6.18320 5.83235 6.01034
#
# Compressibility (1/GPa) = 0.02661099
#
# Stress axis : x y z
#
# Youngs Moduli (GPa) = 53.15542 127.79592 54.50029
#
# Poissons Ratio (x) = 0.34173 0.05667
# Poissons Ratio (y) = 0.14214 0.29832
# Poissons Ratio (z) = 0.05527 0.69953
#
# Static dielectric constant tensor:
#      x y z
#    x 1.964800 0.000000 -0.002420 
#    y 0.000000 1.884190 0.000000 
#    z -0.002420 0.000000 1.847490 
# 
# From -- ./inp_files/26931.got.cif
#   From: 2010.05.17/outbox.cif.g08.bks.cpg/sg10_14_cif.got.tgz:26931.got - 2010.06.03 11:33:40.
