data_PCOD9147061
_publ_section_title
;
Structure prediction by ZEFSAII (Michael W. Deem and Ramdas Pophale) SiO2 
 PCOD9147061
Probable space group: P 2/M
;
_chemical_formula_sum "Si O2"
_cell_formula_units_Z 26
_cell_length_a 8.132307
_cell_length_b 30.022671
_cell_length_c 8.374801
_cell_angle_alpha 90.000000
_cell_angle_beta 141.863751
_cell_angle_gamma 90.000000
_cell_volume 1262.694222
_symmetry_space_group_name_H-M "P 2/M"
_symmetry_group_IT_number 10
_symmetry_cell_setting 'monoclinic'
loop_
_space_group_symop_operation_xyz
x,y,z
-x,y,-z
-x,-y,-z
x,-y,z
loop_
_atom_site_type_symbol
_atom_site_label
_atom_site_fract_x
_atom_site_fract_y
_atom_site_fract_z
Si Si1 0.500000 0.398984 0.500000
Si Si2 0.032396 0.329435 0.200286
Si Si3 0.684456 0.000000 0.799476
Si Si4 0.881985 0.763141 0.585884
Si Si5 0.679446 0.587951 0.978859
Si Si6 0.618417 0.809440 0.911403
Si Si7 0.315459 0.097381 0.200361
Si Si8 0.822254 0.500000 0.207751
O O1 0.260299 0.366025 0.359218
O O2 0.440927 0.422958 0.287457
O O3 0.099834 0.289368 0.367402
O O4 0.000000 0.309032 0.000000
O O5 0.785802 0.361458 0.051719
O O6 0.500000 0.000000 0.500000
O O7 0.632624 0.951606 0.836577
O O8 0.000000 0.000000 0.000000
O O9 0.582661 0.781603 0.354539
O O10 0.000000 0.771014 0.500000
O O11 0.085024 0.789102 0.857025
O O12 0.500000 0.588156 0.000000
O O13 0.878218 0.546502 0.160846
O O14 0.620438 0.860455 0.859199
O O15 0.500000 0.806144 0.000000
O O16 0.500000 0.100301 0.500000
O O17 0.000000 0.099438 0.000000
O O18 0.000000 0.500000 0.500000
O O19 0.500000 0.500000 0.000000
#
# Coordination Sequence:
#
# PCOD9147061 Si02
#       8
#     2   4   2   4   4   4   4   2
#     4  10  24  43  60 100 128 162 214 257 316 368
#     4  10  24  41  60  92 122 158 206 257 304 366
#     4   8  16  30  51  78 111 142 190 242 286 352
#     4  10  23  38  61  82 114 158 200 238 302 359
#     4  10  24  42  71  94 130 169 207 263 314 373
#     4  10  22  39  54  84 117 152 194 247 296 360
#     4  10  19  34  56  83 110 151 195 240 296 351
#     4  10  24  43  69 105 128 165 219 255 311 384
#
# _framework density 20.590890999999999
#
# number of rings (size 3 to 8) (size 9 to 14) (size 15 to 20)
#    0.000    2.154    0.000    0.923   10.769    2.769 
#    0.000    3.846    0.000    0.000    0.000    9.692 
#    0.000    0.000    0.000    0.000    0.000    0.000 
#
# Total GULP energy -144895.986691 kJ/mol
# GULP energy per Si atom -5572.922565 kJ/mol
# Density = 2.054403 g / cm^3
# Si number density = 20.590891 Si / 1000 Ang^3
#
#
#
# Elastic Constant Matrix: (Units=GPa)
#
#
# Indices 1 2 3 4 5 6 
#
# 1 34.4229 19.9052 36.3532 0.0000 -5.6961 0.0000
# 2 19.9052 126.4087 48.1529 0.0000 -16.2521 0.0000
# 3 36.3532 48.1529 153.4239 0.0000 -3.6051 0.0000
# 4 0.0000 0.0000 0.0000 45.4450 0.0000 -1.1780
# 5 -5.6961 -16.2521 -3.6051 0.0000 18.3274 0.0000
# 6 0.0000 0.0000 0.0000 -1.1780 0.0000 22.7469
#
#
#
# Elastic Compliance Matrix: (Units=1/GPa)
#
#
# Indices 1 2 3 4 5 6 
#
# 1 0.041118 -0.001866 -0.008937 0.000000 0.009367 0.000000
# 2 -0.001866 0.010210 -0.002575 0.000000 0.007967 0.000000
# 3 -0.008937 -0.002575 0.009368 0.000000 -0.003218 0.000000
# 4 0.000000 0.000000 0.000000 0.022034 0.000000 0.001141
# 5 0.009367 0.007967 -0.003218 0.000000 0.063906 0.000000
# 6 0.000000 0.000000 0.000000 0.001141 0.000000 0.044021
#
#
# Mechanical properties :
#
#
# Convention : Reuss Voigt Hill
#
# Bulk Modulus (GPa) = 29.46426 58.11980 43.79203
# Shear Modulus (GPa) = 21.86020 31.29348 26.57684
#
# Velocity S-wave (km/s) = 3.26182 3.90266 3.59654
# Velocity P-wave (km/s) = 5.34101 6.97100 6.20972
#
# Compressibility (1/GPa) = 0.03393942
#
# Stress axis : x y z
#
# Youngs Moduli (GPa) = 24.32054 97.94350 106.74606
#
# Poissons Ratio (x) = 0.18277 0.95398
# Poissons Ratio (y) = 0.04538 0.27488
# Poissons Ratio (z) = 0.21735 0.25221
#
# Static dielectric constant tensor:
#      x y z
#    x 1.628270 0.000000 -0.057770 
#    y 0.000000 1.724080 0.000000 
#    z -0.057770 0.000000 1.739570 
# 
# From -- ./inp_files/20787.got.cif
#   From: 2010.05.17/outbox.cif.g08.bks.cpg/sg10_11_cif.got.tgz:20787.got - 2010.06.03 11:33:40.
