data_PCOD9147763
_publ_section_title
;
Structure prediction by ZEFSAII (Michael W. Deem and Ramdas Pophale) SiO2 
 PCOD9147763
Probable space group: P 2/M
;
_chemical_formula_sum "Si O2"
_cell_formula_units_Z 32
_cell_length_a 30.926347
_cell_length_b 9.353777
_cell_length_c 11.839088
_cell_angle_alpha 90.000000
_cell_angle_beta 29.575279
_cell_angle_gamma 90.000000
_cell_volume 1690.361941
_symmetry_space_group_name_H-M "P 2/M"
_symmetry_group_IT_number 10
_symmetry_cell_setting 'monoclinic'
loop_
_space_group_symop_operation_xyz
x,y,z
-x,y,-z
-x,-y,-z
x,-y,z
loop_
_atom_site_type_symbol
_atom_site_label
_atom_site_fract_x
_atom_site_fract_y
_atom_site_fract_z
Si Si1 0.239804 0.671890 0.991223
Si Si2 0.423322 0.829232 0.584076
Si Si3 0.064082 0.331397 0.513754
Si Si4 0.088211 0.659766 0.725761
Si Si5 0.359721 0.661600 0.286902
Si Si6 0.811523 0.832900 0.329320
Si Si7 0.477210 0.661641 0.243905
Si Si8 0.128104 0.671132 0.029120
O O1 0.250932 0.500000 0.981707
O O2 0.329887 0.751202 0.815814
O O3 0.154652 0.724109 0.255490
O O4 0.207966 0.695352 0.934146
O O5 0.500000 0.793595 0.500000
O O6 0.456412 0.774244 0.387285
O O7 0.410851 0.000000 0.613612
O O8 0.065127 0.500000 0.480770
O O9 0.069169 0.317684 0.637645
O O10 0.965924 0.281156 0.705638
O O11 0.127191 0.500000 0.648807
O O12 0.148909 0.777750 0.643264
O O13 0.000000 0.661305 0.000000
O O14 0.321334 0.500000 0.370471
O O15 0.288196 0.782861 0.445348
O O16 0.411862 0.672361 0.286070
O O17 0.427748 0.674886 0.029472
O O18 0.823023 0.000000 0.288972
O O19 0.856355 0.749631 0.123616
O O20 0.468116 0.500000 0.311469
O O21 0.122054 0.500000 0.023504
#
# Coordination Sequence:
#
# PCOD9147763 Si02
#       8
#     4   4   4   4   4   4   4   4
#     4  10  21  37  62  91 113 141 190 246 287 332
#     4  11  25  42  58  79 116 159 192 229 285 349
#     4   9  18  35  60  88 114 146 190 237 286 337
#     4  10  19  36  59  79 107 149 191 231 279 329
#     4   9  19  37  60  87 115 142 181 235 294 341
#     4  12  24  34  51  83 120 155 193 230 273 334
#     4   9  19  38  64  88 109 139 185 242 289 334
#     4  10  19  36  60  85 116 151 189 235 288 339
#
# _framework density 18.930858000000001
#
# number of rings (size 3 to 8) (size 9 to 14) (size 15 to 20)
#    0.000    2.000    1.250    3.375    0.000    8.250 
#    0.000    6.250    0.000    1.500    0.000    0.000 
#    0.000    0.000    0.000    0.000    0.000    0.000 
#
# Total GULP energy -178566.542080 kJ/mol
# GULP energy per Si atom -5580.204440 kJ/mol
# Density = 1.888777 g / cm^3
# Si number density = 18.930858 Si / 1000 Ang^3
#
#
#
# Elastic Constant Matrix: (Units=GPa)
#
#
# Indices 1 2 3 4 5 6 
#
# 1 58.5108 38.8246 38.0051 0.0000 -18.7914 0.0000
# 2 38.8246 64.0176 32.7101 0.0000 -16.3110 0.0000
# 3 38.0051 32.7101 76.3438 0.0000 -21.9639 0.0000
# 4 0.0000 0.0000 0.0000 37.3725 0.0000 -77.5708
# 5 -18.7914 -16.3110 -21.9639 0.0000 23.6922 0.0000
# 6 0.0000 0.0000 0.0000 -77.5708 0.0000 130.0010
#
#
#
# Elastic Compliance Matrix: (Units=1/GPa)
#
#
# Indices 1 2 3 4 5 6 
#
# 1 0.035641 -0.014645 -0.008504 0.000000 0.010303 0.000000
# 2 -0.014645 0.027176 -0.003154 0.000000 0.004171 0.000000
# 3 -0.008504 -0.003154 0.021981 0.000000 0.011461 0.000000
# 4 0.000000 0.000000 0.000000 -0.112189 0.000000 -0.066943
# 5 0.010303 0.004171 0.011461 0.000000 0.063876 0.000000
# 6 0.000000 0.000000 0.000000 -0.066943 0.000000 -0.032252
#
#
# Mechanical properties :
#
#
# Convention : Reuss Voigt Hill
#
# Bulk Modulus (GPa) = 31.06264 46.43911 38.75088
# Shear Modulus (GPa) = 73.99975 44.16863 59.08419
#
# Velocity S-wave (km/s) = 6.25894 4.83551 5.59270
# Velocity P-wave (km/s) = 8.28713 7.46729 7.88787
#
# Compressibility (1/GPa) = 0.03219301
#
# Stress axis : x y z
#
# Youngs Moduli (GPa) = 28.05777 36.79671 45.49486
#
# Poissons Ratio (x) = 0.53889 0.38688
# Poissons Ratio (y) = 0.41090 0.14347
# Poissons Ratio (z) = 0.23860 0.11604
#
# Static dielectric constant tensor:
#      x y z
#    x 1.657900 0.000000 -0.012090 
#    y 0.000000 1.631260 0.000000 
#    z -0.012090 0.000000 1.687280 
# 
# From -- ./inp_files/58208.got.cif
#   From: 2010.05.17/outbox.cif.g08.bks.cpg/sg10_30_cif.got.tgz:58208.got - 2010.06.03 11:33:40.
