data_PCOD9147383
_publ_section_title
;
Structure prediction by ZEFSAII (Michael W. Deem and Ramdas Pophale) SiO2 
 PCOD9147383
Probable space group: P 2/M
;
_chemical_formula_sum "Si O2"
_cell_formula_units_Z 32
_cell_length_a 14.709550
_cell_length_b 7.517935
_cell_length_c 15.711728
_cell_angle_alpha 90.000000
_cell_angle_beta 55.074141
_cell_angle_gamma 90.000000
_cell_volume 1424.555537
_symmetry_space_group_name_H-M "P 2/M"
_symmetry_group_IT_number 10
_symmetry_cell_setting 'monoclinic'
loop_
_space_group_symop_operation_xyz
x,y,z
-x,y,-z
-x,-y,-z
x,-y,z
loop_
_atom_site_type_symbol
_atom_site_label
_atom_site_fract_x
_atom_site_fract_y
_atom_site_fract_z
Si Si1 0.379614 0.288819 0.035409
Si Si2 0.451744 0.202734 0.818585
Si Si3 0.686034 0.702042 0.646709
Si Si4 0.185024 0.719119 0.264629
Si Si5 0.318701 0.284803 0.722218
Si Si6 0.711097 0.716639 0.447898
Si Si7 0.937270 0.716720 0.117123
Si Si8 0.967911 0.716029 0.287959
O O1 0.382013 0.500000 0.048503
O O2 0.276751 0.222648 0.146054
O O3 0.500000 0.217388 0.000000
O O4 0.372374 0.259727 0.938122
O O5 0.568101 0.304130 0.756963
O O6 0.396015 0.222921 0.756747
O O7 0.481645 0.000000 0.816958
O O8 0.724507 0.500000 0.610731
O O9 0.774155 0.781777 0.664802
O O10 0.667801 0.780097 0.562458
O O11 0.185439 0.500000 0.265815
O O12 0.063557 0.776416 0.300041
O O13 0.324338 0.500000 0.719663
O O14 0.342136 0.223262 0.612902
O O15 0.191890 0.232802 0.810769
O O16 0.701528 0.500000 0.449660
O O17 0.841526 0.765138 0.376247
O O18 0.939304 0.500000 0.114585
O O19 0.990432 0.771547 0.178438
O O20 0.000000 0.780662 0.000000
O O21 0.969140 0.500000 0.288406
#
# Coordination Sequence:
#
# PCOD9147383 Si02
#       8
#     4   4   4   4   4   4   4   4
#     4  10  19  35  56  78 106 140 175 213 258 311
#     4  12  25  37  51  76 106 140 179 222 266 308
#     4  10  19  35  55  77 105 139 177 216 263 315
#     4   9  17  28  49  80 110 138 168 207 258 316
#     4   9  18  34  54  77 104 137 176 216 261 313
#     4   8  16  31  53  79 108 136 168 218 268 309
#     4   8  14  24  43  74 105 132 166 210 255 301
#     4   8  14  25  42  76 114 133 160 208 262 313
#
# _framework density 22.463148
#
# number of rings (size 3 to 8) (size 9 to 14) (size 15 to 20)
#    0.000    2.750    1.250    2.625    1.750    1.250 
#    0.000    5.625    0.000    0.375    0.000    3.500 
#    0.000    0.000    0.000    0.000    0.000    0.000 
#
# Total GULP energy -178587.205581 kJ/mol
# GULP energy per Si atom -5580.850174 kJ/mol
# Density = 2.241202 g / cm^3
# Si number density = 22.463148 Si / 1000 Ang^3
#
#
#
# Elastic Constant Matrix: (Units=GPa)
#
#
# Indices 1 2 3 4 5 6 
#
# 1 83.8470 -6.1614 -6.7213 0.0000 27.1578 0.0000
# 2 -6.1614 54.3736 -6.8448 0.0000 -2.9545 0.0000
# 3 -6.7213 -6.8448 75.0379 0.0000 23.3971 0.0000
# 4 0.0000 0.0000 0.0000 -22.0871 0.0000 -3.4628
# 5 27.1578 -2.9545 23.3971 0.0000 25.0255 0.0000
# 6 0.0000 0.0000 0.0000 -3.4628 0.0000 -178.5971
#
#
#
# Elastic Compliance Matrix: (Units=1/GPa)
#
#
# Indices 1 2 3 4 5 6 
#
# 1 0.029043 0.002931 0.017768 0.000000 -0.047784 0.000000
# 2 0.002931 0.018914 0.003223 0.000000 -0.003962 0.000000
# 3 0.017768 0.003223 0.029790 0.000000 -0.046753 0.000000
# 4 0.000000 0.000000 0.000000 -0.045413 0.000000 0.000881
# 5 -0.047784 -0.003962 -0.046753 0.000000 0.135058 0.000000
# 6 0.000000 0.000000 0.000000 0.000881 0.000000 -0.005616
#
#
# Mechanical properties :
#
#
# Convention : Reuss Voigt Hill
#
# Bulk Modulus (GPa) = 7.96227 19.31149 13.63688
# Shear Modulus (GPa) = 32.09356 -19.59936 6.24710
#
# Velocity S-wave (km/s) = 3.78394 -2.95704 1.66945
# Velocity P-wave (km/s) = 4.75849 1.74445 3.13051
#
# Compressibility (1/GPa) = 0.12559230
#
# Stress axis : x y z
#
# Youngs Moduli (GPa) = 34.43138 52.87104 33.56837
#
# Poissons Ratio (x) = -0.15499 -0.59645
# Poissons Ratio (y) = -0.10093 -0.10819
# Poissons Ratio (z) = -0.61178 -0.17041
#
# Static dielectric constant tensor:
#      x y z
#    x 1.807130 0.000000 0.026890 
#    y 0.000000 1.865880 0.000000 
#    z 0.026890 0.000000 1.837530 
# 
# From -- ./inp_files/66483.got.cif
#   From: 2010.05.17/outbox.cif.g08.bks.cpg/sg10_34_cif.got.tgz:66483.got - 2010.06.03 11:33:40.
