data_PCOD9147406
_publ_section_title
;
Structure prediction by ZEFSAII (Michael W. Deem and Ramdas Pophale) SiO2 
 PCOD9147406
Probable space group: P 2/M
;
_chemical_formula_sum "Si O2"
_cell_formula_units_Z 32
_cell_length_a 12.208607
_cell_length_b 9.000484
_cell_length_c 20.258283
_cell_angle_alpha 90.000000
_cell_angle_beta 51.822808
_cell_angle_gamma 90.000000
_cell_volume 1749.903370
_symmetry_space_group_name_H-M "P 2/M"
_symmetry_group_IT_number 10
_symmetry_cell_setting 'monoclinic'
loop_
_space_group_symop_operation_xyz
x,y,z
-x,y,-z
-x,-y,-z
x,-y,z
loop_
_atom_site_type_symbol
_atom_site_label
_atom_site_fract_x
_atom_site_fract_y
_atom_site_fract_z
Si Si1 0.820946 0.675309 0.331343
Si Si2 0.797871 0.674447 0.710945
Si Si3 0.885184 0.176899 0.810692
Si Si4 0.195614 0.679690 0.878942
Si Si5 0.310211 0.824949 0.374465
Si Si6 0.115995 0.679621 0.051619
Si Si7 0.411560 0.678665 0.687735
Si Si8 0.116758 0.670655 0.543982
O O1 0.854934 0.500000 0.306827
O O2 0.684792 0.710507 0.339749
O O3 0.803632 0.692829 0.416157
O O4 0.954721 0.768870 0.259148
O O5 0.768930 0.500000 0.729546
O O6 0.801502 0.754458 0.780162
O O7 0.699245 0.747538 0.693374
O O8 0.955139 0.688560 0.623056
O O9 0.838427 0.243000 0.898245
O O10 0.878172 0.000000 0.812477
O O11 0.196565 0.500000 0.878753
O O12 0.320385 0.726930 0.785342
O O13 0.045812 0.719864 0.903419
O O14 0.197829 0.725007 0.954653
O O15 0.442286 0.760070 0.364152
O O16 0.175093 0.778533 0.467166
O O17 0.318465 0.000000 0.364056
O O18 0.122649 0.500000 0.056090
O O19 0.432748 0.500000 0.682401
O O20 0.137842 0.500000 0.513692
#
# Coordination Sequence:
#
# PCOD9147406 Si02
#       8
#     4   4   4   4   4   4   4   4
#     4   9  18  34  56  78 103 139 182 221 258 303
#     4  10  21  39  61  79  98 132 180 228 263 304
#     4  11  20  30  50  82 115 141 166 210 270 322
#     4   8  15  28  53  80 104 137 180 223 253 292
#     4  12  25  37  51  76 108 142 174 214 270 322
#     4   9  15  29  52  80 108 137 177 218 256 302
#     4  10  19  35  56  76 104 144 185 219 254 305
#     4   9  19  36  58  81 101 129 174 226 268 307
#
# _framework density 18.286722999999999
#
# number of rings (size 3 to 8) (size 9 to 14) (size 15 to 20)
#    0.000    2.250    1.250    4.500    0.000    5.000 
#    0.000    4.375    0.000    0.750    0.000    5.250 
#    0.000    0.000    0.000    0.000    0.000    0.000 
#
# Total GULP energy -178594.604335 kJ/mol
# GULP energy per Si atom -5581.081385 kJ/mol
# Density = 1.824510 g / cm^3
# Si number density = 18.286723 Si / 1000 Ang^3
#
#
#
# Elastic Constant Matrix: (Units=GPa)
#
#
# Indices 1 2 3 4 5 6 
#
# 1 76.3816 38.7512 8.3952 0.0000 25.8607 0.0000
# 2 38.7512 72.8008 18.2034 0.0000 18.3660 0.0000
# 3 8.3952 18.2034 29.4812 0.0000 16.8575 0.0000
# 4 0.0000 0.0000 0.0000 -4.7106 0.0000 -1.9093
# 5 25.8607 18.3660 16.8575 0.0000 25.2910 0.0000
# 6 0.0000 0.0000 0.0000 -1.9093 0.0000 10.0080
#
#
#
# Elastic Compliance Matrix: (Units=1/GPa)
#
#
# Indices 1 2 3 4 5 6 
#
# 1 0.027347 -0.010870 0.016805 0.000000 -0.031271 0.000000
# 2 -0.010870 0.021707 -0.012361 0.000000 0.003590 0.000000
# 3 0.016805 -0.012361 0.066992 0.000000 -0.052860 0.000000
# 4 0.000000 0.000000 0.000000 -0.197050 0.000000 -0.037593
# 5 -0.031271 0.003590 -0.052860 0.000000 0.104142 0.000000
# 6 0.000000 0.000000 0.000000 -0.037593 0.000000 0.092749
#
#
# Mechanical properties :
#
#
# Convention : Reuss Voigt Hill
#
# Bulk Modulus (GPa) = 9.69031 34.37367 22.03199
# Shear Modulus (GPa) = 30.64932 13.67194 22.16063
#
# Velocity S-wave (km/s) = 4.09839 2.73727 3.48493
# Velocity P-wave (km/s) = 5.26368 5.36918 5.31669
#
# Compressibility (1/GPa) = 0.10319585
#
# Stress axis : x y z
#
# Youngs Moduli (GPa) = 36.56681 46.06831 14.92707
#
# Poissons Ratio (x) = 0.50075 -0.25085
# Poissons Ratio (y) = 0.39747 0.18451
# Poissons Ratio (z) = -0.61450 0.56943
#
# Static dielectric constant tensor:
#      x y z
#    x 1.638640 0.000000 0.014460 
#    y 0.000000 1.605740 0.000000 
#    z 0.014460 0.000000 1.637600 
# 
# From -- ./inp_files/83526.got.cif
#   From: 2010.05.17/outbox.cif.g08.bks.cpg/sg10_42_cif.got.tgz:83526.got - 2010.06.03 11:33:40.
