data_PCOD9147617
_publ_section_title
;
Structure prediction by ZEFSAII (Michael W. Deem and Ramdas Pophale) SiO2 
 PCOD9147617
Probable space group: P 2/M
;
_chemical_formula_sum "Si O2"
_cell_formula_units_Z 28
_cell_length_a 9.739318
_cell_length_b 8.587900
_cell_length_c 27.852833
_cell_angle_alpha 90.000000
_cell_angle_beta 139.570348
_cell_angle_gamma 90.000000
_cell_volume 1510.790374
_symmetry_space_group_name_H-M "P 2/M"
_symmetry_group_IT_number 10
_symmetry_cell_setting 'monoclinic'
loop_
_space_group_symop_operation_xyz
x,y,z
-x,y,-z
-x,-y,-z
x,-y,z
loop_
_atom_site_type_symbol
_atom_site_label
_atom_site_fract_x
_atom_site_fract_y
_atom_site_fract_z
Si Si1 0.636648 0.186233 0.714616
Si Si2 0.749881 0.823647 0.928911
Si Si3 0.857569 0.810324 0.417738
Si Si4 0.023426 0.315216 0.760516
Si Si5 0.574579 0.814508 0.072542
Si Si6 0.119784 0.818181 0.681843
Si Si7 0.568317 0.322987 0.792053
O O1 0.389864 0.233867 0.641311
O O2 0.804211 0.240221 0.720015
O O3 0.700824 0.267287 0.781700
O O4 0.642793 0.000000 0.720712
O O5 0.622078 0.793506 0.943537
O O6 0.690064 0.697807 0.873602
O O7 0.687433 0.000000 0.896532
O O8 0.000000 0.823501 0.000000
O O9 0.948629 0.761631 0.389688
O O10 0.000000 0.757034 0.500000
O O11 0.860115 0.000000 0.417642
O O12 0.012741 0.500000 0.761638
O O13 0.219164 0.256992 0.846129
O O14 0.056831 0.268529 0.713701
O O15 0.617072 0.000000 0.079345
O O16 0.500000 0.757330 0.000000
O O17 0.371287 0.793557 0.744074
O O18 0.066394 0.000000 0.672944
O O19 0.494778 0.500000 0.765915
#
# Coordination Sequence:
#
# PCOD9147617 Si02
#       7
#     4   4   4   4   4   4   4
#     4  10  21  37  60  85 114 152 192 232 282 344
#     4  10  21  36  55  79 108 144 190 237 286 342
#     4   8  16  34  62  93 117 141 186 242 284 327
#     4  12  24  38  57  84 119 154 193 243 288 337
#     4  10  22  39  58  81 111 150 194 240 293 348
#     4  10  19  35  60  85 112 152 192 228 279 342
#     4  11  21  35  55  82 113 145 186 237 285 332
#
# _framework density 18.533345000000001
#
# number of rings (size 3 to 8) (size 9 to 14) (size 15 to 20)
#    0.000    1.857    1.429    4.286    2.000    0.571 
#    0.000    0.714    0.000   19.714    0.000    0.000 
#    0.000    0.000    0.000    0.000    0.000    0.000 
#
# Total GULP energy -156095.270563 kJ/mol
# GULP energy per Si atom -5574.831092 kJ/mol
# Density = 1.849116 g / cm^3
# Si number density = 18.533345 Si / 1000 Ang^3
#
#
#
# Elastic Constant Matrix: (Units=GPa)
#
#
# Indices 1 2 3 4 5 6 
#
# 1 115.2128 20.9446 54.8948 0.0000 -11.2988 0.0000
# 2 20.9446 50.2351 31.3420 0.0000 -7.6435 0.0000
# 3 54.8948 31.3420 98.3318 0.0000 -23.5189 0.0000
# 4 0.0000 0.0000 0.0000 -0.4505 0.0000 3.8266
# 5 -11.2988 -7.6435 -23.5189 0.0000 27.7065 0.0000
# 6 0.0000 0.0000 0.0000 3.8266 0.0000 2.0516
#
#
#
# Elastic Compliance Matrix: (Units=1/GPa)
#
#
# Indices 1 2 3 4 5 6 
#
# 1 0.011888 -0.001022 -0.006548 0.000000 -0.000993 0.000000
# 2 -0.001022 0.024936 -0.007317 0.000000 0.000251 0.000000
# 3 -0.006548 -0.007317 0.018867 0.000000 0.011326 0.000000
# 4 0.000000 0.000000 0.000000 -0.131794 0.000000 0.245816
# 5 -0.000993 0.000251 0.011326 0.000000 0.045371 0.000000
# 6 0.000000 0.000000 0.000000 0.245816 0.000000 0.028937
#
#
# Mechanical properties :
#
#
# Convention : Reuss Voigt Hill
#
# Bulk Modulus (GPa) = 38.58738 53.12696 45.85717
# Shear Modulus (GPa) = 136.53769 16.30140 76.41955
#
# Velocity S-wave (km/s) = 8.59251 2.96897 6.42830
# Velocity P-wave (km/s) = 10.92280 6.36246 8.93835
#
# Compressibility (1/GPa) = 0.02591521
#
# Stress axis : x y z
#
# Youngs Moduli (GPa) = 84.11788 40.10246 53.00378
#
# Poissons Ratio (x) = 0.04099 0.34708
# Poissons Ratio (y) = 0.08597 0.38785
# Poissons Ratio (z) = 0.55083 0.29345
#
# Static dielectric constant tensor:
#      x y z
#    x 1.648490 0.000000 -0.029520 
#    y 0.000000 1.639100 0.000000 
#    z -0.029520 0.000000 1.665800 
# 
# From -- ./inp_files/92090.got.cif
#   From: 2010.05.17/outbox.cif.g08.bks.cpg/sg10_47_cif.got.tgz:92090.got - 2010.06.03 11:33:40.
