data_PCOD9147251
_publ_section_title
;
Structure prediction by ZEFSAII (Michael W. Deem and Ramdas Pophale) SiO2 
 PCOD9147251
Probable space group: P 2/M
;
_chemical_formula_sum "Si O2"
_cell_formula_units_Z 24
_cell_length_a 14.693444
_cell_length_b 8.498660
_cell_length_c 15.005092
_cell_angle_alpha 90.000000
_cell_angle_beta 35.808251
_cell_angle_gamma 90.000000
_cell_volume 1096.285995
_symmetry_space_group_name_H-M "P 2/M"
_symmetry_group_IT_number 10
_symmetry_cell_setting 'monoclinic'
loop_
_space_group_symop_operation_xyz
x,y,z
-x,y,-z
-x,-y,-z
x,-y,z
loop_
_atom_site_type_symbol
_atom_site_label
_atom_site_fract_x
_atom_site_fract_y
_atom_site_fract_z
Si Si1 0.282686 0.809678 0.422528
Si Si2 0.074920 0.189847 0.244822
Si Si3 0.617917 0.675167 0.489000
Si Si4 0.338700 0.808390 0.174036
Si Si5 0.156632 0.680025 0.989177
Si Si6 0.840671 0.176448 0.191367
O O1 0.406860 0.729560 0.390542
O O2 0.317220 0.760906 0.293660
O O3 0.105166 0.763819 0.592940
O O4 0.293171 0.000000 0.418756
O O5 0.188537 0.237610 0.235117
O O6 0.153171 0.253957 0.091743
O O7 0.074022 0.000000 0.238992
O O8 0.500000 0.664629 0.500000
O O9 0.687704 0.500000 0.438677
O O10 0.727475 0.809294 0.363213
O O11 0.341922 0.000000 0.171113
O O12 0.500000 0.755360 0.000000
O O13 0.208343 0.500000 0.943650
O O14 0.974852 0.699841 0.107354
O O15 0.230512 0.779126 0.848397
O O16 0.901523 0.000000 0.143925
#
# Coordination Sequence:
#
# PCOD9147251 Si02
#       6
#     4   4   4   4   4   4
#     4  10  20  36  60  87 116 154 201 252 299 351
#     4  10  19  34  58  88 119 155 200 249 296 352
#     4  11  24  40  58  84 121 161 198 244 302 360
#     4   9  19  36  59  88 119 151 194 248 305 358
#     4  11  21  34  56  85 119 154 191 240 297 350
#     4  11  21  36  57  83 115 153 199 244 289 347
#
# _framework density 21.892099000000002
#
# number of rings (size 3 to 8) (size 9 to 14) (size 15 to 20)
#    0.000    1.667    1.667    5.000    0.000    4.667 
#    0.000    2.500    0.000    3.000    0.000    0.000 
#    0.000    0.000    0.000    0.000    0.000    0.000 
#
# Total GULP energy -133706.806873 kJ/mol
# GULP energy per Si atom -5571.116953 kJ/mol
# Density = 2.184227 g / cm^3
# Si number density = 21.892099 Si / 1000 Ang^3
#
#
#
# Elastic Constant Matrix: (Units=GPa)
#
#
# Indices 1 2 3 4 5 6 
#
# 1 158.4533 16.8367 53.2288 0.0000 38.8719 0.0000
# 2 16.8367 37.6975 1.8268 0.0000 5.1568 0.0000
# 3 53.2288 1.8268 53.7897 0.0000 32.4746 0.0000
# 4 0.0000 0.0000 0.0000 1.4173 0.0000 3.6830
# 5 38.8719 5.1568 32.4746 0.0000 46.7306 0.0000
# 6 0.0000 0.0000 0.0000 3.6830 0.0000 22.0021
#
#
#
# Elastic Compliance Matrix: (Units=1/GPa)
#
#
# Indices 1 2 3 4 5 6 
#
# 1 0.010122 -0.003833 -0.008714 0.000000 -0.001941 0.000000
# 2 -0.003833 0.028457 0.004819 0.000000 -0.003301 0.000000
# 3 -0.008714 0.004819 0.039617 0.000000 -0.020814 0.000000
# 4 0.000000 0.000000 0.000000 1.248713 0.000000 -0.209028
# 5 -0.001941 -0.003301 -0.020814 0.000000 0.037842 0.000000
# 6 0.000000 0.000000 0.000000 -0.209028 0.000000 0.080440
#
#
# Mechanical properties :
#
#
# Convention : Reuss Voigt Hill
#
# Bulk Modulus (GPa) = 15.93887 43.74725 29.84306
# Shear Modulus (GPa) = 3.37482 25.89988 14.63735
#
# Velocity S-wave (km/s) = 1.24295 3.44331 2.58856
# Velocity P-wave (km/s) = 3.05881 5.98624 4.75349
#
# Compressibility (1/GPa) = 0.06273972
#
# Stress axis : x y z
#
# Youngs Moduli (GPa) = 98.79684 35.14093 25.24186
#
# Poissons Ratio (x) = 0.13469 0.21997
# Poissons Ratio (y) = 0.37868 -0.12165
# Poissons Ratio (z) = 0.86095 -0.16936
#
# Static dielectric constant tensor:
#      x y z
#    x 1.865460 0.000000 -0.028410 
#    y 0.000000 1.745710 0.000000 
#    z -0.028410 0.000000 1.874170 
# 
# From -- ./inp_files/66319.got.cif
#   From: 2010.05.17/outbox.cif.g08.bks.cpg/sg10_34_cif.got.tgz:66319.got - 2010.06.03 11:33:40.
