data_PCOD9147374
_publ_section_title
;
Structure prediction by ZEFSAII (Michael W. Deem and Ramdas Pophale) SiO2 
 PCOD9147374
Probable space group: P 2/M
;
_chemical_formula_sum "Si O2"
_cell_formula_units_Z 32
_cell_length_a 17.810097
_cell_length_b 17.636412
_cell_length_c 13.187926
_cell_angle_alpha 90.000000
_cell_angle_beta 155.516619
_cell_angle_gamma 90.000000
_cell_volume 1716.735781
_symmetry_space_group_name_H-M "P 2/M"
_symmetry_group_IT_number 10
_symmetry_cell_setting 'monoclinic'
loop_
_space_group_symop_operation_xyz
x,y,z
-x,y,-z
-x,-y,-z
x,-y,z
loop_
_atom_site_type_symbol
_atom_site_label
_atom_site_fract_x
_atom_site_fract_y
_atom_site_fract_z
Si Si1 0.651388 0.668991 0.763862
Si Si2 0.798917 0.915101 0.879230
Si Si3 0.411240 0.653408 0.983972
Si Si4 0.914947 0.265579 0.500538
Si Si5 0.403683 0.753556 0.620802
Si Si6 0.997229 0.769287 0.830307
Si Si7 0.148555 0.584606 0.819428
Si Si8 0.517616 0.086349 0.347553
O O1 0.500000 0.640456 0.500000
O O2 0.532868 0.725967 0.688269
O O3 0.737940 0.604031 0.940067
O O4 0.826157 0.715705 0.938121
O O5 0.670256 0.905562 0.820336
O O6 0.669559 0.907417 0.622541
O O7 0.873816 0.000000 0.971850
O O8 0.948565 0.851418 0.064160
O O9 0.540771 0.698594 0.219223
O O10 0.286160 0.599199 0.896628
O O11 0.500000 0.610424 0.000000
O O12 0.290223 0.718086 0.780931
O O13 0.000000 0.233751 0.500000
O O14 0.954772 0.225881 0.656435
O O15 0.002435 0.349004 0.626611
O O16 0.448870 0.843153 0.686085
O O17 0.188077 0.743725 0.343746
O O18 0.075489 0.500000 0.730015
O O19 0.524713 0.000000 0.315257
#
# Coordination Sequence:
#
# PCOD9147374 Si02
#       8
#     4   4   4   4   4   4   4   4
#     4  10  21  36  54  79 112 145 179 217 263 318
#     4   9  18  32  51  75 107 142 179 221 272 321
#     4  10  19  35  54  78 108 134 172 221 273 317
#     4   9  19  34  55  77 104 136 173 219 269 320
#     4  11  21  33  56  82 107 141 185 227 263 321
#     4  11  20  33  55  80 107 141 182 226 267 314
#     4   9  20  36  56  82 106 136 178 217 263 324
#     4   9  18  33  51  75 108 144 177 221 273 316
#
# _framework density 18.640027
#
# number of rings (size 3 to 8) (size 9 to 14) (size 15 to 20)
#    0.000    2.250    2.500    2.250    0.000    5.250 
#    0.000    1.250    0.000    1.500    0.000    3.500 
#    0.000    0.000    0.000    0.000    0.000    0.000 
#
# Total GULP energy -178346.708246 kJ/mol
# GULP energy per Si atom -5573.334633 kJ/mol
# Density = 1.859760 g / cm^3
# Si number density = 18.640027 Si / 1000 Ang^3
#
#
#
# Elastic Constant Matrix: (Units=GPa)
#
#
# Indices 1 2 3 4 5 6 
#
# 1 42.0932 12.3560 5.4925 0.0000 9.0630 0.0000
# 2 12.3560 59.2580 7.0762 0.0000 3.3190 0.0000
# 3 5.4925 7.0762 83.0708 0.0000 9.4155 0.0000
# 4 0.0000 0.0000 0.0000 13.9624 0.0000 0.1661
# 5 9.0630 3.3190 9.4155 0.0000 31.1276 0.0000
# 6 0.0000 0.0000 0.0000 0.1661 0.0000 0.2021
#
#
#
# Elastic Compliance Matrix: (Units=1/GPa)
#
#
# Indices 1 2 3 4 5 6 
#
# 1 0.026867 -0.005140 -0.000532 0.000000 -0.007113 0.000000
# 2 -0.005140 0.018094 -0.001193 0.000000 -0.000072 0.000000
# 3 -0.000532 -0.001193 0.012574 0.000000 -0.003521 0.000000
# 4 0.000000 0.000000 0.000000 0.072329 0.000000 -0.059463
# 5 -0.007113 -0.000072 -0.003521 0.000000 0.035270 0.000000
# 6 0.000000 0.000000 0.000000 -0.059463 0.000000 4.997068
#
#
# Mechanical properties :
#
#
# Convention : Reuss Voigt Hill
#
# Bulk Modulus (GPa) = 22.82955 26.03015 24.42985
# Shear Modulus (GPa) = 0.96329 19.69156 10.32742
#
# Velocity S-wave (km/s) = 0.71966 3.25378 2.35637
# Velocity P-wave (km/s) = 3.60066 5.30199 4.53187
#
# Compressibility (1/GPa) = 0.04380289
#
# Stress axis : x y z
#
# Youngs Moduli (GPa) = 37.22086 55.26802 79.53005
#
# Poissons Ratio (x) = 0.28408 0.04233
# Poissons Ratio (y) = 0.19132 0.09490
# Poissons Ratio (z) = 0.01981 0.06595
#
# Static dielectric constant tensor:
#      x y z
#    x 1.730700 0.000000 0.016360 
#    y 0.000000 1.625520 0.000000 
#    z 0.016360 0.000000 1.665530 
# 
# From -- ./inp_files/70885.got.cif
#   From: 2010.05.17/outbox.cif.g08.bks.cpg/sg10_36_cif.got.tgz:70885.got - 2010.06.03 11:33:40.
