data_PCOD9147312
_publ_section_title
;
Structure prediction by ZEFSAII (Michael W. Deem and Ramdas Pophale) SiO2 
 PCOD9147312
Probable space group: P 2/M
;
_chemical_formula_sum "Si O2"
_cell_formula_units_Z 28
_cell_length_a 16.059408
_cell_length_b 18.315788
_cell_length_c 5.605320
_cell_angle_alpha 90.000000
_cell_angle_beta 56.619816
_cell_angle_gamma 90.000000
_cell_volume 1376.771584
_symmetry_space_group_name_H-M "P 2/M"
_symmetry_group_IT_number 10
_symmetry_cell_setting 'monoclinic'
loop_
_space_group_symop_operation_xyz
x,y,z
-x,y,-z
-x,-y,-z
x,-y,z
loop_
_atom_site_type_symbol
_atom_site_label
_atom_site_fract_x
_atom_site_fract_y
_atom_site_fract_z
Si Si1 0.115873 0.087632 0.343432
Si Si2 0.399540 0.648415 0.278728
Si Si3 0.248292 0.291427 0.122733
Si Si4 0.395184 0.203745 0.574977
Si Si5 0.889723 0.292524 0.270208
Si Si6 0.777731 0.417367 0.215044
Si Si7 0.792242 0.146209 0.297662
O O1 0.163812 0.115644 0.520447
O O2 0.000000 0.111810 0.500000
O O3 0.117080 0.000000 0.358928
O O4 0.168498 0.108293 0.007130
O O5 0.322428 0.680255 0.209777
O O6 0.421910 0.718715 0.408544
O O7 0.335645 0.587205 0.511152
O O8 0.500000 0.622139 0.000000
O O9 0.142064 0.272731 0.409912
O O10 0.315057 0.227493 0.903352
O O11 0.226289 0.361241 0.995944
O O12 0.500000 0.172772 0.500000
O O13 0.328297 0.151550 0.513960
O O14 0.851215 0.374529 0.279545
O O15 0.827525 0.230980 0.227612
O O16 0.000000 0.286009 0.000000
O O17 0.807126 0.500000 0.120117
#
# Coordination Sequence:
#
# PCOD9147312 Si02
#       7
#     4   4   4   4   4   4   4
#     4  11  25  45  70 102 141 182 220 268 338 406
#     4  10  19  34  60  83 118 160 216 279 340 396
#     4  10  19  38  55  82 122 162 213 276 326 399
#     4  11  21  35  63  98 131 169 217 270 338 402
#     4  11  23  38  61  90 121 162 218 280 332 389
#     4  10  23  39  54  80 121 168 216 274 340 408
#     4  12  23  41  69 104 137 172 225 281 332 393
#
# _framework density 20.337434999999999
#
# number of rings (size 3 to 8) (size 9 to 14) (size 15 to 20)
#    0.000    1.286    5.714    2.571    0.000    4.571 
#    0.000    1.429    0.000    2.571    0.000    0.000 
#    0.000    0.000    0.000    0.000    0.000    0.000 
#
# Total GULP energy -155992.282343 kJ/mol
# GULP energy per Si atom -5571.152941 kJ/mol
# Density = 2.029115 g / cm^3
# Si number density = 20.337435 Si / 1000 Ang^3
#
#
#
# Elastic Constant Matrix: (Units=GPa)
#
#
# Indices 1 2 3 4 5 6 
#
# 1 115.4234 35.1489 43.5947 0.0000 -1.2861 0.0000
# 2 35.1489 82.0055 20.5220 0.0000 2.9076 0.0000
# 3 43.5947 20.5220 120.5557 0.0000 -9.3912 0.0000
# 4 0.0000 0.0000 0.0000 7.0979 0.0000 -2.3127
# 5 -1.2861 2.9076 -9.3912 0.0000 36.5455 0.0000
# 6 0.0000 0.0000 0.0000 -2.3127 0.0000 23.2380
#
#
#
# Elastic Compliance Matrix: (Units=1/GPa)
#
#
# Indices 1 2 3 4 5 6 
#
# 1 0.011129 -0.003921 -0.003369 0.000000 -0.000162 0.000000
# 2 -0.003921 0.014211 -0.001123 0.000000 -0.001557 0.000000
# 3 -0.003369 -0.001123 0.009900 0.000000 0.002515 0.000000
# 4 0.000000 0.000000 0.000000 0.145609 0.000000 0.014491
# 5 -0.000162 -0.001557 0.002515 0.000000 0.028128 0.000000
# 6 0.000000 0.000000 0.000000 0.014491 0.000000 0.044475
#
#
# Mechanical properties :
#
#
# Convention : Reuss Voigt Hill
#
# Bulk Modulus (GPa) = 54.30621 57.39064 55.84842
# Shear Modulus (GPa) = 18.08874 27.95755 23.02315
#
# Velocity S-wave (km/s) = 2.98557 3.71170 3.36826
# Velocity P-wave (km/s) = 6.21654 6.83004 6.53050
#
# Compressibility (1/GPa) = 0.01841410
#
# Stress axis : x y z
#
# Youngs Moduli (GPa) = 89.85883 70.36799 101.00654
#
# Poissons Ratio (x) = 0.27591 0.34033
# Poissons Ratio (y) = 0.35233 0.11338
# Poissons Ratio (z) = 0.30277 0.07899
#
# Static dielectric constant tensor:
#      x y z
#    x 1.781040 0.000000 0.042720 
#    y 0.000000 1.702210 0.000000 
#    z 0.042720 0.000000 1.837070 
# 
# From -- ./inp_files/9751.got.cif
#   From: 2010.05.17/outbox.cif.g08.bks.cpg/sg10_5_cif.got.tgz:9751.got - 2010.06.03 11:33:40.
