data_PCOD9147252
_publ_section_title
;
Structure prediction by ZEFSAII (Michael W. Deem and Ramdas Pophale) SiO2 
 PCOD9147252
Probable space group: P 2/M
;
_chemical_formula_sum "Si O2"
_cell_formula_units_Z 26
_cell_length_a 20.205382
_cell_length_b 13.545783
_cell_length_c 9.249631
_cell_angle_alpha 90.000000
_cell_angle_beta 149.747437
_cell_angle_gamma 90.000000
_cell_volume 1275.453493
_symmetry_space_group_name_H-M "P 2/M"
_symmetry_group_IT_number 10
_symmetry_cell_setting 'monoclinic'
loop_
_space_group_symop_operation_xyz
x,y,z
-x,y,-z
-x,-y,-z
x,-y,z
loop_
_atom_site_type_symbol
_atom_site_label
_atom_site_fract_x
_atom_site_fract_y
_atom_site_fract_z
Si Si1 0.041253 0.679157 0.409378
Si Si2 0.288893 0.113501 0.226365
Si Si3 0.260442 0.389461 0.627911
Si Si4 0.874306 0.108183 0.366641
Si Si5 0.491541 0.615895 0.267355
Si Si6 0.500000 0.768376 0.500000
Si Si7 0.216947 0.697891 0.248900
O O1 0.161056 0.615346 0.575193
O O2 0.094271 0.792407 0.487890
O O3 0.000000 0.669151 0.500000
O O4 0.911686 0.655272 0.071598
O O5 0.433210 0.158432 0.487258
O O6 0.216011 0.188523 0.194147
O O7 0.278918 0.000000 0.248018
O O8 0.239418 0.124324 0.966960
O O9 0.259015 0.500000 0.562357
O O10 0.214283 0.317035 0.414885
O O11 0.406046 0.369693 0.961939
O O12 0.000000 0.098652 0.500000
O O13 0.855837 0.000000 0.403662
O O14 0.484653 0.500000 0.291185
O O15 0.424327 0.688085 0.258614
O O16 0.643840 0.649094 0.538322
#
# Coordination Sequence:
#
# PCOD9147252 Si02
#       7
#     4   4   4   4   4   2   4
#     4  11  22  39  61  91 122 154 199 251 299 348
#     4  10  19  34  58  88 121 157 195 239 296 356
#     4  11  25  43  61  83 119 164 203 244 301 363
#     4   9  16  31  57  84 112 147 188 235 289 342
#     4  10  22  39  63  88 116 156 206 250 295 353
#     4  10  20  34  58  92 124 148 190 252 302 348
#     4  11  22  38  62  88 120 161 199 246 297 355
#
# _framework density 20.384905
#
# number of rings (size 3 to 8) (size 9 to 14) (size 15 to 20)
#    0.000    1.692    3.077    2.769    2.154    3.385 
#    0.000    0.769    0.000   10.154    0.000    0.000 
#    0.000    0.000    0.000    0.000    0.000    0.000 
#
# Total GULP energy -144797.168297 kJ/mol
# GULP energy per Si atom -5569.121858 kJ/mol
# Density = 2.033851 g / cm^3
# Si number density = 20.384905 Si / 1000 Ang^3
#
#
#
# Elastic Constant Matrix: (Units=GPa)
#
#
# Indices 1 2 3 4 5 6 
#
# 1 51.6938 5.3102 12.8671 0.0000 -3.3421 0.0000
# 2 5.3102 71.6319 34.4490 0.0000 6.6695 0.0000
# 3 12.8671 34.4490 105.3644 0.0000 -3.0783 0.0000
# 4 0.0000 0.0000 0.0000 23.0802 0.0000 -5.3426
# 5 -3.3421 6.6695 -3.0783 0.0000 18.1146 0.0000
# 6 0.0000 0.0000 0.0000 -5.3426 0.0000 21.7635
#
#
#
# Elastic Compliance Matrix: (Units=1/GPa)
#
#
# Indices 1 2 3 4 5 6 
#
# 1 0.020187 -0.000837 -0.002084 0.000000 0.003678 0.000000
# 2 -0.000837 0.017548 -0.005857 0.000000 -0.007611 0.000000
# 3 -0.002084 -0.005857 0.011771 0.000000 0.003772 0.000000
# 4 0.000000 0.000000 0.000000 0.045938 0.000000 0.011277
# 5 0.003678 -0.007611 0.003772 0.000000 0.059326 0.000000
# 6 0.000000 0.000000 0.000000 0.011277 0.000000 0.048717
#
#
# Mechanical properties :
#
#
# Convention : Reuss Voigt Hill
#
# Bulk Modulus (GPa) = 31.29981 37.10471 34.20226
# Shear Modulus (GPa) = 21.58034 24.32927 22.95480
#
# Velocity S-wave (km/s) = 3.25721 3.45845 3.35934
# Velocity P-wave (km/s) = 5.43448 5.84717 5.64460
#
# Compressibility (1/GPa) = 0.03194908
#
# Stress axis : x y z
#
# Youngs Moduli (GPa) = 49.53630 56.98707 84.95662
#
# Poissons Ratio (x) = 0.04768 0.17707
# Poissons Ratio (y) = 0.04144 0.49763
# Poissons Ratio (z) = 0.10325 0.33380
#
# Static dielectric constant tensor:
#      x y z
#    x 1.814470 0.000000 0.190980 
#    y 0.000000 1.754200 0.000000 
#    z 0.190980 0.000000 2.363960 
# 
# From -- ./inp_files/35183.got.cif
#   From: 2010.05.17/outbox.cif.g08.bks.cpg/sg10_18_cif.got.tgz:35183.got - 2010.06.03 11:33:40.
