data_PCOD9147897
_publ_section_title
;
Structure prediction by ZEFSAII (Michael W. Deem and Ramdas Pophale) SiO2 
 PCOD9147897
Probable space group: P 2/M
;
_chemical_formula_sum "Si O2"
_cell_formula_units_Z 32
_cell_length_a 34.215757
_cell_length_b 8.692367
_cell_length_c 12.873475
_cell_angle_alpha 90.000000
_cell_angle_beta 25.345658
_cell_angle_gamma 90.000000
_cell_volume 1639.015602
_symmetry_space_group_name_H-M "P 2/M"
_symmetry_group_IT_number 10
_symmetry_cell_setting 'monoclinic'
loop_
_space_group_symop_operation_xyz
x,y,z
-x,y,-z
-x,-y,-z
x,-y,z
loop_
_atom_site_type_symbol
_atom_site_label
_atom_site_fract_x
_atom_site_fract_y
_atom_site_fract_z
Si Si1 0.608904 0.686415 0.502305
Si Si2 0.402740 0.687241 0.038622
Si Si3 0.958940 0.685793 0.210043
Si Si4 0.738550 0.816817 0.013758
Si Si5 0.892752 0.678669 0.780362
Si Si6 0.751232 0.313686 0.755387
Si Si7 0.116855 0.817603 0.969536
Si Si8 0.692661 0.685580 0.523966
O O1 0.612315 0.500000 0.486479
O O2 0.662226 0.756797 0.277321
O O3 0.657016 0.730457 0.495604
O O4 0.503433 0.735999 0.762493
O O5 0.404082 0.500000 0.035562
O O6 0.323447 0.735640 0.149953
O O7 0.375662 0.734069 0.220324
O O8 0.961466 0.500000 0.208939
O O9 0.854065 0.734247 0.477340
O O10 0.000000 0.732923 0.000000
O O11 0.025506 0.750213 0.138262
O O12 0.738520 0.000000 0.011303
O O13 0.834117 0.755508 0.830789
O O14 0.726978 0.750005 0.926681
O O15 0.864714 0.500000 0.857469
O O16 0.000000 0.684670 0.500000
O O17 0.875523 0.762709 0.930066
O O18 0.750560 0.500000 0.760835
O O19 0.206879 0.751588 0.697569
O O20 0.115695 0.000000 0.966567
O O21 0.698535 0.500000 0.511462
#
# Coordination Sequence:
#
# PCOD9147897 Si02
#       8
#     4   4   4   4   4   4   4   4
#     4  10  20  37  64  93 122 156 200 253 308 360
#     4   9  19  37  64  95 118 151 205 260 305 353
#     4  10  21  39  63  89 119 160 207 254 301 353
#     4  12  25  40  59  85 124 162 201 248 300 361
#     4  11  23  40  62  86 112 149 199 248 298 354
#     4  10  21  39  62  87 120 159 205 254 302 357
#     4  12  24  36  56  88 125 160 194 238 298 361
#     4  10  19  36  63  92 124 157 199 251 303 362
#
# _framework density 19.523914000000001
#
# number of rings (size 3 to 8) (size 9 to 14) (size 15 to 20)
#    0.000    1.500    1.250    4.500    0.000    8.750 
#    0.000    5.625    0.000    1.500    0.000    0.000 
#    0.000    0.000    0.000    0.000    0.000    0.000 
#
# Total GULP energy -178907.336787 kJ/mol
# GULP energy per Si atom -5590.854275 kJ/mol
# Density = 1.947948 g / cm^3
# Si number density = 19.523914 Si / 1000 Ang^3
#
#
#
# Elastic Constant Matrix: (Units=GPa)
#
#
# Indices 1 2 3 4 5 6 
#
# 1 107.0798 22.0408 58.5661 0.0000 2.9898 0.0000
# 2 22.0408 25.0165 30.0892 0.0000 -2.8934 0.0000
# 3 58.5661 30.0892 144.4261 0.0000 -6.0191 0.0000
# 4 0.0000 0.0000 0.0000 -15.6682 0.0000 -11.4434
# 5 2.9898 -2.8934 -6.0191 0.0000 36.3570 0.0000
# 6 0.0000 0.0000 0.0000 -11.4434 0.0000 -16.7512
#
#
#
# Elastic Compliance Matrix: (Units=1/GPa)
#
#
# Indices 1 2 3 4 5 6 
#
# 1 0.012976 -0.007009 -0.003896 0.000000 -0.002270 0.000000
# 2 -0.007009 0.057338 -0.008951 0.000000 0.003658 0.000000
# 3 -0.003896 -0.008951 0.010424 0.000000 0.001334 0.000000
# 4 0.000000 0.000000 0.000000 -0.127376 0.000000 0.087016
# 5 -0.002270 0.003658 0.001334 0.000000 0.028204 0.000000
# 6 0.000000 0.000000 0.000000 0.087016 0.000000 -0.119141
#
#
# Mechanical properties :
#
#
# Convention : Reuss Voigt Hill
#
# Bulk Modulus (GPa) = 24.37470 55.32382 39.84926
# Shear Modulus (GPa) = -59.39079 11.84259 -23.77410
#
# Velocity S-wave (km/s) = -5.52137 2.46553 -3.49333
# Velocity P-wave (km/s) = 5.30431 6.04178 2.04540
#
# Compressibility (1/GPa) = 0.04102614
#
# Stress axis : x y z
#
# Youngs Moduli (GPa) = 77.06627 17.44051 95.92910
#
# Poissons Ratio (x) = 0.12223 0.37377
# Poissons Ratio (y) = 0.54012 0.85867
# Poissons Ratio (z) = 0.30027 0.15611
#
# Static dielectric constant tensor:
#      x y z
#    x 1.658980 0.000000 0.001080 
#    y 0.000000 1.650590 0.000000 
#    z 0.001080 0.000000 1.685140 
# 
# From -- ./inp_files/58073.got.cif
#   From: 2010.05.17/outbox.cif.g08.bks.cpg/sg10_30_cif.got.tgz:58073.got - 2010.06.03 11:33:40.
