data_PCOD9147571
_publ_section_title
;
Structure prediction by ZEFSAII (Michael W. Deem and Ramdas Pophale) SiO2 
 PCOD9147571
Probable space group: P 2/M
;
_chemical_formula_sum "Si O2"
_cell_formula_units_Z 28
_cell_length_a 8.538951
_cell_length_b 22.652657
_cell_length_c 14.718438
_cell_angle_alpha 90.000000
_cell_angle_beta 31.069916
_cell_angle_gamma 90.000000
_cell_volume 1469.283169
_symmetry_space_group_name_H-M "P 2/M"
_symmetry_group_IT_number 10
_symmetry_cell_setting 'monoclinic'
loop_
_space_group_symop_operation_xyz
x,y,z
-x,y,-z
-x,-y,-z
x,-y,z
loop_
_atom_site_type_symbol
_atom_site_label
_atom_site_fract_x
_atom_site_fract_y
_atom_site_fract_z
Si Si1 0.760481 0.876743 0.201439
Si Si2 0.267750 0.433702 0.197344
Si Si3 0.630817 0.000000 0.330316
Si Si4 0.808907 0.653957 0.499697
Si Si5 0.859318 0.129330 0.801514
Si Si6 0.149974 0.000000 0.193348
Si Si7 0.350382 0.566914 0.805312
Si Si8 0.200806 0.210596 0.490950
O O1 0.582559 0.939352 0.301216
O O2 0.511346 0.825216 0.319556
O O3 0.953647 0.868862 0.197735
O O4 0.000000 0.878045 0.000000
O O5 0.132592 0.500000 0.257815
O O6 0.461956 0.432504 0.193735
O O7 0.019323 0.382631 0.326255
O O8 0.500000 0.425650 0.000000
O O9 0.500000 0.000000 0.500000
O O10 0.988457 0.000000 0.175680
O O11 0.507482 0.615785 0.665422
O O12 0.744137 0.721563 0.508697
O O13 0.000000 0.654233 0.500000
O O14 0.917347 0.063592 0.730317
O O15 0.002120 0.177516 0.665299
O O16 0.500000 0.136201 0.000000
O O17 0.500000 0.000000 0.000000
O O18 0.373956 0.500000 0.756234
O O19 0.000000 0.578958 0.000000
O O20 0.000000 0.210466 0.500000
#
# Coordination Sequence:
#
# PCOD9147571 Si02
#       8
#     4   4   2   4   4   2   4   4
#     4  11  22  38  59  84 112 145 184 227 278 331
#     4   9  17  32  55  81 106 134 172 219 269 319
#     4  10  19  35  59  84 110 140 176 227 281 330
#     4   9  19  35  54  75 104 143 183 218 258 317
#     4  10  20  38  60  82 109 142 181 230 281 329
#     4   8  16  31  55  80 102 130 168 217 271 320
#     4   9  17  32  55  80 104 133 171 217 268 317
#     4  11  23  38  54  78 112 151 191 227 269 323
#
# _framework density 19.056910999999999
#
# number of rings (size 3 to 8) (size 9 to 14) (size 15 to 20)
#    0.000    2.286    0.000    3.643    0.000    2.857 
#    0.000    9.286    0.000    3.429    0.000    0.000 
#    0.000    0.000    0.000    0.000    0.000    0.000 
#
# Total GULP energy -156130.564173 kJ/mol
# GULP energy per Si atom -5576.091578 kJ/mol
# Density = 1.901354 g / cm^3
# Si number density = 19.056911 Si / 1000 Ang^3
#
#
#
# Elastic Constant Matrix: (Units=GPa)
#
#
# Indices 1 2 3 4 5 6 
#
# 1 33.7447 33.1850 27.4399 0.0000 -2.4286 0.0000
# 2 33.1850 212.9359 112.6991 0.0000 -0.2803 0.0000
# 3 27.4399 112.6991 137.5794 0.0000 0.2665 0.0000
# 4 0.0000 0.0000 0.0000 -85.8694 0.0000 0.5929
# 5 -2.4286 -0.2803 0.2665 0.0000 33.0594 0.0000
# 6 0.0000 0.0000 0.0000 0.5929 0.0000 21.1968
#
#
#
# Elastic Compliance Matrix: (Units=1/GPa)
#
#
# Indices 1 2 3 4 5 6 
#
# 1 0.036844 -0.003259 -0.004684 0.000000 0.002717 0.000000
# 2 -0.003259 0.008580 -0.006378 0.000000 -0.000115 0.000000
# 3 -0.004684 -0.006378 0.013428 0.000000 -0.000506 0.000000
# 4 0.000000 0.000000 0.000000 -0.011643 0.000000 0.000326
# 5 0.002717 -0.000115 -0.000506 0.000000 0.030451 0.000000
# 6 0.000000 0.000000 0.000000 0.000326 0.000000 0.047168
#
#
# Mechanical properties :
#
#
# Convention : Reuss Voigt Hill
#
# Bulk Modulus (GPa) = 33.10191 81.21199 57.15695
# Shear Modulus (GPa) = 30.57384 7.73976 19.15680
#
# Velocity S-wave (km/s) = 4.00977 2.01748 3.17399
# Velocity P-wave (km/s) = 6.23261 6.93794 6.59471
#
# Compressibility (1/GPa) = 0.03020974
#
# Stress axis : x y z
#
# Youngs Moduli (GPa) = 27.14159 116.55643 74.47141
#
# Poissons Ratio (x) = 0.37991 0.34880
# Poissons Ratio (y) = 0.08847 0.47495
# Poissons Ratio (z) = 0.12712 0.74336
#
# Static dielectric constant tensor:
#      x y z
#    x 1.668060 0.000000 -0.010120 
#    y 0.000000 1.694910 0.000000 
#    z -0.010120 0.000000 1.660390 
# 
# From -- ./inp_files/62583.got.cif
#   From: 2010.05.17/outbox.cif.g08.bks.cpg/sg10_32_cif.got.tgz:62583.got - 2010.06.03 11:33:40.
