data_PCOD9147369
_publ_section_title
;
Structure prediction by ZEFSAII (Michael W. Deem and Ramdas Pophale) SiO2 
 PCOD9147369
Probable space group: P 2/M
;
_chemical_formula_sum "Si O2"
_cell_formula_units_Z 32
_cell_length_a 24.177693
_cell_length_b 8.623275
_cell_length_c 15.706676
_cell_angle_alpha 90.000000
_cell_angle_beta 31.768720
_cell_angle_gamma 90.000000
_cell_volume 1724.101905
_symmetry_space_group_name_H-M "P 2/M"
_symmetry_group_IT_number 10
_symmetry_cell_setting 'monoclinic'
loop_
_space_group_symop_operation_xyz
x,y,z
-x,y,-z
-x,-y,-z
x,-y,z
loop_
_atom_site_type_symbol
_atom_site_label
_atom_site_fract_x
_atom_site_fract_y
_atom_site_fract_z
Si Si1 0.884789 0.175875 0.688060
Si Si2 0.144519 0.314564 0.750211
Si Si3 0.373400 0.183182 0.406315
Si Si4 0.698324 0.680579 0.850101
Si Si5 0.206540 0.184295 0.010814
Si Si6 0.590421 0.313503 0.164719
Si Si7 0.933170 0.812862 0.966723
Si Si8 0.606299 0.681294 0.805263
O O1 0.815029 0.297290 0.729286
O O2 0.000000 0.179866 0.500000
O O3 0.842683 0.000000 0.729202
O O4 0.869366 0.207129 0.808113
O O5 0.139407 0.500000 0.758075
O O6 0.261493 0.259451 0.574611
O O7 0.114709 0.247664 0.882001
O O8 0.052549 0.251070 0.808195
O O9 0.473003 0.249062 0.328895
O O10 0.395533 0.224318 0.278639
O O11 0.366751 0.000000 0.427585
O O12 0.669383 0.500000 0.880043
O O13 0.686878 0.745124 0.770344
O O14 0.629347 0.742401 0.019452
O O15 0.318492 0.260428 0.889096
O O16 0.143340 0.237446 0.010141
O O17 0.225182 0.000000 0.977505
O O18 0.587298 0.500000 0.167961
O O19 0.937655 0.000000 0.961493
O O20 0.625787 0.500000 0.756820
O O21 0.500000 0.686865 0.000000
#
# Coordination Sequence:
#
# PCOD9147369 Si02
#       8
#     4   4   4   4   4   4   4   4
#     4   9  18  32  49  73 108 146 183 225 269 316
#     4  11  23  40  62  87 115 148 189 236 291 346
#     4  12  24  37  56  84 117 150 193 239 291 346
#     4   9  18  32  51  73 102 143 184 224 271 322
#     4   9  19  35  57  84 113 149 188 231 283 337
#     4  10  19  35  56  80 112 151 190 230 279 334
#     4  10  20  39  64  88 118 149 187 235 291 346
#     4  10  19  35  54  76 111 148 185 227 277 331
#
# _framework density 18.560389000000001
#
# number of rings (size 3 to 8) (size 9 to 14) (size 15 to 20)
#    0.000    2.000    1.250    3.750    0.000    3.500 
#    0.000    1.875    0.000    3.750    0.000    0.000 
#    0.000    0.000    0.000    0.000    0.000    0.000 
#
# Total GULP energy -178383.324344 kJ/mol
# GULP energy per Si atom -5574.478886 kJ/mol
# Density = 1.851814 g / cm^3
# Si number density = 18.560389 Si / 1000 Ang^3
#
#
#
# Elastic Constant Matrix: (Units=GPa)
#
#
# Indices 1 2 3 4 5 6 
#
# 1 144.9644 43.1318 47.6941 0.0000 -18.1065 0.0000
# 2 43.1318 71.2319 31.5126 0.0000 -11.6427 0.0000
# 3 47.6941 31.5126 89.8469 0.0000 -26.7837 0.0000
# 4 0.0000 0.0000 0.0000 21.6497 0.0000 -4.9658
# 5 -18.1065 -11.6427 -26.7837 0.0000 20.5966 0.0000
# 6 0.0000 0.0000 0.0000 -4.9658 0.0000 27.5071
#
#
#
# Elastic Compliance Matrix: (Units=1/GPa)
#
#
# Indices 1 2 3 4 5 6 
#
# 1 0.009312 -0.004005 -0.002895 0.000000 0.002157 0.000000
# 2 -0.004005 0.018451 -0.003733 0.000000 0.002055 0.000000
# 3 -0.002895 -0.003733 0.020558 0.000000 0.022078 0.000000
# 4 0.000000 0.000000 0.000000 0.048185 0.000000 0.008699
# 5 0.002157 0.002055 0.022078 0.000000 0.080319 0.000000
# 6 0.000000 0.000000 0.000000 0.008699 0.000000 0.037925
#
#
# Mechanical properties :
#
#
# Convention : Reuss Voigt Hill
#
# Bulk Modulus (GPa) = 36.96295 61.19112 49.07703
# Shear Modulus (GPa) = 20.40530 26.19765 23.30148
#
# Velocity S-wave (km/s) = 3.31932 3.76105 3.54706
# Velocity P-wave (km/s) = 5.88631 7.20422 6.57836
#
# Compressibility (1/GPa) = 0.02705412
#
# Stress axis : x y z
#
# Youngs Moduli (GPa) = 107.38966 54.19758 48.64357
#
# Poissons Ratio (x) = 0.21706 0.14084
# Poissons Ratio (y) = 0.43010 0.18158
# Poissons Ratio (z) = 0.31093 0.20231
#
# Static dielectric constant tensor:
#      x y z
#    x 1.679220 0.000000 -0.017830 
#    y 0.000000 1.644510 0.000000 
#    z -0.017830 0.000000 1.641810 
# 
# From -- ./inp_files/71409.got.cif
#   From: 2010.05.17/outbox.cif.g08.bks.cpg/sg10_36_cif.got.tgz:71409.got - 2010.06.03 11:33:40.
