data_PCOD9147565
_publ_section_title
;
Structure prediction by ZEFSAII (Michael W. Deem and Ramdas Pophale) SiO2 
 PCOD9147565
Probable space group: P 2/M
;
_chemical_formula_sum "Si O2"
_cell_formula_units_Z 28
_cell_length_a 28.107850
_cell_length_b 7.678881
_cell_length_c 9.685325
_cell_angle_alpha 90.000000
_cell_angle_beta 142.357330
_cell_angle_gamma 90.000000
_cell_volume 1276.710997
_symmetry_space_group_name_H-M "P 2/M"
_symmetry_group_IT_number 10
_symmetry_cell_setting 'monoclinic'
loop_
_space_group_symop_operation_xyz
x,y,z
-x,y,-z
-x,-y,-z
x,-y,z
loop_
_atom_site_type_symbol
_atom_site_label
_atom_site_fract_x
_atom_site_fract_y
_atom_site_fract_z
Si Si1 0.157344 0.704621 0.709848
Si Si2 0.478373 0.291338 0.302407
Si Si3 0.571340 0.712497 0.261241
Si Si4 0.736649 0.289634 0.529844
Si Si5 0.298262 0.203496 0.858000
Si Si6 0.127362 0.712931 0.952419
Si Si7 0.979658 0.287288 0.797083
O O1 0.139037 0.500000 0.677494
O O2 0.245903 0.719802 0.860676
O O3 0.140562 0.774867 0.825359
O O4 0.100755 0.774066 0.458455
O O5 0.500000 0.218796 0.500000
O O6 0.487697 0.500000 0.326068
O O7 0.542345 0.225653 0.342257
O O8 0.388121 0.262865 0.057641
O O9 0.575428 0.500000 0.270175
O O10 0.653792 0.775042 0.396543
O O11 0.500000 0.761589 0.000000
O O12 0.737020 0.500000 0.535885
O O13 0.741774 0.243207 0.381036
O O14 0.804734 0.228872 0.787217
O O15 0.299375 0.000000 0.882614
O O16 0.129575 0.500000 0.953962
O O17 0.046671 0.760127 0.840996
O O18 0.977397 0.500000 0.800863
O O19 0.000000 0.227542 0.000000
#
# Coordination Sequence:
#
# PCOD9147565 Si02
#       7
#     4   4   4   4   4   4   4
#     4  10  20  35  58  84 115 150 189 233 282 337
#     4  10  21  37  61  86 111 143 187 235 283 336
#     4   9  16  30  54  83 108 134 175 230 278 325
#     4  10  19  35  59  83 110 144 189 237 283 336
#     4  12  25  39  54  78 116 155 193 232 279 334
#     4   9  18  31  56  91 117 140 181 238 291 336
#     4   9  16  29  53  88 121 146 177 228 288 339
#
# _framework density 21.931353999999999
#
# number of rings (size 3 to 8) (size 9 to 14) (size 15 to 20)
#    0.000    2.143    1.429    2.571    2.000    4.286 
#    0.000    2.143    0.000    5.571    0.000    0.000 
#    0.000    0.000    0.000    0.000    0.000    0.000 
#
# Total GULP energy -156325.046367 kJ/mol
# GULP energy per Si atom -5583.037370 kJ/mol
# Density = 2.188144 g / cm^3
# Si number density = 21.931354 Si / 1000 Ang^3
#
#
#
# Elastic Constant Matrix: (Units=GPa)
#
#
# Indices 1 2 3 4 5 6 
#
# 1 141.7724 -5.8676 28.8336 0.0000 -15.6278 0.0000
# 2 -5.8676 32.5720 -4.9672 0.0000 -5.2023 0.0000
# 3 28.8336 -4.9672 30.4846 0.0000 -4.4987 0.0000
# 4 0.0000 0.0000 0.0000 -53.3353 0.0000 -5.4558
# 5 -15.6278 -5.2023 -4.4987 0.0000 44.4276 0.0000
# 6 0.0000 0.0000 0.0000 -5.4558 0.0000 -27.6936
#
#
#
# Elastic Compliance Matrix: (Units=1/GPa)
#
#
# Indices 1 2 3 4 5 6 
#
# 1 0.008984 0.000787 -0.008009 0.000000 0.002441 0.000000
# 2 0.000787 0.032371 0.005208 0.000000 0.004595 0.000000
# 3 -0.008009 0.005208 0.041522 0.000000 0.001997 0.000000
# 4 0.000000 0.000000 0.000000 -0.019135 0.000000 0.003770
# 5 0.002441 0.004595 0.001997 0.000000 0.024108 0.000000
# 6 0.000000 0.000000 0.000000 0.003770 0.000000 -0.036852
#
#
# Mechanical properties :
#
#
# Convention : Reuss Voigt Hill
#
# Bulk Modulus (GPa) = 12.68233 26.75851 19.72042
# Shear Modulus (GPa) = 61.49389 5.13507 33.31448
#
# Velocity S-wave (km/s) = 5.30096 1.53183 3.90171
# Velocity P-wave (km/s) = 6.57740 3.91870 5.41379
#
# Compressibility (1/GPa) = 0.07884985
#
# Stress axis : x y z
#
# Youngs Moduli (GPa) = 111.30741 30.89171 24.08354
#
# Poissons Ratio (x) = -0.02431 0.19289
# Poissons Ratio (y) = -0.08760 -0.12543
# Poissons Ratio (z) = 0.89147 -0.16089
#
# Static dielectric constant tensor:
#      x y z
#    x 2.267220 0.000000 -0.093430 
#    y 0.000000 1.815760 0.000000 
#    z -0.093430 0.000000 1.818330 
# 
# From -- ./inp_files/37251.got.cif
#   From: 2010.05.17/outbox.cif.g08.bks.cpg/sg10_19_cif.got.tgz:37251.got - 2010.06.03 11:33:40.
