data_PCOD9147151
_publ_section_title
;
Structure prediction by ZEFSAII (Michael W. Deem and Ramdas Pophale) SiO2 
 PCOD9147151
Probable space group: P 2/M
;
_chemical_formula_sum "Si O2"
_cell_formula_units_Z 26
_cell_length_a 19.899506
_cell_length_b 8.553953
_cell_length_c 13.975453
_cell_angle_alpha 90.000000
_cell_angle_beta 33.550069
_cell_angle_gamma 90.000000
_cell_volume 1314.732471
_symmetry_space_group_name_H-M "P 2/M"
_symmetry_group_IT_number 10
_symmetry_cell_setting 'monoclinic'
loop_
_space_group_symop_operation_xyz
x,y,z
-x,y,-z
-x,-y,-z
x,-y,z
loop_
_atom_site_type_symbol
_atom_site_label
_atom_site_fract_x
_atom_site_fract_y
_atom_site_fract_z
Si Si1 0.902004 0.814276 0.455070
Si Si2 0.337347 0.174719 0.374299
Si Si3 0.500000 0.762199 0.000000
Si Si4 0.555814 0.318774 0.568030
Si Si5 0.163969 0.683740 0.104828
Si Si6 0.683149 0.816107 0.239329
Si Si7 0.724329 0.813233 0.838478
O O1 0.795423 0.776992 0.505578
O O2 0.840598 0.789511 0.631757
O O3 0.023496 0.719655 0.292957
O O4 0.928895 0.000000 0.415916
O O5 0.396281 0.284149 0.383222
O O6 0.329585 0.000000 0.424773
O O7 0.420734 0.165790 0.180537
O O8 0.385043 0.705681 0.072612
O O9 0.523882 0.500000 0.594665
O O10 0.437291 0.218349 0.681528
O O11 0.657055 0.270789 0.369931
O O12 0.188419 0.500000 0.080576
O O13 0.241204 0.770861 0.095275
O O14 0.205139 0.749756 0.953731
O O15 0.694969 0.000000 0.241306
O O16 0.690891 0.000000 0.870910
#
# Coordination Sequence:
#
# PCOD9147151 Si02
#       7
#     4   4   2   4   4   4   4
#     4   9  20  37  56  80 112 153 199 238 271 325
#     4  10  19  35  59  85 114 151 193 231 273 327
#     4  10  19  34  59  88 113 144 189 234 269 318
#     4  11  22  38  59  88 121 146 176 225 286 339
#     4  12  24  37  55  82 114 148 188 237 291 338
#     4  11  22  39  62  84 109 146 191 233 275 332
#     4  10  19  34  57  83 113 150 191 232 277 333
#
# _framework density 19.775887000000001
#
# number of rings (size 3 to 8) (size 9 to 14) (size 15 to 20)
#    0.000    1.538    0.000    8.769    0.000    3.077 
#    0.000    3.846    0.000    4.615    0.000    0.000 
#    0.000    0.000    0.000    0.000    0.000    0.000 
#
# Total GULP energy -145062.887087 kJ/mol
# GULP energy per Si atom -5579.341811 kJ/mol
# Density = 1.973088 g / cm^3
# Si number density = 19.775887 Si / 1000 Ang^3
#
#
#
# Elastic Constant Matrix: (Units=GPa)
#
#
# Indices 1 2 3 4 5 6 
#
# 1 64.0377 14.1340 22.2845 0.0000 10.9859 0.0000
# 2 14.1340 47.3501 11.7216 0.0000 1.8006 0.0000
# 3 22.2845 11.7216 87.1025 0.0000 -1.8858 0.0000
# 4 0.0000 0.0000 0.0000 -125.2775 0.0000 256.7772
# 5 10.9859 1.8006 -1.8858 0.0000 20.6637 0.0000
# 6 0.0000 0.0000 0.0000 256.7772 0.0000 -361.6779
#
#
#
# Elastic Compliance Matrix: (Units=1/GPa)
#
#
# Indices 1 2 3 4 5 6 
#
# 1 0.020093 -0.004406 -0.004780 0.000000 -0.010735 0.000000
# 2 -0.004406 0.022911 -0.001952 0.000000 0.000168 0.000000
# 3 -0.004780 -0.001952 0.013051 0.000000 0.003903 0.000000
# 4 0.000000 0.000000 0.000000 0.017536 0.000000 0.012450
# 5 -0.010735 0.000168 0.003903 0.000000 0.054443 0.000000
# 6 0.000000 0.000000 0.000000 0.012450 0.000000 0.006074
#
#
# Mechanical properties :
#
#
# Convention : Reuss Voigt Hill
#
# Bulk Modulus (GPa) = 29.60488 32.75227 31.17857
# Shear Modulus (GPa) = 29.82472 -83.23500 -26.70514
#
# Velocity S-wave (km/s) = 3.88769 -6.49465 -3.67875
# Velocity P-wave (km/s) = 5.92915 6.29627 1.49803
#
# Compressibility (1/GPa) = 0.03377822
#
# Stress axis : x y z
#
# Youngs Moduli (GPa) = 49.76753 43.64627 76.62292
#
# Poissons Ratio (x) = 0.19232 0.36627
# Poissons Ratio (y) = 0.21929 0.14959
# Poissons Ratio (z) = 0.23790 0.08521
#
# Static dielectric constant tensor:
#      x y z
#    x 1.677600 0.000000 -0.007060 
#    y 0.000000 1.689760 0.000000 
#    z -0.007060 0.000000 1.694180 
# 
# From -- ./inp_files/69914.got.cif
#   From: 2010.05.17/outbox.cif.g08.bks.cpg/sg10_35_cif.got.tgz:69914.got - 2010.06.03 11:33:40.
