data_PCOD9147407
_publ_section_title
;
Structure prediction by ZEFSAII (Michael W. Deem and Ramdas Pophale) SiO2 
 PCOD9147407
Probable space group: P 2/M
;
_chemical_formula_sum "Si O2"
_cell_formula_units_Z 32
_cell_length_a 14.716706
_cell_length_b 7.625947
_cell_length_c 15.527482
_cell_angle_alpha 90.000000
_cell_angle_beta 124.453807
_cell_angle_gamma 90.000000
_cell_volume 1436.943131
_symmetry_space_group_name_H-M "P 2/M"
_symmetry_group_IT_number 10
_symmetry_cell_setting 'monoclinic'
loop_
_space_group_symop_operation_xyz
x,y,z
-x,y,-z
-x,-y,-z
x,-y,z
loop_
_atom_site_type_symbol
_atom_site_label
_atom_site_fract_x
_atom_site_fract_y
_atom_site_fract_z
Si Si1 0.334998 0.288403 0.161947
Si Si2 0.576346 0.205931 0.336768
Si Si3 0.032482 0.708450 0.794152
Si Si4 0.309769 0.210225 0.773460
Si Si5 0.817997 0.714911 0.771788
Si Si6 0.620464 0.703058 0.545867
Si Si7 0.057973 0.211769 0.618133
Si Si8 0.717377 0.289675 0.053113
O O1 0.336077 0.500000 0.161591
O O2 0.445378 0.231604 0.269368
O O3 0.228061 0.234211 0.159369
O O4 0.334386 0.223513 0.063434
O O5 0.616746 0.276093 0.265996
O O6 0.633397 0.289594 0.450148
O O7 0.601174 0.000000 0.354540
O O8 0.039898 0.500000 0.812508
O O9 0.001235 0.736744 0.677418
O O10 0.156457 0.779045 0.872854
O O11 0.937563 0.777707 0.805806
O O12 0.184412 0.274428 0.692248
O O13 0.342186 0.251996 0.888700
O O14 0.308539 0.000000 0.767411
O O15 0.822360 0.500000 0.772296
O O16 0.724671 0.774459 0.653482
O O17 0.500000 0.784392 0.500000
O O18 0.613232 0.500000 0.570268
O O19 0.000000 0.274435 0.500000
O O20 0.059928 0.000000 0.616259
O O21 0.722384 0.500000 0.049449
#
# Coordination Sequence:
#
# PCOD9147407 Si02
#       8
#     4   4   4   4   4   4   4   4
#     4  10  20  37  57  77 105 141 178 215 262 319
#     4  11  23  36  53  80 108 138 178 222 263 306
#     4   9  18  33  52  79 108 132 170 217 260 305
#     4   9  20  37  53  73 106 142 173 213 268 319
#     4   9  18  33  54  79 108 141 173 207 259 319
#     4  10  19  35  56  76 106 146 177 209 260 317
#     4   9  18  33  52  72  99 138 177 210 255 313
#     4   9  19  35  57  81 104 134 176 225 263 302
#
# _framework density 22.269496
#
# number of rings (size 3 to 8) (size 9 to 14) (size 15 to 20)
#    0.000    2.500    1.250    0.375    1.750    3.000 
#    0.000    5.625    0.000    0.000    0.000    4.375 
#    0.000    0.000    0.000    0.000    0.000    0.000 
#
# Total GULP energy -178627.491336 kJ/mol
# GULP energy per Si atom -5582.109104 kJ/mol
# Density = 2.221881 g / cm^3
# Si number density = 22.269496 Si / 1000 Ang^3
#
#
#
# Elastic Constant Matrix: (Units=GPa)
#
#
# Indices 1 2 3 4 5 6 
#
# 1 69.4340 -4.8424 -12.7108 0.0000 -23.4392 0.0000
# 2 -4.8424 44.0360 -7.3352 0.0000 2.8068 0.0000
# 3 -12.7108 -7.3352 72.6671 0.0000 -22.4092 0.0000
# 4 0.0000 0.0000 0.0000 30.0280 0.0000 -14.5445
# 5 -23.4392 2.8068 -22.4092 0.0000 27.7776 0.0000
# 6 0.0000 0.0000 0.0000 -14.5445 0.0000 14.3855
#
#
#
# Elastic Compliance Matrix: (Units=1/GPa)
#
#
# Indices 1 2 3 4 5 6 
#
# 1 0.032612 0.004077 0.019269 0.000000 0.042651 0.000000
# 2 0.004077 0.023614 0.004555 0.000000 0.004729 0.000000
# 3 0.019269 0.004555 0.029903 0.000000 0.039923 0.000000
# 4 0.000000 0.000000 0.000000 0.065262 0.000000 0.065983
# 5 0.042651 0.004729 0.039923 0.000000 0.103719 0.000000
# 6 0.000000 0.000000 0.000000 0.065983 0.000000 0.136227
#
#
# Mechanical properties :
#
#
# Convention : Reuss Voigt Hill
#
# Bulk Modulus (GPa) = 7.04560 15.15115 11.09838
# Shear Modulus (GPa) = 13.06010 28.50660 20.78335
#
# Velocity S-wave (km/s) = 2.42431 3.58169 3.05825
# Velocity P-wave (km/s) = 3.31769 4.89112 4.17912
#
# Compressibility (1/GPa) = 0.14193247
#
# Stress axis : x y z
#
# Youngs Moduli (GPa) = 30.66363 42.34702 33.44127
#
# Poissons Ratio (x) = -0.17266 -0.64437
# Poissons Ratio (y) = -0.12502 -0.15234
# Poissons Ratio (z) = -0.59085 -0.19290
#
# Static dielectric constant tensor:
#      x y z
#    x 1.834230 0.000000 -0.019590 
#    y 0.000000 1.852860 0.000000 
#    z -0.019590 0.000000 1.809400 
# 
# From -- ./inp_files/66485.got.cif
#   From: 2010.05.17/outbox.cif.g08.bks.cpg/sg10_34_cif.got.tgz:66485.got - 2010.06.03 11:33:40.
