data_PCOD9147976
_publ_section_title
;
Structure prediction by ZEFSAII (Michael W. Deem and Ramdas Pophale) SiO2 
 PCOD9147976
Probable space group: P 2/M
;
_chemical_formula_sum "Si O2"
_cell_formula_units_Z 24
_cell_length_a 9.078281
_cell_length_b 20.890308
_cell_length_c 8.771250
_cell_angle_alpha 90.000000
_cell_angle_beta 128.585370
_cell_angle_gamma 90.000000
_cell_volume 1300.285786
_symmetry_space_group_name_H-M "P 2/M"
_symmetry_group_IT_number 10
_symmetry_cell_setting 'monoclinic'
loop_
_space_group_symop_operation_xyz
x,y,z
-x,y,-z
-x,-y,-z
x,-y,z
loop_
_atom_site_type_symbol
_atom_site_label
_atom_site_fract_x
_atom_site_fract_y
_atom_site_fract_z
Si Si1 0.295458 0.925717 0.287396
Si Si2 0.629027 0.253818 0.435684
Si Si3 0.970534 0.500000 0.799213
Si Si4 0.974648 0.185232 0.804079
Si Si5 0.667698 0.404928 0.486869
Si Si6 0.613511 0.836880 0.934794
Si Si7 0.683667 0.500000 0.218286
O O1 0.500000 0.921007 0.500000
O O2 0.128905 0.884159 0.256982
O O3 0.330690 0.890411 0.150964
O O4 0.244909 0.000000 0.242971
O O5 0.500000 0.239924 0.500000
O O6 0.832378 0.226294 0.611427
O O7 0.651955 0.329954 0.440954
O O8 0.517447 0.217489 0.228733
O O9 0.850976 0.435783 0.684750
O O10 0.142168 0.500000 0.787884
O O11 0.000000 0.500000 0.000000
O O12 0.000000 0.205555 0.000000
O O13 0.185343 0.188554 0.877919
O O14 0.500000 0.419941 0.500000
O O15 0.670044 0.440732 0.326340
O O16 0.500000 0.865806 0.000000
O O17 0.500000 0.500000 0.000000
#
# Coordination Sequence:
#
# PCOD9147976 Si02
#       7
#     4   4   2   4   4   4   2
#     4  10  19  38  67  87 114 161 212 252 303 369
#     4  11  20  41  61  89 123 159 206 251 292 369
#     4  11  22  43  64  92 122 161 208 249 304 372
#     4  10  19  37  63  85 116 161 207 240 306 355
#     4  10  22  38  64  90 122 158 200 253 314 359
#     4  11  23  38  56  89 127 160 198 255 310 358
#     4  11  22  43  64  86 128 159 200 257 300 360
#
# _framework density 18.45748
#
# number of rings (size 3 to 8) (size 9 to 14) (size 15 to 20)
#    0.000    1.500    5.000    3.000    0.000    5.333 
#    9.000    0.000    0.000    2.000    0.000    0.000 
#    0.000    0.000    0.000    0.000    0.000    0.000 
#
# Total GULP energy -133708.602620 kJ/mol
# GULP energy per Si atom -5571.191776 kJ/mol
# Density = 1.841547 g / cm^3
# Si number density = 18.457480 Si / 1000 Ang^3
#
#
#
# Elastic Constant Matrix: (Units=GPa)
#
#
# Indices 1 2 3 4 5 6 
#
# 1 128.0294 36.5562 48.3558 0.0000 12.4152 0.0000
# 2 36.5562 107.7173 42.9664 0.0000 1.0353 0.0000
# 3 48.3558 42.9664 117.5987 0.0000 19.5373 0.0000
# 4 0.0000 0.0000 0.0000 -10.1547 0.0000 7.3422
# 5 12.4152 1.0353 19.5373 0.0000 32.1160 0.0000
# 6 0.0000 0.0000 0.0000 7.3422 0.0000 12.6162
#
#
#
# Elastic Compliance Matrix: (Units=1/GPa)
#
#
# Indices 1 2 3 4 5 6 
#
# 1 0.009694 -0.002117 -0.002894 0.000000 -0.001919 0.000000
# 2 -0.002117 0.011484 -0.003782 0.000000 0.002749 0.000000
# 3 -0.002894 -0.003782 0.012091 0.000000 -0.006115 0.000000
# 4 0.000000 0.000000 0.000000 -0.069311 0.000000 0.040337
# 5 -0.001919 0.002749 -0.006115 0.000000 0.035510 0.000000
# 6 0.000000 0.000000 0.000000 0.040337 0.000000 0.055788
#
#
# Mechanical properties :
#
#
# Convention : Reuss Voigt Hill
#
# Bulk Modulus (GPa) = 63.76169 67.67802 65.71986
# Shear Modulus (GPa) = 64.04426 21.94663 42.99544
#
# Velocity S-wave (km/s) = 5.89691 3.45198 4.83165
# Velocity P-wave (km/s) = 8.99916 7.25499 8.17373
#
# Compressibility (1/GPa) = 0.01568340
#
# Stress axis : x y z
#
# Youngs Moduli (GPa) = 103.15327 87.07571 82.70495
#
# Poissons Ratio (x) = 0.18436 0.23934
# Poissons Ratio (y) = 0.21840 0.31280
# Poissons Ratio (z) = 0.29851 0.32933
#
# Static dielectric constant tensor:
#      x y z
#    x 1.746950 0.000000 0.056660 
#    y 0.000000 1.641240 0.000000 
#    z 0.056660 0.000000 1.754360 
# 
# From -- ./inp_files/20286.got.cif
#   From: 2010.05.17/outbox.cif.g08.bks.cpg/sg10_11_cif.got.tgz:20286.got - 2010.06.03 11:33:40.
