data_PCOD9147053
_publ_section_title
;
Structure prediction by ZEFSAII (Michael W. Deem and Ramdas Pophale) SiO2 
 PCOD9147053
Probable space group: P 2/M
;
_chemical_formula_sum "Si O2"
_cell_formula_units_Z 24
_cell_length_a 11.811478
_cell_length_b 12.039878
_cell_length_c 8.351853
_cell_angle_alpha 90.000000
_cell_angle_beta 102.020189
_cell_angle_gamma 90.000000
_cell_volume 1161.665286
_symmetry_space_group_name_H-M "P 2/M"
_symmetry_group_IT_number 10
_symmetry_cell_setting 'monoclinic'
loop_
_space_group_symop_operation_xyz
x,y,z
-x,y,-z
-x,-y,-z
x,-y,z
loop_
_atom_site_type_symbol
_atom_site_label
_atom_site_fract_x
_atom_site_fract_y
_atom_site_fract_z
Si Si1 0.754471 0.370145 0.698819
Si Si2 0.442393 0.382208 0.810279
Si Si3 0.009677 0.684207 0.677281
Si Si4 0.806051 0.871819 0.266045
Si Si5 0.605352 0.202115 0.440769
Si Si6 0.225411 0.331963 0.927639
O O1 0.751645 0.500000 0.648307
O O2 0.668048 0.293049 0.572890
O O3 0.881388 0.317571 0.707299
O O4 0.736862 0.365488 0.885277
O O5 0.476498 0.500000 0.744957
O O6 0.461299 0.275889 0.710525
O O7 0.306725 0.381300 0.813722
O O8 0.500000 0.373580 0.000000
O O9 0.077907 0.800688 0.662137
O O10 0.095712 0.635498 0.837641
O O11 0.000000 0.628690 0.500000
O O12 0.708581 0.860055 0.376440
O O13 0.762958 0.801200 0.098581
O O14 0.828760 0.000000 0.242074
O O15 0.500000 0.140456 0.500000
#
# Coordination Sequence:
#
# PCOD9147053 Si02
#       6
#     4   4   4   4   4   4
#     4  12  23  38  60  89 129 163 191 235 294 352
#     4  10  19  34  56  82 116 162 200 236 292 348
#     4  10  20  40  59  90 119 154 202 242 288 357
#     4   9  21  43  65  83 115 156 197 252 308 344
#     4  11  23  39  59  89 121 151 203 250 288 357
#     4   9  21  36  56  87 119 152 199 243 284 353
#
# _framework density 20.659997000000001
#
# number of rings (size 3 to 8) (size 9 to 14) (size 15 to 20)
#    1.000    0.833    1.667    2.500    0.000    5.667 
#    0.000    2.500    0.000   17.000    0.000    0.000 
#    0.000    0.000    0.000    0.000    0.000    0.000 
#
# Total GULP energy -133611.596232 kJ/mol
# GULP energy per Si atom -5567.149843 kJ/mol
# Density = 2.061297 g / cm^3
# Si number density = 20.659997 Si / 1000 Ang^3
#
#
#
# Elastic Constant Matrix: (Units=GPa)
#
#
# Indices 1 2 3 4 5 6 
#
# 1 96.8222 17.2976 -12.0992 0.0000 -17.7013 0.0000
# 2 17.2976 112.2186 10.4055 0.0000 1.8041 0.0000
# 3 -12.0992 10.4055 48.2375 0.0000 1.1434 0.0000
# 4 0.0000 0.0000 0.0000 2.9578 0.0000 3.9822
# 5 -17.7013 1.8041 1.1434 0.0000 38.9621 0.0000
# 6 0.0000 0.0000 0.0000 3.9822 0.0000 2.7112
#
#
#
# Elastic Compliance Matrix: (Units=1/GPa)
#
#
# Indices 1 2 3 4 5 6 
#
# 1 0.012175 -0.002282 0.003415 0.000000 0.005537 0.000000
# 2 -0.002282 0.009526 -0.002594 0.000000 -0.001402 0.000000
# 3 0.003415 -0.002594 0.022123 0.000000 0.001022 0.000000
# 4 0.000000 0.000000 0.000000 -0.345868 0.000000 0.508014
# 5 0.005537 -0.001402 0.001022 0.000000 0.028216 0.000000
# 6 0.000000 0.000000 0.000000 0.508014 0.000000 -0.377333
#
#
# Mechanical properties :
#
#
# Convention : Reuss Voigt Hill
#
# Bulk Modulus (GPa) = 24.44959 32.05401 28.25180
# Shear Modulus (GPa) = -7.87893 25.03786 8.57946
#
# Velocity S-wave (km/s) = -1.95497 3.48501 2.04003
# Velocity P-wave (km/s) = 2.60079 5.63404 4.38785
#
# Compressibility (1/GPa) = 0.04090048
#
# Stress axis : x y z
#
# Youngs Moduli (GPa) = 82.13593 104.97519 45.20253
#
# Poissons Ratio (x) = 0.23959 -0.15436
# Poissons Ratio (y) = 0.18746 0.11726
# Poissons Ratio (z) = -0.28048 0.27232
#
# Static dielectric constant tensor:
#      x y z
#    x 1.815600 0.000000 -0.022220 
#    y 0.000000 1.737230 0.000000 
#    z -0.022220 0.000000 1.755090 
# 
# From -- ./inp_files/24047.got.cif
#   From: 2010.05.17/outbox.cif.g08.bks.cpg/sg10_13_cif.got.tgz:24047.got - 2010.06.03 11:33:40.
