data_PCOD9147011
_publ_section_title
;
Structure prediction by ZEFSAII (Michael W. Deem and Ramdas Pophale) SiO2 
 PCOD9147011
Probable space group: P 2/M
;
_chemical_formula_sum "Si O2"
_cell_formula_units_Z 28
_cell_length_a 9.226370
_cell_length_b 7.584316
_cell_length_c 29.776949
_cell_angle_alpha 90.000000
_cell_angle_beta 141.631705
_cell_angle_gamma 90.000000
_cell_volume 1293.358854
_symmetry_space_group_name_H-M "P 2/M"
_symmetry_group_IT_number 10
_symmetry_cell_setting 'monoclinic'
loop_
_space_group_symop_operation_xyz
x,y,z
-x,y,-z
-x,-y,-z
x,-y,z
loop_
_atom_site_type_symbol
_atom_site_label
_atom_site_fract_x
_atom_site_fract_y
_atom_site_fract_z
Si Si1 0.233939 0.215482 0.927763
Si Si2 0.632626 0.788388 0.215785
Si Si3 0.503623 0.214109 0.360555
Si Si4 0.634548 0.201154 0.490496
Si Si5 0.853283 0.298469 0.365363
Si Si6 0.968385 0.784484 0.217362
Si Si7 0.897707 0.215791 0.927064
O O1 0.136713 0.271341 0.855861
O O2 0.065022 0.271788 0.927072
O O3 0.234194 0.000000 0.927936
O O4 0.500000 0.272131 0.000000
O O5 0.731538 0.749634 0.289001
O O6 0.368049 0.724146 0.144806
O O7 0.807517 0.723970 0.219535
O O8 0.623296 0.000000 0.209047
O O9 0.588133 0.277675 0.429974
O O10 0.672023 0.274798 0.361781
O O11 0.236708 0.269419 0.287903
O O12 0.512524 0.000000 0.361611
O O13 0.500000 0.284248 0.500000
O O14 0.908423 0.196071 0.567303
O O15 0.542304 0.000000 0.464795
O O16 0.927493 0.500000 0.380953
O O17 0.967214 0.000000 0.217529
O O18 0.896167 0.000000 0.926445
O O19 0.000000 0.270265 0.000000
#
# Coordination Sequence:
#
# PCOD9147011 Si02
#       7
#     4   4   4   4   4   4   4
#     4   9  15  23  38  67 109 145 171 209 264 320
#     4  10  19  34  56  79 107 142 183 228 272 322
#     4  10  20  36  58  81 106 138 178 222 268 319
#     4  10  21  39  63  87 109 137 177 222 269 323
#     4  12  25  38  54  79 112 146 181 220 266 320
#     4   9  17  30  51  78 104 136 178 222 267 315
#     4   9  16  26  45  76 109 140 176 222 274 322
#
# _framework density 21.649056999999999
#
# number of rings (size 3 to 8) (size 9 to 14) (size 15 to 20)
#    0.000    2.143    0.000    4.286    0.000   10.571 
#    0.000    2.143    0.000    0.429    0.000    0.000 
#    0.000    5.143    0.000    0.000    0.000    0.000 
#
# Total GULP energy -156519.914946 kJ/mol
# GULP energy per Si atom -5589.996962 kJ/mol
# Density = 2.159978 g / cm^3
# Si number density = 21.649057 Si / 1000 Ang^3
#
#
#
# Elastic Constant Matrix: (Units=GPa)
#
#
# Indices 1 2 3 4 5 6 
#
# 1 228.1172 -4.1553 122.1112 0.0000 -13.6465 0.0000
# 2 -4.1553 46.7693 -4.3030 0.0000 3.2503 0.0000
# 3 122.1112 -4.3030 209.6102 0.0000 -16.4785 0.0000
# 4 0.0000 0.0000 0.0000 -25.7259 0.0000 -3.0919
# 5 -13.6465 3.2503 -16.4785 0.0000 42.6299 0.0000
# 6 0.0000 0.0000 0.0000 -3.0919 0.0000 420.6235
#
#
#
# Elastic Compliance Matrix: (Units=1/GPa)
#
#
# Indices 1 2 3 4 5 6 
#
# 1 0.006388 0.000187 -0.003669 0.000000 0.000612 0.000000
# 2 0.000187 0.021522 0.000215 0.000000 -0.001498 0.000000
# 3 -0.003669 0.000215 0.007033 0.000000 0.001528 0.000000
# 4 0.000000 0.000000 0.000000 -0.038837 0.000000 -0.000285
# 5 0.000612 -0.001498 0.001528 0.000000 0.024358 0.000000
# 6 0.000000 0.000000 0.000000 -0.000285 0.000000 0.002375
#
#
# Mechanical properties :
#
#
# Convention : Reuss Voigt Hill
#
# Bulk Modulus (GPa) = 35.20049 79.08916 57.14482
# Shear Modulus (GPa) = 128.72139 112.22842 120.47490
#
# Velocity S-wave (km/s) = 7.71928 7.20780 7.46792
# Velocity P-wave (km/s) = 9.78492 10.28988 10.04057
#
# Compressibility (1/GPa) = 0.02840870
#
# Stress axis : x y z
#
# Youngs Moduli (GPa) = 156.54358 46.46397 142.18806
#
# Poissons Ratio (x) = -0.00871 0.52175
# Poissons Ratio (y) = -0.02934 -0.03055
# Poissons Ratio (z) = 0.57443 -0.00998
#
# Static dielectric constant tensor:
#      x y z
#    x 1.736860 0.000000 -0.006650 
#    y 0.000000 1.801990 0.000000 
#    z -0.006650 0.000000 1.752540 
# 
# From -- ./inp_files/36914.got.cif
#   From: 2010.05.17/outbox.cif.g08.bks.cpg/sg10_19_cif.got.tgz:36914.got - 2010.06.03 11:33:40.
