data_PCOD9147341
_publ_section_title
;
Structure prediction by ZEFSAII (Michael W. Deem and Ramdas Pophale) SiO2 
 PCOD9147341
Probable space group: P 2/M
;
_chemical_formula_sum "Si O2"
_cell_formula_units_Z 20
_cell_length_a 10.538540
_cell_length_b 14.388496
_cell_length_c 8.207709
_cell_angle_alpha 90.000000
_cell_angle_beta 46.808530
_cell_angle_gamma 90.000000
_cell_volume 907.376117
_symmetry_space_group_name_H-M "P 2/M"
_symmetry_group_IT_number 10
_symmetry_cell_setting 'monoclinic'
loop_
_space_group_symop_operation_xyz
x,y,z
-x,y,-z
-x,-y,-z
x,-y,z
loop_
_atom_site_type_symbol
_atom_site_label
_atom_site_fract_x
_atom_site_fract_y
_atom_site_fract_z
Si Si1 0.524706 0.104111 0.782403
Si Si2 0.937243 0.100738 0.367225
Si Si3 0.730884 0.609319 0.407958
Si Si4 0.056317 0.298310 0.263588
Si Si5 0.598137 0.699812 0.192338
O O1 0.728790 0.109950 0.559359
O O2 0.431552 0.189798 0.778943
O O3 0.462505 0.000000 0.795076
O O4 0.500000 0.114936 0.000000
O O5 0.020813 0.194373 0.224452
O O6 0.000000 0.096984 0.500000
O O7 0.982467 0.000000 0.253250
O O8 0.704720 0.500000 0.412524
O O9 0.926387 0.632528 0.286941
O O10 0.683200 0.661598 0.283048
O O11 0.589166 0.651058 0.658696
O O12 0.000000 0.297241 0.500000
O O13 0.258220 0.321210 0.069235
#
# Coordination Sequence:
#
# PCOD9147341 Si02
#       5
#     4   4   4   4   4
#     4  10  19  34  62  98 135 172 211 260 319 383
#     4   9  17  32  55  89 131 167 202 247 310 381
#     4  11  26  48  67  89 124 173 226 271 329 388
#     4  11  23  40  68  99 129 165 212 273 330 385
#     4  11  23  41  68  93 130 175 214 259 324 389
#
# _framework density 22.041575999999999
#
# number of rings (size 3 to 8) (size 9 to 14) (size 15 to 20)
#    0.000    1.600    2.000    4.200    0.000    5.200 
#    0.000    4.000    0.000    2.400    0.000    0.000 
#    0.000    0.000    0.000    0.000    0.000    0.000 
#
# Total GULP energy -111780.995486 kJ/mol
# GULP energy per Si atom -5589.049774 kJ/mol
# Density = 2.199141 g / cm^3
# Si number density = 22.041576 Si / 1000 Ang^3
#
#
#
# Elastic Constant Matrix: (Units=GPa)
#
#
# Indices 1 2 3 4 5 6 
#
# 1 50.9653 47.7667 10.4353 0.0000 -12.0631 0.0000
# 2 47.7667 180.8979 30.7276 0.0000 4.2966 0.0000
# 3 10.4353 30.7276 81.0718 0.0000 -17.6867 0.0000
# 4 0.0000 0.0000 0.0000 14.4230 0.0000 1.7183
# 5 -12.0631 4.2966 -17.6867 0.0000 22.8208 0.0000
# 6 0.0000 0.0000 0.0000 1.7183 0.0000 42.1272
#
#
#
# Elastic Compliance Matrix: (Units=1/GPa)
#
#
# Indices 1 2 3 4 5 6 
#
# 1 0.033860 -0.010288 0.004656 0.000000 0.023443 0.000000
# 2 -0.010288 0.009266 -0.004519 0.000000 -0.010685 0.000000
# 3 0.004656 -0.004519 0.017054 0.000000 0.016529 0.000000
# 4 0.000000 0.000000 0.000000 0.069672 0.000000 -0.002842
# 5 0.023443 -0.010685 0.016529 0.000000 0.071034 0.000000
# 6 0.000000 0.000000 0.000000 -0.002842 0.000000 0.023854
#
#
# Mechanical properties :
#
#
# Convention : Reuss Voigt Hill
#
# Bulk Modulus (GPa) = 25.07732 54.53271 39.80502
# Shear Modulus (GPa) = 19.35472 30.80790 25.08131
#
# Velocity S-wave (km/s) = 2.96649 3.74266 3.37695
# Velocity P-wave (km/s) = 4.80993 6.59327 5.77090
#
# Compressibility (1/GPa) = 0.03987666
#
# Stress axis : x y z
#
# Youngs Moduli (GPa) = 29.53378 107.92126 58.63667
#
# Poissons Ratio (x) = 1.11033 -0.27299
# Poissons Ratio (y) = 0.30385 0.26497
# Poissons Ratio (z) = -0.13750 0.48767
#
# Static dielectric constant tensor:
#      x y z
#    x 1.784670 0.000000 -0.001000 
#    y 0.000000 1.822270 0.000000 
#    z -0.001000 0.000000 1.867670 
# 
# From -- ./inp_files/24523.got.cif
#   From: 2010.05.17/outbox.cif.g08.bks.cpg/sg10_13_cif.got.tgz:24523.got - 2010.06.03 11:33:40.
