data_PCOD9147936
_publ_section_title
;
Structure prediction by ZEFSAII (Michael W. Deem and Ramdas Pophale) SiO2 
 PCOD9147936
Probable space group: P 2/M
;
_chemical_formula_sum "Si O2"
_cell_formula_units_Z 32
_cell_length_a 17.009619
_cell_length_b 18.052386
_cell_length_c 5.171051
_cell_angle_alpha 90.000000
_cell_angle_beta 112.106132
_cell_angle_gamma 90.000000
_cell_volume 1471.119614
_symmetry_space_group_name_H-M "P 2/M"
_symmetry_group_IT_number 10
_symmetry_cell_setting 'monoclinic'
loop_
_space_group_symop_operation_xyz
x,y,z
-x,y,-z
-x,-y,-z
x,-y,z
loop_
_atom_site_type_symbol
_atom_site_label
_atom_site_fract_x
_atom_site_fract_y
_atom_site_fract_z
Si Si1 0.943362 0.238663 0.670293
Si Si2 0.092314 0.078734 0.245275
Si Si3 0.590512 0.343923 0.973477
Si Si4 0.334048 0.587258 0.418373
Si Si5 0.658866 0.196322 0.195921
Si Si6 0.585895 0.085564 0.442622
Si Si7 0.763543 0.133863 0.938751
Si Si8 0.779725 0.284741 0.712484
O O1 0.911759 0.153579 0.592875
O O2 0.860676 0.287049 0.627135
O O3 0.000000 0.261716 0.500000
O O4 0.000000 0.239559 0.000000
O O5 0.162758 0.088358 0.107604
O O6 0.107248 0.000000 0.401847
O O7 0.000000 0.075511 0.000000
O O8 0.642720 0.389119 0.258763
O O9 0.624583 0.260025 0.963334
O O10 0.500000 0.336329 0.000000
O O11 0.597080 0.386781 0.710652
O O12 0.322430 0.500000 0.390209
O O13 0.251503 0.635735 0.236974
O O14 0.586562 0.144260 0.213886
O O15 0.701361 0.247362 0.464635
O O16 0.732037 0.139546 0.193097
O O17 0.500000 0.093019 0.500000
O O18 0.673378 0.107788 0.700408
O O19 0.592133 0.000000 0.366831
O O20 0.795300 0.219335 0.936746
#
# Coordination Sequence:
#
# PCOD9147936 Si02
#       8
#     4   4   4   4   4   4   4   4
#     4  10  22  36  61  88 118 157 202 255 303 361
#     4   9  19  34  54  83 117 151 192 248 314 376
#     4  11  24  39  63  93 125 163 208 254 307 371
#     4  11  23  41  63  93 128 165 200 248 314 375
#     4  10  22  36  62  83 113 161 210 260 309 372
#     4  10  23  38  53  80 117 158 212 270 322 367
#     4  10  19  37  59  80 112 155 207 256 305 375
#     4   9  21  38  59  86 119 152 204 246 301 375
#
# _framework density 21.752140000000001
#
# number of rings (size 3 to 8) (size 9 to 14) (size 15 to 20)
#    0.000    2.000    1.250    1.125    7.000    2.750 
#    0.000    1.250    0.000    0.750    0.000    0.000 
#    0.000    0.000    0.000    0.000    0.000    0.000 
#
# Total GULP energy -178466.985041 kJ/mol
# GULP energy per Si atom -5577.093283 kJ/mol
# Density = 2.170263 g / cm^3
# Si number density = 21.752140 Si / 1000 Ang^3
#
#
#
# Elastic Constant Matrix: (Units=GPa)
#
#
# Indices 1 2 3 4 5 6 
#
# 1 147.2943 62.4850 18.4655 0.0000 -19.1469 0.0000
# 2 62.4850 111.2440 20.4775 0.0000 -7.3935 0.0000
# 3 18.4655 20.4775 58.4203 0.0000 -14.0309 0.0000
# 4 0.0000 0.0000 0.0000 17.1676 0.0000 -13.2078
# 5 -19.1469 -7.3935 -14.0309 0.0000 30.1850 0.0000
# 6 0.0000 0.0000 0.0000 -13.2078 0.0000 20.2620
#
#
#
# Elastic Compliance Matrix: (Units=1/GPa)
#
#
# Indices 1 2 3 4 5 6 
#
# 1 0.009558 -0.005031 -0.000110 0.000000 0.004780 0.000000
# 2 -0.005031 0.012278 -0.003104 0.000000 -0.001627 0.000000
# 3 -0.000110 -0.003104 0.020308 0.000000 0.008610 0.000000
# 4 0.000000 0.000000 0.000000 0.116849 0.000000 0.076168
# 5 0.004780 -0.001627 0.008610 0.000000 0.039765 0.000000
# 6 0.000000 0.000000 0.000000 0.076168 0.000000 0.099003
#
#
# Mechanical properties :
#
#
# Convention : Reuss Voigt Hill
#
# Bulk Modulus (GPa) = 38.97941 57.75717 48.36829
# Shear Modulus (GPa) = 15.48930 27.89164 21.69047
#
# Velocity S-wave (km/s) = 2.67138 3.58473 3.16122
# Velocity P-wave (km/s) = 5.24154 6.61391 5.96731
#
# Compressibility (1/GPa) = 0.02565457
#
# Stress axis : x y z
#
# Youngs Moduli (GPa) = 104.61909 81.44334 49.24168
#
# Poissons Ratio (x) = 0.40975 0.00541
# Poissons Ratio (y) = 0.52634 0.15286
# Poissons Ratio (z) = 0.01149 0.25283
#
# Static dielectric constant tensor:
#      x y z
#    x 1.858860 0.000000 0.029730 
#    y 0.000000 1.802140 0.000000 
#    z 0.029730 0.000000 1.939490 
# 
# From -- ./inp_files/9818.got.cif
#   From: 2010.05.17/outbox.cif.g08.bks.cpg/sg10_5_cif.got.tgz:9818.got - 2010.06.03 11:33:40.
