data_PCOD9147354
_publ_section_title
;
Structure prediction by ZEFSAII (Michael W. Deem and Ramdas Pophale) SiO2 
 PCOD9147354
Probable space group: P 2/M
;
_chemical_formula_sum "Si O2"
_cell_formula_units_Z 28
_cell_length_a 8.891007
_cell_length_b 14.950047
_cell_length_c 11.989599
_cell_angle_alpha 90.000000
_cell_angle_beta 65.677651
_cell_angle_gamma 90.000000
_cell_volume 1452.219373
_symmetry_space_group_name_H-M "P 2/M"
_symmetry_group_IT_number 10
_symmetry_cell_setting 'monoclinic'
loop_
_space_group_symop_operation_xyz
x,y,z
-x,y,-z
-x,-y,-z
x,-y,z
loop_
_atom_site_type_symbol
_atom_site_label
_atom_site_fract_x
_atom_site_fract_y
_atom_site_fract_z
Si Si1 0.965276 0.103171 0.830810
Si Si2 0.528021 0.399397 0.357067
Si Si3 0.363783 0.107591 0.954179
Si Si4 0.754909 0.757633 0.325041
Si Si5 0.520390 0.099990 0.331122
Si Si6 0.154858 0.131168 0.376926
Si Si7 0.823147 0.323964 0.548835
O O1 0.871866 0.098065 0.739747
O O2 0.101958 0.180537 0.772663
O O3 0.023637 0.000000 0.838258
O O4 0.824119 0.132576 0.960804
O O5 0.500000 0.397421 0.500000
O O6 0.575237 0.500000 0.310830
O O7 0.668524 0.326015 0.288127
O O8 0.344697 0.374907 0.370613
O O9 0.419005 0.125701 0.812017
O O10 0.364378 0.000000 0.965935
O O11 0.500000 0.143247 0.000000
O O12 0.608185 0.828812 0.381213
O O13 0.805797 0.718408 0.429757
O O14 0.323947 0.101219 0.381813
O O15 0.575499 0.000000 0.342496
O O16 0.162428 0.238673 0.374914
O O17 0.000000 0.104775 0.500000
O O18 0.000000 0.373285 0.500000
#
# Coordination Sequence:
#
# PCOD9147354 Si02
#       7
#     4   4   4   4   4   4   4
#     4  11  21  34  53  78 110 149 187 225 266 312
#     4   9  19  35  56  78 107 144 176 217 277 332
#     4   9  18  34  54  74 100 140 192 237 265 302
#     4  11  21  35  52  77 113 141 176 224 270 320
#     4  11  22  35  52  76 107 147 188 227 269 313
#     4  11  20  34  50  76 108 147 182 223 261 314
#     4  10  19  35  53  75 109 143 178 223 264 319
#
# _framework density 19.280833000000001
#
# number of rings (size 3 to 8) (size 9 to 14) (size 15 to 20)
#    0.000    1.714    5.714    0.857    0.000    2.000 
#    0.000    2.857    0.000    0.000    0.000    2.000 
#    0.000    2.286    0.000    0.000    0.000    0.000 
#
# Total GULP energy -156209.537822 kJ/mol
# GULP energy per Si atom -5578.912065 kJ/mol
# Density = 1.923695 g / cm^3
# Si number density = 19.280833 Si / 1000 Ang^3
#
#
#
# Elastic Constant Matrix: (Units=GPa)
#
#
# Indices 1 2 3 4 5 6 
#
# 1 123.6137 44.9994 30.1038 0.0000 -25.7683 0.0000
# 2 44.9994 93.3352 9.9024 0.0000 -15.0950 0.0000
# 3 30.1038 9.9024 74.9483 0.0000 -25.5053 0.0000
# 4 0.0000 0.0000 0.0000 27.2215 0.0000 33.6273
# 5 -25.7683 -15.0950 -25.5053 0.0000 27.4006 0.0000
# 6 0.0000 0.0000 0.0000 33.6273 0.0000 101.3524
#
#
#
# Elastic Compliance Matrix: (Units=1/GPa)
#
#
# Indices 1 2 3 4 5 6 
#
# 1 0.011484 -0.004244 -0.001716 0.000000 0.006864 0.000000
# 2 -0.004244 0.013377 0.001591 0.000000 0.004859 0.000000
# 3 -0.001716 0.001591 0.019862 0.000000 0.017751 0.000000
# 4 0.000000 0.000000 0.000000 0.062250 0.000000 -0.020654
# 5 0.006864 0.004859 0.017751 0.000000 0.062151 0.000000
# 6 0.000000 0.000000 0.000000 -0.020654 0.000000 0.016719
#
#
# Mechanical properties :
#
#
# Convention : Reuss Voigt Hill
#
# Bulk Modulus (GPa) = 27.78960 51.32314 39.55637
# Shear Modulus (GPa) = 24.20411 44.98768 34.59589
#
# Velocity S-wave (km/s) = 3.54693 4.83565 4.24053
# Velocity P-wave (km/s) = 5.58736 7.60622 6.67357
#
# Compressibility (1/GPa) = 0.03598468
#
# Stress axis : x y z
#
# Youngs Moduli (GPa) = 87.08119 74.75280 50.34641
#
# Poissons Ratio (x) = 0.31728 0.08638
# Poissons Ratio (y) = 0.36960 -0.08009
# Poissons Ratio (z) = 0.14941 -0.11892
#
# Static dielectric constant tensor:
#      x y z
#    x 1.771620 0.000000 0.015130 
#    y 0.000000 1.679650 0.000000 
#    z 0.015130 0.000000 1.736290 
# 
# From -- ./inp_files/42889.got.cif
#   From: 2010.05.17/outbox.cif.g08.bks.cpg/sg10_22_cif.got.tgz:42889.got - 2010.06.03 11:33:40.
