data_PCOD9147211
_publ_section_title
;
Structure prediction by ZEFSAII (Michael W. Deem and Ramdas Pophale) SiO2 
 PCOD9147211
Probable space group: P 2/M
;
_chemical_formula_sum "Si O2"
_cell_formula_units_Z 28
_cell_length_a 32.196682
_cell_length_b 8.279224
_cell_length_c 9.922567
_cell_angle_alpha 90.000000
_cell_angle_beta 144.468757
_cell_angle_gamma 90.000000
_cell_volume 1537.130156
_symmetry_space_group_name_H-M "P 2/M"
_symmetry_group_IT_number 10
_symmetry_cell_setting 'monoclinic'
loop_
_space_group_symop_operation_xyz
x,y,z
-x,y,-z
-x,-y,-z
x,-y,z
loop_
_atom_site_type_symbol
_atom_site_label
_atom_site_fract_x
_atom_site_fract_y
_atom_site_fract_z
Si Si1 0.959377 0.000000 0.681116
Si Si2 0.490462 0.190802 0.631667
Si Si3 0.359882 0.311302 0.965176
Si Si4 0.112895 0.000000 0.220830
Si Si5 0.779215 0.307295 0.891955
Si Si6 0.243020 0.820069 0.465963
Si Si7 0.339574 0.692292 0.215456
Si Si8 0.065991 0.687265 0.570634
O O1 0.912489 0.000000 0.693013
O O2 0.943881 0.834463 0.559373
O O3 0.042601 0.000000 0.943680
O O4 0.500000 0.241504 0.500000
O O5 0.417435 0.273907 0.484685
O O6 0.479215 0.000000 0.606733
O O7 0.566853 0.233532 0.896062
O O8 0.375433 0.500000 0.022678
O O9 0.293883 0.287792 0.691276
O O10 0.340780 0.243296 0.064366
O O11 0.164347 0.848463 0.321949
O O12 0.768745 0.500000 0.852543
O O13 0.765519 0.234366 0.709488
O O14 0.723425 0.243383 0.856350
O O15 0.859830 0.282089 0.155296
O O16 0.275877 0.000000 0.555553
O O17 0.329029 0.500000 0.177332
O O18 0.068797 0.500000 0.524295
O O19 0.000000 0.693330 0.500000
#
# Coordination Sequence:
#
# PCOD9147211 Si02
#       8
#     2   4   4   2   4   4   4   4
#     4  11  21  42  66  88 124 160 200 251 306 347
#     4   9  17  31  51  81 113 147 186 237 288 343
#     4  10  19  34  58  82 112 154 191 233 296 351
#     4   9  24  40  58  88 119 156 194 244 294 361
#     4  10  21  37  56  84 117 150 196 248 294 349
#     4  10  22  37  54  79 114 153 189 235 290 351
#     4   9  19  34  55  82 113 145 192 244 288 345
#     4  10  22  38  63  94 122 159 207 249 296 361
#
# _framework density 18.215764
#
# number of rings (size 3 to 8) (size 9 to 14) (size 15 to 20)
#    0.429    1.857    0.000    2.357    3.000    2.857 
#    0.000    3.571    0.000    4.286    0.000    0.000 
#    0.000    0.000    0.000    0.000    0.000    0.000 
#
# Total GULP energy -155991.503360 kJ/mol
# GULP energy per Si atom -5571.125120 kJ/mol
# Density = 1.817430 g / cm^3
# Si number density = 18.215764 Si / 1000 Ang^3
#
#
#
# Elastic Constant Matrix: (Units=GPa)
#
#
# Indices 1 2 3 4 5 6 
#
# 1 95.6036 17.1034 52.8803 0.0000 16.0927 0.0000
# 2 17.1034 39.2793 17.2763 0.0000 -9.9497 0.0000
# 3 52.8803 17.2763 84.7443 0.0000 4.6186 0.0000
# 4 0.0000 0.0000 0.0000 27.2014 0.0000 -13.5326
# 5 16.0927 -9.9497 4.6186 0.0000 26.6631 0.0000
# 6 0.0000 0.0000 0.0000 -13.5326 0.0000 -10.6188
#
#
#
# Elastic Compliance Matrix: (Units=1/GPa)
#
#
# Indices 1 2 3 4 5 6 
#
# 1 0.019392 -0.007301 -0.009920 0.000000 -0.012710 0.000000
# 2 -0.007301 0.034732 -0.003505 0.000000 0.017974 0.000000
# 3 -0.009920 -0.003505 0.018625 0.000000 0.001453 0.000000
# 4 0.000000 0.000000 0.000000 0.022499 0.000000 -0.028672
# 5 -0.012710 0.017974 0.001453 0.000000 0.051632 0.000000
# 6 0.000000 0.000000 0.000000 -0.028672 0.000000 -0.057633
#
#
# Mechanical properties :
#
#
# Convention : Reuss Voigt Hill
#
# Bulk Modulus (GPa) = 31.94910 43.79413 37.87162
# Shear Modulus (GPa) = 35.42823 17.47361 26.45092
#
# Velocity S-wave (km/s) = 4.41491 3.10055 3.81476
# Velocity P-wave (km/s) = 6.60045 6.07552 6.34342
#
# Compressibility (1/GPa) = 0.03129979
#
# Stress axis : x y z
#
# Youngs Moduli (GPa) = 51.56716 28.79186 53.69024
#
# Poissons Ratio (x) = 0.21020 0.53259
# Poissons Ratio (y) = 0.37647 0.18817
# Poissons Ratio (z) = 0.51153 0.10091
#
# Static dielectric constant tensor:
#      x y z
#    x 1.630290 0.000000 0.011120 
#    y 0.000000 1.633530 0.000000 
#    z 0.011120 0.000000 1.612990 
# 
# From -- ./inp_files/38077.got.cif
#   From: 2010.05.17/outbox.cif.g08.bks.cpg/sg10_20_cif.got.tgz:38077.got - 2010.06.03 11:33:40.
