data_PCOD9147851
_publ_section_title
;
Structure prediction by ZEFSAII (Michael W. Deem and Ramdas Pophale) SiO2 
 PCOD9147851
Probable space group: P 2/M
;
_chemical_formula_sum "Si O2"
_cell_formula_units_Z 25
_cell_length_a 8.646597
_cell_length_b 21.479232
_cell_length_c 8.646598
_cell_angle_alpha 90.000000
_cell_angle_beta 127.464058
_cell_angle_gamma 90.000000
_cell_volume 1274.631952
_symmetry_space_group_name_H-M "P 2/M"
_symmetry_group_IT_number 10
_symmetry_cell_setting 'monoclinic'
loop_
_space_group_symop_operation_xyz
x,y,z
-x,y,-z
-x,-y,-z
x,-y,z
loop_
_atom_site_type_symbol
_atom_site_label
_atom_site_fract_x
_atom_site_fract_y
_atom_site_fract_z
Si Si1 0.441056 0.802453 0.140552
Si Si2 0.441898 0.338862 0.139308
Si Si3 0.806289 0.104518 0.806289
Si Si4 0.860692 0.661138 0.558102
Si Si5 0.285617 0.428631 0.285617
Si Si6 0.859448 0.802453 0.558944
Si Si7 0.500000 0.000000 0.500000
O O1 0.360676 0.731610 0.092243
O O2 0.296740 0.851152 0.129626
O O3 0.638886 0.803162 0.361114
O O4 0.500000 0.817272 0.000000
O O5 0.642678 0.336125 0.357322
O O6 0.310983 0.389724 0.143884
O O7 0.500000 0.354759 0.000000
O O8 0.870374 0.148848 0.703260
O O9 0.653339 0.054289 0.653339
O O10 0.000000 0.076788 0.000000
O O11 0.856116 0.610276 0.689017
O O12 0.907757 0.731610 0.639324
O O13 0.000000 0.645241 0.500000
O O14 0.500000 0.429486 0.500000
O O15 0.227818 0.500000 0.227818
O O16 0.000000 0.817272 0.500000
#
# Coordination Sequence:
#
# PCOD9147851 Si02
#       7
#     4   4   4   4   4   4   1
#     4  10  19  36  61  90 120 151 198 257 308 359
#     4   9  18  32  53  80 110 145 189 246 301 346
#     4  12  24  42  68  91 124 164 203 244 299 359
#     4   9  18  32  53  80 110 145 189 246 301 346
#     4   9  17  30  48  72 108 156 202 234 287 364
#     4  10  19  36  61  90 120 151 198 257 308 359
#     4  12  26  48  64  90 132 166 200 244 288 358
#
# _framework density 19.613505
#
# number of rings (size 3 to 8) (size 9 to 14) (size 15 to 20)
#    0.000    2.080    1.600    2.160    0.000    4.480 
#    0.000    1.600    0.000    0.960    0.000    0.000 
#    0.000    0.000    0.000    0.000    0.000    0.000 
#
# Total GULP energy -139362.777107 kJ/mol
# GULP energy per Si atom -5574.511084 kJ/mol
# Density = 1.956886 g / cm^3
# Si number density = 19.613505 Si / 1000 Ang^3
#
#
#
# Elastic Constant Matrix: (Units=GPa)
#
#
# Indices 1 2 3 4 5 6 
#
# 1 99.9784 100.9047 42.6970 0.0000 -14.6057 0.0000
# 2 100.9047 169.0750 62.2572 0.0000 -33.4698 0.0000
# 3 42.6970 62.2572 89.1441 0.0000 5.2229 0.0000
# 4 0.0000 0.0000 0.0000 4.4160 0.0000 7.2577
# 5 -14.6057 -33.4698 5.2229 0.0000 37.3801 0.0000
# 6 0.0000 0.0000 0.0000 7.2577 0.0000 -3.9645
#
#
#
# Elastic Compliance Matrix: (Units=1/GPa)
#
#
# Indices 1 2 3 4 5 6 
#
# 1 0.025832 -0.015762 -0.001139 0.000000 -0.003860 0.000000
# 2 -0.015762 0.020925 -0.007866 0.000000 0.013676 0.000000
# 3 -0.001139 -0.007866 0.017841 0.000000 -0.009981 0.000000
# 4 0.000000 0.000000 0.000000 0.056489 0.000000 0.103413
# 5 -0.003860 0.013676 -0.009981 0.000000 0.038884 0.000000
# 6 0.000000 0.000000 0.000000 0.103413 0.000000 -0.062922
#
#
# Mechanical properties :
#
#
# Convention : Reuss Voigt Hill
#
# Bulk Modulus (GPa) = 66.37424 85.54614 75.96019
# Shear Modulus (GPa) = 32.98070 17.72223 25.35146
#
# Velocity S-wave (km/s) = 4.10509 3.00921 3.59911
# Velocity P-wave (km/s) = 7.50890 7.46890 7.48893
#
# Compressibility (1/GPa) = 0.01506609
#
# Stress axis : x y z
#
# Youngs Moduli (GPa) = 38.71136 47.79044 56.04983
#
# Poissons Ratio (x) = 0.75325 0.06384
# Poissons Ratio (y) = 0.61015 0.44086
# Poissons Ratio (z) = 0.04409 0.37590
#
# Static dielectric constant tensor:
#      x y z
#    x 1.673700 0.000000 0.023380 
#    y 0.000000 1.658440 0.000000 
#    z 0.023380 0.000000 1.700700 
# 
# From -- ./inp_files/19962.got.cif
#   From: 2010.05.17/outbox.cif.g08.bks.cpg/sg10_10_cif.got.tgz:19962.got - 2010.06.03 11:33:40.
