data_PCOD9147038
_publ_section_title
;
Structure prediction by ZEFSAII (Michael W. Deem and Ramdas Pophale) SiO2 
 PCOD9147038
Probable space group: P 2/M
;
_chemical_formula_sum "Si O2"
_cell_formula_units_Z 32
_cell_length_a 30.498117
_cell_length_b 7.642604
_cell_length_c 12.819777
_cell_angle_alpha 90.000000
_cell_angle_beta 151.449243
_cell_angle_gamma 90.000000
_cell_volume 1428.122939
_symmetry_space_group_name_H-M "P 2/M"
_symmetry_group_IT_number 10
_symmetry_cell_setting 'monoclinic'
loop_
_space_group_symop_operation_xyz
x,y,z
-x,y,-z
-x,-y,-z
x,-y,z
loop_
_atom_site_type_symbol
_atom_site_label
_atom_site_fract_x
_atom_site_fract_y
_atom_site_fract_z
Si Si1 0.330901 0.708122 0.415629
Si Si2 0.240482 0.300378 0.869471
Si Si3 0.261824 0.204314 0.686168
Si Si4 0.130885 0.789151 0.031563
Si Si5 0.029869 0.207155 0.449943
Si Si6 0.105231 0.213836 0.209841
Si Si7 0.405595 0.284883 0.356752
Si Si8 0.606580 0.711687 0.227862
O O1 0.345051 0.500000 0.450987
O O2 0.224154 0.741134 0.167818
O O3 0.393026 0.772555 0.450156
O O4 0.353334 0.777866 0.577950
O O5 0.228264 0.500000 0.876880
O O6 0.278964 0.293105 0.832232
O O7 0.137817 0.225539 0.655725
O O8 0.316917 0.223276 0.106055
O O9 0.169775 0.274564 0.438056
O O10 0.338972 0.222221 0.759061
O O11 0.248460 0.000000 0.682237
O O12 0.139005 0.724996 0.167418
O O13 0.126374 0.000000 0.028269
O O14 0.038830 0.723961 0.782781
O O15 0.000000 0.280067 0.500000
O O16 0.011224 0.000000 0.413968
O O17 0.109206 0.000000 0.220346
O O18 0.000000 0.264573 0.000000
O O19 0.500000 0.229247 0.500000
O O20 0.405465 0.500000 0.355022
O O21 0.613761 0.500000 0.240478
O O22 0.500000 0.758575 0.000000
#
# Coordination Sequence:
#
# PCOD9147038 Si02
#       8
#     4   4   4   4   4   4   4   4
#     4  10  20  36  60  88 116 147 190 244 290 340
#     4  11  23  38  60  88 120 156 197 246 295 345
#     4  11  22  38  60  85 120 158 196 241 289 349
#     4  10  19  34  56  81 113 153 190 228 283 346
#     4  10  21  37  59  86 117 157 199 240 290 350
#     4   9  17  31  52  77 106 146 189 225 271 333
#     4   9  20  38  61  85 111 151 197 237 286 348
#     4  10  22  38  60  89 119 153 193 240 296 353
#
# _framework density 22.407035
#
# number of rings (size 3 to 8) (size 9 to 14) (size 15 to 20)
#    0.000    2.000    1.250    2.250    1.750    3.000 
#    0.000    0.625    0.000    3.750    0.000    0.000 
#    0.000    0.000    0.000    0.000    0.000    0.000 
#
# Total GULP energy -178805.793073 kJ/mol
# GULP energy per Si atom -5587.681034 kJ/mol
# Density = 2.235604 g / cm^3
# Si number density = 22.407035 Si / 1000 Ang^3
#
#
#
# Elastic Constant Matrix: (Units=GPa)
#
#
# Indices 1 2 3 4 5 6 
#
# 1 123.1810 -11.1671 30.0926 0.0000 2.5443 0.0000
# 2 -11.1671 39.9600 -3.1548 0.0000 -5.6037 0.0000
# 3 30.0926 -3.1548 90.4609 0.0000 2.4745 0.0000
# 4 0.0000 0.0000 0.0000 3.0029 0.0000 3.9356
# 5 2.5443 -5.6037 2.4745 0.0000 37.4885 0.0000
# 6 0.0000 0.0000 0.0000 3.9356 0.0000 14.0986
#
#
#
# Elastic Compliance Matrix: (Units=1/GPa)
#
#
# Indices 1 2 3 4 5 6 
#
# 1 0.009042 0.002285 -0.002926 0.000000 -0.000079 0.000000
# 2 0.002285 0.026194 0.000051 0.000000 0.003757 0.000000
# 3 -0.002926 0.000051 0.012046 0.000000 -0.000589 0.000000
# 4 0.000000 0.000000 0.000000 0.525128 0.000000 -0.146588
# 5 -0.000079 0.003757 -0.000589 0.000000 0.027281 0.000000
# 6 0.000000 0.000000 0.000000 -0.146588 0.000000 0.111849
#
#
# Mechanical properties :
#
#
# Convention : Reuss Voigt Hill
#
# Bulk Modulus (GPa) = 21.69161 31.68257 26.68709
# Shear Modulus (GPa) = 6.86731 26.77341 16.82036
#
# Velocity S-wave (km/s) = 1.75256 3.46043 2.74281
# Velocity P-wave (km/s) = 3.71443 5.48966 4.68686
#
# Compressibility (1/GPa) = 0.04610076
#
# Stress axis : x y z
#
# Youngs Moduli (GPa) = 110.59883 38.17609 83.01702
#
# Poissons Ratio (x) = -0.08722 0.24290
# Poissons Ratio (y) = -0.25268 -0.00421
# Poissons Ratio (z) = 0.32361 -0.00194
#
# Static dielectric constant tensor:
#      x y z
#    x 1.804730 0.000000 -0.018300 
#    y 0.000000 1.845420 0.000000 
#    z -0.018300 0.000000 1.816290 
# 
# From -- ./inp_files/58214.got.cif
#   From: 2010.05.17/outbox.cif.g08.bks.cpg/sg10_30_cif.got.tgz:58214.got - 2010.06.03 11:33:40.
