data_PCOD9147363
_publ_section_title
;
Structure prediction by ZEFSAII (Michael W. Deem and Ramdas Pophale) SiO2 
 PCOD9147363
Probable space group: P 2/M
;
_chemical_formula_sum "Si O2"
_cell_formula_units_Z 24
_cell_length_a 5.247942
_cell_length_b 14.809168
_cell_length_c 20.904703
_cell_angle_alpha 90.000000
_cell_angle_beta 120.705625
_cell_angle_gamma 90.000000
_cell_volume 1396.890013
_symmetry_space_group_name_H-M "P 2/M"
_symmetry_group_IT_number 10
_symmetry_cell_setting 'monoclinic'
loop_
_space_group_symop_operation_xyz
x,y,z
-x,y,-z
-x,-y,-z
x,-y,z
loop_
_atom_site_type_symbol
_atom_site_label
_atom_site_fract_x
_atom_site_fract_y
_atom_site_fract_z
Si Si1 0.931032 0.335371 0.317569
Si Si2 0.434450 0.401583 0.611272
Si Si3 0.443323 0.218704 0.424261
Si Si4 0.627282 0.893129 0.709330
Si Si5 0.709459 0.816856 0.210833
Si Si6 0.350050 0.893726 0.049674
O O1 0.734747 0.385813 0.344226
O O2 0.753513 0.287077 0.238228
O O3 0.211991 0.393783 0.331201
O O4 0.103060 0.252211 0.374752
O O5 0.363170 0.500000 0.574634
O O6 0.378931 0.314096 0.559589
O O7 0.500000 0.176275 0.500000
O O8 0.497431 0.157144 0.369718
O O9 0.443026 0.865754 0.748208
O O10 0.964945 0.858126 0.760314
O O11 0.625184 0.000000 0.700466
O O12 0.507435 0.834217 0.123606
O O13 0.389825 0.000000 0.072387
O O14 0.500000 0.880345 0.000000
O O15 0.000000 0.876575 0.000000
#
# Coordination Sequence:
#
# PCOD9147363 Si02
#       6
#     4   4   4   4   4   4
#     4   9  19  35  52  75  98 134 168 212 250 311
#     4  10  19  35  54  75 101 128 167 214 266 320
#     4   9  21  36  50  73 105 134 173 220 262 299
#     4  11  21  34  53  74  97 143 185 212 252 291
#     4  11  19  37  54  72 106 139 175 209 247 301
#     4  10  20  31  47  76 107 135 167 204 246 294
#
# _framework density 17.181023
#
# number of rings (size 3 to 8) (size 9 to 14) (size 15 to 20)
#    1.000    1.000    1.667    3.000    0.000    2.667 
#    0.000    0.833    0.000    3.000    0.000    0.000 
#    0.000   13.333    0.000    0.000    0.000    0.000 
#
# Total GULP energy -133719.148200 kJ/mol
# GULP energy per Si atom -5571.631175 kJ/mol
# Density = 1.714192 g / cm^3
# Si number density = 17.181023 Si / 1000 Ang^3
#
#
#
# Elastic Constant Matrix: (Units=GPa)
#
#
# Indices 1 2 3 4 5 6 
#
# 1 102.4447 1.6829 9.4329 0.0000 -12.6319 0.0000
# 2 1.6829 30.3294 -4.3251 0.0000 -3.3388 0.0000
# 3 9.4329 -4.3251 75.4137 0.0000 2.1452 0.0000
# 4 0.0000 0.0000 0.0000 -3.5385 0.0000 0.9455
# 5 -12.6319 -3.3388 2.1452 0.0000 17.4798 0.0000
# 6 0.0000 0.0000 0.0000 0.9455 0.0000 14.4208
#
#
#
# Elastic Compliance Matrix: (Units=1/GPa)
#
#
# Indices 1 2 3 4 5 6 
#
# 1 0.010904 0.000058 -0.001591 0.000000 0.008086 0.000000
# 2 0.000058 0.033913 0.001758 0.000000 0.006304 0.000000
# 3 -0.001591 0.001758 0.013631 0.000000 -0.002486 0.000000
# 4 0.000000 0.000000 0.000000 -0.277742 0.000000 0.018211
# 5 0.008086 0.006304 -0.002486 0.000000 0.064562 0.000000
# 6 0.000000 0.000000 0.000000 0.018211 0.000000 0.068150
#
#
# Mechanical properties :
#
#
# Convention : Reuss Voigt Hill
#
# Bulk Modulus (GPa) = 16.97807 24.64105 20.80956
# Shear Modulus (GPa) = -74.18198 19.09890 -27.54154
#
# Velocity S-wave (km/s) = -6.57803 3.33772 -4.00812
# Velocity P-wave (km/s) = 6.91307 5.40620 3.04660
#
# Compressibility (1/GPa) = 0.05889951
#
# Stress axis : x y z
#
# Youngs Moduli (GPa) = 91.71024 29.48742 73.36373
#
# Poissons Ratio (x) = -0.00172 0.11669
# Poissons Ratio (y) = -0.00535 -0.12900
# Poissons Ratio (z) = 0.14587 -0.05185
#
# Static dielectric constant tensor:
#      x y z
#    x 1.604500 0.000000 0.012680 
#    y 0.000000 1.598620 0.000000 
#    z 0.012680 0.000000 1.566950 
# 
# From -- ./inp_files/73371.got.cif
#   From: 2010.05.17/outbox.cif.g08.bks.cpg/sg10_37_cif.got.tgz:73371.got - 2010.06.03 11:33:40.
