data_PCOD9147396
_publ_section_title
;
Structure prediction by ZEFSAII (Michael W. Deem and Ramdas Pophale) SiO2 
 PCOD9147396
Probable space group: P 2/M
;
_chemical_formula_sum "Si O2"
_cell_formula_units_Z 28
_cell_length_a 14.789370
_cell_length_b 13.624179
_cell_length_c 7.794310
_cell_angle_alpha 90.000000
_cell_angle_beta 64.191627
_cell_angle_gamma 90.000000
_cell_volume 1413.849910
_symmetry_space_group_name_H-M "P 2/M"
_symmetry_group_IT_number 10
_symmetry_cell_setting 'monoclinic'
loop_
_space_group_symop_operation_xyz
x,y,z
-x,y,-z
-x,-y,-z
x,-y,z
loop_
_atom_site_type_symbol
_atom_site_label
_atom_site_fract_x
_atom_site_fract_y
_atom_site_fract_z
Si Si1 0.398918 0.719322 0.481976
Si Si2 0.933318 0.701414 0.887826
Si Si3 0.236574 0.605184 0.778787
Si Si4 0.768038 0.240092 0.815216
Si Si5 0.383092 0.609301 0.139330
Si Si6 0.596723 0.116125 0.797896
Si Si7 0.112101 0.388413 0.530670
O O1 0.500000 0.698494 0.500000
O O2 0.309773 0.697182 0.688642
O O3 0.379643 0.646276 0.338040
O O4 0.407215 0.823308 0.377015
O O5 0.856209 0.783054 0.877402
O O6 0.006295 0.655645 0.684628
O O7 0.851167 0.620899 0.011448
O O8 0.000000 0.728041 0.000000
O O9 0.289500 0.500000 0.761923
O O10 0.175187 0.601261 0.652799
O O11 0.678551 0.317617 0.931346
O O12 0.701849 0.150646 0.798190
O O13 0.829056 0.306156 0.626336
O O14 0.342178 0.500000 0.159716
O O15 0.500000 0.609690 0.000000
O O16 0.594484 0.000000 0.773597
O O17 0.500000 0.141808 0.000000
O O18 0.105887 0.500000 0.464287
#
# Coordination Sequence:
#
# PCOD9147396 Si02
#       7
#     4   4   4   4   4   4   4
#     4  11  22  35  58  86 120 152 188 238 298 361
#     4  10  23  36  53  83 120 162 199 243 281 333
#     4  10  20  34  51  81 123 165 194 228 278 336
#     4  11  20  36  62  83 110 153 200 244 296 344
#     4  10  21  35  51  79 117 159 200 235 279 346
#     4  10  23  44  68  90 112 142 191 250 306 367
#     4  10  19  35  55  81 117 160 206 243 272 323
#
# _framework density 19.804081
#
# number of rings (size 3 to 8) (size 9 to 14) (size 15 to 20)
#    0.000    1.714    2.857    3.429    4.000    6.000 
#    0.000    0.000    0.000    2.143    0.000    0.000 
#    0.000    0.000    0.000    0.000    0.000    0.000 
#
# Total GULP energy -156005.172295 kJ/mol
# GULP energy per Si atom -5571.613296 kJ/mol
# Density = 1.975901 g / cm^3
# Si number density = 19.804081 Si / 1000 Ang^3
#
#
#
# Elastic Constant Matrix: (Units=GPa)
#
#
# Indices 1 2 3 4 5 6 
#
# 1 127.2084 6.1818 30.1790 0.0000 -13.0438 0.0000
# 2 6.1818 65.5048 33.6481 0.0000 -17.0748 0.0000
# 3 30.1790 33.6481 106.7471 0.0000 -21.6687 0.0000
# 4 0.0000 0.0000 0.0000 9.1467 0.0000 -5.6502
# 5 -13.0438 -17.0748 -21.6687 0.0000 35.5333 0.0000
# 6 0.0000 0.0000 0.0000 -5.6502 0.0000 15.0558
#
#
#
# Elastic Compliance Matrix: (Units=1/GPa)
#
#
# Indices 1 2 3 4 5 6 
#
# 1 0.008582 0.000934 -0.002271 0.000000 0.002214 0.000000
# 2 0.000934 0.019509 -0.005068 0.000000 0.006627 0.000000
# 3 -0.002271 -0.005068 0.012490 0.000000 0.004347 0.000000
# 4 0.000000 0.000000 0.000000 0.142323 0.000000 0.053412
# 5 0.002214 0.006627 0.004347 0.000000 0.034791 0.000000
# 6 0.000000 0.000000 0.000000 0.053412 0.000000 0.086465
#
#
# Mechanical properties :
#
#
# Convention : Reuss Voigt Hill
#
# Bulk Modulus (GPa) = 36.01094 48.83087 42.42091
# Shear Modulus (GPa) = 15.32680 27.24392 21.28536
#
# Velocity S-wave (km/s) = 2.78496 3.71303 3.28197
# Velocity P-wave (km/s) = 5.34457 6.56450 5.98569
#
# Compressibility (1/GPa) = 0.02776934
#
# Stress axis : x y z
#
# Youngs Moduli (GPa) = 116.52909 51.25924 80.06349
#
# Poissons Ratio (x) = -0.04787 0.18183
# Poissons Ratio (y) = -0.10882 0.40578
# Poissons Ratio (z) = 0.26465 0.25980
#
# Static dielectric constant tensor:
#      x y z
#    x 1.769630 0.000000 0.026430 
#    y 0.000000 1.684780 0.000000 
#    z 0.026430 0.000000 1.793190 
# 
# From -- ./inp_files/28979.got.cif
#   From: 2010.05.17/outbox.cif.g08.bks.cpg/sg10_15_cif.got.tgz:28979.got - 2010.06.03 11:33:40.
