data_PCOD9147966
_publ_section_title
;
Structure prediction by ZEFSAII (Michael W. Deem and Ramdas Pophale) SiO2 
 PCOD9147966
Probable space group: P 2/M
;
_chemical_formula_sum "Si O2"
_cell_formula_units_Z 28
_cell_length_a 12.066534
_cell_length_b 7.757948
_cell_length_c 15.397519
_cell_angle_alpha 90.000000
_cell_angle_beta 118.266895
_cell_angle_gamma 90.000000
_cell_volume 1269.501923
_symmetry_space_group_name_H-M "P 2/M"
_symmetry_group_IT_number 10
_symmetry_cell_setting 'monoclinic'
loop_
_space_group_symop_operation_xyz
x,y,z
-x,y,-z
-x,-y,-z
x,-y,z
loop_
_atom_site_type_symbol
_atom_site_label
_atom_site_fract_x
_atom_site_fract_y
_atom_site_fract_z
Si Si1 0.655727 0.196269 0.804538
Si Si2 0.382498 0.788581 0.689294
Si Si3 0.018477 0.293058 0.287524
Si Si4 0.256350 0.798197 0.815773
Si Si5 0.871182 0.204612 0.496891
Si Si6 0.610726 0.698296 0.978085
Si Si7 0.936726 0.699265 0.888919
O O1 0.523825 0.266426 0.717368
O O2 0.785582 0.294441 0.839188
O O3 0.674154 0.000000 0.781270
O O4 0.632765 0.197746 0.899688
O O5 0.351225 0.735072 0.776724
O O6 0.262383 0.729665 0.589115
O O7 0.385356 0.000000 0.689883
O O8 0.021917 0.500000 0.286753
O O9 0.117554 0.232586 0.395897
O O10 0.032380 0.224787 0.194333
O O11 0.883206 0.230296 0.270598
O O12 0.271297 0.705301 0.913058
O O13 0.277412 0.000000 0.837585
O O14 0.000000 0.275536 0.500000
O O15 0.870595 0.000000 0.478573
O O16 0.585247 0.500000 0.945566
O O17 0.500000 0.764172 0.000000
O O18 0.979314 0.500000 0.902320
O O19 0.000000 0.775976 0.000000
#
# Coordination Sequence:
#
# PCOD9147966 Si02
#       7
#     4   4   4   4   4   4   4
#     4  11  22  38  61  87 117 154 202 254 298 352
#     4   9  19  35  56  86 120 151 190 243 299 349
#     4  11  23  38  59  90 122 154 200 254 306 357
#     4  11  20  35  58  84 118 156 197 243 293 353
#     4  10  19  37  62  87 119 163 202 241 299 360
#     4  11  22  34  51  82 121 157 191 232 295 365
#     4  10  23  44  64  82 117 162 201 248 303 361
#
# _framework density 22.055893000000001
#
# number of rings (size 3 to 8) (size 9 to 14) (size 15 to 20)
#    0.000    1.571    2.857    2.571    0.000    3.429 
#    0.000    2.143    0.000    4.286    0.000    0.000 
#    0.000    0.000    0.000    0.000    0.000    0.000 
#
# Total GULP energy -156351.753775 kJ/mol
# GULP energy per Si atom -5583.991206 kJ/mol
# Density = 2.200569 g / cm^3
# Si number density = 22.055893 Si / 1000 Ang^3
#
#
#
# Elastic Constant Matrix: (Units=GPa)
#
#
# Indices 1 2 3 4 5 6 
#
# 1 80.9300 -8.1442 30.0511 0.0000 14.8856 0.0000
# 2 -8.1442 23.5155 0.7497 0.0000 12.7497 0.0000
# 3 30.0511 0.7497 127.8683 0.0000 20.1977 0.0000
# 4 0.0000 0.0000 0.0000 80.4470 0.0000 19.6347
# 5 14.8856 12.7497 20.1977 0.0000 32.8979 0.0000
# 6 0.0000 0.0000 0.0000 19.6347 0.0000 24.4611
#
#
#
# Elastic Compliance Matrix: (Units=1/GPa)
#
#
# Indices 1 2 3 4 5 6 
#
# 1 0.016231 0.011301 -0.002247 0.000000 -0.010345 0.000000
# 2 0.011301 0.062994 0.001815 0.000000 -0.030641 0.000000
# 3 -0.002247 0.001815 0.009179 0.000000 -0.005322 0.000000
# 4 0.000000 0.000000 0.000000 0.015459 0.000000 -0.012409
# 5 -0.010345 -0.030641 -0.005322 0.000000 0.050220 0.000000
# 6 0.000000 0.000000 0.000000 -0.012409 0.000000 0.050842
#
#
# Mechanical properties :
#
#
# Convention : Reuss Voigt Hill
#
# Bulk Modulus (GPa) = 9.07916 30.84744 19.96330
# Shear Modulus (GPa) = 22.73759 41.53835 32.13797
#
# Velocity S-wave (km/s) = 3.21426 4.34443 3.82136
# Velocity P-wave (km/s) = 4.23092 6.25954 5.34240
#
# Compressibility (1/GPa) = 0.11014230
#
# Stress axis : x y z
#
# Youngs Moduli (GPa) = 61.61203 15.87441 108.94970
#
# Poissons Ratio (x) = -0.17940 0.24478
# Poissons Ratio (y) = -0.69630 -0.19771
# Poissons Ratio (z) = 0.13843 -0.02881
#
# Static dielectric constant tensor:
#      x y z
#    x 1.836130 0.000000 0.046270 
#    y 0.000000 1.802230 0.000000 
#    z 0.046270 0.000000 1.851540 
# 
# From -- ./inp_files/49114.got.cif
#   From: 2010.05.17/outbox.cif.g08.bks.cpg/sg10_25_cif.got.tgz:49114.got - 2010.06.03 11:33:40.
