data_PCOD9147884
_publ_section_title
;
Structure prediction by ZEFSAII (Michael W. Deem and Ramdas Pophale) SiO2 
 PCOD9147884
Probable space group: P 2/M
;
_chemical_formula_sum "Si O2"
_cell_formula_units_Z 32
_cell_length_a 13.801014
_cell_length_b 17.132337
_cell_length_c 10.754640
_cell_angle_alpha 90.000000
_cell_angle_beta 32.068717
_cell_angle_gamma 90.000000
_cell_volume 1350.099072
_symmetry_space_group_name_H-M "P 2/M"
_symmetry_group_IT_number 10
_symmetry_cell_setting 'monoclinic'
loop_
_space_group_symop_operation_xyz
x,y,z
-x,y,-z
-x,-y,-z
x,-y,z
loop_
_atom_site_type_symbol
_atom_site_label
_atom_site_fract_x
_atom_site_fract_y
_atom_site_fract_z
Si Si1 0.561608 0.853156 0.210150
Si Si2 0.582510 0.309695 0.043175
Si Si3 0.175760 0.818282 0.534726
Si Si4 0.141503 0.587652 0.157098
Si Si5 0.765292 0.365794 0.481831
Si Si6 0.719670 0.659689 0.254097
Si Si7 0.287784 0.915274 0.192164
Si Si8 0.855079 0.165953 0.061677
O O1 0.590216 0.763872 0.128354
O O2 0.343245 0.861190 0.427815
O O3 0.657559 0.865536 0.237618
O O4 0.683029 0.903984 0.984532
O O5 0.441710 0.374850 0.248152
O O6 0.500000 0.284797 0.000000
O O7 0.777469 0.350810 0.832814
O O8 0.205191 0.726462 0.522452
O O9 0.191676 0.848594 0.376788
O O10 0.978516 0.833002 0.804404
O O11 0.199158 0.500000 0.121854
O O12 0.923989 0.591100 0.380959
O O13 0.217787 0.615720 0.938554
O O14 0.779025 0.379529 0.319299
O O15 0.500000 0.667241 0.500000
O O16 0.808801 0.745833 0.155533
O O17 0.210658 0.000000 0.308479
O O18 0.500000 0.912715 0.000000
O O19 0.000000 0.129808 0.000000
#
# Coordination Sequence:
#
# PCOD9147884 Si02
#       8
#     4   4   4   4   4   4   4   4
#     4  10  20  38  63  94 125 162 206 253 310 367
#     4  11  23  42  65  89 122 163 216 264 309 382
#     4  10  19  36  62  91 128 165 203 250 308 367
#     4  12  26  42  62  91 125 167 211 265 333 380
#     4  11  21  40  65  93 124 164 212 263 312 376
#     4  12  21  41  66  93 126 159 210 269 323 374
#     4   9  19  38  67 102 134 163 203 258 316 369
#     4  12  22  34  60  93 123 159 208 259 305 364
#
# _framework density 23.701964
#
# number of rings (size 3 to 8) (size 9 to 14) (size 15 to 20)
#    0.000    1.125    5.000    3.000    0.000    3.000 
#    0.000    5.625    0.000    1.500    0.000    3.500 
#    0.000    0.000    0.000    0.000    0.000    0.000 
#
# Total GULP energy -178742.011861 kJ/mol
# GULP energy per Si atom -5585.687871 kJ/mol
# Density = 2.364802 g / cm^3
# Si number density = 23.701964 Si / 1000 Ang^3
#
#
#
# Elastic Constant Matrix: (Units=GPa)
#
#
# Indices 1 2 3 4 5 6 
#
# 1 111.4442 7.6118 15.3972 0.0000 -29.7732 0.0000
# 2 7.6118 46.9634 2.0555 0.0000 2.1453 0.0000
# 3 15.3972 2.0555 85.9576 0.0000 -12.4622 0.0000
# 4 0.0000 0.0000 0.0000 -3.6676 0.0000 7.1904
# 5 -29.7732 2.1453 -12.4622 0.0000 29.5571 0.0000
# 6 0.0000 0.0000 0.0000 7.1904 0.0000 -7.0790
#
#
#
# Elastic Compliance Matrix: (Units=1/GPa)
#
#
# Indices 1 2 3 4 5 6 
#
# 1 0.012602 -0.002609 -0.000348 0.000000 0.012737 0.000000
# 2 -0.002609 0.021954 -0.000713 0.000000 -0.004522 0.000000
# 3 -0.000348 -0.000713 0.012430 0.000000 0.004942 0.000000
# 4 0.000000 0.000000 0.000000 0.275034 0.000000 0.279362
# 5 0.012737 -0.004522 0.004942 0.000000 0.049075 0.000000
# 6 0.000000 0.000000 0.000000 0.279362 0.000000 0.142494
#
#
# Mechanical properties :
#
#
# Convention : Reuss Voigt Hill
#
# Bulk Modulus (GPa) = 25.22451 32.72158 28.97304
# Shear Modulus (GPa) = 9.36076 18.38215 13.87146
#
# Velocity S-wave (km/s) = 1.98946 2.78790 2.42181
# Velocity P-wave (km/s) = 3.99283 4.91920 4.48003
#
# Compressibility (1/GPa) = 0.03964398
#
# Stress axis : x y z
#
# Youngs Moduli (GPa) = 79.35129 45.55007 80.45357
#
# Poissons Ratio (x) = 0.11885 0.02803
# Poissons Ratio (y) = 0.20704 0.05739
# Poissons Ratio (z) = 0.02764 0.03249
#
# Static dielectric constant tensor:
#      x y z
#    x 2.000800 0.000000 0.013560 
#    y 0.000000 1.866660 0.000000 
#    z 0.013560 0.000000 1.933450 
# 
# From -- ./inp_files/51949.got.cif
#   From: 2010.05.17/outbox.cif.g08.bks.cpg/sg10_26_cif.got.tgz:51949.got - 2010.06.03 11:33:40.
