data_PCOD9147616
_publ_section_title
;
Structure prediction by ZEFSAII (Michael W. Deem and Ramdas Pophale) SiO2 
 PCOD9147616
Probable space group: P 2/M
;
_chemical_formula_sum "Si O2"
_cell_formula_units_Z 24
_cell_length_a 10.732203
_cell_length_b 12.596021
_cell_length_c 23.486460
_cell_angle_alpha 90.000000
_cell_angle_beta 160.712208
_cell_angle_gamma 90.000000
_cell_volume 1048.735248
_symmetry_space_group_name_H-M "P 2/M"
_symmetry_group_IT_number 10
_symmetry_cell_setting 'monoclinic'
loop_
_space_group_symop_operation_xyz
x,y,z
-x,y,-z
-x,-y,-z
x,-y,z
loop_
_atom_site_type_symbol
_atom_site_label
_atom_site_fract_x
_atom_site_fract_y
_atom_site_fract_z
Si Si1 0.842383 0.500000 0.708179
Si Si2 0.952151 0.672902 0.045918
Si Si3 0.575514 0.883513 0.906634
Si Si4 0.095839 0.124008 0.292775
Si Si5 0.956959 0.117264 0.548613
Si Si6 0.496927 0.500000 0.088902
Si Si7 0.612276 0.705977 0.660973
O O1 0.603946 0.606313 0.615119
O O2 0.087684 0.500000 0.756952
O O3 0.182192 0.500000 0.902422
O O4 0.290207 0.652227 0.235876
O O5 0.882082 0.795135 0.029892
O O6 0.602031 0.603290 0.916863
O O7 0.000000 0.654025 0.000000
O O8 0.253430 0.859485 0.814767
O O9 0.354474 0.885208 0.751498
O O10 0.731154 0.000000 0.985905
O O11 0.500000 0.135927 0.500000
O O12 0.090159 0.211759 0.240578
O O13 0.072231 0.000000 0.264578
O O14 0.734474 0.216072 0.478269
O O15 0.000000 0.128141 0.500000
O O16 0.781327 0.000000 0.485099
#
# Coordination Sequence:
#
# PCOD9147616 Si02
#       7
#     2   4   4   4   4   2   4
#     4   9  20  36  59  89 115 143 192 245 297 347
#     4  11  23  38  59  86 116 153 197 241 286 344
#     4  10  21  36  55  84 119 150 187 240 291 342
#     4  10  19  35  60  85 111 150 196 239 286 348
#     4  10  20  36  58  82 115 162 201 230 282 352
#     4   9  19  40  61  80 112 156 194 234 289 355
#     4  11  21  37  60  85 116 153 193 245 297 343
#
# _framework density 22.884709000000001
#
# number of rings (size 3 to 8) (size 9 to 14) (size 15 to 20)
#    0.000    1.833    1.667    2.750    0.000    3.667 
#    0.000    3.333    0.000    0.000    0.000    0.000 
#    0.000    0.000    0.000    0.000    0.000    0.000 
#
# Total GULP energy -134038.574385 kJ/mol
# GULP energy per Si atom -5584.940599 kJ/mol
# Density = 2.283262 g / cm^3
# Si number density = 22.884709 Si / 1000 Ang^3
#
#
#
# Elastic Constant Matrix: (Units=GPa)
#
#
# Indices 1 2 3 4 5 6 
#
# 1 112.4697 36.1503 14.2607 0.0000 -20.0389 0.0000
# 2 36.1503 124.4289 10.1935 0.0000 15.9514 0.0000
# 3 14.2607 10.1935 27.1220 0.0000 -7.3946 0.0000
# 4 0.0000 0.0000 0.0000 16.2422 0.0000 16.1628
# 5 -20.0389 15.9514 -7.3946 0.0000 28.7157 0.0000
# 6 0.0000 0.0000 0.0000 16.1628 0.0000 18.6069
#
#
#
# Elastic Compliance Matrix: (Units=1/GPa)
#
#
# Indices 1 2 3 4 5 6 
#
# 1 0.012708 -0.004981 -0.001761 0.000000 0.011182 0.000000
# 2 -0.004981 0.011258 -0.004587 0.000000 -0.010911 0.000000
# 3 -0.001761 -0.004587 0.042891 0.000000 0.012364 0.000000
# 4 0.000000 0.000000 0.000000 0.454062 0.000000 -0.394420
# 5 0.011182 -0.010911 0.012364 0.000000 0.051872 0.000000
# 6 0.000000 0.000000 0.000000 -0.394420 0.000000 0.396356
#
#
# Mechanical properties :
#
#
# Convention : Reuss Voigt Hill
#
# Bulk Modulus (GPa) = 22.62495 42.80328 32.71412
# Shear Modulus (GPa) = 4.96751 26.27401 15.62076
#
# Velocity S-wave (km/s) = 1.47492 3.39204 2.61547
# Velocity P-wave (km/s) = 3.57889 5.83830 4.84222
#
# Compressibility (1/GPa) = 0.04419899
#
# Stress axis : x y z
#
# Youngs Moduli (GPa) = 78.69132 88.82185 23.31465
#
# Poissons Ratio (x) = 0.44244 0.04106
# Poissons Ratio (y) = 0.39198 0.10695
# Poissons Ratio (z) = 0.13858 0.40744
#
# Static dielectric constant tensor:
#      x y z
#    x 1.868660 0.000000 -0.042000 
#    y 0.000000 1.870160 0.000000 
#    z -0.042000 0.000000 1.853480 
# 
# From -- ./inp_files/92850.got.cif
#   From: 2010.05.17/outbox.cif.g08.bks.cpg/sg10_47_cif.got.tgz:92850.got - 2010.06.03 11:33:40.
