data_PCOD9147404
_publ_section_title
;
Structure prediction by ZEFSAII (Michael W. Deem and Ramdas Pophale) SiO2 
 PCOD9147404
Probable space group: P 2/M
;
_chemical_formula_sum "Si O2"
_cell_formula_units_Z 30
_cell_length_a 14.644315
_cell_length_b 25.054730
_cell_length_c 5.256499
_cell_angle_alpha 90.000000
_cell_angle_beta 121.333174
_cell_angle_gamma 90.000000
_cell_volume 1647.379020
_symmetry_space_group_name_H-M "P 2/M"
_symmetry_group_IT_number 10
_symmetry_cell_setting 'monoclinic'
loop_
_space_group_symop_operation_xyz
x,y,z
-x,y,-z
-x,-y,-z
x,-y,z
loop_
_atom_site_type_symbol
_atom_site_label
_atom_site_fract_x
_atom_site_fract_y
_atom_site_fract_z
Si Si1 0.880126 0.397675 0.725633
Si Si2 0.215528 0.718795 0.385405
Si Si3 0.220671 0.438914 0.907287
Si Si4 0.441102 0.382604 0.164570
Si Si5 0.925142 0.000000 0.140025
Si Si6 0.074955 0.115988 0.856976
Si Si7 0.125705 0.772047 0.754380
Si Si8 0.466138 0.264253 0.701153
O O1 0.826850 0.339882 0.613085
O O2 0.867158 0.427347 0.437787
O O3 0.819573 0.427823 0.866541
O O4 0.000000 0.391533 0.000000
O O5 0.186790 0.756707 0.583457
O O6 0.342684 0.719775 0.526747
O O7 0.158833 0.735019 0.038677
O O8 0.256172 0.500000 0.936008
O O9 0.319256 0.399503 0.995316
O O10 0.500000 0.403395 0.500000
O O11 0.460891 0.318506 0.193099
O O12 0.500000 0.403295 0.000000
O O13 0.868945 0.057937 0.045622
O O14 0.000000 0.000000 0.500000
O O15 0.000000 0.000000 0.000000
O O16 0.143348 0.168394 0.892803
O O17 0.000000 0.112380 0.500000
O O18 0.000000 0.124312 0.000000
O O19 0.000000 0.766719 0.500000
O O20 0.500000 0.233861 0.500000
O O21 0.500000 0.233619 0.000000
#
# Coordination Sequence:
#
# PCOD9147404 Si02
#       8
#     4   4   4   4   2   4   4   4
#     4  12  25  42  61  81 108 141 176 210 249 308
#     4  12  23  37  57  80 105 140 179 216 260 317
#     4  12  26  43  63  85 106 131 167 212 263 321
#     4  10  20  37  59  82 105 127 156 201 256 317
#     4   8  14  24  42  66  96 142 196 230 258 298
#     4   9  16  28  45  69 104 148 191 229 261 295
#     4  11  21  34  51  78 114 149 184 220 255 298
#     4  10  19  35  56  76 100 128 163 209 264 319
#
# _framework density 18.210747999999999
#
# number of rings (size 3 to 8) (size 9 to 14) (size 15 to 20)
#    0.000    1.333    0.000    9.200    0.000    2.133 
#    0.000    0.000    0.000    0.000    0.000    0.000 
#    0.000    0.000    0.000   12.000    0.000    1.467 
#
# Total GULP energy -167359.582430 kJ/mol
# GULP energy per Si atom -5578.652748 kJ/mol
# Density = 1.816930 g / cm^3
# Si number density = 18.210748 Si / 1000 Ang^3
#
#
#
# Elastic Constant Matrix: (Units=GPa)
#
#
# Indices 1 2 3 4 5 6 
#
# 1 80.6765 12.0487 31.7554 0.0000 -18.8467 0.0000
# 2 12.0487 60.3566 18.3980 0.0000 -4.7121 0.0000
# 3 31.7554 18.3980 98.1318 0.0000 -22.5175 0.0000
# 4 0.0000 0.0000 0.0000 6.5927 0.0000 -18.8610
# 5 -18.8467 -4.7121 -22.5175 0.0000 36.4545 0.0000
# 6 0.0000 0.0000 0.0000 -18.8610 0.0000 22.3728
#
#
#
# Elastic Compliance Matrix: (Units=1/GPa)
#
#
# Indices 1 2 3 4 5 6 
#
# 1 0.015264 -0.001586 -0.003354 0.000000 0.005615 0.000000
# 2 -0.001586 0.017740 -0.002883 0.000000 -0.000308 0.000000
# 3 -0.003354 -0.002883 0.013204 0.000000 0.006050 0.000000
# 4 0.000000 0.000000 0.000000 -0.107437 0.000000 -0.090573
# 5 0.005615 -0.000308 0.006050 0.000000 0.034031 0.000000
# 6 0.000000 0.000000 0.000000 -0.090573 0.000000 -0.031659
#
#
# Mechanical properties :
#
#
# Convention : Reuss Voigt Hill
#
# Bulk Modulus (GPa) = 32.72107 40.39659 36.55883
# Shear Modulus (GPa) = -151.40610 24.88152 -63.26229
#
# Velocity S-wave (km/s) = -9.12806 3.70037 -5.90037
# Velocity P-wave (km/s) = 9.64823 6.36302 5.12837
#
# Compressibility (1/GPa) = 0.03056135
#
# Stress axis : x y z
#
# Youngs Moduli (GPa) = 65.51466 56.37075 75.73280
#
# Poissons Ratio (x) = 0.08943 0.25397
# Poissons Ratio (y) = 0.10394 0.21835
# Poissons Ratio (z) = 0.21971 0.16253
#
# Static dielectric constant tensor:
#      x y z
#    x 1.648170 0.000000 -0.043500 
#    y 0.000000 1.671340 0.000000 
#    z -0.043500 0.000000 1.664440 
# 
# From -- ./inp_files/10226.got.cif
#   From: 2010.05.17/outbox.cif.g08.bks.cpg/sg10_6_cif.got.tgz:10226.got - 2010.06.03 11:33:40.
