data_PCOD9147979
_publ_section_title
;
Structure prediction by ZEFSAII (Michael W. Deem and Ramdas Pophale) SiO2 
 PCOD9147979
Probable space group: P 2/M
;
_chemical_formula_sum "Si O2"
_cell_formula_units_Z 28
_cell_length_a 18.447896
_cell_length_b 14.055765
_cell_length_c 5.135215
_cell_angle_alpha 90.000000
_cell_angle_beta 114.087474
_cell_angle_gamma 90.000000
_cell_volume 1215.610132
_symmetry_space_group_name_H-M "P 2/M"
_symmetry_group_IT_number 10
_symmetry_cell_setting 'monoclinic'
loop_
_space_group_symop_operation_xyz
x,y,z
-x,y,-z
-x,-y,-z
x,-y,z
loop_
_atom_site_type_symbol
_atom_site_label
_atom_site_fract_x
_atom_site_fract_y
_atom_site_fract_z
Si Si1 0.906528 0.770941 0.397510
Si Si2 0.789355 0.393343 0.194680
Si Si3 0.825454 0.829548 0.802223
Si Si4 0.370964 0.000000 0.238388
Si Si5 0.267076 0.000000 0.583225
Si Si6 0.609931 0.392629 0.711469
Si Si7 0.575111 0.195100 0.924962
Si Si8 0.692851 0.710415 0.460297
O O1 0.860158 0.677040 0.226381
O O2 0.883233 0.784365 0.666259
O O3 0.000000 0.765405 0.500000
O O4 0.870434 0.847348 0.138255
O O5 0.818976 0.500000 0.241387
O O6 0.758309 0.356021 0.426275
O O7 0.703832 0.394189 0.923672
O O8 0.743955 0.770109 0.742234
O O9 0.788400 0.914269 0.584783
O O10 0.414656 0.899374 0.236581
O O11 0.297683 0.000000 0.923903
O O12 0.342403 0.000000 0.494370
O O13 0.580267 0.500000 0.712065
O O14 0.620280 0.358843 0.429394
O O15 0.570416 0.299352 0.780097
O O16 0.654400 0.211768 0.212908
O O17 0.500000 0.180983 0.000000
#
# Coordination Sequence:
#
# PCOD9147979 Si02
#       8
#     4   4   4   2   2   4   4   4
#     4  11  23  40  62  92 132 168 203 261 333 392
#     4   9  19  34  58  88 120 161 213 267 315 380
#     4  11  22  41  65  92 124 167 217 261 318 388
#     4  12  25  44  70 102 137 169 221 284 335 399
#     4  12  24  42  74  98 120 167 229 274 320 390
#     4  10  20  38  65  93 124 172 229 277 324 391
#     4  11  25  42  61  95 136 175 214 276 345 403
#     4  10  19  37  63  87 125 165 223 266 322 383
#
# _framework density 23.033701000000001
#
# number of rings (size 3 to 8) (size 9 to 14) (size 15 to 20)
#    0.000    1.429    2.857    2.786    2.000    1.714 
#    0.000    3.571    0.000    2.571    0.000    0.000 
#    0.000    0.000    0.000    0.000    0.000    0.000 
#
# Total GULP energy -156047.930166 kJ/mol
# GULP energy per Si atom -5573.140363 kJ/mol
# Density = 2.298128 g / cm^3
# Si number density = 23.033701 Si / 1000 Ang^3
#
#
#
# Elastic Constant Matrix: (Units=GPa)
#
#
# Indices 1 2 3 4 5 6 
#
# 1 95.0160 33.4329 11.2754 0.0000 1.3589 0.0000
# 2 33.4329 103.3717 -9.9889 0.0000 6.2905 0.0000
# 3 11.2754 -9.9889 72.3511 0.0000 13.3502 0.0000
# 4 0.0000 0.0000 0.0000 -18.1512 0.0000 34.7225
# 5 1.3589 6.2905 13.3502 0.0000 35.7828 0.0000
# 6 0.0000 0.0000 0.0000 34.7225 0.0000 7.7068
#
#
#
# Elastic Compliance Matrix: (Units=1/GPa)
#
#
# Indices 1 2 3 4 5 6 
#
# 1 0.012364 -0.004348 -0.002772 0.000000 0.001329 0.000000
# 2 -0.004348 0.011528 0.002806 0.000000 -0.002908 0.000000
# 3 -0.002772 0.002806 0.015800 0.000000 -0.006283 0.000000
# 4 0.000000 0.000000 0.000000 -0.005728 0.000000 0.025806
# 5 0.001329 -0.002908 -0.006283 0.000000 0.030751 0.000000
# 6 0.000000 0.000000 0.000000 0.025806 0.000000 0.013490
#
#
# Mechanical properties :
#
#
# Convention : Reuss Voigt Hill
#
# Bulk Modulus (GPa) = 32.19157 37.79752 34.99454
# Shear Modulus (GPa) = 51.44590 20.80231 36.12410
#
# Velocity S-wave (km/s) = 4.73113 3.00846 3.96449
# Velocity P-wave (km/s) = 6.62200 5.33976 6.01515
#
# Compressibility (1/GPa) = 0.03106403
#
# Stress axis : x y z
#
# Youngs Moduli (GPa) = 80.87783 86.74476 63.29022
#
# Poissons Ratio (x) = 0.37714 0.17546
# Poissons Ratio (y) = 0.35163 -0.17758
# Poissons Ratio (z) = 0.22422 -0.24339
#
# Static dielectric constant tensor:
#      x y z
#    x 1.871400 0.000000 -0.063720 
#    y 0.000000 1.966030 0.000000 
#    z -0.063720 0.000000 2.002540 
# 
# From -- ./inp_files/11325.got.cif
#   From: 2010.05.17/outbox.cif.g08.bks.cpg/sg10_6_cif.got.tgz:11325.got - 2010.06.03 11:33:40.
