data_PCOD9147875
_publ_section_title
;
Structure prediction by ZEFSAII (Michael W. Deem and Ramdas Pophale) SiO2 
 PCOD9147875
Probable space group: P 2/M
;
_chemical_formula_sum "Si O2"
_cell_formula_units_Z 32
_cell_length_a 31.196375
_cell_length_b 8.452471
_cell_length_c 13.356846
_cell_angle_alpha 90.000000
_cell_angle_beta 152.407384
_cell_angle_gamma 90.000000
_cell_volume 1631.335349
_symmetry_space_group_name_H-M "P 2/M"
_symmetry_group_IT_number 10
_symmetry_cell_setting 'monoclinic'
loop_
_space_group_symop_operation_xyz
x,y,z
-x,y,-z
-x,-y,-z
x,-y,z
loop_
_atom_site_type_symbol
_atom_site_label
_atom_site_fract_x
_atom_site_fract_y
_atom_site_fract_z
Si Si1 0.599324 0.314253 0.974659
Si Si2 0.793663 0.190599 0.075143
Si Si3 0.557420 0.190903 0.218775
Si Si4 0.785071 0.187295 0.442750
Si Si5 0.107284 0.808327 0.922808
Si Si6 0.401280 0.191371 0.250159
Si Si7 0.770585 0.193165 0.635896
Si Si8 0.898281 0.312864 0.488725
O O1 0.614415 0.500000 0.020152
O O2 0.677008 0.219743 0.197341
O O3 0.498668 0.264523 0.805548
O O4 0.610882 0.268080 0.883275
O O5 0.843220 0.247632 0.076845
O O6 0.846073 0.244321 0.283628
O O7 0.796531 0.000000 0.078985
O O8 0.686105 0.236895 0.862335
O O9 0.663928 0.241872 0.431368
O O10 0.555745 0.000000 0.224668
O O11 0.500000 0.233322 0.000000
O O12 0.804385 0.243460 0.595767
O O13 0.843260 0.267775 0.475525
O O14 0.802354 0.000000 0.472903
O O15 0.001876 0.753537 0.707655
O O16 0.108446 0.000000 0.924710
O O17 0.164465 0.755348 0.138732
O O18 0.500000 0.236387 0.500000
O O19 0.400091 0.000000 0.235956
O O20 0.770137 0.000000 0.633798
O O21 0.900970 0.500000 0.484467
#
# Coordination Sequence:
#
# PCOD9147875 Si02
#       8
#     4   4   4   4   4   4   4   4
#     4  12  24  37  56  89 127 165 201 245 305 366
#     4  10  21  39  65  93 121 157 202 250 300 359
#     4  10  19  36  62  88 117 158 206 249 288 346
#     4  11  21  40  66  91 119 158 208 256 301 357
#     4  10  22  41  64  91 121 155 202 257 309 361
#     4  10  22  39  63  93 122 160 204 247 298 357
#     4   9  20  38  64  94 120 154 204 257 303 353
#     4  12  25  41  62  90 121 159 203 251 311 370
#
# _framework density 19.615832000000001
#
# number of rings (size 3 to 8) (size 9 to 14) (size 15 to 20)
#    0.000    1.500    2.500    3.000    1.750    3.000 
#    0.000    4.375    0.000    0.000    0.000    0.000 
#    0.000    0.000    0.000    0.000    0.000    0.000 
#
# Total GULP energy -178849.445187 kJ/mol
# GULP energy per Si atom -5589.045162 kJ/mol
# Density = 1.957119 g / cm^3
# Si number density = 19.615832 Si / 1000 Ang^3
#
#
#
# Elastic Constant Matrix: (Units=GPa)
#
#
# Indices 1 2 3 4 5 6 
#
# 1 131.4361 1.9536 63.8686 0.0000 -10.7444 0.0000
# 2 1.9536 4.8344 5.3317 0.0000 -1.7318 0.0000
# 3 63.8686 5.3317 135.5420 0.0000 4.7374 0.0000
# 4 0.0000 0.0000 0.0000 -12.3553 0.0000 3.4376
# 5 -10.7444 -1.7318 4.7374 0.0000 23.8829 0.0000
# 6 0.0000 0.0000 0.0000 3.4376 0.0000 -14.3828
#
#
#
# Elastic Compliance Matrix: (Units=1/GPa)
#
#
# Indices 1 2 3 4 5 6 
#
# 1 0.010677 0.003842 -0.005397 0.000000 0.006152 0.000000
# 2 0.003842 0.225117 -0.011375 0.000000 0.020308 0.000000
# 3 -0.005397 -0.011375 0.010555 0.000000 -0.005347 0.000000
# 4 0.000000 0.000000 0.000000 -0.086703 0.000000 -0.020723
# 5 0.006152 0.020308 -0.005347 0.000000 0.047172 0.000000
# 6 0.000000 0.000000 0.000000 -0.020723 0.000000 -0.074480
#
#
# Mechanical properties :
#
#
# Convention : Reuss Voigt Hill
#
# Bulk Modulus (GPa) = 4.53541 46.01335 25.27438
# Shear Modulus (GPa) = 21.58014 12.80621 17.19317
#
# Velocity S-wave (km/s) = 3.32043 2.55787 2.96378
# Velocity P-wave (km/s) = 4.12523 5.67730 4.96232
#
# Compressibility (1/GPa) = 0.22048709
#
# Stress axis : x y z
#
# Youngs Moduli (GPa) = 93.66185 4.44214 94.73931
#
# Poissons Ratio (x) = -0.01706 0.51132
# Poissons Ratio (y) = -0.35981 1.07768
# Poissons Ratio (z) = 0.50550 0.05053
#
# Static dielectric constant tensor:
#      x y z
#    x 1.682080 0.000000 -0.000690 
#    y 0.000000 1.661360 0.000000 
#    z -0.000690 0.000000 1.662120 
# 
# From -- ./inp_files/58283.got.cif
#   From: 2010.05.17/outbox.cif.g08.bks.cpg/sg10_30_cif.got.tgz:58283.got - 2010.06.03 11:33:40.
