data_PCOD9147934
_publ_section_title
;
Structure prediction by ZEFSAII (Michael W. Deem and Ramdas Pophale) SiO2 
 PCOD9147934
Probable space group: P 2/M
;
_chemical_formula_sum "Si O2"
_cell_formula_units_Z 25
_cell_length_a 9.917234
_cell_length_b 19.247919
_cell_length_c 10.206280
_cell_angle_alpha 90.000000
_cell_angle_beta 44.159002
_cell_angle_gamma 90.000000
_cell_volume 1357.243192
_symmetry_space_group_name_H-M "P 2/M"
_symmetry_group_IT_number 10
_symmetry_cell_setting 'monoclinic'
loop_
_space_group_symop_operation_xyz
x,y,z
-x,y,-z
-x,-y,-z
x,-y,z
loop_
_atom_site_type_symbol
_atom_site_label
_atom_site_fract_x
_atom_site_fract_y
_atom_site_fract_z
Si Si1 0.936708 0.500000 0.391613
Si Si2 0.362833 0.500000 0.971829
Si Si3 0.841159 0.362526 0.314726
Si Si4 0.424694 0.217541 0.905823
Si Si5 0.331335 0.785807 0.506067
Si Si6 0.000000 0.000000 0.000000
Si Si7 0.968737 0.856444 0.879650
Si Si8 0.719827 0.637789 0.103458
O O1 0.829719 0.429845 0.416843
O O2 0.000000 0.500000 0.500000
O O3 0.140206 0.500000 0.172785
O O4 0.500000 0.500000 0.000000
O O5 0.387543 0.569914 0.873621
O O6 0.762602 0.291546 0.433470
O O7 0.732995 0.368874 0.250733
O O8 0.065659 0.357655 0.111178
O O9 0.578405 0.189302 0.693612
O O10 0.381141 0.292862 0.874794
O O11 0.500000 0.223268 0.000000
O O12 0.228671 0.172999 0.040193
O O13 0.500000 0.786534 0.500000
O O14 0.157631 0.836375 0.667712
O O15 0.959444 0.062457 0.920300
O O16 0.000000 0.819397 0.000000
#
# Coordination Sequence:
#
# PCOD9147934 Si02
#       8
#     2   2   4   4   4   1   4   4
#     4  10  23  39  52  77 125 164 211 281 340 375
#     4  10  21  35  53  76 114 164 211 259 332 387
#     4  10  20  36  61  83 112 166 217 271 322 384
#     4  12  25  39  63 100 137 171 214 271 332 380
#     4  12  21  38  68  96 125 170 222 265 319 387
#     4   8  20  40  80  98 130 178 212 256 320 384
#     4  10  20  43  68 100 132 165 214 261 309 388
#     4  10  19  37  58  84 119 163 214 274 322 385
#
# _framework density 18.419689999999999
#
# number of rings (size 3 to 8) (size 9 to 14) (size 15 to 20)
#    0.480    0.960    4.800    0.960    0.000    6.400 
#    0.000    4.400    0.000    0.960    0.000    0.000 
#    0.000    0.000    0.000    0.000    0.000    0.000 
#
# Total GULP energy -139242.941482 kJ/mol
# GULP energy per Si atom -5569.717659 kJ/mol
# Density = 1.837777 g / cm^3
# Si number density = 18.419690 Si / 1000 Ang^3
#
#
#
# Elastic Constant Matrix: (Units=GPa)
#
#
# Indices 1 2 3 4 5 6 
#
# 1 118.2110 55.8641 42.8022 0.0000 13.4028 0.0000
# 2 55.8641 122.4011 20.2226 0.0000 -4.2703 0.0000
# 3 42.8022 20.2226 93.8680 0.0000 3.0109 0.0000
# 4 0.0000 0.0000 0.0000 5.3541 0.0000 2.4989
# 5 13.4028 -4.2703 3.0109 0.0000 27.8859 0.0000
# 6 0.0000 0.0000 0.0000 2.4989 0.0000 -32.5980
#
#
#
# Elastic Compliance Matrix: (Units=1/GPa)
#
#
# Indices 1 2 3 4 5 6 
#
# 1 0.013664 -0.005687 -0.004783 0.000000 -0.006922 0.000000
# 2 -0.005687 0.010902 0.000104 0.000000 0.004392 0.000000
# 3 -0.004783 0.000104 0.012782 0.000000 0.000935 0.000000
# 4 0.000000 0.000000 0.000000 0.180321 0.000000 0.013823
# 5 -0.006922 0.004392 0.000935 0.000000 0.039759 0.000000
# 6 0.000000 0.000000 0.000000 0.013823 0.000000 -0.029617
#
#
# Mechanical properties :
#
#
# Convention : Reuss Voigt Hill
#
# Bulk Modulus (GPa) = 60.19017 63.58421 61.88719
# Shear Modulus (GPa) = 19.67871 14.50114 17.08993
#
# Velocity S-wave (km/s) = 3.27211 2.80886 3.04930
# Velocity P-wave (km/s) = 6.85738 6.71672 6.78741
#
# Compressibility (1/GPa) = 0.01661401
#
# Stress axis : x y z
#
# Youngs Moduli (GPa) = 73.18525 91.72886 78.23526
#
# Poissons Ratio (x) = 0.52171 0.37422
# Poissons Ratio (y) = 0.41624 -0.00813
# Poissons Ratio (z) = 0.35006 -0.00953
#
# Static dielectric constant tensor:
#      x y z
#    x 1.624790 0.000000 -0.013510 
#    y 0.000000 1.614580 0.000000 
#    z -0.013510 0.000000 1.680260 
# 
# From -- ./inp_files/20202.got.cif
#   From: 2010.05.17/outbox.cif.g08.bks.cpg/sg10_11_cif.got.tgz:20202.got - 2010.06.03 11:33:40.
