data_PCOD9147669
_publ_section_title
;
Structure prediction by ZEFSAII (Michael W. Deem and Ramdas Pophale) SiO2 
 PCOD9147669
Probable space group: P 2/M
;
_chemical_formula_sum "Si O2"
_cell_formula_units_Z 32
_cell_length_a 22.452686
_cell_length_b 8.186253
_cell_length_c 14.687031
_cell_angle_alpha 90.000000
_cell_angle_beta 30.059142
_cell_angle_gamma 90.000000
_cell_volume 1352.175353
_symmetry_space_group_name_H-M "P 2/M"
_symmetry_group_IT_number 10
_symmetry_cell_setting 'monoclinic'
loop_
_space_group_symop_operation_xyz
x,y,z
-x,y,-z
-x,-y,-z
x,-y,z
loop_
_atom_site_type_symbol
_atom_site_label
_atom_site_fract_x
_atom_site_fract_y
_atom_site_fract_z
Si Si1 0.358926 0.810243 0.085441
Si Si2 0.027130 0.813223 0.251937
Si Si3 0.750014 0.696483 0.396912
Si Si4 0.628760 0.805174 0.282829
Si Si5 0.871409 0.310295 0.709218
Si Si6 0.770243 0.306290 0.576423
Si Si7 0.136815 0.309985 0.930583
Si Si8 0.511179 0.802483 0.257740
O O1 0.236432 0.790228 0.190212
O O2 0.335752 0.730874 0.213722
O O3 0.384206 0.000000 0.067481
O O4 0.455879 0.740838 0.886646
O O5 0.111641 0.707653 0.205027
O O6 0.891047 0.772530 0.453725
O O7 0.054093 0.000000 0.236198
O O8 0.049426 0.777001 0.116379
O O9 0.759903 0.500000 0.385008
O O10 0.757659 0.757155 0.490222
O O11 0.844505 0.754879 0.196704
O O12 0.617618 0.743172 0.541865
O O13 0.500000 0.784967 0.500000
O O14 0.733516 0.710297 0.194089
O O15 0.607179 0.754865 0.206777
O O16 0.657791 0.000000 0.247989
O O17 0.852427 0.500000 0.709056
O O18 0.000000 0.258278 0.500000
O O19 0.787867 0.500000 0.549678
O O20 0.102153 0.500000 0.972309
O O21 0.510348 0.000000 0.256859
#
# Coordination Sequence:
#
# PCOD9147669 Si02
#       8
#     4   4   4   4   4   4   4   4
#     4  11  23  39  62  94 127 163 203 248 305 364
#     4  12  25  41  64  93 124 160 201 249 305 368
#     4  10  24  43  64  88 118 160 208 256 306 358
#     4  10  19  35  61  92 125 162 198 242 304 368
#     4  11  22  38  64  95 126 162 200 245 303 363
#     4  11  24  44  64  86 119 160 208 259 305 357
#     4  11  23  40  63  92 124 160 202 252 307 367
#     4  10  22  39  61  90 125 160 198 247 302 363
#
# _framework density 23.665569999999999
#
# number of rings (size 3 to 8) (size 9 to 14) (size 15 to 20)
#    0.000    1.250    2.500    3.375    0.000    5.750 
#    0.000    5.000    0.000    0.000    0.000    0.000 
#    0.000    0.000    0.000    0.000    0.000    0.000 
#
# Total GULP energy -179060.994942 kJ/mol
# GULP energy per Si atom -5595.656092 kJ/mol
# Density = 2.361171 g / cm^3
# Si number density = 23.665570 Si / 1000 Ang^3
#
#
#
# Elastic Constant Matrix: (Units=GPa)
#
#
# Indices 1 2 3 4 5 6 
#
# 1 82.1653 -6.8754 8.2528 0.0000 33.0556 0.0000
# 2 -6.8754 23.2337 0.6840 0.0000 3.4762 0.0000
# 3 8.2528 0.6840 108.4344 0.0000 32.4075 0.0000
# 4 0.0000 0.0000 0.0000 30.0257 0.0000 12.3875
# 5 33.0556 3.4762 32.4075 0.0000 42.4641 0.0000
# 6 0.0000 0.0000 0.0000 12.3875 0.0000 4.4854
#
#
#
# Elastic Compliance Matrix: (Units=1/GPa)
#
#
# Indices 1 2 3 4 5 6 
#
# 1 0.020558 0.008959 0.004380 0.000000 -0.020079 0.000000
# 2 0.008959 0.047567 0.002936 0.000000 -0.013108 0.000000
# 3 0.004380 0.002936 0.012904 0.000000 -0.013498 0.000000
# 4 0.000000 0.000000 0.000000 -0.238929 0.000000 0.659858
# 5 -0.020079 -0.013108 -0.013498 0.000000 0.050554 0.000000
# 6 0.000000 0.000000 0.000000 0.659858 0.000000 -1.599410
#
#
# Mechanical properties :
#
#
# Convention : Reuss Voigt Hill
#
# Bulk Modulus (GPa) = 8.80444 24.21736 16.51090
# Shear Modulus (GPa) = -2.93868 29.51316 13.28724
#
# Velocity S-wave (km/s) = -1.11555 3.53525 2.37208
# Velocity P-wave (km/s) = 1.43846 5.18839 3.80713
#
# Compressibility (1/GPa) = 0.11357903
#
# Stress axis : x y z
#
# Youngs Moduli (GPa) = 48.64187 21.02306 77.49262
#
# Poissons Ratio (x) = -0.18835 -0.33941
# Poissons Ratio (y) = -0.43578 -0.22750
# Poissons Ratio (z) = -0.21305 -0.06172
#
# Static dielectric constant tensor:
#      x y z
#    x 1.928410 0.000000 0.048860 
#    y 0.000000 1.810060 0.000000 
#    z 0.048860 0.000000 1.903050 
# 
# From -- ./inp_files/71530.got.cif
#   From: 2010.05.17/outbox.cif.g08.bks.cpg/sg10_36_cif.got.tgz:71530.got - 2010.06.03 11:33:40.
