data_PCOD9147225
_publ_section_title
;
Structure prediction by ZEFSAII (Michael W. Deem and Ramdas Pophale) SiO2 
 PCOD9147225
Probable space group: P 2/M
;
_chemical_formula_sum "Si O2"
_cell_formula_units_Z 22
_cell_length_a 11.391176
_cell_length_b 8.620982
_cell_length_c 21.901504
_cell_angle_alpha 90.000000
_cell_angle_beta 149.431921
_cell_angle_gamma 90.000000
_cell_volume 1093.812723
_symmetry_space_group_name_H-M "P 2/M"
_symmetry_group_IT_number 10
_symmetry_cell_setting 'monoclinic'
loop_
_space_group_symop_operation_xyz
x,y,z
-x,y,-z
-x,-y,-z
x,-y,z
loop_
_atom_site_type_symbol
_atom_site_label
_atom_site_fract_x
_atom_site_fract_y
_atom_site_fract_z
Si Si1 0.000000 0.236103 0.500000
Si Si2 0.175147 0.685846 0.026598
Si Si3 0.950336 0.185666 0.682281
Si Si4 0.330470 0.174283 0.759859
Si Si5 0.861709 0.685031 0.775683
Si Si6 0.363253 0.185418 0.573420
O O1 0.156017 0.165855 0.624369
O O2 0.211534 0.291658 0.551450
O O3 0.172489 0.500000 0.028840
O O4 0.437142 0.737843 0.151808
O O5 0.000000 0.745974 0.000000
O O6 0.070143 0.730446 0.913977
O O7 0.912832 0.268447 0.729213
O O8 0.739393 0.207843 0.540403
O O9 0.178624 0.239554 0.747789
O O10 0.968798 0.000000 0.700370
O O11 0.397750 0.000000 0.806485
O O12 0.827549 0.500000 0.764924
O O13 0.628884 0.769520 0.693133
O O14 0.331798 0.000000 0.574713
#
# Coordination Sequence:
#
# PCOD9147225 Si02
#       6
#     2   4   4   4   4   4
#     4  10  19  36  61  88 113 138 175 226 277 322
#     4  10  23  41  56  76 111 148 181 222 272 323
#     4   9  20  37  56  82 113 143 177 223 276 322
#     4  10  20  36  60  86 110 139 180 226 270 321
#     4  11  23  37  55  79 109 147 186 224 267 317
#     4  10  19  34  58  84 112 144 178 221 273 324
#
# _framework density 20.113132
#
# number of rings (size 3 to 8) (size 9 to 14) (size 15 to 20)
#    0.000    2.000    0.000    4.909    0.000    6.182 
#    0.000    7.273    0.000    0.000    0.000    0.000 
#    0.000    0.000    0.000    0.000    0.000    0.000 
#
# Total GULP energy -122581.001377 kJ/mol
# GULP energy per Si atom -5571.863699 kJ/mol
# Density = 2.006735 g / cm^3
# Si number density = 20.113132 Si / 1000 Ang^3
#
#
#
# Elastic Constant Matrix: (Units=GPa)
#
#
# Indices 1 2 3 4 5 6 
#
# 1 108.1538 19.2733 51.6899 0.0000 5.6198 0.0000
# 2 19.2733 21.5086 26.7425 0.0000 1.1267 0.0000
# 3 51.6899 26.7425 112.3037 0.0000 23.3708 0.0000
# 4 0.0000 0.0000 0.0000 -3.3595 0.0000 4.9456
# 5 5.6198 1.1267 23.3708 0.0000 32.4671 0.0000
# 6 0.0000 0.0000 0.0000 4.9456 0.0000 24.9321
#
#
#
# Elastic Compliance Matrix: (Units=1/GPa)
#
#
# Indices 1 2 3 4 5 6 
#
# 1 0.012377 -0.005266 -0.004746 0.000000 0.001457 0.000000
# 2 -0.005266 0.071556 -0.016806 0.000000 0.010526 0.000000
# 3 -0.004746 -0.016806 0.017406 0.000000 -0.011125 0.000000
# 4 0.000000 0.000000 0.000000 -0.230385 0.000000 0.045700
# 5 0.001457 0.010526 -0.011125 0.000000 0.038191 0.000000
# 6 0.000000 0.000000 0.000000 0.045700 0.000000 0.031044
#
#
# Mechanical properties :
#
#
# Convention : Reuss Voigt Hill
#
# Bulk Modulus (GPa) = 20.96311 48.59750 34.78031
# Shear Modulus (GPa) = 514.08055 20.42530 267.25293
#
# Velocity S-wave (km/s) = 16.00467 3.19018 11.53964
# Velocity P-wave (km/s) = 18.76107 6.14689 13.95998
#
# Compressibility (1/GPa) = 0.04770284
#
# Stress axis : x y z
#
# Youngs Moduli (GPa) = 80.79453 13.97499 57.45221
#
# Poissons Ratio (x) = 0.07360 0.27266
# Poissons Ratio (y) = 0.42550 0.96554
# Poissons Ratio (z) = 0.38344 0.23486
#
# Static dielectric constant tensor:
#      x y z
#    x 1.722390 0.000000 0.003440 
#    y 0.000000 1.715750 0.000000 
#    z 0.003440 0.000000 1.675160 
# 
# From -- ./inp_files/88745.got.cif
#   From: 2010.05.17/outbox.cif.g08.bks.cpg/sg10_45_cif.got.tgz:88745.got - 2010.06.03 11:33:40.
