data_PCOD9147653
_publ_section_title
;
Structure prediction by ZEFSAII (Michael W. Deem and Ramdas Pophale) SiO2 
 PCOD9147653
Probable space group: P 2/M
;
_chemical_formula_sum "Si O2"
_cell_formula_units_Z 32
_cell_length_a 9.675232
_cell_length_b 19.978010
_cell_length_c 15.926104
_cell_angle_alpha 90.000000
_cell_angle_beta 144.065457
_cell_angle_gamma 90.000000
_cell_volume 1806.583860
_symmetry_space_group_name_H-M "P 2/M"
_symmetry_group_IT_number 10
_symmetry_cell_setting 'monoclinic'
loop_
_space_group_symop_operation_xyz
x,y,z
-x,y,-z
-x,-y,-z
x,-y,z
loop_
_atom_site_type_symbol
_atom_site_label
_atom_site_fract_x
_atom_site_fract_y
_atom_site_fract_z
Si Si1 0.040692 0.182757 0.662432
Si Si2 0.462330 0.684930 0.340424
Si Si3 0.888023 0.686892 0.679063
Si Si4 0.227601 0.922068 0.360502
Si Si5 0.280110 0.424226 0.126331
Si Si6 0.748853 0.421814 0.076301
Si Si7 0.769069 0.077372 0.834336
Si Si8 0.382239 0.187675 0.680932
O O1 0.026181 0.248025 0.714215
O O2 0.961372 0.119711 0.679682
O O3 0.833855 0.184601 0.490933
O O4 0.277282 0.183789 0.723242
O O5 0.698199 0.673162 0.511519
O O6 0.262258 0.702278 0.310730
O O7 0.392221 0.619756 0.253942
O O8 0.493398 0.743794 0.287469
O O9 0.059471 0.625238 0.784841
O O10 0.500000 0.896146 0.500000
O O11 0.171449 0.918649 0.234723
O O12 0.232107 0.000000 0.390169
O O13 0.373455 0.500000 0.175066
O O14 0.306647 0.397279 0.045220
O O15 0.000000 0.426170 0.000000
O O16 0.830473 0.500000 0.111163
O O17 0.500000 0.420960 0.000000
O O18 0.556597 0.126406 0.750807
O O19 0.705976 0.000000 0.821714
O O20 0.000000 0.095422 0.000000
#
# Coordination Sequence:
#
# PCOD9147653 Si02
#       8
#     4   4   4   4   4   4   4   4
#     4  10  21  36  58  84 117 148 188 243 281 332
#     4  10  21  36  59  83 112 149 190 240 287 335
#     4  10  21  37  57  84 114 150 190 237 288 341
#     4  10  19  35  61  87 111 148 195 234 275 335
#     4  10  20  37  58  83 112 144 189 238 282 337
#     4  10  22  40  60  83 117 154 187 234 293 349
#     4  10  21  38  59  84 116 150 186 234 287 339
#     4  10  21  37  56  84 115 150 189 234 288 336
#
# _framework density 17.712987999999999
#
# number of rings (size 3 to 8) (size 9 to 14) (size 15 to 20)
#    0.000    2.000    2.500    0.750    3.500    1.500 
#    2.250    3.125    0.000    4.500    0.000    0.000 
#    0.000    0.000    0.000    0.000    0.000    0.000 
#
# Total GULP energy -178407.298960 kJ/mol
# GULP energy per Si atom -5575.228093 kJ/mol
# Density = 1.767267 g / cm^3
# Si number density = 17.712988 Si / 1000 Ang^3
#
#
#
# Elastic Constant Matrix: (Units=GPa)
#
#
# Indices 1 2 3 4 5 6 
#
# 1 119.9709 55.5736 32.7958 0.0000 -7.4964 0.0000
# 2 55.5736 86.5623 29.1290 0.0000 3.7700 0.0000
# 3 32.7958 29.1290 40.0279 0.0000 -6.7762 0.0000
# 4 0.0000 0.0000 0.0000 16.1125 0.0000 -6.7192
# 5 -7.4964 3.7700 -6.7762 0.0000 18.9125 0.0000
# 6 0.0000 0.0000 0.0000 -6.7192 0.0000 22.7215
#
#
#
# Elastic Compliance Matrix: (Units=1/GPa)
#
#
# Indices 1 2 3 4 5 6 
#
# 1 0.013257 -0.007086 -0.004872 0.000000 0.004922 0.000000
# 2 -0.007086 0.020153 -0.010663 0.000000 -0.010646 0.000000
# 3 -0.004872 -0.010663 0.039141 0.000000 0.014218 0.000000
# 4 0.000000 0.000000 0.000000 0.070794 0.000000 0.020935
# 5 0.004922 -0.010646 0.014218 0.000000 0.062043 0.000000
# 6 0.000000 0.000000 0.000000 0.020935 0.000000 0.050202
#
#
# Mechanical properties :
#
#
# Convention : Reuss Voigt Hill
#
# Bulk Modulus (GPa) = 36.61671 53.50642 45.06157
# Shear Modulus (GPa) = 16.13244 20.15347 18.14295
#
# Velocity S-wave (km/s) = 3.02117 3.37676 3.20390
# Velocity P-wave (km/s) = 5.73472 6.74362 6.25953
#
# Compressibility (1/GPa) = 0.02730993
#
# Stress axis : x y z
#
# Youngs Moduli (GPa) = 75.43076 49.61947 25.54888
#
# Poissons Ratio (x) = 0.35161 0.12448
# Poissons Ratio (y) = 0.53451 0.27241
# Poissons Ratio (z) = 0.36751 0.52907
#
# Static dielectric constant tensor:
#      x y z
#    x 1.802870 0.000000 0.023160 
#    y 0.000000 1.611310 0.000000 
#    z 0.023160 0.000000 1.593030 
# 
# From -- ./inp_files/62515.got.cif
#   From: 2010.05.17/outbox.cif.g08.bks.cpg/sg10_32_cif.got.tgz:62515.got - 2010.06.03 11:33:40.
