data_PCOD9147452
_publ_section_title
;
Structure prediction by ZEFSAII (Michael W. Deem and Ramdas Pophale) SiO2 
 PCOD9147452
Probable space group: P 2/M
;
_chemical_formula_sum "Si O2"
_cell_formula_units_Z 16
_cell_length_a 9.367743
_cell_length_b 8.135675
_cell_length_c 25.743294
_cell_angle_alpha 90.000000
_cell_angle_beta 26.649183
_cell_angle_gamma 90.000000
_cell_volume 879.996112
_symmetry_space_group_name_H-M "P 2/M"
_symmetry_group_IT_number 10
_symmetry_cell_setting 'monoclinic'
loop_
_space_group_symop_operation_xyz
x,y,z
-x,y,-z
-x,-y,-z
x,-y,z
loop_
_atom_site_type_symbol
_atom_site_label
_atom_site_fract_x
_atom_site_fract_y
_atom_site_fract_z
Si Si1 0.500000 0.255847 0.500000
Si Si2 0.618724 0.000000 0.744079
Si Si3 0.326606 0.000000 0.471307
Si Si4 0.220684 0.679533 0.243919
Si Si5 0.164987 0.686827 0.138683
Si Si6 0.755967 0.000000 0.236289
O O1 0.472508 0.151111 0.456130
O O2 0.848910 0.331772 0.381500
O O3 0.629120 0.164737 0.775574
O O4 0.952240 0.000000 0.603792
O O5 0.341104 0.000000 0.792201
O O6 0.444888 0.000000 0.374453
O O7 0.368342 0.500000 0.207164
O O8 0.224314 0.707471 0.180916
O O9 0.032652 0.500000 0.174440
O O10 0.948749 0.835251 0.188411
O O11 0.500000 0.694128 0.000000
#
# Coordination Sequence:
#
# PCOD9147452 Si02
#       6
#     2   2   2   4   4   2
#     4   9  15  30  56  83 105 136 185 231 266 315
#     4  10  23  34  52  83 120 148 173 217 273 338
#     4   9  17  31  53  81 115 145 175 220 268 325
#     4  10  19  35  57  79 109 144 184 227 270 320
#     4  10  22  39  60  83 105 139 190 237 269 310
#     4  12  20  37  58  80 114 149 180 218 276 330
#
# _framework density 18.181899999999999
#
# number of rings (size 3 to 8) (size 9 to 14) (size 15 to 20)
#    0.000    2.000    2.500    2.625    0.000    1.000 
#    0.000    2.500    0.000    9.000    0.000    0.000 
#    0.000    0.000    0.000    0.000    0.000    0.000 
#
# Total GULP energy -89123.697042 kJ/mol
# GULP energy per Si atom -5570.231065 kJ/mol
# Density = 1.814052 g / cm^3
# Si number density = 18.181900 Si / 1000 Ang^3
#
#
#
# Elastic Constant Matrix: (Units=GPa)
#
#
# Indices 1 2 3 4 5 6 
#
# 1 113.1561 98.0211 25.3723 0.0000 15.8989 0.0000
# 2 98.0211 183.1169 33.7295 0.0000 7.8094 0.0000
# 3 25.3723 33.7295 54.7911 0.0000 23.2254 0.0000
# 4 0.0000 0.0000 0.0000 16.7315 0.0000 1.9238
# 5 15.8989 7.8094 23.2254 0.0000 17.6629 0.0000
# 6 0.0000 0.0000 0.0000 1.9238 0.0000 8.7934
#
#
#
# Elastic Compliance Matrix: (Units=1/GPa)
#
#
# Indices 1 2 3 4 5 6 
#
# 1 0.019933 -0.011006 0.006976 0.000000 -0.022250 0.000000
# 2 -0.011006 0.012448 -0.010015 0.000000 0.017572 0.000000
# 3 0.006976 -0.010015 0.049638 0.000000 -0.067122 0.000000
# 4 0.000000 0.000000 0.000000 0.061310 0.000000 -0.013413
# 5 -0.022250 0.017572 -0.067122 0.000000 0.157134 0.000000
# 6 0.000000 0.000000 0.000000 -0.013413 0.000000 0.116656
#
#
# Mechanical properties :
#
#
# Convention : Reuss Voigt Hill
#
# Bulk Modulus (GPa) = 18.54270 73.92333 46.23301
# Shear Modulus (GPa) = 10.79479 21.56699 16.18089
#
# Velocity S-wave (km/s) = 2.43926 3.44783 2.98643
# Velocity P-wave (km/s) = 4.26074 7.52303 6.11350
#
# Compressibility (1/GPa) = 0.05392957
#
# Stress axis : x y z
#
# Youngs Moduli (GPa) = 50.16685 80.33463 20.14574
#
# Poissons Ratio (x) = 0.88419 -0.14054
# Poissons Ratio (y) = 0.55215 0.20176
# Poissons Ratio (z) = -0.34998 0.80455
#
# Static dielectric constant tensor:
#      x y z
#    x 1.585640 0.000000 0.003310 
#    y 0.000000 1.665830 0.000000 
#    z 0.003310 0.000000 1.616320 
# 
# From -- ./inp_files/22067.got.cif
#   From: 2010.05.17/outbox.cif.g08.bks.cpg/sg10_12_cif.got.tgz:22067.got - 2010.06.03 11:33:40.
