data_PCOD9147508
_publ_section_title
;
Structure prediction by ZEFSAII (Michael W. Deem and Ramdas Pophale) SiO2 
 PCOD9147508
Probable space group: P 2/M
;
_chemical_formula_sum "Si O2"
_cell_formula_units_Z 24
_cell_length_a 14.627973
_cell_length_b 7.826053
_cell_length_c 15.327806
_cell_angle_alpha 90.000000
_cell_angle_beta 39.933074
_cell_angle_gamma 90.000000
_cell_volume 1126.339056
_symmetry_space_group_name_H-M "P 2/M"
_symmetry_group_IT_number 10
_symmetry_cell_setting 'monoclinic'
loop_
_space_group_symop_operation_xyz
x,y,z
-x,y,-z
-x,-y,-z
x,-y,z
loop_
_atom_site_type_symbol
_atom_site_label
_atom_site_fract_x
_atom_site_fract_y
_atom_site_fract_z
Si Si1 0.634885 0.803153 0.762566
Si Si2 0.879530 0.207456 0.455265
Si Si3 0.372001 0.208269 0.711166
Si Si4 0.305160 0.792045 0.569832
Si Si5 0.676421 0.792898 0.061160
Si Si6 0.801530 0.305498 0.795838
O O1 0.764287 0.730236 0.610338
O O2 0.479365 0.730534 0.857625
O O3 0.686656 0.798783 0.824002
O O4 0.622957 0.000000 0.742337
O O5 0.817387 0.261446 0.406696
O O6 0.039055 0.268876 0.352129
O O7 0.885420 0.000000 0.454455
O O8 0.538946 0.257049 0.581361
O O9 0.298028 0.265187 0.675494
O O10 0.307837 0.263933 0.850223
O O11 0.369816 0.000000 0.712660
O O12 0.303982 0.000000 0.571345
O O13 0.680247 0.000000 0.057197
O O14 0.788467 0.732903 0.907681
O O15 0.764809 0.500000 0.806113
#
# Coordination Sequence:
#
# PCOD9147508 Si02
#       6
#     4   4   4   4   4   4
#     4  10  20  36  59  83 103 132 178 225 267 314
#     4  10  19  35  58  83 108 137 173 216 266 317
#     4   8  13  25  51  86 113 129 158 212 269 315
#     4   8  13  25  51  86 113 129 158 212 269 315
#     4  10  19  35  58  83 108 137 173 216 266 317
#     4  12  26  38  49  72 109 150 184 218 261 308
#
# _framework density 21.307970000000001
#
# number of rings (size 3 to 8) (size 9 to 14) (size 15 to 20)
#    0.000    2.333    1.667    3.500    0.000    5.333 
#    0.000    0.833    0.000    6.000    0.000    2.333 
#    0.000    0.000    0.000    0.000    0.000    0.000 
#
# Total GULP energy -133964.542594 kJ/mol
# GULP energy per Si atom -5581.855941 kJ/mol
# Density = 2.125947 g / cm^3
# Si number density = 21.307970 Si / 1000 Ang^3
#
#
#
# Elastic Constant Matrix: (Units=GPa)
#
#
# Indices 1 2 3 4 5 6 
#
# 1 56.0447 -5.2943 -5.8954 0.0000 14.1396 0.0000
# 2 -5.2943 29.0467 4.2620 0.0000 -5.5562 0.0000
# 3 -5.8954 4.2620 72.2823 0.0000 15.0119 0.0000
# 4 0.0000 0.0000 0.0000-4457.7646 0.0000 764.9955
# 5 14.1396 -5.5562 15.0119 0.0000 26.9177 0.0000
# 6 0.0000 0.0000 0.0000 764.9955 0.0000 -148.7120
#
#
#
# Elastic Compliance Matrix: (Units=1/GPa)
#
#
# Indices 1 2 3 4 5 6 
#
# 1 0.021919 0.000639 0.004653 0.000000 -0.013977 0.000000
# 2 0.000639 0.036984 -0.004122 0.000000 0.009597 0.000000
# 3 0.004653 -0.004122 0.017125 0.000000 -0.012845 0.000000
# 4 0.000000 0.000000 0.000000 -0.001914 0.000000 -0.009845
# 5 -0.013977 0.009597 -0.012845 0.000000 0.053637 0.000000
# 6 0.000000 0.000000 0.000000 -0.009845 0.000000 -0.057368
#
#
# Mechanical properties :
#
#
# Convention : Reuss Voigt Hill
#
# Bulk Modulus (GPa) = 12.76031 15.94647 14.35339
# Shear Modulus (GPa) = 53.09769 -904.95834 -425.93033
#
# Velocity S-wave (km/s) = 4.99733 -20.63071 -14.15367
# Velocity P-wave (km/s) = 6.26891 23.66435 16.13540
#
# Compressibility (1/GPa) = 0.07836801
#
# Stress axis : x y z
#
# Youngs Moduli (GPa) = 45.62280 27.03852 58.39435
#
# Poissons Ratio (x) = -0.01728 -0.27170
# Poissons Ratio (y) = -0.02915 0.24069
# Poissons Ratio (z) = -0.21227 0.11145
#
# Static dielectric constant tensor:
#      x y z
#    x 1.758070 0.000000 0.035540 
#    y 0.000000 1.790680 0.000000 
#    z 0.035540 0.000000 1.759310 
# 
# From -- ./inp_files/66300.got.cif
#   From: 2010.05.17/outbox.cif.g08.bks.cpg/sg10_34_cif.got.tgz:66300.got - 2010.06.03 11:33:40.
