data_PCOD9147592
_publ_section_title
;
Structure prediction by ZEFSAII (Michael W. Deem and Ramdas Pophale) SiO2 
 PCOD9147592
Probable space group: P 2/M
;
_chemical_formula_sum "Si O2"
_cell_formula_units_Z 28
_cell_length_a 11.711169
_cell_length_b 8.580346
_cell_length_c 14.976889
_cell_angle_alpha 90.000000
_cell_angle_beta 111.521390
_cell_angle_gamma 90.000000
_cell_volume 1400.040701
_symmetry_space_group_name_H-M "P 2/M"
_symmetry_group_IT_number 10
_symmetry_cell_setting 'monoclinic'
loop_
_space_group_symop_operation_xyz
x,y,z
-x,y,-z
-x,-y,-z
x,-y,z
loop_
_atom_site_type_symbol
_atom_site_label
_atom_site_fract_x
_atom_site_fract_y
_atom_site_fract_z
Si Si1 0.852648 0.684360 0.546510
Si Si2 0.662883 0.312749 0.789981
Si Si3 0.612485 0.687802 0.972688
Si Si4 0.828932 0.815326 0.153226
Si Si5 0.952328 0.313890 0.887612
Si Si6 0.126063 0.813565 0.637831
Si Si7 0.377406 0.814318 0.412386
O O1 0.872713 0.500000 0.559324
O O2 0.822521 0.730453 0.435456
O O3 0.743264 0.735776 0.579798
O O4 0.981740 0.769762 0.602920
O O5 0.647189 0.500000 0.777773
O O6 0.608534 0.258779 0.869117
O O7 0.808847 0.281573 0.836935
O O8 0.611208 0.232010 0.687610
O O9 0.608832 0.500000 0.968991
O O10 0.500000 0.745968 0.000000
O O11 0.736949 0.735373 0.057862
O O12 0.812056 0.765370 0.251142
O O13 0.965728 0.772603 0.161367
O O14 0.811684 0.000000 0.143915
O O15 0.970682 0.500000 0.882786
O O16 0.000000 0.270493 0.000000
O O17 0.136703 0.000000 0.630346
O O18 0.500000 0.765342 0.500000
O O19 0.363976 0.000000 0.417403
#
# Coordination Sequence:
#
# PCOD9147592 Si02
#       7
#     4   4   4   4   4   4   4
#     4  11  22  38  62  91 118 152 200 251 300 352
#     4  10  21  39  63  91 119 153 197 249 301 349
#     4  10  22  41  62  84 116 157 198 241 293 350
#     4  11  23  36  56  88 121 156 197 239 288 352
#     4  10  19  35  59  86 120 156 191 241 297 349
#     4  10  21  38  60  88 125 161 193 239 299 359
#     4  11  25  43  62  85 118 161 202 247 306 363
#
# _framework density 19.999417999999999
#
# number of rings (size 3 to 8) (size 9 to 14) (size 15 to 20)
#    0.000    1.571    1.429    4.286    0.000    8.571 
#    0.000    2.857    0.000    0.000    0.000    0.000 
#    0.000    0.000    0.000    0.000    0.000    0.000 
#
# Total GULP energy -156524.901133 kJ/mol
# GULP energy per Si atom -5590.175040 kJ/mol
# Density = 1.995390 g / cm^3
# Si number density = 19.999418 Si / 1000 Ang^3
#
#
#
# Elastic Constant Matrix: (Units=GPa)
#
#
# Indices 1 2 3 4 5 6 
#
# 1 64.7604 9.1414 24.4004 0.0000 -22.7653 0.0000
# 2 9.1414 14.0304 11.7712 0.0000 -1.5057 0.0000
# 3 24.4004 11.7712 136.5669 0.0000 -19.3196 0.0000
# 4 0.0000 0.0000 0.0000 23.5873 0.0000 -11.7785
# 5 -22.7653 -1.5057 -19.3196 0.0000 28.1512 0.0000
# 6 0.0000 0.0000 0.0000 -11.7785 0.0000 23.4434
#
#
#
# Elastic Compliance Matrix: (Units=1/GPa)
#
#
# Indices 1 2 3 4 5 6 
#
# 1 0.023931 -0.013164 -0.000557 0.000000 0.018266 0.000000
# 2 -0.013164 0.084077 -0.006385 0.000000 -0.010531 0.000000
# 3 -0.000557 -0.006385 0.008705 0.000000 0.005182 0.000000
# 4 0.000000 0.000000 0.000000 0.056595 0.000000 0.028434
# 5 0.018266 -0.010531 0.005182 0.000000 0.053287 0.000000
# 6 0.000000 0.000000 0.000000 0.028434 0.000000 0.056942
#
#
# Mechanical properties :
#
#
# Convention : Reuss Voigt Hill
#
# Bulk Modulus (GPa) = 13.07160 33.99817 23.53489
# Shear Modulus (GPa) = 14.31641 26.37270 20.34455
#
# Velocity S-wave (km/s) = 2.67842 3.63529 3.19291
# Velocity P-wave (km/s) = 4.01441 5.88702 5.03847
#
# Compressibility (1/GPa) = 0.07650171
#
# Stress axis : x y z
#
# Youngs Moduli (GPa) = 41.78728 11.89380 114.87149
#
# Poissons Ratio (x) = 0.15657 0.06398
# Poissons Ratio (y) = 0.55010 0.73340
# Poissons Ratio (z) = 0.02328 0.07594
#
# Static dielectric constant tensor:
#      x y z
#    x 1.691610 0.000000 -0.011430 
#    y 0.000000 1.674620 0.000000 
#    z -0.011430 0.000000 1.714430 
# 
# From -- ./inp_files/49398.got.cif
#   From: 2010.05.17/outbox.cif.g08.bks.cpg/sg10_25_cif.got.tgz:49398.got - 2010.06.03 11:33:40.
