data_PCOD9147850
_publ_section_title
;
Structure prediction by ZEFSAII (Michael W. Deem and Ramdas Pophale) SiO2 
 PCOD9147850
Probable space group: P 2/M
;
_chemical_formula_sum "Si O2"
_cell_formula_units_Z 28
_cell_length_a 12.823961
_cell_length_b 8.321522
_cell_length_c 14.431639
_cell_angle_alpha 90.000000
_cell_angle_beta 117.190293
_cell_angle_gamma 90.000000
_cell_volume 1369.883192
_symmetry_space_group_name_H-M "P 2/M"
_symmetry_group_IT_number 10
_symmetry_cell_setting 'monoclinic'
loop_
_space_group_symop_operation_xyz
x,y,z
-x,y,-z
-x,-y,-z
x,-y,z
loop_
_atom_site_type_symbol
_atom_site_label
_atom_site_fract_x
_atom_site_fract_y
_atom_site_fract_z
Si Si1 0.492053 0.313300 0.096913
Si Si2 0.868420 0.191612 0.696315
Si Si3 0.126311 0.322434 0.094702
Si Si4 0.881127 0.306765 0.256867
Si Si5 0.749956 0.181593 0.017745
Si Si6 0.373877 0.305136 0.493336
Si Si7 0.681789 0.303858 0.318950
O O1 0.528120 0.500000 0.103026
O O2 0.576511 0.246939 0.209285
O O3 0.500000 0.232798 0.000000
O O4 0.355378 0.297606 0.055294
O O5 0.880873 0.264126 0.803678
O O6 0.742005 0.247710 0.607618
O O7 0.983838 0.250283 0.686839
O O8 0.871830 0.000000 0.700644
O O9 0.184856 0.500000 0.116582
O O10 0.176650 0.190078 0.046159
O O11 0.000000 0.345130 0.000000
O O12 0.879278 0.500000 0.251140
O O13 0.818460 0.242902 0.136966
O O14 0.801995 0.257627 0.314069
O O15 0.711145 0.000000 0.019580
O O16 0.500000 0.253337 0.500000
O O17 0.375708 0.500000 0.492798
O O18 0.349328 0.251267 0.589644
O O19 0.682986 0.500000 0.323113
#
# Coordination Sequence:
#
# PCOD9147850 Si02
#       7
#     4   4   4   4   4   4   4
#     4  10  19  36  61  89 124 168 217 261 310 375
#     4  12  26  43  64  95 132 166 206 264 330 381
#     4  11  23  40  65  92 122 168 216 253 304 379
#     4  11  21  40  66  92 125 168 218 265 312 377
#     4  12  24  36  55  92 135 169 203 258 325 382
#     4  10  23  45  70  95 123 164 219 267 312 376
#     4   9  20  39  65  95 123 164 221 274 311 359
#
# _framework density 20.439698
#
# number of rings (size 3 to 8) (size 9 to 14) (size 15 to 20)
#    0.000    1.286    2.857    3.429    2.000    1.714 
#    0.000    5.000    0.000    0.000    0.000    0.000 
#    0.000    0.000    0.000    0.000    0.000    0.000 
#
# Total GULP energy -156048.578041 kJ/mol
# GULP energy per Si atom -5573.163501 kJ/mol
# Density = 2.039318 g / cm^3
# Si number density = 20.439698 Si / 1000 Ang^3
#
#
#
# Elastic Constant Matrix: (Units=GPa)
#
#
# Indices 1 2 3 4 5 6 
#
# 1 157.5783 23.9781 86.6632 0.0000 -5.0476 0.0000
# 2 23.9781 54.8869 24.3596 0.0000 -8.5903 0.0000
# 3 86.6632 24.3596 149.0497 0.0000 -2.9324 0.0000
# 4 0.0000 0.0000 0.0000 3.4362 0.0000 -2.9904
# 5 -5.0476 -8.5903 -2.9324 0.0000 32.8341 0.0000
# 6 0.0000 0.0000 0.0000 -2.9904 0.0000 17.6601
#
#
#
# Elastic Compliance Matrix: (Units=1/GPa)
#
#
# Indices 1 2 3 4 5 6 
#
# 1 0.009506 -0.001747 -0.005231 0.000000 0.000537 0.000000
# 2 -0.001747 0.020772 -0.002281 0.000000 0.004962 0.000000
# 3 -0.005231 -0.002281 0.010114 0.000000 -0.000498 0.000000
# 4 0.000000 0.000000 0.000000 0.341321 0.000000 0.057797
# 5 0.000537 0.004962 -0.000498 0.000000 0.031792 0.000000
# 6 0.000000 0.000000 0.000000 0.057797 0.000000 0.066412
#
#
# Mechanical properties :
#
#
# Convention : Reuss Voigt Hill
#
# Bulk Modulus (GPa) = 45.71967 70.16852 57.94410
# Shear Modulus (GPa) = 9.88677 25.88701 17.88689
#
# Velocity S-wave (km/s) = 2.20171 3.56266 2.96143
# Velocity P-wave (km/s) = 5.37401 7.16432 6.33275
#
# Compressibility (1/GPa) = 0.02187242
#
# Stress axis : x y z
#
# Youngs Moduli (GPa) = 105.19632 48.14257 98.87527
#
# Poissons Ratio (x) = 0.08411 0.51722
# Poissons Ratio (y) = 0.18380 0.22556
# Poissons Ratio (z) = 0.55029 0.10983
#
# Static dielectric constant tensor:
#      x y z
#    x 1.521140 0.000000 -0.043030 
#    y 0.000000 1.790200 0.000000 
#    z -0.043030 0.000000 1.688090 
# 
# From -- ./inp_files/63909.got.cif
#   From: 2010.05.17/outbox.cif.g08.bks.cpg/sg10_32_cif.got.tgz:63909.got - 2010.06.03 11:33:40.
