data_PCOD9147722
_publ_section_title
;
Structure prediction by ZEFSAII (Michael W. Deem and Ramdas Pophale) SiO2 
 PCOD9147722
Probable space group: P 2/M
;
_chemical_formula_sum "Si O2"
_cell_formula_units_Z 24
_cell_length_a 13.542214
_cell_length_b 8.350812
_cell_length_c 9.977432
_cell_angle_alpha 90.000000
_cell_angle_beta 79.585476
_cell_angle_gamma 90.000000
_cell_volume 1109.744137
_symmetry_space_group_name_H-M "P 2/M"
_symmetry_group_IT_number 10
_symmetry_cell_setting 'monoclinic'
loop_
_space_group_symop_operation_xyz
x,y,z
-x,y,-z
-x,-y,-z
x,-y,z
loop_
_atom_site_type_symbol
_atom_site_label
_atom_site_fract_x
_atom_site_fract_y
_atom_site_fract_z
Si Si1 0.695166 0.690075 0.520876
Si Si2 0.100592 0.193599 0.391398
Si Si3 0.348075 0.692961 0.963425
Si Si4 0.776112 0.810667 0.236183
Si Si5 0.998499 0.195492 0.154351
Si Si6 0.559338 0.304789 0.784998
O O1 0.687642 0.500000 0.522120
O O2 0.798894 0.738615 0.568044
O O3 0.701687 0.744443 0.366396
O O4 0.603249 0.753045 0.633766
O O5 0.000000 0.235769 0.500000
O O6 0.081319 0.246442 0.242177
O O7 0.108086 0.000000 0.393443
O O8 0.342895 0.500000 0.960698
O O9 0.255612 0.762796 0.905178
O O10 0.448670 0.745052 0.858183
O O11 0.365319 0.741667 0.112657
O O12 0.889312 0.755155 0.236432
O O13 0.775998 0.000000 0.247283
O O14 0.002035 0.000000 0.150825
O O15 0.000000 0.250056 0.000000
O O16 0.556599 0.500000 0.784298
#
# Coordination Sequence:
#
# PCOD9147722 Si02
#       6
#     4   4   4   4   4   4
#     4  11  22  36  56  83 111 144 185 225 267 322
#     4  10  19  36  57  77 107 146 181 219 267 322
#     4   9  18  38  62  81 106 143 182 225 273 325
#     4  11  22  37  55  82 114 144 180 226 274 323
#     4   9  19  35  54  76 106 145 182 214 265 328
#     4   8  18  37  60  82 108 143 182 221 273 332
#
# _framework density 21.626605000000001
#
# number of rings (size 3 to 8) (size 9 to 14) (size 15 to 20)
#    0.000    2.333    1.667    2.000    2.333    1.000 
#    0.000    7.500    0.000    2.500    0.000    0.000 
#    0.000    0.000    0.000    0.000    0.000    0.000 
#
# Total GULP energy -133988.689855 kJ/mol
# GULP energy per Si atom -5582.862077 kJ/mol
# Density = 2.157738 g / cm^3
# Si number density = 21.626605 Si / 1000 Ang^3
#
#
#
# Elastic Constant Matrix: (Units=GPa)
#
#
# Indices 1 2 3 4 5 6 
#
# 1 13.5882 -3.1209 -16.4642 0.0000 10.3386 0.0000
# 2 -3.1209 9.8181 4.6910 0.0000 -3.7483 0.0000
# 3 -16.4642 4.6910 83.6449 0.0000 -1.2953 0.0000
# 4 0.0000 0.0000 0.0000 26.4202 0.0000 17.3906
# 5 10.3386 -3.7483 -1.2953 0.0000 35.8860 0.0000
# 6 0.0000 0.0000 0.0000 17.3906 0.0000 18.7672
#
#
#
# Elastic Compliance Matrix: (Units=1/GPa)
#
#
# Indices 1 2 3 4 5 6 
#
# 1 0.135781 0.017221 0.025197 0.000000 -0.036410 0.000000
# 2 0.017221 0.111136 -0.002742 0.000000 0.006548 0.000000
# 3 0.025197 -0.002742 0.016961 0.000000 -0.006933 0.000000
# 4 0.000000 0.000000 0.000000 0.097038 0.000000 -0.089920
# 5 -0.036410 0.006548 -0.006933 0.000000 0.038789 0.000000
# 6 0.000000 0.000000 0.000000 -0.089920 0.000000 0.136609
#
#
# Mechanical properties :
#
#
# Convention : Reuss Voigt Hill
#
# Bulk Modulus (GPa) = 2.91348 8.58478 5.74913
# Shear Modulus (GPa) = 8.75086 24.34436 16.54761
#
# Velocity S-wave (km/s) = 2.01373 3.35874 2.76914
# Velocity P-wave (km/s) = 2.59941 4.36115 3.59003
#
# Compressibility (1/GPa) = 0.34323178
#
# Stress axis : x y z
#
# Youngs Moduli (GPa) = 7.36479 8.99797 58.95787
#
# Poissons Ratio (x) = -0.15496 -1.48555
# Poissons Ratio (y) = -0.12683 0.16164
# Poissons Ratio (z) = -0.18557 0.02467
#
# Static dielectric constant tensor:
#      x y z
#    x 1.783210 0.000000 -0.031980 
#    y 0.000000 1.744970 0.000000 
#    z -0.031980 0.000000 1.816620 
# 
# From -- ./inp_files/27087.got.cif
#   From: 2010.05.17/outbox.cif.g08.bks.cpg/sg10_14_cif.got.tgz:27087.got - 2010.06.03 11:33:40.
