data_PCOD9147627
_publ_section_title
;
Structure prediction by ZEFSAII (Michael W. Deem and Ramdas Pophale) SiO2 
 PCOD9147627
Probable space group: P 2/M
;
_chemical_formula_sum "Si O2"
_cell_formula_units_Z 28
_cell_length_a 15.255287
_cell_length_b 7.873904
_cell_length_c 19.238469
_cell_angle_alpha 90.000000
_cell_angle_beta 139.930802
_cell_angle_gamma 90.000000
_cell_volume 1487.554293
_symmetry_space_group_name_H-M "P 2/M"
_symmetry_group_IT_number 10
_symmetry_cell_setting 'monoclinic'
loop_
_space_group_symop_operation_xyz
x,y,z
-x,y,-z
-x,-y,-z
x,-y,z
loop_
_atom_site_type_symbol
_atom_site_label
_atom_site_fract_x
_atom_site_fract_y
_atom_site_fract_z
Si Si1 0.870550 0.795158 0.601147
Si Si2 0.417977 0.806559 0.246611
Si Si3 0.826425 0.805181 0.166744
Si Si4 0.645132 0.696116 0.937910
Si Si5 0.297521 0.500000 0.428137
Si Si6 0.640604 0.695679 0.177638
Si Si7 0.278340 0.201062 0.626557
Si Si8 0.609782 0.500000 0.669372
O O1 0.775969 0.669652 0.588186
O O2 0.836190 0.758351 0.499502
O O3 0.025602 0.755704 0.715322
O O4 0.845715 0.000000 0.596063
O O5 0.339880 0.790937 0.125787
O O6 0.575551 0.766565 0.321687
O O7 0.368281 0.667329 0.270787
O O8 0.412331 0.000000 0.269077
O O9 0.720169 0.788130 0.165267
O O10 0.834343 0.000000 0.149435
O O11 0.769553 0.705757 0.066131
O O12 0.614959 0.500000 0.901898
O O13 0.510224 0.763538 0.895932
O O14 0.451631 0.500000 0.550087
O O15 0.303719 0.500000 0.348516
O O16 0.626667 0.500000 0.147112
O O17 0.721265 0.706970 0.299477
O O18 0.272529 0.000000 0.638124
#
# Coordination Sequence:
#
# PCOD9147627 Si02
#       8
#     4   4   4   4   2   4   4   2
#     4  10  23  40  58  82 116 157 195 231 281 350
#     4  10  19  35  60  87 119 151 184 233 287 338
#     4  11  23  37  53  78 114 157 202 240 281 333
#     4  10  20  35  57  84 116 151 197 244 283 333
#     4  11  24  38  65  87 124 149 176 231 294 344
#     4  10  21  33  52  82 114 148 196 250 286 323
#     4   9  18  34  55  78 111 153 189 231 285 331
#     4  11  22  38  61 100 115 143 184 227 287 357
#
# _framework density 18.822842000000001
#
# number of rings (size 3 to 8) (size 9 to 14) (size 15 to 20)
#    0.000    1.857    2.143    1.714    4.000    4.571 
#    0.000    4.286    0.000    1.714    0.000    3.000 
#    0.000    0.000    0.000    0.000    0.000    0.000 
#
# Total GULP energy -156305.616451 kJ/mol
# GULP energy per Si atom -5582.343445 kJ/mol
# Density = 1.878000 g / cm^3
# Si number density = 18.822842 Si / 1000 Ang^3
#
#
#
# Elastic Constant Matrix: (Units=GPa)
#
#
# Indices 1 2 3 4 5 6 
#
# 1 31.6516 17.8795 20.3346 0.0000 -16.7805 0.0000
# 2 17.8795 53.0238 21.9430 0.0000 -9.9380 0.0000
# 3 20.3346 21.9430 116.7841 0.0000 -13.3017 0.0000
# 4 0.0000 0.0000 0.0000 28.0775 0.0000 -6.5038
# 5 -16.7805 -9.9380 -13.3017 0.0000 18.8118 0.0000
# 6 0.0000 0.0000 0.0000 -6.5038 0.0000 -1.8363
#
#
#
# Elastic Compliance Matrix: (Units=1/GPa)
#
#
# Indices 1 2 3 4 5 6 
#
# 1 0.068163 -0.011690 -0.003752 0.000000 0.051973 0.000000
# 2 -0.011690 0.023886 -0.002396 0.000000 0.000497 0.000000
# 3 -0.003752 -0.002396 0.009942 0.000000 0.002417 0.000000
# 4 0.000000 0.000000 0.000000 0.019565 0.000000 -0.069294
# 5 0.051973 0.000497 0.002417 0.000000 0.101491 0.000000
# 6 0.000000 0.000000 0.000000 -0.069294 0.000000 -0.299150
#
#
# Mechanical properties :
#
#
# Convention : Reuss Voigt Hill
#
# Bulk Modulus (GPa) = 15.07996 35.75262 25.41629
# Shear Modulus (GPa) = -272.87050 18.43075 -127.21987
#
# Velocity S-wave (km/s) = -12.05332 3.13256 -8.23011
# Velocity P-wave (km/s) = 13.62648 5.66740 8.76247
#
# Compressibility (1/GPa) = 0.06631316
#
# Stress axis : x y z
#
# Youngs Moduli (GPa) = 14.67081 41.86557 100.58726
#
# Poissons Ratio (x) = 0.48942 0.37743
# Poissons Ratio (y) = 0.17151 0.24100
# Poissons Ratio (z) = 0.05505 0.10031
#
# Static dielectric constant tensor:
#      x y z
#    x 1.612630 0.000000 0.003690 
#    y 0.000000 1.661530 0.000000 
#    z 0.003690 0.000000 1.673460 
# 
# From -- ./inp_files/68739.got.cif
#   From: 2010.05.17/outbox.cif.g08.bks.cpg/sg10_35_cif.got.tgz:68739.got - 2010.06.03 11:33:40.
