data_PCOD9147465
_publ_section_title
;
Structure prediction by ZEFSAII (Michael W. Deem and Ramdas Pophale) SiO2 
 PCOD9147465
Probable space group: P 2/M
;
_chemical_formula_sum "Si O2"
_cell_formula_units_Z 28
_cell_length_a 24.427781
_cell_length_b 7.886856
_cell_length_c 20.604611
_cell_angle_alpha 90.000000
_cell_angle_beta 21.658516
_cell_angle_gamma 90.000000
_cell_volume 1465.094804
_symmetry_space_group_name_H-M "P 2/M"
_symmetry_group_IT_number 10
_symmetry_cell_setting 'monoclinic'
loop_
_space_group_symop_operation_xyz
x,y,z
-x,y,-z
-x,-y,-z
x,-y,z
loop_
_atom_site_type_symbol
_atom_site_label
_atom_site_fract_x
_atom_site_fract_y
_atom_site_fract_z
Si Si1 0.451554 0.805849 0.876865
Si Si2 0.210501 0.000000 0.212112
Si Si3 0.024628 0.201465 0.762259
Si Si4 0.382491 0.704843 0.682226
Si Si5 0.689826 0.797493 0.098911
Si Si6 0.760224 0.687241 0.585365
Si Si7 0.125308 0.000000 0.456318
Si Si8 0.049285 0.705217 0.016699
O O1 0.389618 0.731098 0.878010
O O2 0.587033 0.709686 0.759648
O O3 0.508294 0.000000 0.801042
O O4 0.311225 0.841092 0.078353
O O5 0.179678 0.000000 0.322148
O O6 0.053845 0.000000 0.347628
O O7 0.147147 0.289015 0.583134
O O8 0.040807 0.233514 0.821248
O O9 0.032027 0.000000 0.742226
O O10 0.858834 0.263911 0.924591
O O11 0.500000 0.766127 0.500000
O O12 0.385447 0.500000 0.678660
O O13 0.402035 0.761762 0.734694
O O14 0.218298 0.760618 0.842463
O O15 0.702121 0.000000 0.076634
O O16 0.788487 0.500000 0.580870
O O17 0.814234 0.834922 0.573564
O O18 0.044419 0.500000 0.022559
O O19 0.000000 0.763248 0.000000
#
# Coordination Sequence:
#
# PCOD9147465 Si02
#       8
#     4   2   4   4   4   4   2   4
#     4   9  19  38  59  88 120 158 196 235 303 358
#     4   9  21  41  75  89 122 171 194 245 303 345
#     4  10  19  35  57  82 112 153 202 254 305 358
#     4   9  18  31  46  68 102 147 192 242 303 354
#     4   9  18  33  57  80 109 146 198 251 297 356
#     4  12  24  38  62  94 129 164 201 249 304 362
#     4  11  21  45  69  97 124 161 206 245 295 355
#     4   9  18  32  48  70 105 146 195 251 303 359
#
# _framework density 19.11139
#
# number of rings (size 3 to 8) (size 9 to 14) (size 15 to 20)
#    0.429    1.857    1.429    1.286    0.000    4.000 
#    0.000    6.429    0.000    0.000    0.000    0.000 
#    0.000    0.000    0.000    0.000    0.000    0.000 
#
# Total GULP energy -156171.014064 kJ/mol
# GULP energy per Si atom -5577.536217 kJ/mol
# Density = 1.906789 g / cm^3
# Si number density = 19.111390 Si / 1000 Ang^3
#
#
#
# Elastic Constant Matrix: (Units=GPa)
#
#
# Indices 1 2 3 4 5 6 
#
# 1 123.0820 36.4130 60.4893 0.0000 1.0970 0.0000
# 2 36.4130 68.2089 23.1975 0.0000 -4.7666 0.0000
# 3 60.4893 23.1975 113.1481 0.0000 7.7325 0.0000
# 4 0.0000 0.0000 0.0000 174.8878 0.0000 164.2216
# 5 1.0970 -4.7666 7.7325 0.0000 20.6096 0.0000
# 6 0.0000 0.0000 0.0000 164.2216 0.0000 158.2857
#
#
#
# Elastic Compliance Matrix: (Units=1/GPa)
#
#
# Indices 1 2 3 4 5 6 
#
# 1 0.012249 -0.004595 -0.005634 0.000000 0.000399 0.000000
# 2 -0.004595 0.017999 -0.001575 0.000000 0.004998 0.000000
# 3 -0.005634 -0.001575 0.012497 0.000000 -0.004753 0.000000
# 4 0.000000 0.000000 0.000000 0.221843 0.000000 -0.230162
# 5 0.000399 0.004998 -0.004753 0.000000 0.051439 0.000000
# 6 0.000000 0.000000 0.000000 -0.230162 0.000000 0.245112
#
#
# Mechanical properties :
#
#
# Convention : Reuss Voigt Hill
#
# Bulk Modulus (GPa) = 52.25280 60.51540 56.38410
# Shear Modulus (GPa) = 8.45842 83.04590 45.75216
#
# Velocity S-wave (km/s) = 2.10605 6.59909 4.89813
# Velocity P-wave (km/s) = 5.77187 9.47614 7.84575
#
# Compressibility (1/GPa) = 0.01913773
#
# Stress axis : x y z
#
# Youngs Moduli (GPa) = 81.63725 55.55861 80.01608
#
# Poissons Ratio (x) = 0.25531 0.45078
# Poissons Ratio (y) = 0.37515 0.12603
# Poissons Ratio (z) = 0.45991 0.08751
#
# Static dielectric constant tensor:
#      x y z
#    x 1.657040 0.000000 -0.002670 
#    y 0.000000 1.682970 0.000000 
#    z -0.002670 0.000000 1.658480 
# 
# From -- ./inp_files/86509.got.cif
#   From: 2010.05.17/outbox.cif.g08.bks.cpg/sg10_44_cif.got.tgz:86509.got - 2010.06.03 11:33:40.
