data_PCOD9147368
_publ_section_title
;
Structure prediction by ZEFSAII (Michael W. Deem and Ramdas Pophale) SiO2 
 PCOD9147368
Probable space group: P 2/M
;
_chemical_formula_sum "Si O2"
_cell_formula_units_Z 28
_cell_length_a 15.872422
_cell_length_b 13.812998
_cell_length_c 9.156539
_cell_angle_alpha 90.000000
_cell_angle_beta 53.204475
_cell_angle_gamma 90.000000
_cell_volume 1607.587856
_symmetry_space_group_name_H-M "P 2/M"
_symmetry_group_IT_number 10
_symmetry_cell_setting 'monoclinic'
loop_
_space_group_symop_operation_xyz
x,y,z
-x,y,-z
-x,-y,-z
x,-y,z
loop_
_atom_site_type_symbol
_atom_site_label
_atom_site_fract_x
_atom_site_fract_y
_atom_site_fract_z
Si Si1 0.359740 0.884873 0.504483
Si Si2 0.942371 0.390556 0.207776
Si Si3 0.096720 0.606468 0.307035
Si Si4 0.960277 0.887026 0.876153
Si Si5 0.401435 0.115260 0.802489
Si Si6 0.786209 0.786776 0.849871
Si Si7 0.163785 0.202495 0.541224
O O1 0.474748 0.861406 0.319865
O O2 0.365713 0.866577 0.672098
O O3 0.265513 0.829825 0.525876
O O4 0.343661 0.000000 0.503378
O O5 0.895964 0.500000 0.236864
O O6 0.869160 0.309532 0.361377
O O7 0.041023 0.402428 0.211399
O O8 0.000000 0.357851 0.000000
O O9 0.117538 0.500000 0.349946
O O10 0.197359 0.671508 0.177927
O O11 0.000000 0.653329 0.500000
O O12 0.868289 0.828018 0.887249
O O13 0.065056 0.866013 0.676666
O O14 0.929144 0.000000 0.910052
O O15 0.000000 0.862586 0.000000
O O16 0.389348 0.000000 0.841812
O O17 0.327022 0.174879 0.986322
O O18 0.813755 0.811595 0.653805
#
# Coordination Sequence:
#
# PCOD9147368 Si02
#       7
#     4   4   4   4   4   4   4
#     4   9  20  39  59  77 102 143 188 228 271 321
#     4  10  21  36  55  81 111 145 185 223 262 320
#     4  10  19  35  54  76 111 148 178 213 265 327
#     4  11  23  36  50  73 108 148 181 216 267 325
#     4   9  20  39  59  77 102 142 190 229 267 321
#     4  12  22  33  53  83 110 141 177 223 275 327
#     4  12  22  33  53  82 112 141 175 223 278 326
#
# _framework density 17.417397999999999
#
# number of rings (size 3 to 8) (size 9 to 14) (size 15 to 20)
#    0.000    1.571    2.857    3.429    2.000    5.714 
#    0.000    1.429    0.000    0.857    0.000    4.000 
#    0.000    0.000    0.000    0.000    0.000    0.000 
#
# Total GULP energy -155925.004007 kJ/mol
# GULP energy per Si atom -5568.750143 kJ/mol
# Density = 1.737776 g / cm^3
# Si number density = 17.417398 Si / 1000 Ang^3
#
#
#
# Elastic Constant Matrix: (Units=GPa)
#
#
# Indices 1 2 3 4 5 6 
#
# 1 38.7796 5.0882 4.9645 0.0000 -7.3048 0.0000
# 2 5.0882 57.6987 28.2000 0.0000 -6.7665 0.0000
# 3 4.9645 28.2000 112.4387 0.0000 -4.6981 0.0000
# 4 0.0000 0.0000 0.0000 23.0985 0.0000 0.8430
# 5 -7.3048 -6.7665 -4.6981 0.0000 23.2542 0.0000
# 6 0.0000 0.0000 0.0000 0.8430 0.0000 10.1624
#
#
#
# Elastic Compliance Matrix: (Units=1/GPa)
#
#
# Indices 1 2 3 4 5 6 
#
# 1 0.027560 -0.001188 -0.000577 0.000000 0.008195 0.000000
# 2 -0.001188 0.020347 -0.004860 0.000000 0.004566 0.000000
# 3 -0.000577 -0.004860 0.010157 0.000000 0.000457 0.000000
# 4 0.000000 0.000000 0.000000 0.043424 0.000000 -0.003602
# 5 0.008195 0.004566 0.000457 0.000000 0.046998 0.000000
# 6 0.000000 0.000000 0.000000 -0.003602 0.000000 0.098701
#
#
# Mechanical properties :
#
#
# Convention : Reuss Voigt Hill
#
# Bulk Modulus (GPa) = 22.31341 31.71361 27.01351
# Shear Modulus (GPa) = 18.15714 22.68065 20.41889
#
# Velocity S-wave (km/s) = 3.23224 3.61249 3.42764
# Velocity P-wave (km/s) = 5.17384 5.97057 5.58642
#
# Compressibility (1/GPa) = 0.04481611
#
# Stress axis : x y z
#
# Youngs Moduli (GPa) = 36.28437 49.14780 98.45290
#
# Poissons Ratio (x) = 0.05836 0.05677
# Poissons Ratio (y) = 0.04309 0.47847
# Poissons Ratio (z) = 0.02092 0.23885
#
# Static dielectric constant tensor:
#      x y z
#    x 1.600380 0.000000 0.058690 
#    y 0.000000 1.685310 0.000000 
#    z 0.058690 0.000000 1.656980 
# 
# From -- ./inp_files/29412.got.cif
#   From: 2010.05.17/outbox.cif.g08.bks.cpg/sg10_15_cif.got.tgz:29412.got - 2010.06.03 11:33:40.
