data_PCOD9147972
_publ_section_title
;
Structure prediction by ZEFSAII (Michael W. Deem and Ramdas Pophale) SiO2 
 PCOD9147972
Probable space group: P 2/M
;
_chemical_formula_sum "Si O2"
_cell_formula_units_Z 32
_cell_length_a 11.163936
_cell_length_b 14.071963
_cell_length_c 9.264594
_cell_angle_alpha 90.000000
_cell_angle_beta 87.210637
_cell_angle_gamma 90.000000
_cell_volume 1453.729330
_symmetry_space_group_name_H-M "P 2/M"
_symmetry_group_IT_number 10
_symmetry_cell_setting 'monoclinic'
loop_
_space_group_symop_operation_xyz
x,y,z
-x,y,-z
-x,-y,-z
x,-y,z
loop_
_atom_site_type_symbol
_atom_site_label
_atom_site_fract_x
_atom_site_fract_y
_atom_site_fract_z
Si Si1 0.207202 0.104956 0.268864
Si Si2 0.273780 0.611353 0.177686
Si Si3 0.127088 0.294955 0.419086
Si Si4 0.511638 0.688564 0.323353
Si Si5 0.754456 0.605148 0.342486
Si Si6 0.860601 0.102832 0.054235
Si Si7 0.486559 0.102493 0.328690
Si Si8 0.868015 0.310313 0.078620
O O1 0.138067 0.191027 0.347836
O O2 0.204479 0.112955 0.096057
O O3 0.344974 0.109327 0.307152
O O4 0.158158 0.000000 0.308513
O O5 0.291322 0.500000 0.152365
O O6 0.163608 0.631575 0.292960
O O7 0.391491 0.655139 0.248433
O O8 0.231570 0.663023 0.034441
O O9 0.223260 0.314808 0.539045
O O10 0.000000 0.310305 0.500000
O O11 0.500000 0.684500 0.500000
O O12 0.623909 0.621932 0.282866
O O13 0.540182 0.797328 0.276217
O O14 0.761534 0.500000 0.406861
O O15 0.851816 0.619464 0.212454
O O16 0.846256 0.202299 0.135790
O O17 0.830174 0.000000 0.123052
O O18 0.000000 0.098915 0.000000
O O19 0.500000 0.099871 0.500000
O O20 0.530200 0.000000 0.267467
O O21 0.000000 0.314699 0.000000
#
# Coordination Sequence:
#
# PCOD9147972 Si02
#       8
#     4   4   4   4   4   4   4   4
#     4  10  19  37  62  93 128 165 209 258 319 387
#     4  12  24  41  66  89 118 172 225 264 321 384
#     4  12  24  39  61  94 129 166 214 269 321 385
#     4  11  21  41  65  91 129 164 212 271 325 383
#     4  12  27  43  63  93 129 172 219 274 327 372
#     4   9  18  35  63  89 117 163 209 251 310 382
#     4   9  16  30  58  88 119 159 200 248 314 380
#     4  11  24  44  66  92 130 171 213 267 324 389
#
# _framework density 22.012350999999999
#
# number of rings (size 3 to 8) (size 9 to 14) (size 15 to 20)
#    0.000    1.250    3.750    2.625    1.750    4.250 
#    0.000    2.500    0.000    0.000    0.000    4.375 
#    0.000    0.000    0.000    0.000    0.000    0.000 
#
# Total GULP energy -178695.284289 kJ/mol
# GULP energy per Si atom -5584.227634 kJ/mol
# Density = 2.196225 g / cm^3
# Si number density = 22.012351 Si / 1000 Ang^3
#
#
#
# Elastic Constant Matrix: (Units=GPa)
#
#
# Indices 1 2 3 4 5 6 
#
# 1 59.5239 3.2822 -1.6304 0.0000 10.6843 0.0000
# 2 3.2822 157.1575 -5.1432 0.0000 -3.8705 0.0000
# 3 -1.6304 -5.1432 22.6135 0.0000 7.9626 0.0000
# 4 0.0000 0.0000 0.0000 1.3589 0.0000 -8.0805
# 5 10.6843 -3.8705 7.9626 0.0000 35.7112 0.0000
# 6 0.0000 0.0000 0.0000 -8.0805 0.0000 18.5724
#
#
#
# Elastic Compliance Matrix: (Units=1/GPa)
#
#
# Indices 1 2 3 4 5 6 
#
# 1 0.018028 -0.000418 0.003386 0.000000 -0.006194 0.000000
# 2 -0.000418 0.006426 0.001239 0.000000 0.000545 0.000000
# 3 0.003386 0.001239 0.048896 0.000000 -0.011781 0.000000
# 4 0.000000 0.000000 0.000000 -0.463655 0.000000 -0.201728
# 5 -0.006194 0.000545 -0.011781 0.000000 0.032541 0.000000
# 6 0.000000 0.000000 0.000000 -0.201728 0.000000 -0.033925
#
#
# Mechanical properties :
#
#
# Convention : Reuss Voigt Hill
#
# Bulk Modulus (GPa) = 12.23060 25.81248 19.02154
# Shear Modulus (GPa) = -13.41028 27.31424 6.95198
#
# Velocity S-wave (km/s) = -2.47091 3.52641 1.77907
# Velocity P-wave (km/s) = 1.60381 5.32283 3.58889
#
# Compressibility (1/GPa) = 0.08176214
#
# Stress axis : x y z
#
# Youngs Moduli (GPa) = 55.47074 155.62346 20.45172
#
# Poissons Ratio (x) = 0.06509 -0.06924
# Poissons Ratio (y) = 0.02320 -0.02535
# Poissons Ratio (z) = -0.18780 -0.19287
#
# Static dielectric constant tensor:
#      x y z
#    x 1.805610 0.000000 0.015130 
#    y 0.000000 1.840240 0.000000 
#    z 0.015130 0.000000 1.789660 
# 
# From -- ./inp_files/25350.got.cif
#   From: 2010.05.17/outbox.cif.g08.bks.cpg/sg10_13_cif.got.tgz:25350.got - 2010.06.03 11:33:40.
