data_PCOD9147234
_publ_section_title
;
Structure prediction by ZEFSAII (Michael W. Deem and Ramdas Pophale) SiO2 
 PCOD9147234
Probable space group: P 2/M
;
_chemical_formula_sum "Si O2"
_cell_formula_units_Z 32
_cell_length_a 8.144901
_cell_length_b 9.536224
_cell_length_c 19.925589
_cell_angle_alpha 90.000000
_cell_angle_beta 99.527536
_cell_angle_gamma 90.000000
_cell_volume 1526.304328
_symmetry_space_group_name_H-M "P 2/M"
_symmetry_group_IT_number 10
_symmetry_cell_setting 'monoclinic'
loop_
_space_group_symop_operation_xyz
x,y,z
-x,y,-z
-x,-y,-z
x,-y,z
loop_
_atom_site_type_symbol
_atom_site_label
_atom_site_fract_x
_atom_site_fract_y
_atom_site_fract_z
Si Si1 0.594797 0.158067 0.079345
Si Si2 0.153980 0.168267 0.715689
Si Si3 0.676102 0.656079 0.883729
Si Si4 0.060869 0.833931 0.428163
Si Si5 0.851278 0.342299 0.033501
Si Si6 0.395915 0.663714 0.424542
Si Si7 0.137105 0.166380 0.203955
Si Si8 0.507978 0.833989 0.696264
O O1 0.479375 0.240024 0.123533
O O2 0.624531 0.000000 0.103977
O O3 0.500000 0.149609 0.000000
O O4 0.765472 0.241902 0.080469
O O5 0.078101 0.199867 0.637026
O O6 0.019817 0.215163 0.762251
O O7 0.346747 0.211806 0.728541
O O8 0.152665 0.000000 0.722635
O O9 0.646152 0.500000 0.853995
O O10 0.716831 0.639095 0.965053
O O11 0.827296 0.733496 0.856619
O O12 0.221064 0.741110 0.423785
O O13 0.000000 0.811929 0.500000
O O14 0.101794 0.000000 0.423205
O O15 0.897196 0.500000 0.060343
O O16 0.000000 0.278669 0.000000
O O17 0.500000 0.673501 0.500000
O O18 0.372397 0.500000 0.406359
O O19 0.488040 0.744131 0.370953
O O20 0.310793 0.180521 0.257166
O O21 0.120401 0.000000 0.185458
O O22 0.487421 0.000000 0.679869
#
# Coordination Sequence:
#
# PCOD9147234 Si02
#       8
#     4   4   4   4   4   4   4   4
#     4   9  17  31  53  79 106 137 177 221 266 314
#     4   9  18  35  58  85 110 139 183 234 285 333
#     4  10  20  35  56  80 109 148 186 219 271 333
#     4  10  19  34  58  85 110 140 185 235 282 337
#     4   9  18  34  55  80 114 148 180 224 274 326
#     4  11  23  36  52  80 118 150 183 229 285 343
#     4  10  20  37  58  81 115 149 186 235 281 329
#     4  10  20  38  63  83 107 145 189 235 283 333
#
# _framework density 20.965676999999999
#
# number of rings (size 3 to 8) (size 9 to 14) (size 15 to 20)
#    0.000    2.250    1.250    1.875    0.000    5.000 
#    2.250    1.250    0.000    0.000    0.000    0.000 
#    0.000    0.000    0.000    0.000    0.000    0.000 
#
# Total GULP energy -178575.714634 kJ/mol
# GULP energy per Si atom -5580.491082 kJ/mol
# Density = 2.091796 g / cm^3
# Si number density = 20.965677 Si / 1000 Ang^3
#
#
#
# Elastic Constant Matrix: (Units=GPa)
#
#
# Indices 1 2 3 4 5 6 
#
# 1 131.7478 46.3136 32.2512 0.0000 -32.9129 0.0000
# 2 46.3136 81.7226 40.9638 0.0000 -19.7323 0.0000
# 3 32.2512 40.9638 75.1345 0.0000 -10.2667 0.0000
# 4 0.0000 0.0000 0.0000 5.9943 0.0000 -0.1626
# 5 -32.9129 -19.7323 -10.2667 0.0000 36.0693 0.0000
# 6 0.0000 0.0000 0.0000 -0.1626 0.0000 11.7596
#
#
#
# Elastic Compliance Matrix: (Units=1/GPa)
#
#
# Indices 1 2 3 4 5 6 
#
# 1 0.011235 -0.003584 -0.001806 0.000000 0.007777 0.000000
# 2 -0.003584 0.019791 -0.008552 0.000000 0.005122 0.000000
# 3 -0.001806 -0.008552 0.018606 0.000000 -0.001030 0.000000
# 4 0.000000 0.000000 0.000000 0.166887 0.000000 0.002307
# 5 0.007777 0.005122 -0.001030 0.000000 0.037330 0.000000
# 6 0.000000 0.000000 0.000000 0.002307 0.000000 0.085069
#
#
# Mechanical properties :
#
#
# Convention : Reuss Voigt Hill
#
# Bulk Modulus (GPa) = 45.97900 58.62912 52.30406
# Shear Modulus (GPa) = 13.36713 22.03640 17.70176
#
# Velocity S-wave (km/s) = 2.52776 3.24554 2.90887
# Velocity P-wave (km/s) = 5.52247 6.48612 6.02359
#
# Compressibility (1/GPa) = 0.02174906
#
# Stress axis : x y z
#
# Youngs Moduli (GPa) = 89.00655 50.52755 53.74508
#
# Poissons Ratio (x) = 0.18110 0.09706
# Poissons Ratio (y) = 0.31901 0.45962
# Poissons Ratio (z) = 0.16073 0.43210
#
# Static dielectric constant tensor:
#      x y z
#    x 1.779570 0.000000 0.043980 
#    y 0.000000 1.738900 0.000000 
#    z 0.043980 0.000000 1.793180 
# 
# From -- ./inp_files/87722.got.cif
#   From: 2010.05.17/outbox.cif.g08.bks.cpg/sg10_44_cif.got.tgz:87722.got - 2010.06.03 11:33:40.
