data_PCOD9147299
_publ_section_title
;
Structure prediction by ZEFSAII (Michael W. Deem and Ramdas Pophale) SiO2 
 PCOD9147299
Probable space group: P 2/M
;
_chemical_formula_sum "Si O2"
_cell_formula_units_Z 28
_cell_length_a 11.489237
_cell_length_b 8.570361
_cell_length_c 15.144098
_cell_angle_alpha 90.000000
_cell_angle_beta 67.350820
_cell_angle_gamma 90.000000
_cell_volume 1376.191772
_symmetry_space_group_name_H-M "P 2/M"
_symmetry_group_IT_number 10
_symmetry_cell_setting 'monoclinic'
loop_
_space_group_symop_operation_xyz
x,y,z
-x,y,-z
-x,-y,-z
x,-y,z
loop_
_atom_site_type_symbol
_atom_site_label
_atom_site_fract_x
_atom_site_fract_y
_atom_site_fract_z
Si Si1 0.102029 0.688288 0.091225
Si Si2 0.146496 0.814996 0.451049
Si Si3 0.184478 0.686851 0.880346
Si Si4 0.597596 0.684439 0.547833
Si Si5 0.196198 0.321312 0.246943
Si Si6 0.426711 0.820971 0.746427
Si Si7 0.514889 0.677896 0.895158
O O1 0.120454 0.500000 0.090955
O O2 0.127186 0.749295 0.181652
O O3 0.957912 0.716769 0.108121
O O4 0.187181 0.739119 0.982906
O O5 0.259919 0.750161 0.480621
O O6 0.185779 0.773931 0.339531
O O7 0.000000 0.757462 0.500000
O O8 0.144158 0.000000 0.465696
O O9 0.204314 0.500000 0.872081
O O10 0.282282 0.766437 0.785847
O O11 0.500000 0.744276 0.500000
O O12 0.611340 0.500000 0.530351
O O13 0.520895 0.719045 0.660184
O O14 0.152161 0.500000 0.277347
O O15 0.339318 0.330685 0.172761
O O16 0.456551 0.790006 0.839993
O O17 0.443385 0.000000 0.716790
O O18 0.462387 0.500000 0.903195
O O19 0.500000 0.728075 0.000000
#
# Coordination Sequence:
#
# PCOD9147299 Si02
#       7
#     4   4   4   4   4   4   4
#     4   8  16  32  57  87 116 156 206 257 303 352
#     4  11  25  44  65  92 128 167 205 256 328 398
#     4   9  17  34  58  83 118 161 209 253 297 359
#     4  11  25  46  71  95 119 157 215 276 326 379
#     4  10  19  34  59  88 118 154 201 252 303 359
#     4  12  24  37  57  87 125 161 197 245 310 377
#     4  10  20  35  59  89 121 159 202 246 296 356
#
# _framework density 20.346001999999999
#
# number of rings (size 3 to 8) (size 9 to 14) (size 15 to 20)
#    0.000    1.857    1.429    3.857    0.000    6.000 
#    0.000    8.571    0.000    0.000    0.000    0.000 
#    0.000    0.000    0.000    0.000    0.000    0.000 
#
# Total GULP energy -156146.211255 kJ/mol
# GULP energy per Si atom -5576.650402 kJ/mol
# Density = 2.029969 g / cm^3
# Si number density = 20.346002 Si / 1000 Ang^3
#
#
#
# Elastic Constant Matrix: (Units=GPa)
#
#
# Indices 1 2 3 4 5 6 
#
# 1 129.5643 22.0417 45.1701 0.0000 1.6082 0.0000
# 2 22.0417 22.6055 0.5654 0.0000 2.7506 0.0000
# 3 45.1701 0.5654 69.3823 0.0000 -5.6268 0.0000
# 4 0.0000 0.0000 0.0000 1.5170 0.0000 -7.1481
# 5 1.6082 2.7506 -5.6268 0.0000 31.9986 0.0000
# 6 0.0000 0.0000 0.0000 -7.1481 0.0000 32.6457
#
#
#
# Elastic Compliance Matrix: (Units=1/GPa)
#
#
# Indices 1 2 3 4 5 6 
#
# 1 0.012633 -0.011985 -0.008212 0.000000 -0.001049 0.000000
# 2 -0.011985 0.056107 0.007104 0.000000 -0.002971 0.000000
# 3 -0.008212 0.007104 0.019970 0.000000 0.003314 0.000000
# 4 0.000000 0.000000 0.000000-20.773317 0.000000 -4.548549
# 5 -0.001049 -0.002971 0.003314 0.000000 0.032142 0.000000
# 6 0.000000 0.000000 0.000000 -4.548549 0.000000 -0.965324
#
#
# Mechanical properties :
#
#
# Convention : Reuss Voigt Hill
#
# Bulk Modulus (GPa) = 15.99362 39.67850 27.83606
# Shear Modulus (GPa) = -0.23180 23.48392 11.62606
#
# Velocity S-wave (km/s) = -0.33790 3.40108 2.39303
# Velocity P-wave (km/s) = 2.77951 5.91332 4.62023
#
# Compressibility (1/GPa) = 0.06252491
#
# Stress axis : x y z
#
# Youngs Moduli (GPa) = 79.15776 17.82316 50.07531
#
# Poissons Ratio (x) = 0.21361 0.41121
# Poissons Ratio (y) = 0.94870 -0.35575
# Poissons Ratio (z) = 0.65003 -0.12662
#
# Static dielectric constant tensor:
#      x y z
#    x 1.817360 0.000000 0.011010 
#    y 0.000000 1.721750 0.000000 
#    z 0.011010 0.000000 1.713420 
# 
# From -- ./inp_files/49332.got.cif
#   From: 2010.05.17/outbox.cif.g08.bks.cpg/sg10_25_cif.got.tgz:49332.got - 2010.06.03 11:33:40.
