data_PCOD9147692
_publ_section_title
;
Structure prediction by ZEFSAII (Michael W. Deem and Ramdas Pophale) SiO2 
 PCOD9147692
Probable space group: P 2/M
;
_chemical_formula_sum "Si O2"
_cell_formula_units_Z 32
_cell_length_a 8.001301
_cell_length_b 13.446334
_cell_length_c 23.808514
_cell_angle_alpha 90.000000
_cell_angle_beta 36.652391
_cell_angle_gamma 90.000000
_cell_volume 1529.118322
_symmetry_space_group_name_H-M "P 2/M"
_symmetry_group_IT_number 10
_symmetry_cell_setting 'monoclinic'
loop_
_space_group_symop_operation_xyz
x,y,z
-x,y,-z
-x,-y,-z
x,-y,z
loop_
_atom_site_type_symbol
_atom_site_label
_atom_site_fract_x
_atom_site_fract_y
_atom_site_fract_z
Si Si1 0.647866 0.619259 0.878106
Si Si2 0.731631 0.619352 0.611313
Si Si3 0.451442 0.881156 0.282151
Si Si4 0.852812 0.885324 0.466988
Si Si5 0.231023 0.116279 0.644132
Si Si6 0.828270 0.258172 0.249882
Si Si7 0.421524 0.304845 0.229010
Si Si8 0.971999 0.613075 0.939478
O O1 0.663640 0.500000 0.879320
O O2 0.651553 0.646086 0.810445
O O3 0.908917 0.673402 0.836503
O O4 0.343523 0.651826 0.983004
O O5 0.704510 0.500000 0.616825
O O6 0.441775 0.670380 0.669494
O O7 0.757298 0.652571 0.670082
O O8 0.000000 0.646229 0.500000
O O9 0.716201 0.832663 0.241442
O O10 0.416549 0.814992 0.235520
O O11 0.170121 0.855587 0.394500
O O12 0.462686 0.000000 0.272006
O O13 0.834719 0.881513 0.403926
O O14 0.552427 0.846535 0.565986
O O15 0.837431 0.000000 0.487761
O O16 0.068759 0.197130 0.723241
O O17 0.204382 0.000000 0.668652
O O18 0.745409 0.332956 0.155120
O O19 0.984914 0.500000 0.914861
O O20 0.000000 0.609316 0.000000
#
# Coordination Sequence:
#
# PCOD9147692 Si02
#       8
#     4   4   4   4   4   4   4   4
#     4  10  20  37  60  89 114 136 182 246 295 335
#     4  10  22  38  51  72 111 153 192 224 263 334
#     4  10  21  35  52  77 113 152 191 228 268 330
#     4   8  16  31  49  70  97 134 182 236 280 313
#     4   9  17  30  50  74 101 133 181 240 284 323
#     4  11  22  32  51  75 110 151 185 225 278 331
#     4  10  19  35  65  85 107 146 186 229 289 344
#     4   8  15  31  59  90 111 131 175 241 299 341
#
# _framework density 20.927091999999998
#
# number of rings (size 3 to 8) (size 9 to 14) (size 15 to 20)
#    0.000    2.500    0.000    4.125    3.500    0.000 
#    0.000    5.000    0.000   14.625    0.000    0.000 
#    0.000    0.000    0.000    0.000    0.000    0.000 
#
# Total GULP energy -178378.206942 kJ/mol
# GULP energy per Si atom -5574.318967 kJ/mol
# Density = 2.087946 g / cm^3
# Si number density = 20.927092 Si / 1000 Ang^3
#
#
#
# Elastic Constant Matrix: (Units=GPa)
#
#
# Indices 1 2 3 4 5 6 
#
# 1 95.6837 21.4280 28.5302 0.0000 -14.2508 0.0000
# 2 21.4280 116.2161 46.9422 0.0000 -3.1797 0.0000
# 3 28.5302 46.9422 116.1960 0.0000 -11.6906 0.0000
# 4 0.0000 0.0000 0.0000 27.6558 0.0000 -6.4245
# 5 -14.2508 -3.1797 -11.6906 0.0000 41.8665 0.0000
# 6 0.0000 0.0000 0.0000 -6.4245 0.0000 28.3406
#
#
#
# Elastic Compliance Matrix: (Units=1/GPa)
#
#
# Indices 1 2 3 4 5 6 
#
# 1 0.011849 -0.001260 -0.002062 0.000000 0.003362 0.000000
# 2 -0.001260 0.010423 -0.003977 0.000000 -0.000748 0.000000
# 3 -0.002062 -0.003977 0.010925 0.000000 0.002047 0.000000
# 4 0.000000 0.000000 0.000000 0.038169 0.000000 0.008653
# 5 0.003362 -0.000748 0.002047 0.000000 0.025544 0.000000
# 6 0.000000 0.000000 0.000000 0.008653 0.000000 0.037247
#
#
# Mechanical properties :
#
#
# Convention : Reuss Voigt Hill
#
# Bulk Modulus (GPa) = 53.76518 57.98852 55.87685
# Shear Modulus (GPa) = 32.26786 34.98560 33.62673
#
# Velocity S-wave (km/s) = 3.93099 4.09318 4.01290
# Velocity P-wave (km/s) = 6.80816 7.07876 6.94477
#
# Compressibility (1/GPa) = 0.01859940
#
# Stress axis : x y z
#
# Youngs Moduli (GPa) = 84.39691 95.94435 91.53400
#
# Poissons Ratio (x) = 0.12087 0.18876
# Poissons Ratio (y) = 0.10632 0.36399
# Poissons Ratio (z) = 0.17404 0.38153
#
# Static dielectric constant tensor:
#      x y z
#    x 1.878560 0.000000 0.021040 
#    y 0.000000 1.742040 0.000000 
#    z 0.021040 0.000000 1.780280 
# 
# From -- ./inp_files/92369.got.cif
#   From: 2010.05.17/outbox.cif.g08.bks.cpg/sg10_47_cif.got.tgz:92369.got - 2010.06.03 11:33:40.
