data_PCOD9147741
_publ_section_title
;
Structure prediction by ZEFSAII (Michael W. Deem and Ramdas Pophale) SiO2 
 PCOD9147741
Probable space group: P 2/M
;
_chemical_formula_sum "Si O2"
_cell_formula_units_Z 28
_cell_length_a 8.282618
_cell_length_b 8.410833
_cell_length_c 29.847957
_cell_angle_alpha 90.000000
_cell_angle_beta 139.409257
_cell_angle_gamma 90.000000
_cell_volume 1352.912509
_symmetry_space_group_name_H-M "P 2/M"
_symmetry_group_IT_number 10
_symmetry_cell_setting 'monoclinic'
loop_
_space_group_symop_operation_xyz
x,y,z
-x,y,-z
-x,-y,-z
x,-y,z
loop_
_atom_site_type_symbol
_atom_site_label
_atom_site_fract_x
_atom_site_fract_y
_atom_site_fract_z
Si Si1 0.267431 0.190890 0.653481
Si Si2 0.022814 0.818975 0.052353
Si Si3 0.160541 0.809764 0.805424
Si Si4 0.258893 0.691992 0.420205
Si Si5 0.467455 0.324833 0.044972
Si Si6 0.644400 0.309538 0.662449
Si Si7 0.483343 0.807110 0.203261
O O1 0.392869 0.253356 0.634185
O O2 0.433839 0.251104 0.730711
O O3 0.988954 0.241673 0.608465
O O4 0.275234 0.000000 0.653446
O O5 0.263989 0.813945 0.998142
O O6 0.215164 0.751356 0.128615
O O7 0.887431 0.000000 0.935976
O O8 0.000000 0.732370 0.000000
O O9 0.302029 0.732725 0.877048
O O10 0.317199 0.767253 0.793424
O O11 0.879970 0.752937 0.740166
O O12 0.165614 0.000000 0.810972
O O13 0.500000 0.734695 0.500000
O O14 0.236365 0.500000 0.414851
O O15 0.306644 0.744898 0.378718
O O16 0.391873 0.500000 0.047382
O O17 0.500000 0.350878 0.000000
O O18 0.644222 0.500000 0.662023
O O19 0.479421 0.000000 0.206221
#
# Coordination Sequence:
#
# PCOD9147741 Si02
#       7
#     4   4   4   4   4   4   4
#     4  11  23  41  66  98 133 171 215 263 318 381
#     4  10  19  36  58  80 105 146 202 254 309 370
#     4  11  21  40  65  87 117 163 215 265 319 383
#     4  10  23  45  71  98 132 175 216 259 317 384
#     4  11  25  40  52  80 122 160 205 263 322 377
#     4  11  24  42  65  97 134 171 214 266 323 384
#     4   9  19  36  59  87 117 152 202 261 315 374
#
# _framework density 20.696090999999999
#
# number of rings (size 3 to 8) (size 9 to 14) (size 15 to 20)
#    0.000    1.571    2.857    1.714    2.000    2.857 
#    0.000    3.571    0.000    0.000    0.000    0.000 
#    0.000    0.000    0.000    0.000    0.000    0.000 
#
# Total GULP energy -155983.792644 kJ/mol
# GULP energy per Si atom -5570.849737 kJ/mol
# Density = 2.064899 g / cm^3
# Si number density = 20.696091 Si / 1000 Ang^3
#
#
#
# Elastic Constant Matrix: (Units=GPa)
#
#
# Indices 1 2 3 4 5 6 
#
# 1 123.3260 35.9335 65.3715 0.0000 1.5537 0.0000
# 2 35.9335 51.2274 19.6662 0.0000 2.1136 0.0000
# 3 65.3715 19.6662 106.2614 0.0000 20.5791 0.0000
# 4 0.0000 0.0000 0.0000 12.0141 0.0000 18.3866
# 5 1.5537 2.1136 20.5791 0.0000 21.0263 0.0000
# 6 0.0000 0.0000 0.0000 18.3866 0.0000 18.0922
#
#
#
# Elastic Compliance Matrix: (Units=1/GPa)
#
#
# Indices 1 2 3 4 5 6 
#
# 1 0.015390 -0.007377 -0.009903 0.000000 0.009297 0.000000
# 2 -0.007377 0.024625 0.000438 0.000000 -0.002359 0.000000
# 3 -0.009903 0.000438 0.018865 0.000000 -0.017776 0.000000
# 4 0.000000 0.000000 0.000000 -0.149886 0.000000 0.152325
# 5 0.009297 -0.002359 -0.017776 0.000000 0.064507 0.000000
# 6 0.000000 0.000000 0.000000 0.152325 0.000000 -0.099532
#
#
# Mechanical properties :
#
#
# Convention : Reuss Voigt Hill
#
# Bulk Modulus (GPa) = 39.69115 58.08414 48.88765
# Shear Modulus (GPa) = -59.56146 20.88275 -19.33935
#
# Velocity S-wave (km/s) = -5.37043 3.17995 -3.06019
# Velocity P-wave (km/s) = 4.38585 6.45050 3.34464
#
# Compressibility (1/GPa) = 0.02519453
#
# Stress axis : x y z
#
# Youngs Moduli (GPa) = 64.97540 40.60938 53.00912
#
# Poissons Ratio (x) = 0.29959 0.52496
# Poissons Ratio (y) = 0.47935 -0.02321
# Poissons Ratio (z) = 0.64347 -0.01778
#
# Static dielectric constant tensor:
#      x y z
#    x 1.795470 0.000000 -0.000600 
#    y 0.000000 1.771970 0.000000 
#    z -0.000600 0.000000 1.729110 
# 
# From -- ./inp_files/94532.got.cif
#   From: 2010.05.17/outbox.cif.g08.bks.cpg/sg10_48_cif.got.tgz:94532.got - 2010.06.03 11:33:40.
