data_PCOD9147720
_publ_section_title
;
Structure prediction by ZEFSAII (Michael W. Deem and Ramdas Pophale) SiO2 
 PCOD9147720
Probable space group: P 2/M
;
_chemical_formula_sum "Si O2"
_cell_formula_units_Z 32
_cell_length_a 20.168926
_cell_length_b 16.915839
_cell_length_c 11.886673
_cell_angle_alpha 90.000000
_cell_angle_beta 152.284470
_cell_angle_gamma 90.000000
_cell_volume 1886.106344
_symmetry_space_group_name_H-M "P 2/M"
_symmetry_group_IT_number 10
_symmetry_cell_setting 'monoclinic'
loop_
_space_group_symop_operation_xyz
x,y,z
-x,y,-z
-x,-y,-z
x,-y,z
loop_
_atom_site_type_symbol
_atom_site_label
_atom_site_fract_x
_atom_site_fract_y
_atom_site_fract_z
Si Si1 0.932743 0.649017 0.018967
Si Si2 0.189392 0.907142 0.660228
Si Si3 0.654659 0.414732 0.499786
Si Si4 0.150701 0.910240 0.865650
Si Si5 0.220828 0.593116 0.562122
Si Si6 0.529336 0.732233 0.715018
Si Si7 0.360021 0.752431 0.868626
Si Si8 0.277814 0.774228 0.197425
O O1 0.803773 0.591197 0.790555
O O2 0.854091 0.722956 0.956946
O O3 0.000000 0.673185 0.000000
O O4 0.056483 0.610756 0.280483
O O5 0.200953 0.895365 0.812858
O O6 0.269211 0.834133 0.718858
O O7 0.019999 0.900677 0.384732
O O8 0.230709 0.000000 0.697547
O O9 0.589433 0.500000 0.414218
O O10 0.692213 0.401837 0.425065
O O11 0.548549 0.350650 0.386601
O O12 0.185029 0.000000 0.942744
O O13 0.224383 0.854302 0.064332
O O14 0.234869 0.500000 0.622330
O O15 0.277579 0.668650 0.719641
O O16 0.398838 0.786131 0.473836
O O17 0.645492 0.729856 0.791394
O O18 0.591657 0.753556 0.929028
O O19 0.500000 0.753966 0.000000
#
# Coordination Sequence:
#
# PCOD9147720 Si02
#       8
#     4   4   4   4   4   4   4   4
#     4   9  18  33  55  81 103 138 183 228 275 318
#     4   9  19  35  57  85 110 137 181 223 268 327
#     4   9  17  33  54  75 106 143 185 231 265 312
#     4   9  17  34  60  84 104 135 178 225 270 321
#     4  10  20  33  53  81 108 143 187 228 269 318
#     4  10  21  35  50  80 108 144 186 216 264 322
#     4  12  22  35  55  79 114 150 179 222 270 324
#     4  10  19  36  57  76 109 143 177 228 264 323
#
# _framework density 16.966170000000002
#
# number of rings (size 3 to 8) (size 9 to 14) (size 15 to 20)
#    0.000    2.250    2.500    1.875    0.000    2.500 
#    0.000    7.500    0.000    1.125    0.000    0.000 
#    0.000    0.000    0.000    0.000    0.000    0.000 
#
# Total GULP energy -178145.111874 kJ/mol
# GULP energy per Si atom -5567.034746 kJ/mol
# Density = 1.692755 g / cm^3
# Si number density = 16.966170 Si / 1000 Ang^3
#
#
#
# Elastic Constant Matrix: (Units=GPa)
#
#
# Indices 1 2 3 4 5 6 
#
# 1 45.6019 41.5558 34.2100 0.0000 4.0095 0.0000
# 2 41.5558 131.0806 64.5503 0.0000 2.9320 0.0000
# 3 34.2100 64.5503 62.9698 0.0000 -5.3187 0.0000
# 4 0.0000 0.0000 0.0000 -15.1488 0.0000 -15.9879
# 5 4.0095 2.9320 -5.3187 0.0000 28.9670 0.0000
# 6 0.0000 0.0000 0.0000 -15.9879 0.0000 18.7961
#
#
#
# Elastic Compliance Matrix: (Units=1/GPa)
#
#
# Indices 1 2 3 4 5 6 
#
# 1 0.039954 -0.002853 -0.019527 0.000000 -0.008827 0.000000
# 2 -0.002853 0.016218 -0.015419 0.000000 -0.004078 0.000000
# 3 -0.019527 -0.015419 0.043327 0.000000 0.012219 0.000000
# 4 0.000000 0.000000 0.000000 -0.034785 0.000000 -0.029588
# 5 -0.008827 -0.004078 0.012219 0.000000 0.038400 0.000000
# 6 0.000000 0.000000 0.000000 -0.029588 0.000000 0.028035
#
#
# Mechanical properties :
#
#
# Convention : Reuss Voigt Hill
#
# Bulk Modulus (GPa) = 41.83984 57.80937 49.82460
# Shear Modulus (GPa) = 23.28677 13.14527 18.21602
#
# Velocity S-wave (km/s) = 3.70880 2.78653 3.28024
# Velocity P-wave (km/s) = 6.56160 6.67085 6.61645
#
# Compressibility (1/GPa) = 0.02390067
#
# Stress axis : x y z
#
# Youngs Moduli (GPa) = 25.02906 61.66084 23.08004
#
# Poissons Ratio (x) = 0.17591 0.45068
# Poissons Ratio (y) = 0.07141 0.35588
# Poissons Ratio (z) = 0.48874 0.95077
#
# Static dielectric constant tensor:
#      x y z
#    x 1.557750 0.000000 -0.007650 
#    y 0.000000 1.578730 0.000000 
#    z -0.007650 0.000000 1.598530 
# 
# From -- ./inp_files/54057.got.cif
#   From: 2010.05.17/outbox.cif.g08.bks.cpg/sg10_28_cif.got.tgz:54057.got - 2010.06.03 11:33:40.
