data_PCOD9147612
_publ_section_title
;
Structure prediction by ZEFSAII (Michael W. Deem and Ramdas Pophale) SiO2 
 PCOD9147612
Probable space group: P 2/M
;
_chemical_formula_sum "Si O2"
_cell_formula_units_Z 32
_cell_length_a 14.713494
_cell_length_b 7.813016
_cell_length_c 23.363945
_cell_angle_alpha 90.000000
_cell_angle_beta 32.476540
_cell_angle_gamma 90.000000
_cell_volume 1442.175043
_symmetry_space_group_name_H-M "P 2/M"
_symmetry_group_IT_number 10
_symmetry_cell_setting 'monoclinic'
loop_
_space_group_symop_operation_xyz
x,y,z
-x,y,-z
-x,-y,-z
x,-y,z
loop_
_atom_site_type_symbol
_atom_site_label
_atom_site_fract_x
_atom_site_fract_y
_atom_site_fract_z
Si Si1 0.778259 0.301188 0.981550
Si Si2 0.530187 0.292729 0.312073
Si Si3 0.080679 0.708870 0.897380
Si Si4 0.373929 0.291237 0.517030
Si Si5 0.980193 0.699505 0.333341
Si Si6 0.314504 0.194917 0.091698
Si Si7 0.903143 0.797883 0.606754
Si Si8 0.536150 0.200274 0.779552
O O1 0.798555 0.500000 0.954001
O O2 0.631160 0.290158 0.107352
O O3 0.724549 0.199204 0.954534
O O4 0.953933 0.237842 0.914779
O O5 0.524819 0.500000 0.310980
O O6 0.726213 0.237593 0.210676
O O7 0.441214 0.243486 0.418343
O O8 0.452313 0.221656 0.294980
O O9 0.079280 0.500000 0.898245
O O10 0.000000 0.766009 0.000000
O O11 0.500000 0.229129 0.500000
O O12 0.377116 0.500000 0.519393
O O13 0.177295 0.235554 0.621228
O O14 0.948254 0.500000 0.359946
O O15 0.158538 0.721493 0.207187
O O16 0.995899 0.777717 0.388129
O O17 0.324296 0.000000 0.108618
O O18 0.500000 0.275464 0.000000
O O19 0.710863 0.730066 0.713489
O O20 0.000000 0.725063 0.500000
O O21 0.880505 0.000000 0.608028
O O22 0.516362 0.000000 0.804219
#
# Coordination Sequence:
#
# PCOD9147612 Si02
#       8
#     4   4   4   4   4   4   4   4
#     4  11  22  37  61  89 116 150 197 244 290 350
#     4  10  19  35  60  84 115 157 199 244 293 346
#     4   9  17  32  55  86 116 149 192 238 291 350
#     4   9  20  37  60  89 120 156 199 247 299 354
#     4  11  23  39  63  94 121 152 201 255 299 346
#     4  11  25  44  63  85 120 163 200 241 300 364
#     4  10  22  40  61  83 115 160 198 236 297 361
#     4  11  22  36  56  85 119 154 191 238 298 359
#
# _framework density 22.188707000000001
#
# number of rings (size 3 to 8) (size 9 to 14) (size 15 to 20)
#    0.000    1.750    1.250    3.000    1.750    5.250 
#    0.000    2.500    0.000    1.875    0.000    0.000 
#    0.000    0.000    0.000    0.000    0.000    0.000 
#
# Total GULP energy -178855.467373 kJ/mol
# GULP energy per Si atom -5589.233355 kJ/mol
# Density = 2.213820 g / cm^3
# Si number density = 22.188707 Si / 1000 Ang^3
#
#
#
# Elastic Constant Matrix: (Units=GPa)
#
#
# Indices 1 2 3 4 5 6 
#
# 1 130.9376 -9.4912 35.4183 0.0000 -17.7822 0.0000
# 2 -9.4912 28.6944 -2.3244 0.0000 -5.6973 0.0000
# 3 35.4183 -2.3244 88.8532 0.0000 -15.5716 0.0000
# 4 0.0000 0.0000 0.0000 18.7829 0.0000 3.0802
# 5 -17.7822 -5.6973 -15.5716 0.0000 42.7866 0.0000
# 6 0.0000 0.0000 0.0000 3.0802 0.0000 27.6384
#
#
#
# Elastic Compliance Matrix: (Units=1/GPa)
#
#
# Indices 1 2 3 4 5 6 
#
# 1 0.009122 0.003401 -0.002994 0.000000 0.003154 0.000000
# 2 0.003401 0.037365 0.000792 0.000000 0.006677 0.000000
# 3 -0.002994 0.000792 0.013105 0.000000 0.003630 0.000000
# 4 0.000000 0.000000 0.000000 0.054231 0.000000 -0.006044
# 5 0.003154 0.006677 0.003630 0.000000 0.026893 0.000000
# 6 0.000000 0.000000 0.000000 -0.006044 0.000000 0.036855
#
#
# Mechanical properties :
#
#
# Convention : Reuss Voigt Hill
#
# Bulk Modulus (GPa) = 16.13191 32.85451 24.49321
# Shear Modulus (GPa) = 25.53140 32.83375 29.18257
#
# Velocity S-wave (km/s) = 3.39580 3.85093 3.63050
# Velocity P-wave (km/s) = 4.76040 5.88318 5.35132
#
# Compressibility (1/GPa) = 0.06198894
#
# Stress axis : x y z
#
# Youngs Moduli (GPa) = 109.62370 26.76314 76.30614
#
# Poissons Ratio (x) = -0.09102 0.22850
# Poissons Ratio (y) = -0.37283 -0.06043
# Poissons Ratio (z) = 0.32826 -0.02119
#
# Static dielectric constant tensor:
#      x y z
#    x 1.796630 0.000000 -0.034870 
#    y 0.000000 1.808040 0.000000 
#    z -0.034870 0.000000 1.811170 
# 
# From -- ./inp_files/89515.got.cif
#   From: 2010.05.17/outbox.cif.g08.bks.cpg/sg10_45_cif.got.tgz:89515.got - 2010.06.03 11:33:40.
