data_PCOD9147479
_publ_section_title
;
Structure prediction by ZEFSAII (Michael W. Deem and Ramdas Pophale) SiO2 
 PCOD9147479
Probable space group: P 2/M
;
_chemical_formula_sum "Si O2"
_cell_formula_units_Z 32
_cell_length_a 8.762054
_cell_length_b 22.240359
_cell_length_c 15.490871
_cell_angle_alpha 90.000000
_cell_angle_beta 149.226475
_cell_angle_gamma 90.000000
_cell_volume 1544.518303
_symmetry_space_group_name_H-M "P 2/M"
_symmetry_group_IT_number 10
_symmetry_cell_setting 'monoclinic'
loop_
_space_group_symop_operation_xyz
x,y,z
-x,y,-z
-x,-y,-z
x,-y,z
loop_
_atom_site_type_symbol
_atom_site_label
_atom_site_fract_x
_atom_site_fract_y
_atom_site_fract_z
Si Si1 0.670122 0.153581 0.908742
Si Si2 0.532561 0.222832 0.686489
Si Si3 0.843781 0.068321 0.132723
Si Si4 0.365795 0.430300 0.340350
Si Si5 0.699792 0.386148 0.018289
Si Si6 0.642062 0.649676 0.323021
Si Si7 0.962701 0.165452 0.326673
Si Si8 0.075934 0.747330 0.840423
O O1 0.712755 0.175500 0.832460
O O2 0.312640 0.145669 0.748243
O O3 0.825712 0.096325 0.028304
O O4 0.752628 0.209275 0.010619
O O5 0.447071 0.280620 0.703023
O O6 0.249509 0.186425 0.516796
O O7 0.734328 0.246696 0.706108
O O8 0.014619 0.113532 0.280158
O O9 0.950164 0.000000 0.186541
O O10 0.500000 0.069763 0.000000
O O11 0.500000 0.414082 0.500000
O O12 0.443586 0.500000 0.362831
O O13 0.509741 0.388185 0.338110
O O14 0.007497 0.422755 0.159397
O O15 0.508047 0.376223 0.837606
O O16 0.500000 0.410105 0.000000
O O17 0.812237 0.319750 0.099247
O O18 0.000000 0.645399 0.500000
O O19 0.878108 0.224625 0.230608
#
# Coordination Sequence:
#
# PCOD9147479 Si02
#       8
#     4   4   4   4   4   4   4   4
#     4  10  19  35  57  84 121 155 207 256 318 385
#     4  12  23  35  56  91 131 159 202 269 339 390
#     4   8  16  34  59  83 115 163 217 264 314 388
#     4  11  27  50  74 102 136 176 226 278 333 399
#     4  12  25  43  70 100 136 179 225 274 333 404
#     4  12  26  43  67 101 139 181 224 278 336 401
#     4  10  21  35  55  88 117 161 206 261 323 385
#     4  11  22  36  57  86 124 163 203 253 319 398
#
# _framework density 20.718433000000001
#
# number of rings (size 3 to 8) (size 9 to 14) (size 15 to 20)
#    0.000    1.250    2.500    4.875    3.500    1.500 
#    0.000    0.625    0.000   15.000    0.000    0.000 
#    0.000    0.000    0.000    0.000    0.000    0.125 
#
# Total GULP energy -178822.501478 kJ/mol
# GULP energy per Si atom -5588.203171 kJ/mol
# Density = 2.067128 g / cm^3
# Si number density = 20.718433 Si / 1000 Ang^3
#
#
#
# Elastic Constant Matrix: (Units=GPa)
#
#
# Indices 1 2 3 4 5 6 
#
# 1 94.1721 20.3408 38.4447 0.0000 1.2374 0.0000
# 2 20.3408 86.2284 35.3197 0.0000 -15.5358 0.0000
# 3 38.4447 35.3197 112.9155 0.0000 -8.1445 0.0000
# 4 0.0000 0.0000 0.0000 16.6930 0.0000 0.7688
# 5 1.2374 -15.5358 -8.1445 0.0000 37.4961 0.0000
# 6 0.0000 0.0000 0.0000 0.7688 0.0000 37.7929
#
#
#
# Elastic Compliance Matrix: (Units=1/GPa)
#
#
# Indices 1 2 3 4 5 6 
#
# 1 0.012609 -0.001737 -0.003893 0.000000 -0.001981 0.000000
# 2 -0.001737 0.014402 -0.003534 0.000000 0.005257 0.000000
# 3 -0.003893 -0.003534 0.011369 0.000000 0.001134 0.000000
# 4 0.000000 0.000000 0.000000 0.059961 0.000000 -0.001220
# 5 -0.001981 0.005257 0.001134 0.000000 0.029159 0.000000
# 6 0.000000 0.000000 0.000000 -0.001220 0.000000 0.026485
#
#
# Mechanical properties :
#
#
# Convention : Reuss Voigt Hill
#
# Bulk Modulus (GPa) = 49.87074 53.50294 51.68684
# Shear Modulus (GPa) = 27.93351 31.67713 29.80532
#
# Velocity S-wave (km/s) = 3.67583 3.91440 3.79699
# Velocity P-wave (km/s) = 6.49142 6.80514 6.65013
#
# Compressibility (1/GPa) = 0.02005184
#
# Stress axis : x y z
#
# Youngs Moduli (GPa) = 79.30711 69.43682 87.96007
#
# Poissons Ratio (x) = 0.12061 0.34240
# Poissons Ratio (y) = 0.13775 0.31087
# Poissons Ratio (z) = 0.30872 0.24541
#
# Static dielectric constant tensor:
#      x y z
#    x 1.809860 0.000000 0.049420 
#    y 0.000000 1.704970 0.000000 
#    z 0.049420 0.000000 1.795950 
# 
# From -- ./inp_files/30607.got.cif
#   From: 2010.05.17/outbox.cif.g08.bks.cpg/sg10_16_cif.got.tgz:30607.got - 2010.06.03 11:33:40.
