data_PCOD9147783
_publ_section_title
;
Structure prediction by ZEFSAII (Michael W. Deem and Ramdas Pophale) SiO2 
 PCOD9147783
Probable space group: P 2/M
;
_chemical_formula_sum "Si O2"
_cell_formula_units_Z 32
_cell_length_a 15.301460
_cell_length_b 22.442590
_cell_length_c 9.231675
_cell_angle_alpha 90.000000
_cell_angle_beta 33.260529
_cell_angle_gamma 90.000000
_cell_volume 1738.685132
_symmetry_space_group_name_H-M "P 2/M"
_symmetry_group_IT_number 10
_symmetry_cell_setting 'monoclinic'
loop_
_space_group_symop_operation_xyz
x,y,z
-x,y,-z
-x,-y,-z
x,-y,z
loop_
_atom_site_type_symbol
_atom_site_label
_atom_site_fract_x
_atom_site_fract_y
_atom_site_fract_z
Si Si1 0.326918 0.857009 0.191381
Si Si2 0.387623 0.672999 0.514513
Si Si3 0.162560 0.932383 0.180306
Si Si4 0.664731 0.727565 0.948885
Si Si5 0.123651 0.265818 0.059720
Si Si6 0.899456 0.367199 0.496235
Si Si7 0.827136 0.568524 0.314619
Si Si8 0.984306 0.862236 0.189623
O O1 0.278976 0.890617 0.110493
O O2 0.190384 0.870618 0.498626
O O3 0.500000 0.877346 0.000000
O O4 0.335152 0.786157 0.149185
O O5 0.500000 0.660349 0.500000
O O6 0.496037 0.706194 0.245770
O O7 0.302036 0.614294 0.571208
O O8 0.247128 0.715993 0.764451
O O9 0.000000 0.934261 0.500000
O O10 0.109775 0.901768 0.105118
O O11 0.220279 0.000000 0.082996
O O12 0.775906 0.743699 0.932559
O O13 0.748762 0.671484 0.756561
O O14 0.008633 0.320963 0.254375
O O15 0.028796 0.206785 0.153361
O O16 0.850083 0.418111 0.453342
O O17 0.000000 0.385462 0.500000
O O18 0.781276 0.500000 0.353250
O O19 0.000000 0.578119 0.000000
O O20 0.000000 0.876206 0.000000
#
# Coordination Sequence:
#
# PCOD9147783 Si02
#       8
#     4   4   4   4   4   4   4   4
#     4  11  23  37  58  94 125 157 199 248 308 356
#     4  10  23  39  60  91 122 157 196 247 308 356
#     4   9  20  42  66  85 120 169 211 245 289 359
#     4  10  21  36  58  90 125 156 190 251 307 360
#     4  10  19  36  59  89 122 157 197 243 300 362
#     4  10  21  37  62  89 120 155 196 246 303 349
#     4  11  24  42  64  88 117 161 208 241 291 369
#     4  11  23  36  60  93 122 160 201 250 298 356
#
# _framework density 18.404713000000001
#
# number of rings (size 3 to 8) (size 9 to 14) (size 15 to 20)
#    0.000    1.750    3.750    0.000    5.250    1.000 
#    0.000    1.875    0.000    0.750    0.000    0.000 
#    0.000    0.000    0.000    0.000    0.000    0.000 
#
# Total GULP energy -178695.442350 kJ/mol
# GULP energy per Si atom -5584.232573 kJ/mol
# Density = 1.836282 g / cm^3
# Si number density = 18.404713 Si / 1000 Ang^3
#
#
#
# Elastic Constant Matrix: (Units=GPa)
#
#
# Indices 1 2 3 4 5 6 
#
# 1 95.1759 42.4938 38.5752 0.0000 9.0008 0.0000
# 2 42.4938 61.7596 13.8812 0.0000 -0.2159 0.0000
# 3 38.5752 13.8812 106.1026 0.0000 3.0913 0.0000
# 4 0.0000 0.0000 0.0000 10.9553 0.0000 -4.6963
# 5 9.0008 -0.2159 3.0913 0.0000 24.9256 0.0000
# 6 0.0000 0.0000 0.0000 -4.6963 0.0000 -3.8086
#
#
#
# Elastic Compliance Matrix: (Units=1/GPa)
#
#
# Indices 1 2 3 4 5 6 
#
# 1 0.018180 -0.011419 -0.004939 0.000000 -0.006051 0.000000
# 2 -0.011419 0.023860 0.000907 0.000000 0.004218 0.000000
# 3 -0.004939 0.000907 0.011090 0.000000 0.000416 0.000000
# 4 0.000000 0.000000 0.000000 0.059716 0.000000 -0.073633
# 5 -0.006051 0.004218 0.000416 0.000000 0.042289 0.000000
# 6 0.000000 0.000000 0.000000 -0.073633 0.000000 -0.171768
#
#
# Mechanical properties :
#
#
# Convention : Reuss Voigt Hill
#
# Bulk Modulus (GPa) = 44.99153 50.32652 47.65902
# Shear Modulus (GPa) = 230.65249 17.62030 124.13640
#
# Velocity S-wave (km/s) = 11.20690 3.09751 8.22159
# Velocity P-wave (km/s) = 13.85490 6.34007 10.77392
#
# Compressibility (1/GPa) = 0.02222641
#
# Stress axis : x y z
#
# Youngs Moduli (GPa) = 55.00697 41.91145 90.17358
#
# Poissons Ratio (x) = 0.47861 0.44538
# Poissons Ratio (y) = 0.62815 -0.08181
# Poissons Ratio (z) = 0.27169 -0.03803
#
# Static dielectric constant tensor:
#      x y z
#    x 1.653100 0.000000 0.005550 
#    y 0.000000 1.605230 0.000000 
#    z 0.005550 0.000000 1.624650 
# 
# From -- ./inp_files/30559.got.cif
#   From: 2010.05.17/outbox.cif.g08.bks.cpg/sg10_16_cif.got.tgz:30559.got - 2010.06.03 11:33:40.
