data_PCOD9147444
_publ_section_title
;
Structure prediction by ZEFSAII (Michael W. Deem and Ramdas Pophale) SiO2 
 PCOD9147444
Probable space group: P 2/M
;
_chemical_formula_sum "Si O2"
_cell_formula_units_Z 28
_cell_length_a 14.955397
_cell_length_b 7.540523
_cell_length_c 22.364739
_cell_angle_alpha 90.000000
_cell_angle_beta 150.098916
_cell_angle_gamma 90.000000
_cell_volume 1257.280036
_symmetry_space_group_name_H-M "P 2/M"
_symmetry_group_IT_number 10
_symmetry_cell_setting 'monoclinic'
loop_
_space_group_symop_operation_xyz
x,y,z
-x,y,-z
-x,-y,-z
x,-y,z
loop_
_atom_site_type_symbol
_atom_site_label
_atom_site_fract_x
_atom_site_fract_y
_atom_site_fract_z
Si Si1 0.763364 0.713837 0.617511
Si Si2 0.996844 0.792398 0.348291
Si Si3 0.547997 0.702196 0.846805
Si Si4 0.207653 0.717270 0.117475
Si Si5 0.184366 0.212705 0.571028
Si Si6 0.601051 0.206260 0.115361
Si Si7 0.383487 0.716135 0.343072
O O1 0.763873 0.500000 0.617518
O O2 0.583419 0.772729 0.477959
O O3 0.743029 0.769919 0.674557
O O4 0.932856 0.774990 0.678011
O O5 0.798593 0.714973 0.241010
O O6 0.142688 0.721028 0.479883
O O7 0.986436 0.000000 0.358672
O O8 0.599944 0.500000 0.889479
O O9 0.693424 0.778916 0.885298
O O10 0.358337 0.705501 0.701990
O O11 0.513884 0.787933 0.891087
O O12 0.214208 0.500000 0.120822
O O13 0.313883 0.775881 0.238488
O O14 0.000000 0.768700 0.000000
O O15 0.000000 0.246795 0.500000
O O16 0.216180 0.000000 0.591371
O O17 0.635122 0.000000 0.120085
O O18 0.500000 0.286085 0.000000
O O19 0.384989 0.500000 0.343029
#
# Coordination Sequence:
#
# PCOD9147444 Si02
#       7
#     4   4   4   4   4   4   4
#     4   9  17  30  52  77 102 135 171 216 267 315
#     4  10  20  34  53  79 106 138 180 222 265 320
#     4  11  22  35  57  88 114 137 178 237 282 315
#     4   9  18  32  50  74 107 144 176 212 268 331
#     4  10  19  35  57  78 108 148 184 217 266 336
#     4  10  22  41  59  73 103 152 190 215 262 334
#     4   8  15  30  49  71 101 137 176 210 256 324
#
# _framework density 22.270296999999999
#
# number of rings (size 3 to 8) (size 9 to 14) (size 15 to 20)
#    0.000    2.429    1.429    2.143    0.000    4.000 
#    0.000    2.857    0.000    3.429    0.000    0.000 
#    0.000    0.000    0.000    0.000    0.000    0.000 
#
# Total GULP energy -156365.916080 kJ/mol
# GULP energy per Si atom -5584.497003 kJ/mol
# Density = 2.221961 g / cm^3
# Si number density = 22.270297 Si / 1000 Ang^3
#
#
#
# Elastic Constant Matrix: (Units=GPa)
#
#
# Indices 1 2 3 4 5 6 
#
# 1 145.7078 -11.3881 49.0594 0.0000 -3.4470 0.0000
# 2 -11.3881 49.0250 -0.2923 0.0000 -0.2119 0.0000
# 3 49.0594 -0.2923 79.4622 0.0000 -15.1570 0.0000
# 4 0.0000 0.0000 0.0000 -1.2599 0.0000 -0.6315
# 5 -3.4470 -0.2119 -15.1570 0.0000 31.0807 0.0000
# 6 0.0000 0.0000 0.0000 -0.6315 0.0000 21.1725
#
#
#
# Elastic Compliance Matrix: (Units=1/GPa)
#
#
# Indices 1 2 3 4 5 6 
#
# 1 0.008957 0.002038 -0.005877 0.000000 -0.001859 0.000000
# 2 0.002038 0.020863 -0.001225 0.000000 -0.000229 0.000000
# 3 -0.005877 -0.001225 0.017732 0.000000 0.007987 0.000000
# 4 0.000000 0.000000 0.000000 -0.781997 0.000000 -0.023326
# 5 -0.001859 -0.000229 0.007987 0.000000 0.035862 0.000000
# 6 0.000000 0.000000 0.000000 -0.023326 0.000000 0.046535
#
#
# Mechanical properties :
#
#
# Convention : Reuss Voigt Hill
#
# Bulk Modulus (GPa) = 26.72150 38.77254 32.74702
# Shear Modulus (GPa) = -7.94352 25.98638 9.02143
#
# Velocity S-wave (km/s) = -1.89066 3.41964 2.01486
# Velocity P-wave (km/s) = 2.69418 5.74802 4.48878
#
# Compressibility (1/GPa) = 0.03742305
#
# Stress axis : x y z
#
# Youngs Moduli (GPa) = 111.64267 47.93221 56.39483
#
# Poissons Ratio (x) = -0.09767 0.33144
# Poissons Ratio (y) = -0.22748 0.06908
# Poissons Ratio (z) = 0.65614 0.05872
#
# Static dielectric constant tensor:
#      x y z
#    x 1.811120 0.000000 -0.011000 
#    y 0.000000 1.833740 0.000000 
#    z -0.011000 0.000000 1.809890 
# 
# From -- ./inp_files/63384.got.cif
#   From: 2010.05.17/outbox.cif.g08.bks.cpg/sg10_32_cif.got.tgz:63384.got - 2010.06.03 11:33:40.
