data_PCOD9147575
_publ_section_title
;
Structure prediction by ZEFSAII (Michael W. Deem and Ramdas Pophale) SiO2 
 PCOD9147575
Probable space group: P 2/M
;
_chemical_formula_sum "Si O2"
_cell_formula_units_Z 32
_cell_length_a 23.365568
_cell_length_b 15.816274
_cell_length_c 9.116350
_cell_angle_alpha 90.000000
_cell_angle_beta 149.602406
_cell_angle_gamma 90.000000
_cell_volume 1704.707700
_symmetry_space_group_name_H-M "P 2/M"
_symmetry_group_IT_number 10
_symmetry_cell_setting 'monoclinic'
loop_
_space_group_symop_operation_xyz
x,y,z
-x,y,-z
-x,-y,-z
x,-y,z
loop_
_atom_site_type_symbol
_atom_site_label
_atom_site_fract_x
_atom_site_fract_y
_atom_site_fract_z
Si Si1 0.065887 0.908309 0.300215
Si Si2 0.402518 0.748005 0.186847
Si Si3 0.981787 0.593577 0.136168
Si Si4 0.674488 0.903078 0.782952
Si Si5 0.215750 0.291599 0.298063
Si Si6 0.440468 0.198007 0.721776
Si Si7 0.173180 0.727610 0.552600
Si Si8 0.092570 0.843459 0.816216
O O1 0.142122 0.826525 0.497374
O O2 0.973852 0.907028 0.225418
O O3 0.124279 0.000000 0.425032
O O4 0.000000 0.896574 0.000000
O O5 0.500000 0.704519 0.500000
O O6 0.373336 0.835723 0.206286
O O7 0.461155 0.765264 0.162304
O O8 0.282746 0.705508 0.890942
O O9 0.006399 0.500000 0.249746
O O10 0.069564 0.667840 0.371022
O O11 0.853211 0.622177 0.886217
O O12 0.000000 0.589434 0.000000
O O13 0.618804 0.875038 0.504922
O O14 0.651036 0.000000 0.767660
O O15 0.807694 0.887062 0.054673
O O16 0.345712 0.269815 0.547169
O O17 0.198491 0.281429 0.434759
O O18 0.148342 0.223427 0.050416
O O19 0.500000 0.166730 0.000000
O O20 0.000000 0.806177 0.500000
#
# Coordination Sequence:
#
# PCOD9147575 Si02
#       8
#     4   4   4   4   4   4   4   4
#     4  11  21  33  52  83 119 155 196 238 287 346
#     4  10  22  37  57  81 106 152 202 239 282 340
#     4   9  18  33  60  95 121 145 180 230 295 356
#     4  10  23  38  52  77 112 152 201 253 291 336
#     4  10  19  35  59  84 117 146 187 235 286 344
#     4  10  20  37  58  81 105 150 200 237 292 340
#     4  11  18  35  60  84 118 151 186 237 289 341
#     4  11  21  35  53  80 115 155 191 232 291 349
#
# _framework density 18.771545
#
# number of rings (size 3 to 8) (size 9 to 14) (size 15 to 20)
#    0.000    1.750    3.750    1.500    0.000    5.000 
#    0.000    0.000    0.000    1.875    0.000    0.000 
#    0.000    0.000    0.000    0.000    0.000    0.000 
#
# Total GULP energy -178339.805734 kJ/mol
# GULP energy per Si atom -5573.118929 kJ/mol
# Density = 1.872882 g / cm^3
# Si number density = 18.771545 Si / 1000 Ang^3
#
#
#
# Elastic Constant Matrix: (Units=GPa)
#
#
# Indices 1 2 3 4 5 6 
#
# 1 82.4954 12.5474 22.8190 0.0000 6.5897 0.0000
# 2 12.5474 72.2477 29.9836 0.0000 5.1380 0.0000
# 3 22.8190 29.9836 116.0704 0.0000 2.3838 0.0000
# 4 0.0000 0.0000 0.0000 0.4633 0.0000 2.9489
# 5 6.5897 5.1380 2.3838 0.0000 31.8959 0.0000
# 6 0.0000 0.0000 0.0000 2.9489 0.0000 8.6532
#
#
#
# Elastic Compliance Matrix: (Units=1/GPa)
#
#
# Indices 1 2 3 4 5 6 
#
# 1 0.013105 -0.001187 -0.002221 0.000000 -0.002350 0.000000
# 2 -0.001187 0.015767 -0.003798 0.000000 -0.002011 0.000000
# 3 -0.002221 -0.003798 0.010027 0.000000 0.000321 0.000000
# 4 0.000000 0.000000 0.000000 -1.846248 0.000000 0.629174
# 5 -0.002350 -0.002011 0.000321 0.000000 0.032137 0.000000
# 6 0.000000 0.000000 0.000000 0.629174 0.000000 -0.098848
#
#
# Mechanical properties :
#
#
# Convention : Reuss Voigt Hill
#
# Bulk Modulus (GPa) = 40.84137 44.61258 42.72698
# Shear Modulus (GPa) = -2.70053 21.90004 9.59975
#
# Velocity S-wave (km/s) = -1.20073 3.41935 2.26387
# Velocity P-wave (km/s) = 4.45892 6.27749 5.44467
#
# Compressibility (1/GPa) = 0.02448497
#
# Stress axis : x y z
#
# Youngs Moduli (GPa) = 76.30896 63.42475 99.73304
#
# Poissons Ratio (x) = 0.07527 0.22155
# Poissons Ratio (y) = 0.09057 0.37881
# Poissons Ratio (z) = 0.16952 0.24090
#
# Static dielectric constant tensor:
#      x y z
#    x 1.660490 0.000000 -0.003090 
#    y 0.000000 1.637520 0.000000 
#    z -0.003090 0.000000 1.699600 
# 
# From -- ./inp_files/36373.got.cif
#   From: 2010.05.17/outbox.cif.g08.bks.cpg/sg10_19_cif.got.tgz:36373.got - 2010.06.03 11:33:40.
