data_PCOD9147957
_publ_section_title
;
Structure prediction by ZEFSAII (Michael W. Deem and Ramdas Pophale) SiO2 
 PCOD9147957
Probable space group: P 2/M
;
_chemical_formula_sum "Si O2"
_cell_formula_units_Z 26
_cell_length_a 9.096386
_cell_length_b 11.410260
_cell_length_c 26.310785
_cell_angle_alpha 90.000000
_cell_angle_beta 27.205243
_cell_angle_gamma 90.000000
_cell_volume 1248.489225
_symmetry_space_group_name_H-M "P 2/M"
_symmetry_group_IT_number 10
_symmetry_cell_setting 'monoclinic'
loop_
_space_group_symop_operation_xyz
x,y,z
-x,y,-z
-x,-y,-z
x,-y,z
loop_
_atom_site_type_symbol
_atom_site_label
_atom_site_fract_x
_atom_site_fract_y
_atom_site_fract_z
Si Si1 0.587130 0.701134 0.664223
Si Si2 0.984758 0.131638 0.187172
Si Si3 0.299389 0.500000 0.301057
Si Si4 0.078360 0.131378 0.045657
Si Si5 0.700782 0.862940 0.712362
Si Si6 0.638379 0.500000 0.565898
Si Si7 0.667307 0.753650 0.829010
Si Si8 0.092652 0.500000 0.248039
O O1 0.295368 0.774363 0.731641
O O2 0.516974 0.612110 0.732650
O O3 0.802346 0.797131 0.628764
O O4 0.669635 0.613290 0.592889
O O5 0.170071 0.141192 0.076770
O O6 0.184672 0.157581 0.175630
O O7 0.851384 0.000000 0.229579
O O8 0.226810 0.500000 0.264413
O O9 0.943019 0.500000 0.435456
O O10 0.691500 0.139343 0.165534
O O11 0.162878 0.000000 0.001482
O O12 0.285401 0.224078 0.950765
O O13 0.795231 0.790806 0.733916
O O14 0.796657 0.000000 0.684531
O O15 0.292564 0.500000 0.643888
O O16 0.769294 0.623400 0.814166
#
# Coordination Sequence:
#
# PCOD9147957 Si02
#       8
#     4   4   2   4   4   2   4   2
#     4  10  19  37  61  93 115 140 194 236 285 342
#     4  10  20  35  60  88 122 158 194 238 283 336
#     4  11  23  43  68  86 107 149 194 240 287 354
#     4   9  19  35  56  85 115 159 208 238 270 332
#     4  10  20  35  60  88 122 158 194 238 283 336
#     4  11  23  43  68  86 107 149 194 240 287 354
#     4  12  21  36  55  83 123 157 205 241 281 333
#     4  12  25  42  58  92 112 150 190 242 297 344
#
# _framework density 20.82517
#
# number of rings (size 3 to 8) (size 9 to 14) (size 15 to 20)
#    0.000    1.538    3.077    4.846    0.000    2.462 
#    0.000    9.231    0.000    7.385    0.000    2.154 
#    0.000    0.000    0.000    0.000    0.000    0.000 
#
# Total GULP energy -144920.105653 kJ/mol
# GULP energy per Si atom -5573.850217 kJ/mol
# Density = 2.077777 g / cm^3
# Si number density = 20.825170 Si / 1000 Ang^3
#
#
#
# Elastic Constant Matrix: (Units=GPa)
#
#
# Indices 1 2 3 4 5 6 
#
# 1 91.7015 -2.7977 -2.9857 0.0000 -5.7159 0.0000
# 2 -2.7977 129.9133 26.3704 0.0000 -9.0296 0.0000
# 3 -2.9857 26.3704 34.3116 0.0000 -6.3297 0.0000
# 4 0.0000 0.0000 0.0000 8.7031 0.0000 3.2410
# 5 -5.7159 -9.0296 -6.3297 0.0000 28.2406 0.0000
# 6 0.0000 0.0000 0.0000 3.2410 0.0000 62.1312
#
#
#
# Elastic Compliance Matrix: (Units=1/GPa)
#
#
# Indices 1 2 3 4 5 6 
#
# 1 0.011115 0.000150 0.001331 0.000000 0.002596 0.000000
# 2 0.000150 0.009176 -0.006772 0.000000 0.001446 0.000000
# 3 0.001331 -0.006772 0.035587 0.000000 0.006080 0.000000
# 4 0.000000 0.000000 0.000000 0.117178 0.000000 -0.006112
# 5 0.002596 0.001446 0.006080 0.000000 0.037761 0.000000
# 6 0.000000 0.000000 0.000000 -0.006112 0.000000 0.016414
#
#
# Mechanical properties :
#
#
# Convention : Reuss Voigt Hill
#
# Bulk Modulus (GPa) = 22.07790 33.01117 27.54454
# Shear Modulus (GPa) = 19.76973 35.50426 27.63700
#
# Velocity S-wave (km/s) = 3.08444 4.13349 3.64688
# Velocity P-wave (km/s) = 4.82800 6.21828 5.56671
#
# Compressibility (1/GPa) = 0.04529416
#
# Stress axis : x y z
#
# Youngs Moduli (GPa) = 89.97138 108.98153 28.10009
#
# Poissons Ratio (x) = -0.01630 -0.03740
# Poissons Ratio (y) = -0.01346 0.19030
# Poissons Ratio (z) = -0.11976 0.73806
#
# Static dielectric constant tensor:
#      x y z
#    x 1.796540 0.000000 0.019550 
#    y 0.000000 1.773080 0.000000 
#    z 0.019550 0.000000 1.772790 
# 
# From -- ./inp_files/92283.got.cif
#   From: 2010.05.17/outbox.cif.g08.bks.cpg/sg10_47_cif.got.tgz:92283.got - 2010.06.03 11:33:40.
