data_PCOD9147344
_publ_section_title
;
Structure prediction by ZEFSAII (Michael W. Deem and Ramdas Pophale) SiO2 
 PCOD9147344
Probable space group: P 2/M
;
_chemical_formula_sum "Si O2"
_cell_formula_units_Z 32
_cell_length_a 7.978450
_cell_length_b 14.924981
_cell_length_c 11.378856
_cell_angle_alpha 90.000000
_cell_angle_beta 89.301548
_cell_angle_gamma 90.000000
_cell_volume 1354.873182
_symmetry_space_group_name_H-M "P 2/M"
_symmetry_group_IT_number 10
_symmetry_cell_setting 'monoclinic'
loop_
_space_group_symop_operation_xyz
x,y,z
-x,y,-z
-x,-y,-z
x,-y,z
loop_
_atom_site_type_symbol
_atom_site_label
_atom_site_fract_x
_atom_site_fract_y
_atom_site_fract_z
Si Si1 0.308572 0.894171 0.959914
Si Si2 0.789490 0.798114 0.810056
Si Si3 0.640240 0.604275 0.870516
Si Si4 0.834946 0.401337 0.085307
Si Si5 0.609375 0.402243 0.616633
Si Si6 0.167294 0.227437 0.760750
Si Si7 0.362857 0.894602 0.398712
Si Si8 0.813690 0.750490 0.498253
O O1 0.266344 0.842517 0.840595
O O2 0.278804 0.000000 0.948470
O O3 0.500000 0.879860 0.000000
O O4 0.202562 0.850534 0.066411
O O5 0.744380 0.695180 0.840194
O O6 0.649840 0.845644 0.727898
O O7 0.974009 0.804000 0.751720
O O8 0.706564 0.500000 0.863575
O O9 0.530725 0.604720 0.749177
O O10 0.660101 0.610442 0.013989
O O11 0.833587 0.500000 0.139341
O O12 0.845118 0.320704 0.172505
O O13 0.000000 0.397318 0.000000
O O14 0.500000 0.405918 0.500000
O O15 0.700072 0.500000 0.616001
O O16 0.715306 0.313785 0.587420
O O17 0.247836 0.247631 0.634561
O O18 0.500000 0.873283 0.500000
O O19 0.199401 0.852956 0.461129
O O20 0.366455 0.000000 0.379387
O O21 0.000000 0.715542 0.500000
#
# Coordination Sequence:
#
# PCOD9147344 Si02
#       8
#     4   4   4   4   4   4   4   4
#     4  11  27  46  66  95 127 168 220 277 338 397
#     4  12  22  44  71  98 131 168 218 272 329 396
#     4  10  19  34  65  98 128 167 214 265 318 383
#     4  10  19  35  61  93 126 165 213 260 312 379
#     4  10  22  41  66  95 130 177 226 272 329 396
#     4  12  24  41  66  98 132 171 217 268 335 393
#     4  11  26  46  70  96 126 175 226 273 334 405
#     4  12  25  43  63  97 135 170 215 277 337 393
#
# _framework density 23.618448000000001
#
# number of rings (size 3 to 8) (size 9 to 14) (size 15 to 20)
#    0.000    1.000    5.000    1.125    1.750    3.000 
#    0.000    0.000    0.000    1.500    0.000    0.000 
#    0.000    0.000    0.000    0.000    0.000    0.000 
#
# Total GULP energy -178249.430631 kJ/mol
# GULP energy per Si atom -5570.294707 kJ/mol
# Density = 2.356469 g / cm^3
# Si number density = 23.618448 Si / 1000 Ang^3
#
#
#
# Elastic Constant Matrix: (Units=GPa)
#
#
# Indices 1 2 3 4 5 6 
#
# 1 167.2747 86.7926 101.9836 0.0000 -5.2937 0.0000
# 2 86.7926 157.8503 98.0912 0.0000 3.7505 0.0000
# 3 101.9836 98.0912 239.3568 0.0000 7.3311 0.0000
# 4 0.0000 0.0000 0.0000 11.4629 0.0000 3.0433
# 5 -5.2937 3.7505 7.3311 0.0000 41.4230 0.0000
# 6 0.0000 0.0000 0.0000 3.0433 0.0000 5.4450
#
#
#
# Elastic Compliance Matrix: (Units=1/GPa)
#
#
# Indices 1 2 3 4 5 6 
#
# 1 0.009544 -0.003663 -0.002627 0.000000 0.002016 0.000000
# 2 -0.003663 0.009907 -0.002471 0.000000 -0.000928 0.000000
# 3 -0.002627 -0.002471 0.006348 0.000000 -0.001235 0.000000
# 4 0.000000 0.000000 0.000000 0.102438 0.000000 -0.057254
# 5 0.002016 -0.000928 -0.001235 0.000000 0.024702 0.000000
# 6 0.000000 0.000000 0.000000 -0.057254 0.000000 0.215655
#
#
# Mechanical properties :
#
#
# Convention : Reuss Voigt Hill
#
# Bulk Modulus (GPa) = 120.82284 126.46851 123.64567
# Shear Modulus (GPa) = 12.85764 30.17381 21.51572
#
# Velocity S-wave (km/s) = 2.33575 3.57816 3.02150
# Velocity P-wave (km/s) = 7.65124 8.41034 8.03975
#
# Compressibility (1/GPa) = 0.00827658
#
# Stress axis : x y z
#
# Youngs Moduli (GPa) = 104.77293 100.94203 157.54119
#
# Poissons Ratio (x) = 0.36978 0.41388
# Poissons Ratio (y) = 0.38381 0.38923
# Poissons Ratio (z) = 0.27525 0.24939
#
# Static dielectric constant tensor:
#      x y z
#    x 2.111440 0.000000 -0.074510 
#    y 0.000000 1.831880 0.000000 
#    z -0.074510 0.000000 2.006620 
# 
# From -- ./inp_files/42970.got.cif
#   From: 2010.05.17/outbox.cif.g08.bks.cpg/sg10_22_cif.got.tgz:42970.got - 2010.06.03 11:33:40.
