data_PCOD9147415
_publ_section_title
;
Structure prediction by ZEFSAII (Michael W. Deem and Ramdas Pophale) SiO2 
 PCOD9147415
Probable space group: P 2/M
;
_chemical_formula_sum "Si O2"
_cell_formula_units_Z 32
_cell_length_a 21.502567
_cell_length_b 7.602414
_cell_length_c 26.881161
_cell_angle_alpha 90.000000
_cell_angle_beta 159.200005
_cell_angle_gamma 90.000000
_cell_volume 1560.446686
_symmetry_space_group_name_H-M "P 2/M"
_symmetry_group_IT_number 10
_symmetry_cell_setting 'monoclinic'
loop_
_space_group_symop_operation_xyz
x,y,z
-x,y,-z
-x,-y,-z
x,-y,z
loop_
_atom_site_type_symbol
_atom_site_label
_atom_site_fract_x
_atom_site_fract_y
_atom_site_fract_z
Si Si1 0.539420 0.793991 0.856396
Si Si2 0.532654 0.294295 0.579459
Si Si3 0.153366 0.784382 0.841774
Si Si4 0.190951 0.795788 0.132265
Si Si5 0.702875 0.212882 0.156853
Si Si6 0.242134 0.787027 0.441129
Si Si7 0.521981 0.784160 0.730646
Si Si8 0.809532 0.703192 0.346578
O O1 0.526731 0.721901 0.790958
O O2 0.355772 0.782052 0.748072
O O3 0.580042 0.000000 0.880685
O O4 0.695351 0.721521 0.007547
O O5 0.500000 0.221380 0.500000
O O6 0.576660 0.500000 0.607587
O O7 0.688207 0.211660 0.728273
O O8 0.357420 0.274676 0.480970
O O9 0.198431 0.731076 0.819206
O O10 0.958056 0.728145 0.709638
O O11 0.157184 0.000000 0.844814
O O12 0.311605 0.723150 0.177809
O O13 0.161717 0.000000 0.097028
O O14 0.000000 0.716606 0.000000
O O15 0.776962 0.284383 0.263518
O O16 0.710369 0.000000 0.165531
O O17 0.500000 0.262901 0.000000
O O18 0.348156 0.732368 0.570031
O O19 0.242655 0.000000 0.440638
O O20 0.522569 0.000000 0.730871
O O21 0.814034 0.500000 0.365745
O O22 0.000000 0.782922 0.500000
#
# Coordination Sequence:
#
# PCOD9147415 Si02
#       8
#     4   4   4   4   4   4   4   4
#     4  10  19  35  56  78 106 139 176 221 268 316
#     4  10  21  36  53  77 111 148 185 222 259 312
#     4   9  18  32  54  84 109 131 169 222 269 316
#     4   9  18  34  57  85 111 138 178 224 272 323
#     4  10  19  36  60  84 107 135 177 223 270 325
#     4   9  18  34  54  78 107 139 177 221 268 316
#     4   8  16  30  51  78 106 135 170 214 263 313
#     4  11  25  40  52  75 110 144 182 225 267 316
#
# _framework density 20.506948999999999
#
# number of rings (size 3 to 8) (size 9 to 14) (size 15 to 20)
#    0.000    2.500    1.250    1.500    1.750    3.500 
#    0.000    6.250    0.000    0.000    0.000    0.000 
#    0.000    0.000    0.000    0.000    0.000    0.000 
#
# Total GULP energy -178591.703424 kJ/mol
# GULP energy per Si atom -5580.990732 kJ/mol
# Density = 2.046027 g / cm^3
# Si number density = 20.506949 Si / 1000 Ang^3
#
#
#
# Elastic Constant Matrix: (Units=GPa)
#
#
# Indices 1 2 3 4 5 6 
#
# 1 160.4497 -9.4771 95.0976 0.0000 -17.5818 0.0000
# 2 -9.4771 38.5646 -7.2037 0.0000 0.2577 0.0000
# 3 95.0976 -7.2037 167.0762 0.0000 11.2862 0.0000
# 4 0.0000 0.0000 0.0000 244.1254 0.0000 -175.0045
# 5 -17.5818 0.2577 11.2862 0.0000 28.8697 0.0000
# 6 0.0000 0.0000 0.0000 -175.0045 0.0000 60.4247
#
#
#
# Elastic Compliance Matrix: (Units=1/GPa)
#
#
# Indices 1 2 3 4 5 6 
#
# 1 0.011733 0.001455 -0.007290 0.000000 0.009982 0.000000
# 2 0.001455 0.026335 0.000271 0.000000 0.000545 0.000000
# 3 -0.007290 0.000271 0.010730 0.000000 -0.008636 0.000000
# 4 0.000000 0.000000 0.000000 -0.003806 0.000000 -0.011024
# 5 0.009982 0.000545 -0.008636 0.000000 0.044089 0.000000
# 6 0.000000 0.000000 0.000000 -0.011024 0.000000 -0.015378
#
#
# Mechanical properties :
#
#
# Convention : Reuss Voigt Hill
#
# Bulk Modulus (GPa) = 26.54722 58.10267 42.32494
# Shear Modulus (GPa) = 51.34134 85.86222 68.60178
#
# Velocity S-wave (km/s) = 5.00903 6.47771 5.79013
# Velocity P-wave (km/s) = 6.81377 9.18381 8.08609
#
# Compressibility (1/GPa) = 0.03766873
#
# Stress axis : x y z
#
# Youngs Moduli (GPa) = 85.23082 37.97237 93.20013
#
# Poissons Ratio (x) = -0.05525 0.67941
# Poissons Ratio (y) = -0.12400 -0.02521
# Poissons Ratio (z) = 0.62131 -0.01027
#
# Static dielectric constant tensor:
#      x y z
#    x 1.712160 0.000000 -0.003140 
#    y 0.000000 1.776480 0.000000 
#    z -0.003140 0.000000 1.712030 
# 
# From -- ./inp_files/93781.got.cif
#   From: 2010.05.17/outbox.cif.g08.bks.cpg/sg10_47_cif.got.tgz:93781.got - 2010.06.03 11:33:40.
