data_PCOD9147837
_publ_section_title
;
Structure prediction by ZEFSAII (Michael W. Deem and Ramdas Pophale) SiO2 
 PCOD9147837
Probable space group: P 2/M
;
_chemical_formula_sum "Si O2"
_cell_formula_units_Z 28
_cell_length_a 21.300855
_cell_length_b 9.346295
_cell_length_c 9.749616
_cell_angle_alpha 90.000000
_cell_angle_beta 125.313943
_cell_angle_gamma 90.000000
_cell_volume 1583.844583
_symmetry_space_group_name_H-M "P 2/M"
_symmetry_group_IT_number 10
_symmetry_cell_setting 'monoclinic'
loop_
_space_group_symop_operation_xyz
x,y,z
-x,y,-z
-x,-y,-z
x,-y,z
loop_
_atom_site_type_symbol
_atom_site_label
_atom_site_fract_x
_atom_site_fract_y
_atom_site_fract_z
Si Si1 0.801881 0.166747 0.546922
Si Si2 0.052055 0.333636 0.199452
Si Si3 0.043134 0.836719 0.699842
Si Si4 0.365171 0.328457 0.983784
Si Si5 0.513366 0.169368 0.677371
Si Si6 0.793537 0.831679 0.211558
Si Si7 0.373048 0.829867 0.707784
O O1 0.865766 0.256439 0.705372
O O2 0.815549 0.182049 0.400228
O O3 0.712583 0.207214 0.453585
O O4 0.810607 0.000000 0.592724
O O5 0.065461 0.500000 0.242031
O O6 0.002876 0.265281 0.259004
O O7 0.000000 0.316235 0.000000
O O8 0.131824 0.797578 0.784306
O O9 0.000000 0.836821 0.500000
O O10 0.040525 0.000000 0.749829
O O11 0.366843 0.500000 0.980115
O O12 0.421678 0.265524 0.170210
O O13 0.279644 0.267962 0.904741
O O14 0.388230 0.260018 0.864953
O O15 0.500000 0.201081 0.500000
O O16 0.436513 0.190738 0.671260
O O17 0.533848 0.000000 0.713888
O O18 0.773510 0.000000 0.165696
O O19 0.371583 0.000000 0.742718
#
# Coordination Sequence:
#
# PCOD9147837 Si02
#       7
#     4   4   4   4   4   4   4
#     4   9  17  34  58  81 107 139 186 237 276 320
#     4  11  24  38  51  76 117 156 187 222 273 335
#     4  10  19  36  61  85 107 138 187 239 279 319
#     4  11  22  35  56  86 118 148 182 223 271 333
#     4  10  21  39  61  83 112 147 186 230 277 326
#     4   9  18  35  59  85 111 139 181 236 281 321
#     4   9  19  37  61  85 108 141 185 234 278 322
#
# _framework density 17.678501000000001
#
# number of rings (size 3 to 8) (size 9 to 14) (size 15 to 20)
#    0.000    2.143    1.429    3.000    0.000    6.857 
#    2.571    0.000    0.000    0.000    0.000    0.000 
#    0.000    0.000    0.000    0.000    0.000    0.000 
#
# Total GULP energy -156264.953505 kJ/mol
# GULP energy per Si atom -5580.891197 kJ/mol
# Density = 1.763826 g / cm^3
# Si number density = 17.678501 Si / 1000 Ang^3
#
#
#
# Elastic Constant Matrix: (Units=GPa)
#
#
# Indices 1 2 3 4 5 6 
#
# 1 68.1112 52.8934 78.3448 0.0000 15.1130 0.0000
# 2 52.8934 97.6596 82.5935 0.0000 12.8664 0.0000
# 3 78.3448 82.5935 7.6756 0.0000 6.1751 0.0000
# 4 0.0000 0.0000 0.0000 10.8833 0.0000 -12.3985
# 5 15.1130 12.8664 6.1751 0.0000 17.5120 0.0000
# 6 0.0000 0.0000 0.0000 -12.3985 0.0000 -0.9526
#
#
#
# Elastic Compliance Matrix: (Units=1/GPa)
#
#
# Indices 1 2 3 4 5 6 
#
# 1 0.017955 -0.017512 0.010177 0.000000 -0.006217 0.000000
# 2 -0.017512 0.016100 0.003993 0.000000 0.001876 0.000000
# 3 0.010177 0.003993 -0.009961 0.000000 -0.008204 0.000000
# 4 0.000000 0.000000 0.000000 0.005806 0.000000 -0.075559
# 5 -0.006217 0.001876 -0.008204 0.000000 0.063984 0.000000
# 6 0.000000 0.000000 0.000000 -0.075559 0.000000 -0.066325
#
#
# Mechanical properties :
#
#
# Convention : Reuss Voigt Hill
#
# Bulk Modulus (GPa) = 57.43915 66.79001 62.11458
# Shear Modulus (GPa) = 124.85353 2.79619 63.82486
#
# Velocity S-wave (km/s) = 8.41296 1.25902 6.01510
# Velocity P-wave (km/s) = 11.26641 6.32265 9.13531
#
# Compressibility (1/GPa) = 0.01740973
#
# Stress axis : x y z
#
# Youngs Moduli (GPa) = 55.69414 62.11081 -100.39265
#
# Poissons Ratio (x) = 1.08772 1.02168
# Poissons Ratio (y) = 0.97534 0.40089
# Poissons Ratio (z) = -0.56679 -0.24802
#
# Static dielectric constant tensor:
#      x y z
#    x 1.599760 0.000000 0.013480 
#    y 0.000000 1.590250 0.000000 
#    z 0.013480 0.000000 1.590440 
# 
# From -- ./inp_files/34270.got.cif
#   From: 2010.05.17/outbox.cif.g08.bks.cpg/sg10_18_cif.got.tgz:34270.got - 2010.06.03 11:33:40.
