data_PCOD9147063
_publ_section_title
;
Structure prediction by ZEFSAII (Michael W. Deem and Ramdas Pophale) SiO2 
 PCOD9147063
Probable space group: P 2/M
;
_chemical_formula_sum "Si O2"
_cell_formula_units_Z 20
_cell_length_a 8.375449
_cell_length_b 11.648193
_cell_length_c 10.678308
_cell_angle_alpha 90.000000
_cell_angle_beta 119.999640
_cell_angle_gamma 90.000000
_cell_volume 902.196851
_symmetry_space_group_name_H-M "P 2/M"
_symmetry_group_IT_number 10
_symmetry_cell_setting 'monoclinic'
loop_
_space_group_symop_operation_xyz
x,y,z
-x,y,-z
-x,-y,-z
x,-y,z
loop_
_atom_site_type_symbol
_atom_site_label
_atom_site_fract_x
_atom_site_fract_y
_atom_site_fract_z
Si Si1 0.762383 0.000000 0.023769
Si Si2 0.722392 0.240027 0.592936
Si Si3 0.721479 0.369107 0.837883
Si Si4 0.270323 0.634586 0.656029
Si Si5 0.806587 0.000000 0.755021
Si Si6 0.289016 0.747336 0.917526
O O1 0.704490 0.884298 0.071427
O O2 0.981785 0.000000 0.122993
O O3 0.705577 0.000000 0.853047
O O4 0.500000 0.244789 0.500000
O O5 0.786605 0.320974 0.731315
O O6 0.788759 0.290334 0.486801
O O7 0.768964 0.111928 0.656520
O O8 0.773055 0.500000 0.876805
O O9 0.496225 0.363059 0.744626
O O10 0.791039 0.295567 0.982410
O O11 0.218478 0.500000 0.627961
O O12 0.206002 0.694329 0.759450
O O13 0.500000 0.704308 0.000000
#
# Coordination Sequence:
#
# PCOD9147063 Si02
#       6
#     2   4   4   4   2   4
#     4  11  23  39  57  77 108 147 190 232 266 311
#     4  10  19  34  56  83 112 142 181 224 268 322
#     4   9  16  29  53  82 112 143 178 221 268 319
#     4   9  18  31  53  86 114 137 170 223 280 323
#     4  11  23  39  57  77 108 147 190 232 266 311
#     4  10  19  34  56  83 112 142 181 224 268 322
#
# _framework density 22.168111
#
# number of rings (size 3 to 8) (size 9 to 14) (size 15 to 20)
#    0.000    2.200    2.000    1.800    0.000    5.600 
#    0.000    2.000    0.000    7.200    0.000    0.000 
#    0.000    0.000    0.000    0.000    0.000    0.000 
#
# Total GULP energy -111712.441268 kJ/mol
# GULP energy per Si atom -5585.622063 kJ/mol
# Density = 2.211766 g / cm^3
# Si number density = 22.168111 Si / 1000 Ang^3
#
#
#
# Elastic Constant Matrix: (Units=GPa)
#
#
# Indices 1 2 3 4 5 6 
#
# 1 46.3895 -3.5898 35.1446 0.0000 1.5927 0.0000
# 2 -3.5898 143.2648 82.4547 0.0000 -17.1381 0.0000
# 3 35.1446 82.4547 190.7583 0.0000 -26.4727 0.0000
# 4 0.0000 0.0000 0.0000 373.4942 0.0000 1345.4776
# 5 1.5927 -17.1381 -26.4727 0.0000 27.4286 0.0000
# 6 0.0000 0.0000 0.0000 1345.4776 0.0000 5495.3385
#
#
#
# Elastic Compliance Matrix: (Units=1/GPa)
#
#
# Indices 1 2 3 4 5 6 
#
# 1 0.028282 0.004586 -0.008109 0.000000 -0.006603 0.000000
# 2 0.004586 0.010155 -0.005070 0.000000 0.001186 0.000000
# 3 -0.008109 -0.005070 0.009876 0.000000 0.006835 0.000000
# 4 0.000000 0.000000 0.000000 0.022692 0.000000 -0.005556
# 5 -0.006603 0.001186 0.006835 0.000000 0.044180 0.000000
# 6 0.000000 0.000000 0.000000 -0.005556 0.000000 0.001542
#
#
# Mechanical properties :
#
#
# Convention : Reuss Voigt Hill
#
# Bulk Modulus (GPa) = 32.12690 67.60351 49.86520
# Shear Modulus (GPa) = 34.65295 1197.01247 615.83271
#
# Velocity S-wave (km/s) = 3.95801 23.26247 16.68545
# Velocity P-wave (km/s) = 5.95077 27.42418 19.84310
#
# Compressibility (1/GPa) = 0.03112657
#
# Stress axis : x y z
#
# Youngs Moduli (GPa) = 35.35858 98.47756 101.25430
#
# Poissons Ratio (x) = -0.45160 0.82108
# Poissons Ratio (y) = -0.16215 0.51332
# Poissons Ratio (z) = 0.28673 0.49925
#
# Static dielectric constant tensor:
#      x y z
#    x 1.894630 0.000000 0.014890 
#    y 0.000000 1.768990 0.000000 
#    z 0.014890 0.000000 1.812300 
# 
# From -- ./inp_files/23519.got.cif
#   From: 2010.05.17/outbox.cif.g08.bks.cpg/sg10_12_cif.got.tgz:23519.got - 2010.06.03 11:33:40.
