data_PCOD9147387
_publ_section_title
;
Structure prediction by ZEFSAII (Michael W. Deem and Ramdas Pophale) SiO2 
 PCOD9147387
Probable space group: P 2/M
;
_chemical_formula_sum "Si O2"
_cell_formula_units_Z 32
_cell_length_a 24.285649
_cell_length_b 9.012540
_cell_length_c 17.677086
_cell_angle_alpha 90.000000
_cell_angle_beta 152.609735
_cell_angle_gamma 90.000000
_cell_volume 1779.965645
_symmetry_space_group_name_H-M "P 2/M"
_symmetry_group_IT_number 10
_symmetry_cell_setting 'monoclinic'
loop_
_space_group_symop_operation_xyz
x,y,z
-x,y,-z
-x,-y,-z
x,-y,z
loop_
_atom_site_type_symbol
_atom_site_label
_atom_site_fract_x
_atom_site_fract_y
_atom_site_fract_z
Si Si1 0.355703 0.330098 0.835316
Si Si2 0.302143 0.175894 0.083963
Si Si3 0.798711 0.325430 0.764677
Si Si4 0.893103 0.323485 0.049069
Si Si5 0.517773 0.674275 0.432161
Si Si6 0.864008 0.823775 0.695515
Si Si7 0.653231 0.321377 0.344717
Si Si8 0.607793 0.176006 0.969338
O O1 0.320009 0.500000 0.807185
O O2 0.308752 0.284368 0.695598
O O3 0.500000 0.329746 0.000000
O O4 0.332654 0.229913 0.879891
O O5 0.426786 0.226603 0.274171
O O6 0.313913 0.208253 0.009228
O O7 0.286041 0.000000 0.074536
O O8 0.197007 0.262531 0.997988
O O9 0.822605 0.500000 0.778707
O O10 0.656539 0.299711 0.583074
O O11 0.866783 0.228608 0.786101
O O12 0.835184 0.295659 0.895515
O O13 0.908917 0.500000 0.076049
O O14 0.019750 0.241595 0.203914
O O15 0.500000 0.699204 0.500000
O O16 0.490911 0.500000 0.384830
O O17 0.746441 0.750590 0.515456
O O18 0.859471 0.000000 0.684570
O O19 0.651169 0.500000 0.349299
O O20 0.519704 0.259067 0.194046
O O21 0.585367 0.000000 0.945099
#
# Coordination Sequence:
#
# PCOD9147387 Si02
#       8
#     4   4   4   4   4   4   4   4
#     4   8  16  31  53  81 111 143 179 218 263 318
#     4  11  23  36  52  80 114 146 180 222 273 324
#     4  10  21  38  59  80 105 140 185 229 269 321
#     4  11  23  41  60  76 100 143 191 229 270 319
#     4  10  19  35  55  78 105 140 183 222 265 317
#     4  12  25  38  55  81 110 140 179 227 278 325
#     4  10  20  36  57  82 112 146 183 222 265 318
#     4  10  20  33  53  85 119 147 176 216 271 328
#
# _framework density 17.977875999999998
#
# number of rings (size 3 to 8) (size 9 to 14) (size 15 to 20)
#    0.000    1.750    1.250    4.500    0.000   10.000 
#    0.000    0.000    0.000    0.750    0.000    5.250 
#    0.000    0.000    0.000    0.000    0.000    0.000 
#
# Total GULP energy -178751.842207 kJ/mol
# GULP energy per Si atom -5585.995069 kJ/mol
# Density = 1.793696 g / cm^3
# Si number density = 17.977876 Si / 1000 Ang^3
#
#
#
# Elastic Constant Matrix: (Units=GPa)
#
#
# Indices 1 2 3 4 5 6 
#
# 1 113.1222 71.8070 36.7666 0.0000 -8.9735 0.0000
# 2 71.8070 83.0158 32.5463 0.0000 -4.1238 0.0000
# 3 36.7666 32.5463 35.0861 0.0000 -0.5515 0.0000
# 4 0.0000 0.0000 0.0000 -77.6541 0.0000 3.7125
# 5 -8.9735 -4.1238 -0.5515 0.0000 18.9527 0.0000
# 6 0.0000 0.0000 0.0000 3.7125 0.0000 29.9226
#
#
#
# Elastic Compliance Matrix: (Units=1/GPa)
#
#
# Indices 1 2 3 4 5 6 
#
# 1 0.021798 -0.015093 -0.008734 0.000000 0.006782 0.000000
# 2 -0.015093 0.029631 -0.011687 0.000000 -0.001039 0.000000
# 3 -0.008734 -0.011687 0.048412 0.000000 -0.005269 0.000000
# 4 0.000000 0.000000 0.000000 -0.012802 0.000000 0.001588
# 5 0.006782 -0.001039 -0.005269 0.000000 0.055595 0.000000
# 6 0.000000 0.000000 0.000000 0.001588 0.000000 0.033222
#
#
# Mechanical properties :
#
#
# Convention : Reuss Voigt Hill
#
# Bulk Modulus (GPa) = 34.70730 57.05154 45.87942
# Shear Modulus (GPa) = 19.49406 0.25121 9.87263
#
# Velocity S-wave (km/s) = 3.29650 0.37421 2.34595
# Velocity P-wave (km/s) = 5.81693 5.65596 5.73701
#
# Compressibility (1/GPa) = 0.02881238
#
# Stress axis : x y z
#
# Youngs Moduli (GPa) = 45.87655 33.74794 20.65620
#
# Poissons Ratio (x) = 0.50937 0.18042
# Poissons Ratio (y) = 0.69243 0.24140
# Poissons Ratio (z) = 0.40070 0.39440
#
# Static dielectric constant tensor:
#      x y z
#    x 1.625620 0.000000 -0.015470 
#    y 0.000000 1.596840 0.000000 
#    z -0.015470 0.000000 1.604810 
# 
# From -- ./inp_files/79981.got.cif
#   From: 2010.05.17/outbox.cif.g08.bks.cpg/sg10_40_cif.got.tgz:79981.got - 2010.06.03 11:33:40.
