data_PCOD9147542
_publ_section_title
;
Structure prediction by ZEFSAII (Michael W. Deem and Ramdas Pophale) SiO2 
 PCOD9147542
Probable space group: P 2/M
;
_chemical_formula_sum "Si O2"
_cell_formula_units_Z 26
_cell_length_a 11.543418
_cell_length_b 7.769835
_cell_length_c 16.351375
_cell_angle_alpha 90.000000
_cell_angle_beta 113.060502
_cell_angle_gamma 90.000000
_cell_volume 1349.371804
_symmetry_space_group_name_H-M "P 2/M"
_symmetry_group_IT_number 10
_symmetry_cell_setting 'monoclinic'
loop_
_space_group_symop_operation_xyz
x,y,z
-x,y,-z
-x,-y,-z
x,-y,z
loop_
_atom_site_type_symbol
_atom_site_label
_atom_site_fract_x
_atom_site_fract_y
_atom_site_fract_z
Si Si1 0.026668 0.000000 0.603062
Si Si2 0.785263 0.704878 0.088444
Si Si3 0.517364 0.304866 0.290476
Si Si4 0.836530 0.000000 0.691254
Si Si5 0.252026 0.811692 0.735780
Si Si6 0.301878 0.708118 0.104321
Si Si7 0.463798 0.000000 0.395664
Si Si8 0.921260 0.704342 0.835759
O O1 0.115023 0.160430 0.656723
O O2 0.000000 0.000000 0.500000
O O3 0.899535 0.000000 0.619778
O O4 0.764906 0.500000 0.089013
O O5 0.761905 0.775536 0.172287
O O6 0.931648 0.731679 0.105805
O O7 0.703042 0.773583 0.989987
O O8 0.481173 0.500000 0.305037
O O9 0.654009 0.309481 0.286229
O O10 0.417451 0.241898 0.194062
O O11 0.513498 0.169833 0.362943
O O12 0.687077 0.000000 0.650993
O O13 0.884372 0.830771 0.752290
O O14 0.313217 0.000000 0.743927
O O15 0.308062 0.500000 0.100277
O O16 0.172182 0.748130 0.115656
O O17 0.500000 0.000000 0.500000
O O18 0.904547 0.500000 0.812597
#
# Coordination Sequence:
#
# PCOD9147542 Si02
#       8
#     2   4   4   2   4   4   2   4
#     4  10  23  42  67  88 121 162 203 259 320 374
#     4  10  19  35  58  87 124 167 209 253 301 360
#     4  11  23  44  66  90 127 168 208 256 307 365
#     4  12  22  40  69  92 118 162 197 256 316 366
#     4  10  21  39  61  87 125 158 212 254 305 362
#     4   9  19  35  58  87 123 166 209 249 301 363
#     4  12  27  44  69  96 123 158 205 257 320 378
#     4  10  19  36  59  88 127 163 202 251 305 360
#
# _framework density 19.268225999999999
#
# number of rings (size 3 to 8) (size 9 to 14) (size 15 to 20)
#    0.462    1.231    3.846    0.923    2.154    2.769 
#    2.769    3.846    0.000    2.308    0.000    0.000 
#    0.000    0.000    0.000    0.000    0.000    0.000 
#
# Total GULP energy -145001.466320 kJ/mol
# GULP energy per Si atom -5576.979474 kJ/mol
# Density = 1.922437 g / cm^3
# Si number density = 19.268226 Si / 1000 Ang^3
#
#
#
# Elastic Constant Matrix: (Units=GPa)
#
#
# Indices 1 2 3 4 5 6 
#
# 1 74.0162 15.7942 18.6069 0.0000 -19.2410 0.0000
# 2 15.7942 59.0208 28.9664 0.0000 -2.6468 0.0000
# 3 18.6069 28.9664 115.1125 0.0000 -31.9074 0.0000
# 4 0.0000 0.0000 0.0000 29.2086 0.0000 -8.9703
# 5 -19.2410 -2.6468 -31.9074 0.0000 22.5932 0.0000
# 6 0.0000 0.0000 0.0000 -8.9703 0.0000 33.0772
#
#
#
# Elastic Compliance Matrix: (Units=1/GPa)
#
#
# Indices 1 2 3 4 5 6 
#
# 1 0.019603 -0.006567 0.004762 0.000000 0.022651 0.000000
# 2 -0.006567 0.022351 -0.008853 0.000000 -0.015477 0.000000
# 3 0.004762 -0.008853 0.018046 0.000000 0.028504 0.000000
# 4 0.000000 0.000000 0.000000 0.037347 0.000000 0.010128
# 5 0.022651 -0.015477 0.028504 0.000000 0.101994 0.000000
# 6 0.000000 0.000000 0.000000 0.010128 0.000000 0.032979
#
#
# Mechanical properties :
#
#
# Convention : Reuss Voigt Hill
#
# Bulk Modulus (GPa) = 25.84995 41.65382 33.75188
# Shear Modulus (GPa) = 18.75957 29.29458 24.02708
#
# Velocity S-wave (km/s) = 3.12364 3.90341 3.53509
# Velocity P-wave (km/s) = 5.14339 6.47922 5.84956
#
# Compressibility (1/GPa) = 0.03868480
#
# Stress axis : x y z
#
# Youngs Moduli (GPa) = 51.01259 44.73993 55.41397
#
# Poissons Ratio (x) = 0.29382 -0.26390
# Poissons Ratio (y) = 0.33502 0.49057
# Poissons Ratio (z) = -0.24294 0.39608
#
# Static dielectric constant tensor:
#      x y z
#    x 1.674430 0.000000 0.013590 
#    y 0.000000 1.707210 0.000000 
#    z 0.013590 0.000000 1.658350 
# 
# From -- ./inp_files/63589.got.cif
#   From: 2010.05.17/outbox.cif.g08.bks.cpg/sg10_32_cif.got.tgz:63589.got - 2010.06.03 11:33:40.
