data_PCOD9147926
_publ_section_title
;
Structure prediction by ZEFSAII (Michael W. Deem and Ramdas Pophale) SiO2 
 PCOD9147926
Probable space group: P 2/M
;
_chemical_formula_sum "Si O2"
_cell_formula_units_Z 24
_cell_length_a 11.053392
_cell_length_b 12.795660
_cell_length_c 9.421628
_cell_angle_alpha 90.000000
_cell_angle_beta 97.421704
_cell_angle_gamma 90.000000
_cell_volume 1321.388438
_symmetry_space_group_name_H-M "P 2/M"
_symmetry_group_IT_number 10
_symmetry_cell_setting 'monoclinic'
loop_
_space_group_symop_operation_xyz
x,y,z
-x,y,-z
-x,-y,-z
x,-y,z
loop_
_atom_site_type_symbol
_atom_site_label
_atom_site_fract_x
_atom_site_fract_y
_atom_site_fract_z
Si Si1 0.689273 0.213833 0.728579
Si Si2 0.139172 0.000000 0.578163
Si Si3 0.500000 0.335569 0.500000
Si Si4 0.858237 0.775992 0.515753
Si Si5 0.297971 0.381347 0.691724
Si Si6 0.694581 0.000000 0.157173
Si Si7 0.645162 0.770581 0.035708
Si Si8 0.456574 0.000000 0.328056
O O1 0.596607 0.271147 0.607559
O O2 0.820402 0.226725 0.674070
O O3 0.628188 0.099105 0.722108
O O4 0.693616 0.258012 0.887454
O O5 0.194754 0.109832 0.535976
O O6 0.000000 0.000000 0.500000
O O7 0.172619 0.000000 0.748006
O O8 0.417866 0.388091 0.609349
O O9 0.798088 0.682752 0.418377
O O10 0.000000 0.776410 0.500000
O O11 0.261105 0.500000 0.721547
O O12 0.319905 0.309020 0.833166
O O13 0.682852 0.890147 0.074992
O O14 0.580436 0.000000 0.252068
O O15 0.500000 0.769578 0.000000
O O16 0.500000 0.000000 0.500000
#
# Coordination Sequence:
#
# PCOD9147926 Si02
#       8
#     4   2   2   4   4   2   4   2
#     4  11  21  34  56  89 119 157 194 235 298 353
#     4  10  20  37  64  88 116 156 201 242 293 340
#     4  10  19  37  56  84 120 149 196 244 289 352
#     4  10  22  42  65  85 114 153 206 252 288 342
#     4  11  23  39  61  87 119 157 197 247 297 348
#     4  12  20  35  58  89 128 160 186 241 292 356
#     4  12  22  37  55  90 130 158 189 229 302 368
#     4  12  19  27  54  92 122 150 187 240 291 353
#
# _framework density 18.162713
#
# number of rings (size 3 to 8) (size 9 to 14) (size 15 to 20)
#    0.000    1.000    5.833    2.500    0.000    0.667 
#    0.000    1.667    0.000    3.000    0.000    0.000 
#    0.000    0.000    0.000    0.000    0.000    0.000 
#
# Total GULP energy -133709.269760 kJ/mol
# GULP energy per Si atom -5571.219573 kJ/mol
# Density = 1.812137 g / cm^3
# Si number density = 18.162713 Si / 1000 Ang^3
#
#
#
# Elastic Constant Matrix: (Units=GPa)
#
#
# Indices 1 2 3 4 5 6 
#
# 1 76.1009 17.4957 32.4328 0.0000 -11.3898 0.0000
# 2 17.4957 126.8593 44.7360 0.0000 2.9597 0.0000
# 3 32.4328 44.7360 136.9195 0.0000 -15.6015 0.0000
# 4 0.0000 0.0000 0.0000 -2.9689 0.0000 -1.3855
# 5 -11.3898 2.9597 -15.6015 0.0000 20.4925 0.0000
# 6 0.0000 0.0000 0.0000 -1.3855 0.0000 11.3979
#
#
#
# Elastic Compliance Matrix: (Units=1/GPa)
#
#
# Indices 1 2 3 4 5 6 
#
# 1 0.015553 -0.001460 -0.002407 0.000000 0.007023 0.000000
# 2 -0.001460 0.009330 -0.003229 0.000000 -0.004617 0.000000
# 3 -0.002407 -0.003229 0.009668 0.000000 0.006489 0.000000
# 4 0.000000 0.000000 0.000000 -0.318741 0.000000 -0.038745
# 5 0.007023 -0.004617 0.006489 0.000000 0.058309 0.000000
# 6 0.000000 0.000000 0.000000 -0.038745 0.000000 0.083026
#
#
# Mechanical properties :
#
#
# Convention : Reuss Voigt Hill
#
# Bulk Modulus (GPa) = 49.11581 58.80096 53.95838
# Shear Modulus (GPa) = -41.02500 22.13198 -9.44651
#
# Velocity S-wave (km/s) = -4.75779 3.49454 -2.28305
# Velocity P-wave (km/s) = 1.75534 6.98049 4.77735
#
# Compressibility (1/GPa) = 0.02036004
#
# Stress axis : x y z
#
# Youngs Moduli (GPa) = 64.29644 107.17591 103.43337
#
# Poissons Ratio (x) = 0.15648 0.24895
# Poissons Ratio (y) = 0.09388 0.33397
# Poissons Ratio (z) = 0.15475 0.34605
#
# Static dielectric constant tensor:
#      x y z
#    x 1.657760 0.000000 -0.145770 
#    y 0.000000 1.650500 0.000000 
#    z -0.145770 0.000000 2.464940 
# 
# From -- ./inp_files/24131.got.cif
#   From: 2010.05.17/outbox.cif.g08.bks.cpg/sg10_13_cif.got.tgz:24131.got - 2010.06.03 11:33:40.
