data_PCOD9147456
_publ_section_title
;
Structure prediction by ZEFSAII (Michael W. Deem and Ramdas Pophale) SiO2 
 PCOD9147456
Probable space group: P 2/M
;
_chemical_formula_sum "Si O2"
_cell_formula_units_Z 22
_cell_length_a 9.396535
_cell_length_b 28.294951
_cell_length_c 7.850304
_cell_angle_alpha 90.000000
_cell_angle_beta 147.012547
_cell_angle_gamma 90.000000
_cell_volume 1136.384858
_symmetry_space_group_name_H-M "P 2/M"
_symmetry_group_IT_number 10
_symmetry_cell_setting 'monoclinic'
loop_
_space_group_symop_operation_xyz
x,y,z
-x,y,-z
-x,-y,-z
x,-y,z
loop_
_atom_site_type_symbol
_atom_site_label
_atom_site_fract_x
_atom_site_fract_y
_atom_site_fract_z
Si Si1 0.751923 0.793191 0.875990
Si Si2 0.749050 0.500000 0.128328
Si Si3 0.249358 0.308907 0.126101
Si Si4 0.382615 0.054164 0.692472
Si Si5 0.119264 0.893984 0.929694
Si Si6 0.751135 0.412446 0.874804
O O1 0.500000 0.799550 0.500000
O O2 0.739869 0.741996 0.955454
O O3 0.000000 0.790392 0.000000
O O4 0.796793 0.840278 0.030271
O O5 0.000000 0.500000 0.500000
O O6 0.500000 0.500000 0.000000
O O7 0.749364 0.454032 0.008705
O O8 0.500000 0.308617 0.500000
O O9 0.247303 0.360192 0.036812
O O10 0.000000 0.309103 0.000000
O O11 0.117370 0.084260 0.416293
O O12 0.323075 0.000000 0.584788
O O13 0.500000 0.054814 0.000000
O O14 0.617981 0.075317 0.816702
O O15 0.000000 0.893620 0.000000
O O16 0.500000 0.415827 0.500000
O O17 0.000000 0.416458 0.000000
#
# Coordination Sequence:
#
# PCOD9147456 Si02
#       6
#     4   2   4   4   4   4
#     4   9  16  29  49  79 110 131 161 213 271 312
#     4  12  24  36  52  78 114 150 176 218 282 324
#     4   8  15  27  49  77 103 131 169 217 261 303
#     4  11  24  40  55  74 106 145 178 213 263 318
#     4  11  21  35  58  84 106 133 173 221 264 311
#     4  10  19  35  57  80 103 138 188 228 254 304
#
# _framework density 19.359638
#
# number of rings (size 3 to 8) (size 9 to 14) (size 15 to 20)
#    0.000    2.000    0.000    5.455    0.000    3.636 
#    0.000    0.000    0.000    3.273    0.000    0.000 
#    0.000    0.000    0.000    0.000    0.000    0.000 
#
# Total GULP energy -122660.756951 kJ/mol
# GULP energy per Si atom -5575.488952 kJ/mol
# Density = 1.931557 g / cm^3
# Si number density = 19.359638 Si / 1000 Ang^3
#
#
#
# Elastic Constant Matrix: (Units=GPa)
#
#
# Indices 1 2 3 4 5 6 
#
# 1 47.7450 40.5422 24.6227 0.0000 12.6765 0.0000
# 2 40.5422 238.1963 63.8304 0.0000 -6.9165 0.0000
# 3 24.6227 63.8304 144.3642 0.0000 26.0899 0.0000
# 4 0.0000 0.0000 0.0000 28.7231 0.0000 15.5070
# 5 12.6765 -6.9165 26.0899 0.0000 28.4576 0.0000
# 6 0.0000 0.0000 0.0000 15.5070 0.0000 -16.3599
#
#
#
# Elastic Compliance Matrix: (Units=1/GPa)
#
#
# Indices 1 2 3 4 5 6 
#
# 1 0.029367 -0.005411 -0.000017 0.000000 -0.014381 0.000000
# 2 -0.005411 0.006109 -0.002975 0.000000 0.006623 0.000000
# 3 -0.000017 -0.002975 0.010038 0.000000 -0.009918 0.000000
# 4 0.000000 0.000000 0.000000 0.023030 0.000000 0.021829
# 5 -0.014381 0.006623 -0.009918 0.000000 0.052248 0.000000
# 6 0.000000 0.000000 0.000000 0.021829 0.000000 -0.040434
#
#
# Mechanical properties :
#
#
# Convention : Reuss Voigt Hill
#
# Bulk Modulus (GPa) = 34.83575 76.47736 55.65655
# Shear Modulus (GPa) = 46.84594 28.25150 37.54872
#
# Velocity S-wave (km/s) = 4.92446 3.82422 4.40879
# Velocity P-wave (km/s) = 7.09695 7.68693 7.39782
#
# Compressibility (1/GPa) = 0.02870614
#
# Stress axis : x y z
#
# Youngs Moduli (GPa) = 34.05228 163.70000 99.62573
#
# Poissons Ratio (x) = 0.88583 0.00171
# Poissons Ratio (y) = 0.18427 0.29637
# Poissons Ratio (z) = 0.00059 0.48698
#
# Static dielectric constant tensor:
#      x y z
#    x 1.631660 0.000000 -0.099920 
#    y 0.000000 1.769480 0.000000 
#    z -0.099920 0.000000 0.719000 
# 
# From -- ./inp_files/20871.got.cif
#   From: 2010.05.17/outbox.cif.g08.bks.cpg/sg10_11_cif.got.tgz:20871.got - 2010.06.03 11:33:40.
