data_PCOD9147950
_publ_section_title
;
Structure prediction by ZEFSAII (Michael W. Deem and Ramdas Pophale) SiO2 
 PCOD9147950
Probable space group: P 2/M
;
_chemical_formula_sum "Si O2"
_cell_formula_units_Z 32
_cell_length_a 22.215936
_cell_length_b 9.297737
_cell_length_c 14.491457
_cell_angle_alpha 90.000000
_cell_angle_beta 29.932760
_cell_angle_gamma 90.000000
_cell_volume 1493.619438
_symmetry_space_group_name_H-M "P 2/M"
_symmetry_group_IT_number 10
_symmetry_cell_setting 'monoclinic'
loop_
_space_group_symop_operation_xyz
x,y,z
-x,y,-z
-x,-y,-z
x,-y,z
loop_
_atom_site_type_symbol
_atom_site_label
_atom_site_fract_x
_atom_site_fract_y
_atom_site_fract_z
Si Si1 0.257112 0.332869 0.892379
Si Si2 0.248232 0.166596 0.094869
Si Si3 0.473472 0.835065 0.256648
Si Si4 0.373485 0.332518 0.222757
Si Si5 0.339325 0.169900 0.612020
Si Si6 0.981073 0.333020 0.262834
Si Si7 0.131797 0.332307 0.778949
Si Si8 0.155703 0.172176 0.410003
O O1 0.289708 0.500000 0.853233
O O2 0.251878 0.264193 0.000266
O O3 0.338180 0.250595 0.710602
O O4 0.117437 0.320525 0.045263
O O5 0.384959 0.171572 0.952314
O O6 0.222710 0.000000 0.103753
O O7 0.162040 0.211285 0.293458
O O8 0.400515 0.729364 0.288050
O O9 0.450826 0.803922 0.394680
O O10 0.432794 0.000000 0.294579
O O11 0.339087 0.500000 0.271967
O O12 0.271386 0.242424 0.306406
O O13 0.500000 0.320461 0.000000
O O14 0.226184 0.229351 0.703164
O O15 0.329241 0.000000 0.641813
O O16 0.964387 0.500000 0.311337
O O17 0.890666 0.299465 0.299032
O O18 0.955902 0.233147 0.383617
O O19 0.170375 0.500000 0.736878
O O20 0.000000 0.320793 0.000000
O O21 0.160776 0.000000 0.408476
#
# Coordination Sequence:
#
# PCOD9147950 Si02
#       8
#     4   4   4   4   4   4   4   4
#     4  11  24  43  64  86 117 159 201 247 304 357
#     4  10  23  43  63  85 117 158 202 249 298 351
#     4  10  22  41  63  88 122 162 200 242 300 357
#     4  11  22  36  60  93 126 159 198 244 295 353
#     4  11  23  38  61  92 121 154 199 248 296 354
#     4  10  22  40  62  88 121 159 197 244 300 357
#     4  10  19  37  61  85 120 160 195 236 296 360
#     4  11  23  39  63  90 121 160 199 245 300 355
#
# _framework density 21.424465999999999
#
# number of rings (size 3 to 8) (size 9 to 14) (size 15 to 20)
#    0.000    1.500    2.500    2.250    0.000    7.750 
#    0.000    5.000    0.000    0.000    0.000    0.000 
#    0.000    0.000    0.000    0.000    0.000    0.000 
#
# Total GULP energy -178967.947895 kJ/mol
# GULP energy per Si atom -5592.748372 kJ/mol
# Density = 2.137570 g / cm^3
# Si number density = 21.424466 Si / 1000 Ang^3
#
#
#
# Elastic Constant Matrix: (Units=GPa)
#
#
# Indices 1 2 3 4 5 6 
#
# 1 71.6548 43.4157 8.9119 0.0000 33.2696 0.0000
# 2 43.4157 82.4336 38.1664 0.0000 35.8521 0.0000
# 3 8.9119 38.1664 87.5645 0.0000 33.8914 0.0000
# 4 0.0000 0.0000 0.0000 34.9264 0.0000 12.6047
# 5 33.2696 35.8521 33.8914 0.0000 44.2167 0.0000
# 6 0.0000 0.0000 0.0000 12.6047 0.0000 46.6130
#
#
#
# Elastic Compliance Matrix: (Units=1/GPa)
#
#
# Indices 1 2 3 4 5 6 
#
# 1 0.028646 -0.010743 0.009580 0.000000 -0.020186 0.000000
# 2 -0.010743 0.023443 -0.006962 0.000000 -0.005589 0.000000
# 3 0.009580 -0.006962 0.020025 0.000000 -0.016913 0.000000
# 4 0.000000 0.000000 0.000000 0.031728 0.000000 -0.008580
# 5 -0.020186 -0.005589 -0.016913 0.000000 0.055299 0.000000
# 6 0.000000 0.000000 0.000000 -0.008580 0.000000 0.023773
#
#
# Mechanical properties :
#
#
# Convention : Reuss Voigt Hill
#
# Bulk Modulus (GPa) = 17.90029 46.96010 32.43019
# Shear Modulus (GPa) = 22.95824 35.22848 29.09336
#
# Velocity S-wave (km/s) = 3.27707 4.05941 3.68904
# Velocity P-wave (km/s) = 4.76362 6.62859 5.77193
#
# Compressibility (1/GPa) = 0.05586502
#
# Stress axis : x y z
#
# Youngs Moduli (GPa) = 34.90868 42.65646 49.93634
#
# Poissons Ratio (x) = 0.45828 -0.47840
# Poissons Ratio (y) = 0.37504 0.34763
# Poissons Ratio (z) = -0.33443 0.29695
#
# Static dielectric constant tensor:
#      x y z
#    x 1.771250 0.000000 -0.002150 
#    y 0.000000 1.718140 0.000000 
#    z -0.002150 0.000000 1.803930 
# 
# From -- ./inp_files/71407.got.cif
#   From: 2010.05.17/outbox.cif.g08.bks.cpg/sg10_36_cif.got.tgz:71407.got - 2010.06.03 11:33:40.
