data_PCOD9147628
_publ_section_title
;
Structure prediction by ZEFSAII (Michael W. Deem and Ramdas Pophale) SiO2 
 PCOD9147628
Probable space group: P 2/M
;
_chemical_formula_sum "Si O2"
_cell_formula_units_Z 24
_cell_length_a 9.988860
_cell_length_b 7.890713
_cell_length_c 20.397180
_cell_angle_alpha 90.000000
_cell_angle_beta 127.100744
_cell_angle_gamma 90.000000
_cell_volume 1282.255090
_symmetry_space_group_name_H-M "P 2/M"
_symmetry_group_IT_number 10
_symmetry_cell_setting 'monoclinic'
loop_
_space_group_symop_operation_xyz
x,y,z
-x,y,-z
-x,-y,-z
x,-y,z
loop_
_atom_site_type_symbol
_atom_site_label
_atom_site_fract_x
_atom_site_fract_y
_atom_site_fract_z
Si Si1 0.925668 0.300960 0.170367
Si Si2 0.763109 0.310100 0.834767
Si Si3 0.799832 0.000000 0.938606
Si Si4 0.471617 0.199531 0.350883
Si Si5 0.157286 0.795745 0.503232
Si Si6 0.301844 0.000000 0.941114
Si Si7 0.186106 0.701518 0.361139
O O1 0.876364 0.500000 0.159967
O O2 0.058526 0.285281 0.149582
O O3 0.034154 0.254588 0.266931
O O4 0.778887 0.167148 0.115723
O O5 0.758341 0.500000 0.860677
O O6 0.625578 0.291072 0.736679
O O7 0.741104 0.165757 0.881840
O O8 0.744953 0.000000 0.996647
O O9 0.000000 0.000000 0.000000
O O10 0.660176 0.263568 0.417738
O O11 0.356451 0.220239 0.381668
O O12 0.477112 0.000000 0.336577
O O13 0.146317 0.751114 0.423439
O O14 0.000000 0.733317 0.500000
O O15 0.158760 0.000000 0.508446
O O16 0.500000 0.000000 0.000000
O O17 0.207934 0.500000 0.363595
#
# Coordination Sequence:
#
# PCOD9147628 Si02
#       7
#     4   4   2   4   4   2   4
#     4   9  20  39  62  90 121 153 198 247 293 354
#     4  10  20  37  64  95 120 151 197 251 300 346
#     4  12  22  40  66  91 120 151 197 246 299 360
#     4  10  19  35  60  87 120 154 198 246 289 344
#     4  10  22  38  55  84 120 160 199 241 290 346
#     4  12  26  42  62  91 118 163 195 238 305 360
#     4  10  21  36  59  87 114 154 200 244 293 342
#
# _framework density 18.717023000000001
#
# number of rings (size 3 to 8) (size 9 to 14) (size 15 to 20)
#    0.000    1.833    2.500    2.500    4.667    5.000 
#    3.000    0.000    0.000    0.000    0.000    0.000 
#    0.000    0.000    0.000    0.000    0.000    0.000 
#
# Total GULP energy -134021.868972 kJ/mol
# GULP energy per Si atom -5584.244540 kJ/mol
# Density = 1.867442 g / cm^3
# Si number density = 18.717023 Si / 1000 Ang^3
#
#
#
# Elastic Constant Matrix: (Units=GPa)
#
#
# Indices 1 2 3 4 5 6 
#
# 1 99.6077 28.5399 62.7723 0.0000 19.9930 0.0000
# 2 28.5399 83.4504 46.3698 0.0000 18.3051 0.0000
# 3 62.7723 46.3698 93.8032 0.0000 20.5734 0.0000
# 4 0.0000 0.0000 0.0000 -7.9882 0.0000 -0.2003
# 5 19.9930 18.3051 20.5734 0.0000 29.5453 0.0000
# 6 0.0000 0.0000 0.0000 -0.2003 0.0000 -4.2979
#
#
#
# Elastic Compliance Matrix: (Units=1/GPa)
#
#
# Indices 1 2 3 4 5 6 
#
# 1 0.017953 0.001400 -0.011627 0.000000 -0.004920 0.000000
# 2 0.001400 0.017385 -0.008215 0.000000 -0.005998 0.000000
# 3 -0.011627 -0.008215 0.023204 0.000000 -0.003200 0.000000
# 4 0.000000 0.000000 0.000000 -0.125331 0.000000 0.005840
# 5 -0.004920 -0.005998 -0.003200 0.000000 0.043120 0.000000
# 6 0.000000 0.000000 0.000000 0.005840 0.000000 -0.232944
#
#
# Mechanical properties :
#
#
# Convention : Reuss Voigt Hill
#
# Bulk Modulus (GPa) = 46.17353 61.35837 53.76595
# Shear Modulus (GPa) = -23.52832 12.73047 -5.39893
#
# Velocity S-wave (km/s) = -3.54934 2.61081 -1.70022
# Velocity P-wave (km/s) = 2.81526 6.47624 4.99337
#
# Compressibility (1/GPa) = 0.02165743
#
# Stress axis : x y z
#
# Youngs Moduli (GPa) = 55.70093 57.52129 43.09556
#
# Poissons Ratio (x) = -0.08052 0.50107
# Poissons Ratio (y) = -0.07797 0.35404
# Poissons Ratio (z) = 0.64763 0.47255
#
# Static dielectric constant tensor:
#      x y z
#    x 1.613170 0.000000 0.005710 
#    y 0.000000 1.671930 0.000000 
#    z 0.005710 0.000000 1.640760 
# 
# From -- ./inp_files/82083.got.cif
#   From: 2010.05.17/outbox.cif.g08.bks.cpg/sg10_42_cif.got.tgz:82083.got - 2010.06.03 11:33:40.
