data_PCOD9147977
_publ_section_title
;
Structure prediction by ZEFSAII (Michael W. Deem and Ramdas Pophale) SiO2 
 PCOD9147977
Probable space group: P 2/M
;
_chemical_formula_sum "Si O2"
_cell_formula_units_Z 28
_cell_length_a 17.373415
_cell_length_b 9.021064
_cell_length_c 14.540337
_cell_angle_alpha 90.000000
_cell_angle_beta 140.119044
_cell_angle_gamma 90.000000
_cell_volume 1461.192013
_symmetry_space_group_name_H-M "P 2/M"
_symmetry_group_IT_number 10
_symmetry_cell_setting 'monoclinic'
loop_
_space_group_symop_operation_xyz
x,y,z
-x,y,-z
-x,-y,-z
x,-y,z
loop_
_atom_site_type_symbol
_atom_site_label
_atom_site_fract_x
_atom_site_fract_y
_atom_site_fract_z
Si Si1 0.638027 0.822231 0.148784
Si Si2 0.302014 0.675395 0.604028
Si Si3 0.284503 0.823076 0.251845
Si Si4 0.754496 0.170959 0.061995
Si Si5 0.909666 0.675480 0.058640
Si Si6 0.524467 0.171210 0.715555
Si Si7 0.159516 0.175881 0.320392
O O1 0.684135 0.741330 0.281527
O O2 0.717743 0.791401 0.131931
O O3 0.638532 0.000000 0.165133
O O4 0.500000 0.780453 0.000000
O O5 0.289747 0.500000 0.595343
O O6 0.421482 0.724045 0.658321
O O7 0.194609 0.748708 0.448008
O O8 0.412060 0.787424 0.322324
O O9 0.263576 0.795894 0.339906
O O10 0.267453 0.000000 0.220217
O O11 0.182030 0.737022 0.101865
O O12 0.849111 0.277181 0.099863
O O13 0.797999 0.000000 0.098415
O O14 0.633013 0.174713 0.889342
O O15 0.922766 0.500000 0.062761
O O16 0.037200 0.755637 0.169444
O O17 0.480487 0.000000 0.670216
O O18 0.147029 0.000000 0.319523
#
# Coordination Sequence:
#
# PCOD9147977 Si02
#       7
#     4   4   4   4   4   4   4
#     4  10  19  37  63  87 111 147 193 235 273 328
#     4  12  25  37  53  84 123 153 183 230 293 348
#     4   9  20  38  62  86 108 146 199 242 274 325
#     4   9  18  35  61  87 112 146 192 236 273 325
#     4  11  22  36  58  88 121 149 181 232 291 340
#     4   9  17  35  58  83 113 147 190 234 278 331
#     4  11  23  41  61  79 108 154 202 239 275 329
#
# _framework density 19.162437000000001
#
# number of rings (size 3 to 8) (size 9 to 14) (size 15 to 20)
#    0.000    1.857    1.429    4.286    0.000    6.571 
#    0.000    3.571    0.000    4.286    0.000    0.000 
#    0.000    0.000    0.000    0.000    0.000    0.000 
#
# Total GULP energy -156455.728871 kJ/mol
# GULP energy per Si atom -5587.704603 kJ/mol
# Density = 1.911882 g / cm^3
# Si number density = 19.162437 Si / 1000 Ang^3
#
#
#
# Elastic Constant Matrix: (Units=GPa)
#
#
# Indices 1 2 3 4 5 6 
#
# 1 72.9871 34.3641 18.1993 0.0000 -21.6327 0.0000
# 2 34.3641 60.9356 21.1942 0.0000 -17.7615 0.0000
# 3 18.1993 21.1942 43.0093 0.0000 -24.0010 0.0000
# 4 0.0000 0.0000 0.0000 18.8535 0.0000 25.8116
# 5 -21.6327 -17.7615 -24.0010 0.0000 27.1860 0.0000
# 6 0.0000 0.0000 0.0000 25.8116 0.0000 73.5706
#
#
#
# Elastic Compliance Matrix: (Units=1/GPa)
#
#
# Indices 1 2 3 4 5 6 
#
# 1 0.021274 -0.009079 0.003171 0.000000 0.013796 0.000000
# 2 -0.009079 0.024735 -0.006624 0.000000 0.003088 0.000000
# 3 0.003171 -0.006624 0.047634 0.000000 0.040248 0.000000
# 4 0.000000 0.000000 0.000000 0.102064 0.000000 -0.035808
# 5 0.013796 0.003088 0.040248 0.000000 0.085312 0.000000
# 6 0.000000 0.000000 0.000000 -0.035808 0.000000 0.026155
#
#
# Mechanical properties :
#
#
# Convention : Reuss Voigt Hill
#
# Bulk Modulus (GPa) = 14.58199 36.04966 25.31583
# Shear Modulus (GPa) = 14.08064 30.80032 22.44048
#
# Velocity S-wave (km/s) = 2.71367 4.01350 3.42580
# Velocity P-wave (km/s) = 4.17670 6.35068 5.37475
#
# Compressibility (1/GPa) = 0.06857773
#
# Stress axis : x y z
#
# Youngs Moduli (GPa) = 47.00579 40.42921 20.99350
#
# Poissons Ratio (x) = 0.36705 -0.06656
# Poissons Ratio (y) = 0.42676 0.13906
# Poissons Ratio (z) = -0.14903 0.26781
#
# Static dielectric constant tensor:
#      x y z
#    x 1.684920 0.000000 0.000340 
#    y 0.000000 1.631210 0.000000 
#    z 0.000340 0.000000 1.659930 
# 
# From -- ./inp_files/68675.got.cif
#   From: 2010.05.17/outbox.cif.g08.bks.cpg/sg10_35_cif.got.tgz:68675.got - 2010.06.03 11:33:40.
