data_PCOD9147968
_publ_section_title
;
Structure prediction by ZEFSAII (Michael W. Deem and Ramdas Pophale) SiO2 
 PCOD9147968
Probable space group: P 2/M
;
_chemical_formula_sum "Si O2"
_cell_formula_units_Z 17
_cell_length_a 8.414349
_cell_length_b 19.614231
_cell_length_c 9.367726
_cell_angle_alpha 90.000000
_cell_angle_beta 147.791272
_cell_angle_gamma 90.000000
_cell_volume 824.057298
_symmetry_space_group_name_H-M "P 2/M"
_symmetry_group_IT_number 10
_symmetry_cell_setting 'monoclinic'
loop_
_space_group_symop_operation_xyz
x,y,z
-x,y,-z
-x,-y,-z
x,-y,z
loop_
_atom_site_type_symbol
_atom_site_label
_atom_site_fract_x
_atom_site_fract_y
_atom_site_fract_z
Si Si1 0.150752 0.000000 0.768703
Si Si2 0.849198 0.148768 0.230487
Si Si3 0.917653 0.716818 0.102476
Si Si4 0.000000 0.500000 0.000000
Si Si5 0.731375 0.650233 0.396435
Si Si6 0.697988 0.500000 0.455982
O O1 0.077127 0.073722 0.778325
O O2 0.000000 0.000000 0.500000
O O3 0.500000 0.000000 0.000000
O O4 0.000000 0.155368 0.500000
O O5 0.500000 0.151797 0.000000
O O6 0.930579 0.209755 0.187539
O O7 0.589196 0.684081 0.875797
O O8 0.000000 0.720996 0.000000
O O9 0.163374 0.670009 0.365073
O O10 0.354765 0.500000 0.244784
O O11 0.072387 0.500000 0.235381
O O12 0.724765 0.569125 0.385720
O O13 0.000000 0.676396 0.500000
#
# Coordination Sequence:
#
# PCOD9147968 Si02
#       6
#     2   4   4   1   4   2
#     4   8  16  30  57  90 115 156 203 250 293 354
#     4  10  19  37  62  88 123 160 207 250 300 360
#     4  12  26  40  61  93 127 165 205 252 311 372
#     4  10  24  38  66  94 120 154 186 248 320 362
#     4  12  26  44  66  90 122 161 209 259 308 363
#     4  11  25  42  68  90 122 154 210 248 318 362
#
# _framework density 20.629632999999998
#
# number of rings (size 3 to 8) (size 9 to 14) (size 15 to 20)
#    0.000    1.176    0.000    6.706    9.882    0.000 
#    0.000    4.118    0.000    0.000    0.000   13.176 
#    0.000    0.000    0.000    0.000    0.000    0.000 
#
# Total GULP energy -94709.903435 kJ/mol
# GULP energy per Si atom -5571.170790 kJ/mol
# Density = 2.058268 g / cm^3
# Si number density = 20.629633 Si / 1000 Ang^3
#
#
#
# Elastic Constant Matrix: (Units=GPa)
#
#
# Indices 1 2 3 4 5 6 
#
# 1 53.4396 20.0657 2.6998 0.0000 -3.0959 0.0000
# 2 20.0657 176.3560 16.1176 0.0000 -4.1678 0.0000
# 3 2.6998 16.1176 148.3573 0.0000 13.3961 0.0000
# 4 0.0000 0.0000 0.0000 -12.7441 0.0000 24.0973
# 5 -3.0959 -4.1678 13.3961 0.0000 28.5724 0.0000
# 6 0.0000 0.0000 0.0000 24.0973 0.0000 -14.9566
#
#
#
# Elastic Compliance Matrix: (Units=1/GPa)
#
#
# Indices 1 2 3 4 5 6 
#
# 1 0.019653 -0.002163 -0.000299 0.000000 0.001954 0.000000
# 2 -0.002163 0.006003 -0.000700 0.000000 0.000970 0.000000
# 3 -0.000299 -0.000700 0.007136 0.000000 -0.003480 0.000000
# 4 0.000000 0.000000 0.000000 0.038344 0.000000 0.061777
# 5 0.001954 0.000970 -0.003480 0.000000 0.036984 0.000000
# 6 0.000000 0.000000 0.000000 0.061777 0.000000 0.032671
#
#
# Mechanical properties :
#
#
# Convention : Reuss Voigt Hill
#
# Bulk Modulus (GPa) = 37.78099 50.65769 44.21934
# Shear Modulus (GPa) = 32.06392 22.79233 27.42813
#
# Velocity S-wave (km/s) = 3.94669 3.32751 3.65026
# Velocity P-wave (km/s) = 6.25478 6.27473 6.26476
#
# Compressibility (1/GPa) = 0.02646834
#
# Stress axis : x y z
#
# Youngs Moduli (GPa) = 50.88268 166.57405 140.12883
#
# Poissons Ratio (x) = 0.36023 0.04192
# Poissons Ratio (y) = 0.11004 0.09815
# Poissons Ratio (z) = 0.01522 0.11667
#
# Static dielectric constant tensor:
#      x y z
#    x 1.721050 0.000000 -0.026550 
#    y 0.000000 1.810320 0.000000 
#    z -0.026550 0.000000 1.719280 
# 
# From -- ./inp_files/20396.got.cif
#   From: 2010.05.17/outbox.cif.g08.bks.cpg/sg10_11_cif.got.tgz:20396.got - 2010.06.03 11:33:40.
