data_PCOD9147314
_publ_section_title
;
Structure prediction by ZEFSAII (Michael W. Deem and Ramdas Pophale) SiO2 
 PCOD9147314
Probable space group: P 2/M
;
_chemical_formula_sum "Si O2"
_cell_formula_units_Z 28
_cell_length_a 14.911908
_cell_length_b 7.631219
_cell_length_c 11.438471
_cell_angle_alpha 90.000000
_cell_angle_beta 67.888517
_cell_angle_gamma 90.000000
_cell_volume 1205.920280
_symmetry_space_group_name_H-M "P 2/M"
_symmetry_group_IT_number 10
_symmetry_cell_setting 'monoclinic'
loop_
_space_group_symop_operation_xyz
x,y,z
-x,y,-z
-x,-y,-z
x,-y,z
loop_
_atom_site_type_symbol
_atom_site_label
_atom_site_fract_x
_atom_site_fract_y
_atom_site_fract_z
Si Si1 0.436120 0.707866 0.685350
Si Si2 0.741694 0.705418 0.790810
Si Si3 0.042946 0.285007 0.353753
Si Si4 0.763252 0.200195 0.328632
Si Si5 0.960166 0.297752 0.143152
Si Si6 0.654060 0.790153 0.592865
Si Si7 0.588161 0.285643 0.037564
O O1 0.419388 0.500000 0.684558
O O2 0.345019 0.796272 0.669076
O O3 0.547973 0.739462 0.597596
O O4 0.428857 0.768404 0.822775
O O5 0.756833 0.500000 0.805384
O O6 0.846134 0.777019 0.708336
O O7 0.670610 0.722966 0.715150
O O8 0.687379 0.777546 0.930626
O O9 0.037862 0.500000 0.358220
O O10 0.000000 0.227128 0.500000
O O11 0.994283 0.228140 0.254168
O O12 0.843503 0.291286 0.210060
O O13 0.742128 0.277064 0.467993
O O14 0.795548 0.000000 0.323315
O O15 0.993248 0.500000 0.126277
O O16 0.000000 0.221570 0.000000
O O17 0.658939 0.000000 0.591167
O O18 0.588577 0.500000 0.036537
O O19 0.500000 0.228271 0.000000
#
# Coordination Sequence:
#
# PCOD9147314 Si02
#       7
#     4   4   4   4   4   4   4
#     4  11  22  37  62  89 115 152 200 246 292 352
#     4  10  19  34  60  85 114 152 191 238 294 351
#     4   9  18  33  57  89 118 146 189 246 300 346
#     4  11  25  42  59  82 119 162 197 239 297 356
#     4  10  22  40  64  92 118 151 203 258 300 349
#     4  11  23  39  57  84 123 159 194 239 292 353
#     4   9  17  32  54  84 115 145 185 237 292 344
#
# _framework density 23.218783999999999
#
# number of rings (size 3 to 8) (size 9 to 14) (size 15 to 20)
#    0.000    1.857    1.429    2.571    2.000    5.429 
#    0.000    2.857    0.000    2.571    0.000    0.000 
#    0.000    0.000    0.000    0.000    0.000    0.000 
#
# Total GULP energy -156345.228296 kJ/mol
# GULP energy per Si atom -5583.758153 kJ/mol
# Density = 2.316594 g / cm^3
# Si number density = 23.218784 Si / 1000 Ang^3
#
#
#
# Elastic Constant Matrix: (Units=GPa)
#
#
# Indices 1 2 3 4 5 6 
#
# 1 92.4433 -7.6529 49.0661 0.0000 -13.2194 0.0000
# 2 -7.6529 52.8483 4.2527 0.0000 -4.3147 0.0000
# 3 49.0661 4.2527 183.5417 0.0000 -18.5212 0.0000
# 4 0.0000 0.0000 0.0000 8.3463 0.0000 6.5806
# 5 -13.2194 -4.3147 -18.5212 0.0000 40.1540 0.0000
# 6 0.0000 0.0000 0.0000 6.5806 0.0000 0.1337
#
#
#
# Elastic Compliance Matrix: (Units=1/GPa)
#
#
# Indices 1 2 3 4 5 6 
#
# 1 0.013198 0.002427 -0.003272 0.000000 0.003097 0.000000
# 2 0.002427 0.019547 -0.000849 0.000000 0.002508 0.000000
# 3 -0.003272 -0.000849 0.006529 0.000000 0.001843 0.000000
# 4 0.000000 0.000000 0.000000 -0.003169 0.000000 0.155981
# 5 0.003097 0.002508 0.001843 0.000000 0.027043 0.000000
# 6 0.000000 0.000000 0.000000 0.155981 0.000000 -0.197833
#
#
# Mechanical properties :
#
#
# Convention : Reuss Voigt Hill
#
# Bulk Modulus (GPa) = 27.86567 46.68501 37.27534
# Shear Modulus (GPa) = -41.89818 28.60463 -6.64677
#
# Velocity S-wave (km/s) = -4.25254 3.51374 -1.69378
# Velocity P-wave (km/s) = 3.47631 6.05079 3.50195
#
# Compressibility (1/GPa) = 0.03588645
#
# Stress axis : x y z
#
# Youngs Moduli (GPa) = 75.76997 51.15970 153.17039
#
# Poissons Ratio (x) = -0.12418 0.50116
# Poissons Ratio (y) = -0.18391 0.12999
# Poissons Ratio (z) = 0.24791 0.04342
#
# Static dielectric constant tensor:
#      x y z
#    x 1.862470 0.000000 0.002990 
#    y 0.000000 1.858230 0.000000 
#    z 0.002990 0.000000 1.885300 
# 
# From -- ./inp_files/49557.got.cif
#   From: 2010.05.17/outbox.cif.g08.bks.cpg/sg10_25_cif.got.tgz:49557.got - 2010.06.03 11:33:40.
