data_PCOD9147768
_publ_section_title
;
Structure prediction by ZEFSAII (Michael W. Deem and Ramdas Pophale) SiO2 
 PCOD9147768
Probable space group: P 2/M
;
_chemical_formula_sum "Si O2"
_cell_formula_units_Z 32
_cell_length_a 13.965332
_cell_length_b 9.158694
_cell_length_c 21.960272
_cell_angle_alpha 90.000000
_cell_angle_beta 146.712920
_cell_angle_gamma 90.000000
_cell_volume 1541.571951
_symmetry_space_group_name_H-M "P 2/M"
_symmetry_group_IT_number 10
_symmetry_cell_setting 'monoclinic'
loop_
_space_group_symop_operation_xyz
x,y,z
-x,y,-z
-x,-y,-z
x,-y,z
loop_
_atom_site_type_symbol
_atom_site_label
_atom_site_fract_x
_atom_site_fract_y
_atom_site_fract_z
Si Si1 0.960023 0.327150 0.143063
Si Si2 0.743683 0.667473 0.212234
Si Si3 0.515865 0.327798 0.435198
Si Si4 0.194394 0.665925 0.609882
Si Si5 0.221075 0.825677 0.200200
Si Si6 0.398498 0.169727 0.042738
Si Si7 0.103106 0.675450 0.348810
Si Si8 0.460154 0.830124 0.220671
O O1 0.945590 0.500000 0.126185
O O2 0.045307 0.250230 0.130153
O O3 0.087127 0.300218 0.268171
O O4 0.774165 0.261060 0.062683
O O5 0.721265 0.500000 0.178172
O O6 0.766419 0.660990 0.297238
O O7 0.573625 0.761809 0.108050
O O8 0.924732 0.730815 0.283375
O O9 0.500000 0.322047 0.500000
O O10 0.493566 0.500000 0.406350
O O11 0.374642 0.230293 0.326372
O O12 0.713203 0.275006 0.526884
O O13 0.185699 0.500000 0.580911
O O14 0.361076 0.745351 0.670099
O O15 0.000000 0.731036 0.500000
O O16 0.294932 0.782832 0.173113
O O17 0.198313 0.000000 0.190949
O O18 0.421106 0.181183 0.128250
O O19 0.378745 0.000000 0.016237
O O20 0.102480 0.500000 0.357387
O O21 0.489871 0.000000 0.250497
#
# Coordination Sequence:
#
# PCOD9147768 Si02
#       8
#     4   4   4   4   4   4   4   4
#     4  11  22  39  60  83 109 145 189 232 280 335
#     4   9  18  35  56  80 111 146 184 225 274 332
#     4  10  19  36  59  82 113 152 188 227 275 329
#     4   9  18  31  52  83 111 138 182 235 275 313
#     4  11  23  38  56  84 115 148 188 230 276 330
#     4  10  21  40  60  80 109 146 185 233 284 330
#     4   9  19  35  57  83 112 148 186 222 273 334
#     4   9  21  39  56  76 111 152 185 220 277 341
#
# _framework density 20.758032
#
# number of rings (size 3 to 8) (size 9 to 14) (size 15 to 20)
#    0.000    2.250    1.250    1.125    1.750    3.000 
#    0.000    6.875    0.000    0.000    0.000    0.000 
#    0.000    0.000    0.000    0.000    0.000    0.000 
#
# Total GULP energy -178666.675990 kJ/mol
# GULP energy per Si atom -5583.333625 kJ/mol
# Density = 2.071079 g / cm^3
# Si number density = 20.758032 Si / 1000 Ang^3
#
#
#
# Elastic Constant Matrix: (Units=GPa)
#
#
# Indices 1 2 3 4 5 6 
#
# 1 72.9351 14.7924 2.3217 0.0000 26.7822 0.0000
# 2 14.7924 46.2503 17.8502 0.0000 7.4077 0.0000
# 3 2.3217 17.8502 63.2316 0.0000 25.2682 0.0000
# 4 0.0000 0.0000 0.0000 4338.9785 0.0000 1190.9565
# 5 26.7822 7.4077 25.2682 0.0000 33.6814 0.0000
# 6 0.0000 0.0000 0.0000 1190.9565 0.0000 347.7277
#
#
#
# Elastic Compliance Matrix: (Units=1/GPa)
#
#
# Indices 1 2 3 4 5 6 
#
# 1 0.025087 -0.008423 0.012408 0.000000 -0.027405 0.000000
# 2 -0.008423 0.027095 -0.010904 0.000000 0.008919 0.000000
# 3 0.012408 -0.010904 0.030594 0.000000 -0.030420 0.000000
# 4 0.000000 0.000000 0.000000 0.003846 0.000000 -0.013173
# 5 -0.027405 0.008919 -0.030420 0.000000 0.072341 0.000000
# 6 0.000000 0.000000 0.000000 -0.013173 0.000000 0.047995
#
#
# Mechanical properties :
#
#
# Convention : Reuss Voigt Hill
#
# Bulk Modulus (GPa) = 14.50578 28.03840 21.27209
# Shear Modulus (GPa) = 20.51062 953.90770 487.20916
#
# Velocity S-wave (km/s) = 3.14679 21.46006 15.33683
# Velocity P-wave (km/s) = 4.49513 25.05159 17.99706
#
# Compressibility (1/GPa) = 0.06893803
#
# Stress axis : x y z
#
# Youngs Moduli (GPa) = 39.86065 36.90667 32.68650
#
# Poissons Ratio (x) = 0.31088 -0.40558
# Poissons Ratio (y) = 0.33576 0.35641
# Poissons Ratio (z) = -0.49459 0.40243
#
# Static dielectric constant tensor:
#      x y z
#    x 1.800130 0.000000 -0.002400 
#    y 0.000000 1.705650 0.000000 
#    z -0.002400 0.000000 1.745170 
# 
# From -- ./inp_files/66481.got.cif
#   From: 2010.05.17/outbox.cif.g08.bks.cpg/sg10_34_cif.got.tgz:66481.got - 2010.06.03 11:33:40.
