data_PCOD9147000
_publ_section_title
;
Structure prediction by ZEFSAII (Michael W. Deem and Ramdas Pophale) SiO2 
 PCOD9147000
Probable space group: P 2/M
;
_chemical_formula_sum "Si O2"
_cell_formula_units_Z 19
_cell_length_a 7.653761
_cell_length_b 24.911125
_cell_length_c 6.684598
_cell_angle_alpha 90.000000
_cell_angle_beta 41.307830
_cell_angle_gamma 90.000000
_cell_volume 841.310120
_symmetry_space_group_name_H-M "P 2/M"
_symmetry_group_IT_number 10
_symmetry_cell_setting 'monoclinic'
loop_
_space_group_symop_operation_xyz
x,y,z
-x,y,-z
-x,-y,-z
x,-y,z
loop_
_atom_site_type_symbol
_atom_site_label
_atom_site_fract_x
_atom_site_fract_y
_atom_site_fract_z
Si Si1 0.089325 0.272725 0.657311
Si Si2 0.416579 0.325700 0.849343
Si Si3 0.717030 0.442303 0.138640
Si Si4 0.000000 0.000000 0.000000
Si Si5 0.283963 0.162491 0.358537
Si Si6 0.500000 0.919316 0.500000
O O1 0.310862 0.318045 0.503465
O O2 0.218854 0.214243 0.552291
O O3 0.000000 0.276613 0.500000
O O4 0.818008 0.284999 0.004086
O O5 0.318403 0.386662 0.944534
O O6 0.500000 0.310266 0.000000
O O7 0.500000 0.442045 0.500000
O O8 0.693844 0.500000 0.048833
O O9 0.000000 0.441141 0.000000
O O10 0.239265 0.046098 0.780782
O O11 0.408550 0.116736 0.390181
O O12 0.000000 0.147656 0.500000
O O13 0.500000 0.175626 0.000000
#
# Coordination Sequence:
#
# PCOD9147000 Si02
#       6
#     4   4   4   1   4   2
#     4   9  18  34  57  84 117 151 183 240 307 359
#     4  10  19  34  56  78 110 144 187 241 302 358
#     4  10  21  37  53  73 106 147 190 244 301 355
#     4  10  24  46  68  94 144 172 208 290 310 338
#     4  11  22  41  68  96 132 174 214 263 318 380
#     4  11  24  46  68  98 134 176 221 262 318 374
#
# _framework density 22.583824
#
# number of rings (size 3 to 8) (size 9 to 14) (size 15 to 20)
#    0.000    1.895    0.000    5.684    0.000    0.421 
#    5.684   10.526    0.000    7.579    0.000    0.000 
#    0.000    0.000    0.000    0.000    0.000    0.000 
#
# Total GULP energy -105835.460503 kJ/mol
# GULP energy per Si atom -5570.287395 kJ/mol
# Density = 2.253242 g / cm^3
# Si number density = 22.583824 Si / 1000 Ang^3
#
#
#
# Elastic Constant Matrix: (Units=GPa)
#
#
# Indices 1 2 3 4 5 6 
#
# 1 77.1902 48.0332 38.6653 0.0000 -28.5500 0.0000
# 2 48.0332 173.4977 61.0096 0.0000 -33.7990 0.0000
# 3 38.6653 61.0096 174.8758 0.0000 -37.3857 0.0000
# 4 0.0000 0.0000 0.0000 34.8807 0.0000 -24.3332
# 5 -28.5500 -33.7990 -37.3857 0.0000 41.9081 0.0000
# 6 0.0000 0.0000 0.0000 -24.3332 0.0000 -44.6158
#
#
#
# Elastic Compliance Matrix: (Units=1/GPa)
#
#
# Indices 1 2 3 4 5 6 
#
# 1 0.018868 -0.002993 -0.001107 0.000000 0.009453 0.000000
# 2 -0.002993 0.007643 -0.001387 0.000000 0.002887 0.000000
# 3 -0.001107 -0.001387 0.007472 0.000000 0.004792 0.000000
# 4 0.000000 0.000000 0.000000 0.020768 0.000000 -0.011327
# 5 0.009453 0.002887 0.004792 0.000000 0.036905 0.000000
# 6 0.000000 0.000000 0.000000 -0.011327 0.000000 -0.016236
#
#
# Mechanical properties :
#
#
# Convention : Reuss Voigt Hill
#
# Bulk Modulus (GPa) = 43.46268 80.10888 61.78578
# Shear Modulus (GPa) = 53.15604 24.95832 39.05718
#
# Velocity S-wave (km/s) = 4.85678 3.32797 4.16316
# Velocity P-wave (km/s) = 7.12306 7.09338 7.10823
#
# Compressibility (1/GPa) = 0.02300825
#
# Stress axis : x y z
#
# Youngs Moduli (GPa) = 52.99954 130.84388 133.84013
#
# Poissons Ratio (x) = 0.39162 0.14812
# Poissons Ratio (y) = 0.15863 0.18568
# Poissons Ratio (z) = 0.05866 0.18152
#
# Static dielectric constant tensor:
#      x y z
#    x 1.882940 0.000000 0.023620 
#    y 0.000000 1.858260 0.000000 
#    z 0.023620 0.000000 1.845780 
# 
# From -- ./inp_files/20613.got.cif
#   From: 2010.05.17/outbox.cif.g08.bks.cpg/sg10_11_cif.got.tgz:20613.got - 2010.06.03 11:33:40.
