data_PCOD9147955
_publ_section_title
;
Structure prediction by ZEFSAII (Michael W. Deem and Ramdas Pophale) SiO2 
 PCOD9147955
Probable space group: P 2/M
;
_chemical_formula_sum "Si O2"
_cell_formula_units_Z 28
_cell_length_a 9.938574
_cell_length_b 15.684742
_cell_length_c 12.007911
_cell_angle_alpha 90.000000
_cell_angle_beta 54.814238
_cell_angle_gamma 90.000000
_cell_volume 1529.833264
_symmetry_space_group_name_H-M "P 2/M"
_symmetry_group_IT_number 10
_symmetry_cell_setting 'monoclinic'
loop_
_space_group_symop_operation_xyz
x,y,z
-x,y,-z
-x,-y,-z
x,-y,z
loop_
_atom_site_type_symbol
_atom_site_label
_atom_site_fract_x
_atom_site_fract_y
_atom_site_fract_z
Si Si1 0.505454 0.406627 0.629373
Si Si2 0.308832 0.905067 0.560026
Si Si3 0.067023 0.178268 0.847635
Si Si4 0.309907 0.399207 0.059368
Si Si5 0.750309 0.743710 0.565856
Si Si6 0.817713 0.356696 0.111271
Si Si7 0.085407 0.272237 0.284186
O O1 0.500000 0.396502 0.500000
O O2 0.576021 0.500000 0.626757
O O3 0.607154 0.327461 0.631216
O O4 0.314740 0.406433 0.754808
O O5 0.500000 0.906245 0.500000
O O6 0.195958 0.880479 0.720396
O O7 0.291581 0.831001 0.477201
O O8 0.261159 0.000000 0.543840
O O9 0.153418 0.266466 0.843702
O O10 0.939186 0.210111 0.811474
O O11 0.000000 0.144648 0.000000
O O12 0.282320 0.500000 0.057332
O O13 0.182036 0.357528 0.205054
O O14 0.500000 0.387092 0.000000
O O15 0.270847 0.350376 0.964531
O O16 0.811749 0.764377 0.660910
O O17 0.905063 0.708263 0.420091
O O18 0.000000 0.392925 0.000000
#
# Coordination Sequence:
#
# PCOD9147955 Si02
#       7
#     4   4   4   4   4   4   4
#     4  11  23  36  55  84 117 159 208 254 299 348
#     4  10  21  38  64  93 119 153 194 245 308 368
#     4  10  19  37  61  87 117 150 203 242 297 362
#     4  11  23  36  53  81 118 158 209 257 299 354
#     4  10  21  38  61  82 123 154 202 248 305 364
#     4  11  21  38  58  81 115 162 203 250 297 354
#     4  10  20  38  56  84 112 162 198 246 303 359
#
# _framework density 18.302648999999999
#
# number of rings (size 3 to 8) (size 9 to 14) (size 15 to 20)
#    0.000    1.571    2.857    4.286    0.000    3.714 
#    0.000    7.143    0.000    0.000    0.000    2.000 
#    0.000    0.000    0.000    0.000    0.000    0.000 
#
# Total GULP energy -156021.189298 kJ/mol
# GULP energy per Si atom -5572.185332 kJ/mol
# Density = 1.826099 g / cm^3
# Si number density = 18.302649 Si / 1000 Ang^3
#
#
#
# Elastic Constant Matrix: (Units=GPa)
#
#
# Indices 1 2 3 4 5 6 
#
# 1 93.5833 52.1699 44.2890 0.0000 3.0818 0.0000
# 2 52.1699 107.2422 39.3546 0.0000 -3.3311 0.0000
# 3 44.2890 39.3546 96.7082 0.0000 0.9159 0.0000
# 4 0.0000 0.0000 0.0000 10.3966 0.0000 -3.6880
# 5 3.0818 -3.3311 0.9159 0.0000 33.1418 0.0000
# 6 0.0000 0.0000 0.0000 -3.6880 0.0000 -9.8808
#
#
#
# Elastic Compliance Matrix: (Units=1/GPa)
#
#
# Indices 1 2 3 4 5 6 
#
# 1 0.016661 -0.006319 -0.005039 0.000000 -0.002045 0.000000
# 2 -0.006319 0.013408 -0.002581 0.000000 0.002007 0.000000
# 3 -0.005039 -0.002581 0.013700 0.000000 -0.000170 0.000000
# 4 0.000000 0.000000 0.000000 0.084939 0.000000 -0.031703
# 5 -0.002045 0.002007 -0.000170 0.000000 0.030570 0.000000
# 6 0.000000 0.000000 0.000000 -0.031703 0.000000 -0.089374
#
#
# Mechanical properties :
#
#
# Convention : Reuss Voigt Hill
#
# Bulk Modulus (GPa) = 62.93359 63.24007 63.08683
# Shear Modulus (GPa) = 48.50567 17.51287 33.00927
#
# Velocity S-wave (km/s) = 5.15359 3.09665 4.25140
# Velocity P-wave (km/s) = 8.35897 6.88572 7.65785
#
# Compressibility (1/GPa) = 0.01588976
#
# Stress axis : x y z
#
# Youngs Moduli (GPa) = 60.02212 74.58006 72.99159
#
# Poissons Ratio (x) = 0.47128 0.36781
# Poissons Ratio (y) = 0.37929 0.18843
# Poissons Ratio (z) = 0.30245 0.19253
#
# Static dielectric constant tensor:
#      x y z
#    x 1.646800 0.000000 -0.011930 
#    y 0.000000 1.619820 0.000000 
#    z -0.011930 0.000000 1.758140 
# 
# From -- ./inp_files/42904.got.cif
#   From: 2010.05.17/outbox.cif.g08.bks.cpg/sg10_22_cif.got.tgz:42904.got - 2010.06.03 11:33:40.
