data_PCOD9147273
_publ_section_title
;
Structure prediction by ZEFSAII (Michael W. Deem and Ramdas Pophale) SiO2 
 PCOD9147273
Probable space group: P 2/M
;
_chemical_formula_sum "Si O2"
_cell_formula_units_Z 32
_cell_length_a 7.418729
_cell_length_b 15.037553
_cell_length_c 20.987135
_cell_angle_alpha 90.000000
_cell_angle_beta 142.878403
_cell_angle_gamma 90.000000
_cell_volume 1413.003660
_symmetry_space_group_name_H-M "P 2/M"
_symmetry_group_IT_number 10
_symmetry_cell_setting 'monoclinic'
loop_
_space_group_symop_operation_xyz
x,y,z
-x,y,-z
-x,-y,-z
x,-y,z
loop_
_atom_site_type_symbol
_atom_site_label
_atom_site_fract_x
_atom_site_fract_y
_atom_site_fract_z
Si Si1 0.325720 0.600755 0.518042
Si Si2 0.790589 0.221549 0.211702
Si Si3 0.053448 0.405928 0.090523
Si Si4 0.108632 0.775234 0.163934
Si Si5 0.681446 0.101580 0.983453
Si Si6 0.249315 0.598872 0.722283
Si Si7 0.710292 0.098752 0.619869
Si Si8 0.646216 0.228078 0.391998
O O1 0.500000 0.607447 0.500000
O O2 0.364106 0.500000 0.553822
O O3 0.428651 0.679233 0.592787
O O4 0.979188 0.613834 0.400466
O O5 0.485776 0.169348 0.111124
O O6 0.771377 0.320471 0.233886
O O7 0.964160 0.221224 0.193230
O O8 0.007514 0.160877 0.315652
O O9 0.924538 0.500000 0.078439
O O10 0.959123 0.313045 0.092723
O O11 0.408735 0.407804 0.201684
O O12 0.000000 0.403499 0.000000
O O13 0.466637 0.769618 0.274533
O O14 0.001618 0.858409 0.092520
O O15 0.687771 0.000000 0.962703
O O16 0.500000 0.102291 0.000000
O O17 0.165422 0.500000 0.725009
O O18 0.500000 0.093190 0.500000
O O19 0.506837 0.145578 0.615371
O O20 0.809819 0.000000 0.667806
O O21 0.000000 0.218115 0.500000
#
# Coordination Sequence:
#
# PCOD9147273 Si02
#       8
#     4   4   4   4   4   4   4   4
#     4  10  20  35  55  80 113 151 186 223 272 329
#     4  10  19  34  59  85 110 138 179 230 275 318
#     4  10  21  37  54  74 107 148 182 216 267 330
#     4  10  21  34  54  81 105 139 182 228 275 320
#     4   9  18  34  55  78 103 133 174 224 276 323
#     4  10  20  34  55  81 110 146 180 213 263 325
#     4  10  21  37  57  82 112 147 186 227 275 332
#     4  11  22  35  54  81 113 147 185 230 279 327
#
# _framework density 22.646792000000001
#
# number of rings (size 3 to 8) (size 9 to 14) (size 15 to 20)
#    0.000    2.000    0.000    4.500    0.000    4.500 
#    0.000    0.000    0.000    8.625    0.000    0.000 
#    0.000    0.000    0.000    0.000    0.000    0.000 
#
# Total GULP energy -178767.385817 kJ/mol
# GULP energy per Si atom -5586.480807 kJ/mol
# Density = 2.259525 g / cm^3
# Si number density = 22.646792 Si / 1000 Ang^3
#
#
#
# Elastic Constant Matrix: (Units=GPa)
#
#
# Indices 1 2 3 4 5 6 
#
# 1 23.3949 10.5118 -3.4344 0.0000 7.5229 0.0000
# 2 10.5118 174.6856 52.9341 0.0000 -4.9244 0.0000
# 3 -3.4344 52.9341 104.5464 0.0000 0.6140 0.0000
# 4 0.0000 0.0000 0.0000 4.4472 0.0000 18.4270
# 5 7.5229 -4.9244 0.6140 0.0000 16.3382 0.0000
# 6 0.0000 0.0000 0.0000 18.4270 0.0000 0.0343
#
#
#
# Elastic Compliance Matrix: (Units=1/GPa)
#
#
# Indices 1 2 3 4 5 6 
#
# 1 0.054564 -0.005474 0.004722 0.000000 -0.026951 0.000000
# 2 -0.005474 0.007389 -0.003950 0.000000 0.004896 0.000000
# 3 0.004722 -0.003950 0.011742 0.000000 -0.003806 0.000000
# 4 0.000000 0.000000 0.000000 -0.000101 0.000000 0.054292
# 5 -0.026951 0.004896 -0.003806 0.000000 0.075235 0.000000
# 6 0.000000 0.000000 0.000000 0.054292 0.000000 -0.013103
#
#
# Mechanical properties :
#
#
# Convention : Reuss Voigt Hill
#
# Bulk Modulus (GPa) = 15.55400 46.96109 31.25754
# Shear Modulus (GPa) = 30.01931 20.33829 25.17880
#
# Velocity S-wave (km/s) = 3.64475 3.00002 3.33799
# Velocity P-wave (km/s) = 4.95936 5.72551 5.35616
#
# Compressibility (1/GPa) = 0.06429215
#
# Stress axis : x y z
#
# Youngs Moduli (GPa) = 18.32719 135.33881 85.16106
#
# Poissons Ratio (x) = 0.74087 -0.40217
# Poissons Ratio (y) = 0.10033 0.33636
# Poissons Ratio (z) = -0.08655 0.53455
#
# Static dielectric constant tensor:
#      x y z
#    x 1.875910 0.000000 0.010340 
#    y 0.000000 1.868670 0.000000 
#    z 0.010340 0.000000 1.883030 
# 
# From -- ./inp_files/88287.got.cif
#   From: 2010.05.17/outbox.cif.g08.bks.cpg/sg10_45_cif.got.tgz:88287.got - 2010.06.03 11:33:40.
