data_PCOD9147401
_publ_section_title
;
Structure prediction by ZEFSAII (Michael W. Deem and Ramdas Pophale) SiO2 
 PCOD9147401
Probable space group: P 2/M
;
_chemical_formula_sum "Si O2"
_cell_formula_units_Z 32
_cell_length_a 30.012702
_cell_length_b 7.480211
_cell_length_c 12.275948
_cell_angle_alpha 90.000000
_cell_angle_beta 148.705638
_cell_angle_gamma 90.000000
_cell_volume 1431.545706
_symmetry_space_group_name_H-M "P 2/M"
_symmetry_group_IT_number 10
_symmetry_cell_setting 'monoclinic'
loop_
_space_group_symop_operation_xyz
x,y,z
-x,y,-z
-x,-y,-z
x,-y,z
loop_
_atom_site_type_symbol
_atom_site_label
_atom_site_fract_x
_atom_site_fract_y
_atom_site_fract_z
Si Si1 0.576311 0.293010 0.232997
Si Si2 0.657022 0.283822 0.028853
Si Si3 0.736029 0.203780 0.424569
Si Si4 0.076995 0.218924 0.240978
Si Si5 0.312288 0.289229 0.140205
Si Si6 0.965259 0.781986 0.602167
Si Si7 0.542602 0.718148 0.400702
Si Si8 0.128616 0.785291 0.813792
O O1 0.551480 0.500000 0.197202
O O2 0.665596 0.287827 0.356334
O O3 0.578959 0.219638 0.360232
O O4 0.500000 0.212243 0.000000
O O5 0.662456 0.500000 0.052251
O O6 0.702160 0.220429 0.012265
O O7 0.557245 0.235142 0.805607
O O8 0.696914 0.207495 0.221457
O O9 0.831320 0.281125 0.613312
O O10 0.744480 0.000000 0.479830
O O11 0.061696 0.277669 0.333938
O O12 0.079634 0.000000 0.248808
O O13 0.000000 0.270596 0.000000
O O14 0.327362 0.500000 0.156830
O O15 0.396162 0.215750 0.375182
O O16 0.226879 0.267177 0.032175
O O17 0.905221 0.723583 0.375854
O O18 0.061001 0.727014 0.764409
O O19 0.963328 0.000000 0.599705
O O20 0.545567 0.500000 0.413383
O O21 0.124983 0.000000 0.804563
#
# Coordination Sequence:
#
# PCOD9147401 Si02
#       8
#     4   4   4   4   4   4   4   4
#     4  10  19  36  59  77 101 142 184 214 253 320
#     4  10  19  35  56  75 101 141 183 212 252 320
#     4  11  22  34  55  85 110 134 173 229 274 303
#     4   9  18  32  49  72 104 138 171 209 259 318
#     4  10  20  32  51  79 107 133 170 220 264 306
#     4   8  15  30  51  70  92 132 178 207 241 308
#     4   9  18  34  54  75 100 137 180 215 250 305
#     4   9  17  31  52  74  98 131 170 211 254 309
#
# _framework density 22.353460999999999
#
# number of rings (size 3 to 8) (size 9 to 14) (size 15 to 20)
#    0.000    2.500    1.250    2.250    0.000    4.250 
#    0.000    3.750    0.000    4.500    0.000    0.000 
#    0.000    0.000    0.000    0.000    0.000    0.000 
#
# Total GULP energy -178692.878367 kJ/mol
# GULP energy per Si atom -5584.152449 kJ/mol
# Density = 2.230258 g / cm^3
# Si number density = 22.353461 Si / 1000 Ang^3
#
#
#
# Elastic Constant Matrix: (Units=GPa)
#
#
# Indices 1 2 3 4 5 6 
#
# 1 90.8443 -6.7590 11.2698 0.0000 15.4197 0.0000
# 2 -6.7590 58.7293 -8.5787 0.0000 -5.2461 0.0000
# 3 11.2698 -8.5787 62.4492 0.0000 26.6448 0.0000
# 4 0.0000 0.0000 0.0000 7.0853 0.0000 6.2457
# 5 15.4197 -5.2461 26.6448 0.0000 29.3267 0.0000
# 6 0.0000 0.0000 0.0000 6.2457 0.0000 -98.3150
#
#
#
# Elastic Compliance Matrix: (Units=1/GPa)
#
#
# Indices 1 2 3 4 5 6 
#
# 1 0.012162 0.000905 0.000962 0.000000 -0.007106 0.000000
# 2 0.000905 0.017486 0.001808 0.000000 0.001009 0.000000
# 3 0.000962 0.001808 0.026399 0.000000 -0.024167 0.000000
# 4 0.000000 0.000000 0.000000 0.133652 0.000000 0.008491
# 5 -0.007106 0.001009 -0.024167 0.000000 0.059972 0.000000
# 6 0.000000 0.000000 0.000000 0.008491 0.000000 -0.009632
#
#
# Mechanical properties :
#
#
# Convention : Reuss Voigt Hill
#
# Bulk Modulus (GPa) = 15.77364 22.65411 19.21388
# Shear Modulus (GPa) = 19.69887 2.02546 10.86217
#
# Velocity S-wave (km/s) = 2.97180 0.95293 2.20677
# Velocity P-wave (km/s) = 4.34134 3.37154 3.88680
#
# Compressibility (1/GPa) = 0.06339691
#
# Stress axis : x y z
#
# Youngs Moduli (GPa) = 82.22229 57.18951 37.88024
#
# Poissons Ratio (x) = -0.05178 -0.03643
# Poissons Ratio (y) = -0.07444 -0.06849
# Poissons Ratio (z) = -0.07906 -0.10340
#
# Static dielectric constant tensor:
#      x y z
#    x 1.818390 0.000000 0.003590 
#    y 0.000000 1.865440 0.000000 
#    z 0.003590 0.000000 1.793400 
# 
# From -- ./inp_files/58245.got.cif
#   From: 2010.05.17/outbox.cif.g08.bks.cpg/sg10_30_cif.got.tgz:58245.got - 2010.06.03 11:33:40.
