data_PCOD9147141
_publ_section_title
;
Structure prediction by ZEFSAII (Michael W. Deem and Ramdas Pophale) SiO2 
 PCOD9147141
Probable space group: P 2/M
;
_chemical_formula_sum "Si O2"
_cell_formula_units_Z 28
_cell_length_a 17.277147
_cell_length_b 14.031001
_cell_length_c 8.303867
_cell_angle_alpha 90.000000
_cell_angle_beta 43.258507
_cell_angle_gamma 90.000000
_cell_volume 1379.482444
_symmetry_space_group_name_H-M "P 2/M"
_symmetry_group_IT_number 10
_symmetry_cell_setting 'monoclinic'
loop_
_space_group_symop_operation_xyz
x,y,z
-x,y,-z
-x,-y,-z
x,-y,z
loop_
_atom_site_type_symbol
_atom_site_label
_atom_site_fract_x
_atom_site_fract_y
_atom_site_fract_z
Si Si1 0.601881 0.182293 0.444799
Si Si2 0.815436 0.785205 0.577150
Si Si3 0.755494 0.694173 0.982283
Si Si4 0.827994 0.105318 0.245480
Si Si5 0.347677 0.500000 0.901860
Si Si6 0.396125 0.685258 0.269752
Si Si7 0.956319 0.709868 0.904037
Si Si8 0.616138 0.500000 0.531561
O O1 0.500000 0.136012 0.500000
O O2 0.702894 0.117463 0.359116
O O3 0.558538 0.240870 0.665019
O O4 0.658328 0.260773 0.240988
O O5 0.794330 0.777215 0.799637
O O6 0.824957 0.876500 0.443528
O O7 0.706079 0.734077 0.668076
O O8 0.932855 0.731297 0.367233
O O9 0.859490 0.665908 0.940333
O O10 0.711357 0.599004 0.960251
O O11 0.870896 0.000000 0.144295
O O12 0.899371 0.191283 0.057408
O O13 0.479198 0.500000 0.747495
O O14 0.347358 0.500000 0.707826
O O15 0.346219 0.594441 0.435895
O O16 0.500000 0.658227 0.000000
O O17 0.000000 0.658514 0.000000
#
# Coordination Sequence:
#
# PCOD9147141 Si02
#       8
#     4   4   4   4   2   4   4   2
#     4  10  19  34  57  82 116 157 191 228 284 343
#     4  10  21  36  58  83 113 150 188 232 284 343
#     4  11  21  38  57  82 117 154 195 234 281 332
#     4   9  20  38  61  88 114 144 187 237 287 341
#     4  11  22  34  57  83 116 153 197 241 275 323
#     4  11  21  34  55  84 116 151 196 236 284 332
#     4   9  20  38  61  82 109 148 187 232 286 340
#     4  11  21  34  53  84 117 149 193 248 277 325
#
# _framework density 20.297469
#
# number of rings (size 3 to 8) (size 9 to 14) (size 15 to 20)
#    0.000    1.857    1.429    4.071    0.000    3.429 
#    0.000    5.357    0.000   21.429    0.000    0.000 
#    0.000    0.000    0.000    0.000    0.000    0.000 
#
# Total GULP energy -156166.476648 kJ/mol
# GULP energy per Si atom -5577.374166 kJ/mol
# Density = 2.025127 g / cm^3
# Si number density = 20.297469 Si / 1000 Ang^3
#
#
#
# Elastic Constant Matrix: (Units=GPa)
#
#
# Indices 1 2 3 4 5 6 
#
# 1 97.7360 -13.3954 10.1863 0.0000 -11.5538 0.0000
# 2 -13.3954 32.8383 -7.9295 0.0000 6.2505 0.0000
# 3 10.1863 -7.9295 66.6779 0.0000 8.7678 0.0000
# 4 0.0000 0.0000 0.0000 12.2918 0.0000 6.5222
# 5 -11.5538 6.2505 8.7678 0.0000 35.2807 0.0000
# 6 0.0000 0.0000 0.0000 6.5222 0.0000 3.9536
#
#
#
# Elastic Compliance Matrix: (Units=1/GPa)
#
#
# Indices 1 2 3 4 5 6 
#
# 1 0.011315 0.003517 -0.001774 0.000000 0.003523 0.000000
# 2 0.003517 0.034056 0.004295 0.000000 -0.005949 0.000000
# 3 -0.001774 0.004295 0.016495 0.000000 -0.005441 0.000000
# 4 0.000000 0.000000 0.000000 0.652564 0.000000 -1.076509
# 5 0.003523 -0.005949 -0.005441 0.000000 0.031904 0.000000
# 6 0.000000 0.000000 0.000000 -1.076509 0.000000 2.028804
#
#
# Mechanical properties :
#
#
# Convention : Reuss Voigt Hill
#
# Bulk Modulus (GPa) = 13.52405 19.44166 16.48286
# Shear Modulus (GPa) = 1.79359 24.19795 12.99577
#
# Velocity S-wave (km/s) = 0.94105 3.45652 2.53309
# Velocity P-wave (km/s) = 2.80324 5.05264 4.08579
#
# Compressibility (1/GPa) = 0.07394235
#
# Stress axis : x y z
#
# Youngs Moduli (GPa) = 88.37836 29.36315 60.62556
#
# Poissons Ratio (x) = -0.10326 0.10753
# Poissons Ratio (y) = -0.31080 -0.26039
# Poissons Ratio (z) = 0.15675 -0.12612
#
# Static dielectric constant tensor:
#      x y z
#    x 1.761740 0.000000 0.013170 
#    y 0.000000 1.719610 0.000000 
#    z 0.013170 0.000000 1.706110 
# 
# From -- ./inp_files/32819.got.cif
#   From: 2010.05.17/outbox.cif.g08.bks.cpg/sg10_17_cif.got.tgz:32819.got - 2010.06.03 11:33:40.
