data_PCOD9147467
_publ_section_title
;
Structure prediction by ZEFSAII (Michael W. Deem and Ramdas Pophale) SiO2 
 PCOD9147467
Probable space group: P 2/M
;
_chemical_formula_sum "Si O2"
_cell_formula_units_Z 28
_cell_length_a 16.262918
_cell_length_b 7.688341
_cell_length_c 12.207934
_cell_angle_alpha 90.000000
_cell_angle_beta 124.654257
_cell_angle_gamma 90.000000
_cell_volume 1255.628242
_symmetry_space_group_name_H-M "P 2/M"
_symmetry_group_IT_number 10
_symmetry_cell_setting 'monoclinic'
loop_
_space_group_symop_operation_xyz
x,y,z
-x,y,-z
-x,-y,-z
x,-y,z
loop_
_atom_site_type_symbol
_atom_site_label
_atom_site_fract_x
_atom_site_fract_y
_atom_site_fract_z
Si Si1 0.013787 0.289298 0.135377
Si Si2 0.387561 0.207757 0.412095
Si Si3 0.783749 0.800289 0.336728
Si Si4 0.823652 0.296077 0.124695
Si Si5 0.791796 0.207611 0.580865
Si Si6 0.367670 0.709964 0.150595
Si Si7 0.446339 0.709841 0.843546
O O1 0.012999 0.500000 0.134064
O O2 0.118138 0.235939 0.267606
O O3 0.921986 0.224171 0.140555
O O4 0.000000 0.230423 0.000000
O O5 0.500000 0.280003 0.500000
O O6 0.310628 0.278121 0.443864
O O7 0.347015 0.240053 0.259434
O O8 0.393805 0.000000 0.433312
O O9 0.822618 0.718298 0.254347
O O10 0.815030 0.721761 0.477371
O O11 0.663025 0.789860 0.244987
O O12 0.816443 0.000000 0.356698
O O13 0.822175 0.500000 0.096003
O O14 0.720553 0.224497 0.995487
O O15 0.778398 0.000000 0.556869
O O16 0.371171 0.500000 0.145532
O O17 0.476431 0.770326 0.191410
O O18 0.433644 0.500000 0.827830
O O19 0.500000 0.746700 0.000000
#
# Coordination Sequence:
#
# PCOD9147467 Si02
#       7
#     4   4   4   4   4   4   4
#     4  10  22  41  66  90 112 146 194 244 290 344
#     4  10  21  38  58  81 115 154 191 233 285 341
#     4  11  23  38  58  86 119 156 198 238 282 345
#     4  10  21  39  60  85 117 149 187 240 295 342
#     4  10  23  41  59  83 119 158 191 236 293 344
#     4  10  20  35  58  85 114 148 190 239 288 341
#     4  10  19  35  57  82 117 158 192 233 289 339
#
# _framework density 22.299593000000002
#
# number of rings (size 3 to 8) (size 9 to 14) (size 15 to 20)
#    0.000    1.857    1.429    2.143    0.000    7.143 
#    0.000    2.857    0.000    0.000    0.000    0.000 
#    0.000    0.000    0.000    0.000    0.000    0.000 
#
# Total GULP energy -156509.541869 kJ/mol
# GULP energy per Si atom -5589.626495 kJ/mol
# Density = 2.224884 g / cm^3
# Si number density = 22.299593 Si / 1000 Ang^3
#
#
#
# Elastic Constant Matrix: (Units=GPa)
#
#
# Indices 1 2 3 4 5 6 
#
# 1 141.7336 -2.0244 41.4072 0.0000 -12.2096 0.0000
# 2 -2.0244 34.8566 -10.5000 0.0000 1.7924 0.0000
# 3 41.4072 -10.5000 116.8326 0.0000 -15.9404 0.0000
# 4 0.0000 0.0000 0.0000 22.2484 0.0000 0.3426
# 5 -12.2096 1.7924 -15.9404 0.0000 32.9292 0.0000
# 6 0.0000 0.0000 0.0000 0.3426 0.0000 9.9388
#
#
#
# Elastic Compliance Matrix: (Units=1/GPa)
#
#
# Indices 1 2 3 4 5 6 
#
# 1 0.007964 -0.000417 -0.002628 0.000000 0.001704 0.000000
# 2 -0.000417 0.029513 0.002741 0.000000 -0.000434 0.000000
# 3 -0.002628 0.002741 0.010261 0.000000 0.003844 0.000000
# 4 0.000000 0.000000 0.000000 0.044971 0.000000 -0.001550
# 5 0.001704 -0.000434 0.003844 0.000000 0.032884 0.000000
# 6 0.000000 0.000000 0.000000 -0.001550 0.000000 0.100670
#
#
# Mechanical properties :
#
#
# Convention : Reuss Voigt Hill
#
# Bulk Modulus (GPa) = 21.21737 39.02094 30.11915
# Shear Modulus (GPa) = 20.61179 30.65927 25.63553
#
# Velocity S-wave (km/s) = 3.04355 3.71196 3.39425
# Velocity P-wave (km/s) = 4.67828 5.99233 5.37561
#
# Compressibility (1/GPa) = 0.04713120
#
# Stress axis : x y z
#
# Youngs Moduli (GPa) = 125.56618 33.88373 97.45399
#
# Poissons Ratio (x) = 0.01412 0.25606
# Poissons Ratio (y) = 0.05231 -0.26710
# Poissons Ratio (z) = 0.32993 -0.09287
#
# Static dielectric constant tensor:
#      x y z
#    x 1.814290 0.000000 -0.007250 
#    y 0.000000 1.822850 0.000000 
#    z -0.007250 0.000000 1.797940 
# 
# From -- ./inp_files/50025.got.cif
#   From: 2010.05.17/outbox.cif.g08.bks.cpg/sg10_26_cif.got.tgz:50025.got - 2010.06.03 11:33:40.
