data_PCOD9147422
_publ_section_title
;
Structure prediction by ZEFSAII (Michael W. Deem and Ramdas Pophale) SiO2 
 PCOD9147422
Probable space group: P 2/M
;
_chemical_formula_sum "Si O2"
_cell_formula_units_Z 24
_cell_length_a 9.153620
_cell_length_b 11.415012
_cell_length_c 11.649417
_cell_angle_alpha 90.000000
_cell_angle_beta 84.779870
_cell_angle_gamma 90.000000
_cell_volume 1212.183753
_symmetry_space_group_name_H-M "P 2/M"
_symmetry_group_IT_number 10
_symmetry_cell_setting 'monoclinic'
loop_
_space_group_symop_operation_xyz
x,y,z
-x,y,-z
-x,-y,-z
x,-y,z
loop_
_atom_site_type_symbol
_atom_site_label
_atom_site_fract_x
_atom_site_fract_y
_atom_site_fract_z
Si Si1 0.699697 0.294763 0.382620
Si Si2 0.614751 0.633830 0.639017
Si Si3 0.159251 0.722867 0.196558
Si Si4 0.141246 0.628721 0.848766
Si Si5 0.049509 0.127638 0.627807
Si Si6 0.822857 0.866012 0.018599
O O1 0.532026 0.288982 0.354081
O O2 0.697706 0.344654 0.512311
O O3 0.792900 0.369367 0.284747
O O4 0.785263 0.172873 0.379398
O O5 0.563089 0.500000 0.643382
O O6 0.717052 0.657425 0.740340
O O7 0.036218 0.643624 0.141581
O O8 0.059031 0.789887 0.295690
O O9 0.223961 0.816967 0.102608
O O10 0.178326 0.500000 0.896306
O O11 0.202510 0.751339 0.898325
O O12 0.000000 0.125578 0.500000
O O13 0.038687 0.000000 0.681663
O O14 0.770531 0.000000 0.048259
O O15 0.000000 0.874585 0.000000
#
# Coordination Sequence:
#
# PCOD9147422 Si02
#       6
#     4   4   4   4   4   4
#     4  10  21  37  55  81 114 153 190 225 283 341
#     4  11  21  36  56  80 117 154 185 229 285 345
#     4  10  20  34  57  86 112 145 189 233 287 340
#     4  10  20  34  57  85 113 144 191 242 284 335
#     4  10  19  35  56  80 111 144 186 235 281 332
#     4   9  19  36  58  81 110 147 187 234 290 342
#
# _framework density 19.798978000000002
#
# number of rings (size 3 to 8) (size 9 to 14) (size 15 to 20)
#    0.000    2.000    1.667    3.000    0.000    7.667 
#    0.000    6.667    0.000    3.000    0.000    0.000 
#    0.000    0.000    0.000    0.000    0.000    0.000 
#
# Total GULP energy -133690.247908 kJ/mol
# GULP energy per Si atom -5570.426996 kJ/mol
# Density = 1.975391 g / cm^3
# Si number density = 19.798978 Si / 1000 Ang^3
#
#
#
# Elastic Constant Matrix: (Units=GPa)
#
#
# Indices 1 2 3 4 5 6 
#
# 1 50.1898 14.1105 15.5791 0.0000 5.8459 0.0000
# 2 14.1105 111.9518 27.7360 0.0000 -5.2726 0.0000
# 3 15.5791 27.7360 70.1216 0.0000 11.9416 0.0000
# 4 0.0000 0.0000 0.0000 11.0722 0.0000 -3.7210
# 5 5.8459 -5.2726 11.9416 0.0000 17.3243 0.0000
# 6 0.0000 0.0000 0.0000 -3.7210 0.0000 8.4428
#
#
#
# Elastic Compliance Matrix: (Units=1/GPa)
#
#
# Indices 1 2 3 4 5 6 
#
# 1 0.022224 -0.002362 -0.002950 0.000000 -0.006184 0.000000
# 2 -0.002362 0.010839 -0.005053 0.000000 0.007579 0.000000
# 3 -0.002950 -0.005053 0.019270 0.000000 -0.013825 0.000000
# 4 0.000000 0.000000 0.000000 0.106019 0.000000 0.046726
# 5 -0.006184 0.007579 -0.013825 0.000000 0.071646 0.000000
# 6 0.000000 0.000000 0.000000 0.046726 0.000000 0.139038
#
#
# Mechanical properties :
#
#
# Convention : Reuss Voigt Hill
#
# Bulk Modulus (GPa) = 31.64290 38.56825 35.10558
# Shear Modulus (GPa) = 12.49062 19.02369 15.75715
#
# Velocity S-wave (km/s) = 2.51444 3.10311 2.82415
# Velocity P-wave (km/s) = 4.94436 5.68869 5.32954
#
# Compressibility (1/GPa) = 0.03160266
#
# Stress axis : x y z
#
# Youngs Moduli (GPa) = 44.99551 92.25984 51.89535
#
# Poissons Ratio (x) = 0.21787 0.15311
# Poissons Ratio (y) = 0.10626 0.26224
# Poissons Ratio (z) = 0.13275 0.46621
#
# Static dielectric constant tensor:
#      x y z
#    x 1.668930 0.000000 0.012300 
#    y 0.000000 1.735140 0.000000 
#    z 0.012300 0.000000 1.754100 
# 
# From -- ./inp_files/42002.got.cif
#   From: 2010.05.17/outbox.cif.g08.bks.cpg/sg10_22_cif.got.tgz:42002.got - 2010.06.03 11:33:40.
