data_PCOD9147154
_publ_section_title
;
Structure prediction by ZEFSAII (Michael W. Deem and Ramdas Pophale) SiO2 
 PCOD9147154
Probable space group: P 2/M
;
_chemical_formula_sum "Si O2"
_cell_formula_units_Z 32
_cell_length_a 8.348587
_cell_length_b 15.494203
_cell_length_c 22.327355
_cell_angle_alpha 90.000000
_cell_angle_beta 145.222083
_cell_angle_gamma 90.000000
_cell_volume 1647.391260
_symmetry_space_group_name_H-M "P 2/M"
_symmetry_group_IT_number 10
_symmetry_cell_setting 'monoclinic'
loop_
_space_group_symop_operation_xyz
x,y,z
-x,y,-z
-x,-y,-z
x,-y,z
loop_
_atom_site_type_symbol
_atom_site_label
_atom_site_fract_x
_atom_site_fract_y
_atom_site_fract_z
Si Si1 0.292014 0.597641 0.492374
Si Si2 0.777222 0.185712 0.203242
Si Si3 0.109418 0.399098 0.101321
Si Si4 0.945759 0.744130 0.133727
Si Si5 0.694660 0.094346 0.000008
Si Si6 0.274471 0.686027 0.701941
Si Si7 0.604242 0.101170 0.600286
Si Si8 0.578437 0.249750 0.376051
O O1 0.500000 0.606809 0.500000
O O2 0.313915 0.500000 0.522588
O O3 0.368738 0.668948 0.564867
O O4 0.977477 0.617744 0.374229
O O5 0.761005 0.241583 0.136523
O O6 0.517272 0.120239 0.118002
O O7 0.755661 0.248012 0.252802
O O8 0.074327 0.135397 0.295693
O O9 0.108519 0.500000 0.116724
O O10 0.424974 0.361066 0.202623
O O11 0.917551 0.342336 0.086845
O O12 0.000000 0.389267 0.000000
O O13 0.259235 0.744824 0.255249
O O14 0.902021 0.827080 0.077612
O O15 0.824137 0.000000 0.030837
O O16 0.500000 0.088707 0.000000
O O17 0.245729 0.738229 0.630463
O O18 0.500000 0.111772 0.500000
O O19 0.412879 0.161325 0.583957
O O20 0.593362 0.000000 0.612641
#
# Coordination Sequence:
#
# PCOD9147154 Si02
#       8
#     4   4   4   4   4   4   4   4
#     4  11  23  39  61  88 116 148 192 244 295 350
#     4  10  19  34  57  83 115 152 192 239 293 347
#     4  10  21  38  58  81 114 156 197 237 287 348
#     4   9  19  34  55  80 109 148 189 234 285 341
#     4   9  17  31  55  85 112 142 187 240 291 342
#     4  11  22  37  59  85 118 154 191 238 293 349
#     4  10  20  36  58  82 112 153 196 235 283 347
#     4  10  21  36  56  81 113 150 185 232 287 341
#
# _framework density 19.424651999999998
#
# number of rings (size 3 to 8) (size 9 to 14) (size 15 to 20)
#    0.000    2.000    0.000    4.500    0.000    6.000 
#    0.000    2.500    0.000   15.750    0.000    0.000 
#    0.000    0.000    0.000    0.000    0.000    0.000 
#
# Total GULP energy -178590.882341 kJ/mol
# GULP energy per Si atom -5580.965073 kJ/mol
# Density = 1.938044 g / cm^3
# Si number density = 19.424652 Si / 1000 Ang^3
#
#
#
# Elastic Constant Matrix: (Units=GPa)
#
#
# Indices 1 2 3 4 5 6 
#
# 1 80.8141 76.1349 17.5617 0.0000 -20.4345 0.0000
# 2 76.1349 182.6563 58.3673 0.0000 -25.1247 0.0000
# 3 17.5617 58.3673 91.1296 0.0000 -8.9835 0.0000
# 4 0.0000 0.0000 0.0000 28.8806 0.0000 -1.9750
# 5 -20.4345 -25.1247 -8.9835 0.0000 13.4377 0.0000
# 6 0.0000 0.0000 0.0000 -1.9750 0.0000 3.5786
#
#
#
# Elastic Compliance Matrix: (Units=1/GPa)
#
#
# Indices 1 2 3 4 5 6 
#
# 1 0.026100 -0.008149 0.002784 0.000000 0.026315 0.000000
# 2 -0.008149 0.011211 -0.005102 0.000000 0.005159 0.000000
# 3 0.002784 -0.005102 0.014111 0.000000 0.004128 0.000000
# 4 0.000000 0.000000 0.000000 0.035983 0.000000 0.019859
# 5 0.026315 0.005159 0.004128 0.000000 0.126841 0.000000
# 6 0.000000 0.000000 0.000000 0.019859 0.000000 0.290396
#
#
# Mechanical properties :
#
#
# Convention : Reuss Voigt Hill
#
# Bulk Modulus (GPa) = 32.79885 73.19199 52.99542
# Shear Modulus (GPa) = 9.33289 22.68179 16.00734
#
# Velocity S-wave (km/s) = 2.19433 3.42084 2.87378
# Velocity P-wave (km/s) = 4.83135 7.30511 6.19300
#
# Compressibility (1/GPa) = 0.03048887
#
# Stress axis : x y z
#
# Youngs Moduli (GPa) = 38.31392 89.19557 70.86435
#
# Poissons Ratio (x) = 0.72685 -0.19726
# Poissons Ratio (y) = 0.31222 0.36153
# Poissons Ratio (z) = -0.10665 0.45505
#
# Static dielectric constant tensor:
#      x y z
#    x 1.697140 0.000000 0.010370 
#    y 0.000000 1.676760 0.000000 
#    z 0.010370 0.000000 1.698830 
# 
# From -- ./inp_files/35170.got.cif
#   From: 2010.05.17/outbox.cif.g08.bks.cpg/sg10_18_cif.got.tgz:35170.got - 2010.06.03 11:33:40.
