data_PCOD9147681
_publ_section_title
;
Structure prediction by ZEFSAII (Michael W. Deem and Ramdas Pophale) SiO2 
 PCOD9147681
Probable space group: P 2/M
;
_chemical_formula_sum "Si O2"
_cell_formula_units_Z 26
_cell_length_a 16.101243
_cell_length_b 14.809502
_cell_length_c 9.352729
_cell_angle_alpha 90.000000
_cell_angle_beta 145.389598
_cell_angle_gamma 90.000000
_cell_volume 1266.722041
_symmetry_space_group_name_H-M "P 2/M"
_symmetry_group_IT_number 10
_symmetry_cell_setting 'monoclinic'
loop_
_space_group_symop_operation_xyz
x,y,z
-x,y,-z
-x,-y,-z
x,-y,z
loop_
_atom_site_type_symbol
_atom_site_label
_atom_site_fract_x
_atom_site_fract_y
_atom_site_fract_z
Si Si1 0.559931 0.821014 0.928610
Si Si2 0.042726 0.608531 0.715728
Si Si3 0.000000 0.132695 0.000000
Si Si4 0.758974 0.000000 0.196216
Si Si5 0.957024 0.000000 0.197488
Si Si6 0.152984 0.605229 0.305463
Si Si7 0.288471 0.223208 0.394428
Si Si8 0.350543 0.699301 0.204183
O O1 0.410638 0.840442 0.632177
O O2 0.621245 0.740396 0.913475
O O3 0.500000 0.793182 0.000000
O O4 0.663570 0.908482 0.081524
O O5 0.043711 0.500000 0.716706
O O6 0.000000 0.643955 0.500000
O O7 0.908961 0.634750 0.628932
O O8 0.205902 0.637759 0.992562
O O9 0.045756 0.080233 0.922091
O O10 0.864593 0.191797 0.765309
O O11 0.890977 0.000000 0.498447
O O12 0.831923 0.000000 0.141061
O O13 0.199101 0.500000 0.370903
O O14 0.279937 0.670868 0.428340
O O15 0.000000 0.609135 0.000000
O O16 0.303458 0.221219 0.245636
O O17 0.500000 0.666054 0.500000
#
# Coordination Sequence:
#
# PCOD9147681 Si02
#       8
#     4   4   2   2   2   4   4   4
#     4  11  25  41  63  86 118 162 203 247 311 365
#     4  10  21  37  60  91 124 161 203 252 307 357
#     4  11  20  38  61  96 122 154 201 246 300 359
#     4  11  23  47  61  87 121 154 201 247 308 373
#     4  10  24  39  65  90 121 153 193 254 307 358
#     4  10  19  35  62  92 123 161 204 248 298 353
#     4  11  21  38  63  91 126 159 204 250 297 360
#     4  10  22  40  57  88 123 160 207 250 303 365
#
# _framework density 20.525417000000001
#
# number of rings (size 3 to 8) (size 9 to 14) (size 15 to 20)
#    0.000    1.538    2.308    2.077    2.154    1.538 
#    5.538    6.538    0.000    0.923    0.000    0.000 
#    0.000    0.000    0.000    0.000    0.000    0.000 
#
# Total GULP energy -144741.630202 kJ/mol
# GULP energy per Si atom -5566.985777 kJ/mol
# Density = 2.047870 g / cm^3
# Si number density = 20.525417 Si / 1000 Ang^3
#
#
#
# Elastic Constant Matrix: (Units=GPa)
#
#
# Indices 1 2 3 4 5 6 
#
# 1 137.3105 33.9659 19.7686 0.0000 -20.0972 0.0000
# 2 33.9659 45.4411 25.3992 0.0000 2.5427 0.0000
# 3 19.7686 25.3992 66.0058 0.0000 2.3445 0.0000
# 4 0.0000 0.0000 0.0000 -108.3577 0.0000 122.0876
# 5 -20.0972 2.5427 2.3445 0.0000 46.7543 0.0000
# 6 0.0000 0.0000 0.0000 122.0876 0.0000 -77.7950
#
#
#
# Elastic Compliance Matrix: (Units=1/GPa)
#
#
# Indices 1 2 3 4 5 6 
#
# 1 0.009851 -0.007494 -0.000232 0.000000 0.004654 0.000000
# 2 -0.007494 0.033783 -0.010595 0.000000 -0.004527 0.000000
# 3 -0.000232 -0.010595 0.019314 0.000000 -0.000492 0.000000
# 4 0.000000 0.000000 0.000000 0.012013 0.000000 0.018853
# 5 0.004654 -0.004527 -0.000492 0.000000 0.023660 0.000000
# 6 0.000000 0.000000 0.000000 0.018853 0.000000 0.016733
#
#
# Mechanical properties :
#
#
# Convention : Reuss Voigt Hill
#
# Bulk Modulus (GPa) = 38.01269 45.22498 41.61884
# Shear Modulus (GPa) = 31.10136 -16.57142 7.26497
#
# Velocity S-wave (km/s) = 3.89686 -2.84449 1.88340
# Velocity P-wave (km/s) = 6.22956 3.36055 5.00503
#
# Compressibility (1/GPa) = 0.02630700
#
# Stress axis : x y z
#
# Youngs Moduli (GPa) = 101.51179 29.60039 51.77610
#
# Poissons Ratio (x) = 0.22183 0.01201
# Poissons Ratio (y) = 0.76075 0.54855
# Poissons Ratio (z) = 0.02354 0.31360
#
# Static dielectric constant tensor:
#      x y z
#    x 2.145730 0.000000 -0.271710 
#    y 0.000000 1.744230 0.000000 
#    z -0.271710 0.000000 1.936510 
# 
# From -- ./inp_files/29847.got.cif
#   From: 2010.05.17/outbox.cif.g08.bks.cpg/sg10_15_cif.got.tgz:29847.got - 2010.06.03 11:33:40.
