data_PCOD9147140
_publ_section_title
;
Structure prediction by ZEFSAII (Michael W. Deem and Ramdas Pophale) SiO2 
 PCOD9147140
Probable space group: P 2/M
;
_chemical_formula_sum "Si O2"
_cell_formula_units_Z 30
_cell_length_a 9.525685
_cell_length_b 14.555066
_cell_length_c 12.105914
_cell_angle_alpha 90.000000
_cell_angle_beta 73.428249
_cell_angle_gamma 90.000000
_cell_volume 1608.731159
_symmetry_space_group_name_H-M "P 2/M"
_symmetry_group_IT_number 10
_symmetry_cell_setting 'monoclinic'
loop_
_space_group_symop_operation_xyz
x,y,z
-x,y,-z
-x,-y,-z
x,-y,z
loop_
_atom_site_type_symbol
_atom_site_label
_atom_site_fract_x
_atom_site_fract_y
_atom_site_fract_z
Si Si1 0.356388 0.605940 0.230996
Si Si2 0.017824 0.105556 0.624385
Si Si3 0.659675 0.310375 0.122800
Si Si4 0.198397 0.100019 0.137988
Si Si5 0.338365 0.390287 0.492765
Si Si6 0.157429 0.279508 0.706699
Si Si7 0.500000 0.834464 0.000000
Si Si8 0.860280 0.301097 0.888743
O O1 0.313630 0.500000 0.220694
O O2 0.529751 0.616989 0.169652
O O3 0.327596 0.629748 0.365124
O O4 0.264103 0.672328 0.172580
O O5 0.114631 0.180368 0.666701
O O6 0.000000 0.129306 0.500000
O O7 0.862647 0.107019 0.723797
O O8 0.072756 0.000000 0.619198
O O9 0.720733 0.276170 0.225386
O O10 0.580794 0.229821 0.071217
O O11 0.797009 0.342516 0.016355
O O12 0.134054 0.190606 0.094018
O O13 0.150761 0.000000 0.105523
O O14 0.372196 0.108564 0.086997
O O15 0.500000 0.363819 0.500000
O O16 0.325030 0.500000 0.509539
O O17 0.217842 0.340249 0.593130
O O18 0.014406 0.323545 0.797997
#
# Coordination Sequence:
#
# PCOD9147140 Si02
#       8
#     4   4   4   4   4   4   2   4
#     4  11  22  39  62  83 113 158 200 239 292 360
#     4   9  20  38  59  86 119 158 200 235 286 354
#     4  11  20  38  57  87 119 155 193 242 286 359
#     4   9  17  32  55  82 113 149 189 233 281 334
#     4  10  22  39  59  85 116 152 194 240 296 359
#     4  11  23  36  64  86 120 155 190 248 304 335
#     4  10  19  34  57  82 116 152 205 234 279 346
#     4  10  22  38  56  87 118 149 202 240 287 346
#
# _framework density 18.648236000000001
#
# number of rings (size 3 to 8) (size 9 to 14) (size 15 to 20)
#    0.000    1.867    4.000    0.600    3.733    1.600 
#    0.000    4.667    0.000   13.200    0.000    0.000 
#    0.000    0.000    0.000    0.000    0.000    0.000 
#
# Total GULP energy -167184.699830 kJ/mol
# GULP energy per Si atom -5572.823328 kJ/mol
# Density = 1.860579 g / cm^3
# Si number density = 18.648236 Si / 1000 Ang^3
#
#
#
# Elastic Constant Matrix: (Units=GPa)
#
#
# Indices 1 2 3 4 5 6 
#
# 1 51.3469 26.5420 25.1849 0.0000 -2.9175 0.0000
# 2 26.5420 51.8292 37.6060 0.0000 3.9633 0.0000
# 3 25.1849 37.6060 105.3842 0.0000 -11.7881 0.0000
# 4 0.0000 0.0000 0.0000 12.7483 0.0000 -10.3209
# 5 -2.9175 3.9633 -11.7881 0.0000 41.0019 0.0000
# 6 0.0000 0.0000 0.0000 -10.3209 0.0000 15.9340
#
#
#
# Elastic Compliance Matrix: (Units=1/GPa)
#
#
# Indices 1 2 3 4 5 6 
#
# 1 0.027087 -0.012962 -0.001542 0.000000 0.002737 0.000000
# 2 -0.012962 0.033430 -0.009605 0.000000 -0.006915 0.000000
# 3 -0.001542 -0.009605 0.013821 0.000000 0.004792 0.000000
# 4 0.000000 0.000000 0.000000 0.164930 0.000000 0.106830
# 5 0.002737 -0.006915 0.004792 0.000000 0.026630 0.000000
# 6 0.000000 0.000000 0.000000 0.106830 0.000000 0.131956
#
#
# Mechanical properties :
#
#
# Convention : Reuss Voigt Hill
#
# Bulk Modulus (GPa) = 38.28415 43.02512 40.65463
# Shear Modulus (GPa) = 10.99432 21.88534 16.43983
#
# Velocity S-wave (km/s) = 2.43073 3.42948 2.97235
# Velocity P-wave (km/s) = 5.33405 6.22927 5.79896
#
# Compressibility (1/GPa) = 0.02612047
#
# Stress axis : x y z
#
# Youngs Moduli (GPa) = 36.91741 29.91294 72.35265
#
# Poissons Ratio (x) = 0.38774 0.11155
# Poissons Ratio (y) = 0.47854 0.69497
# Poissons Ratio (z) = 0.05692 0.28732
#
# Static dielectric constant tensor:
#      x y z
#    x 1.646460 0.000000 -0.029800 
#    y 0.000000 1.653840 0.000000 
#    z -0.029800 0.000000 1.658330 
# 
# From -- ./inp_files/42923.got.cif
#   From: 2010.05.17/outbox.cif.g08.bks.cpg/sg10_22_cif.got.tgz:42923.got - 2010.06.03 11:33:40.
