data_PCOD9147756
_publ_section_title
;
Structure prediction by ZEFSAII (Michael W. Deem and Ramdas Pophale) SiO2 
 PCOD9147756
Probable space group: P 2/M
;
_chemical_formula_sum "Si O2"
_cell_formula_units_Z 28
_cell_length_a 22.128838
_cell_length_b 8.710843
_cell_length_c 14.755787
_cell_angle_alpha 90.000000
_cell_angle_beta 149.128500
_cell_angle_gamma 90.000000
_cell_volume 1459.470602
_symmetry_space_group_name_H-M "P 2/M"
_symmetry_group_IT_number 10
_symmetry_cell_setting 'monoclinic'
loop_
_space_group_symop_operation_xyz
x,y,z
-x,y,-z
-x,-y,-z
x,-y,z
loop_
_atom_site_type_symbol
_atom_site_label
_atom_site_fract_x
_atom_site_fract_y
_atom_site_fract_z
Si Si1 0.626820 0.182604 0.822426
Si Si2 0.792798 0.819077 0.517444
Si Si3 0.383551 0.683089 0.567264
Si Si4 0.719436 0.684596 0.761866
Si Si5 0.989391 0.317858 0.094702
Si Si6 0.117422 0.681421 0.545774
Si Si7 0.867081 0.817298 0.236336
O O1 0.518118 0.266646 0.729640
O O2 0.641075 0.236629 0.737313
O O3 0.608985 0.000000 0.803650
O O4 0.749786 0.220372 0.030148
O O5 0.683476 0.764078 0.437063
O O6 0.802198 0.733200 0.433820
O O7 0.910126 0.774430 0.724672
O O8 0.789024 0.000000 0.497464
O O9 0.373288 0.500000 0.564523
O O10 0.320305 0.725478 0.390739
O O11 0.708852 0.500000 0.756901
O O12 0.856735 0.725622 0.951266
O O13 0.006583 0.500000 0.135451
O O14 0.000000 0.297961 0.000000
O O15 0.122919 0.500000 0.567425
O O16 0.147200 0.767884 0.677446
O O17 0.982779 0.729885 0.350066
O O18 0.888158 0.000000 0.257935
#
# Coordination Sequence:
#
# PCOD9147756 Si02
#       7
#     4   4   4   4   4   4   4
#     4  11  24  39  58  86 118 153 194 242 293 346
#     4  12  24  38  58  87 122 157 194 239 298 352
#     4  11  23  41  60  81 114 158 203 244 288 342
#     4  10  21  37  59  84 114 156 200 242 288 340
#     4  10  19  36  58  83 117 153 194 239 285 341
#     4  11  22  38  64  93 119 151 194 239 289 350
#     4  10  21  40  63  90 123 152 187 240 299 349
#
# _framework density 19.185039
#
# number of rings (size 3 to 8) (size 9 to 14) (size 15 to 20)
#    0.000    1.286    1.429    6.000    0.000    8.286 
#    0.000    0.714    0.000    4.286    0.000    0.000 
#    0.000    0.000    0.000    0.000    0.000    0.000 
#
# Total GULP energy -156632.184617 kJ/mol
# GULP energy per Si atom -5594.006593 kJ/mol
# Density = 1.914137 g / cm^3
# Si number density = 19.185039 Si / 1000 Ang^3
#
#
#
# Elastic Constant Matrix: (Units=GPa)
#
#
# Indices 1 2 3 4 5 6 
#
# 1 96.7158 4.9662 14.4247 0.0000 9.3510 0.0000
# 2 4.9662 29.9868 6.5370 0.0000 1.2031 0.0000
# 3 14.4247 6.5370 31.4299 0.0000 8.2617 0.0000
# 4 0.0000 0.0000 0.0000 27.0604 0.0000 7.8416
# 5 9.3510 1.2031 8.2617 0.0000 16.5170 0.0000
# 6 0.0000 0.0000 0.0000 7.8416 0.0000 23.7528
#
#
#
# Elastic Compliance Matrix: (Units=1/GPa)
#
#
# Indices 1 2 3 4 5 6 
#
# 1 0.011392 -0.000862 -0.003881 0.000000 -0.004446 0.000000
# 2 -0.000862 0.035020 -0.007306 0.000000 0.001592 0.000000
# 3 -0.003881 -0.007306 0.039608 0.000000 -0.017082 0.000000
# 4 0.000000 0.000000 0.000000 0.040864 0.000000 -0.013490
# 5 -0.004446 0.001592 -0.017082 0.000000 0.071489 0.000000
# 6 0.000000 0.000000 0.000000 -0.013490 0.000000 0.046554
#
#
# Mechanical properties :
#
#
# Convention : Reuss Voigt Hill
#
# Bulk Modulus (GPa) = 16.14953 23.33204 19.74078
# Shear Modulus (GPa) = 17.26130 22.27970 19.77050
#
# Velocity S-wave (km/s) = 3.00280 3.41149 3.21365
# Velocity P-wave (km/s) = 4.52310 5.26362 4.90735
#
# Compressibility (1/GPa) = 0.06192132
#
# Stress axis : x y z
#
# Youngs Moduli (GPa) = 87.77730 28.55532 25.24768
#
# Poissons Ratio (x) = 0.02463 0.09797
# Poissons Ratio (y) = 0.07570 0.18447
# Poissons Ratio (z) = 0.34062 0.20863
#
# Static dielectric constant tensor:
#      x y z
#    x 1.655770 0.000000 -0.002950 
#    y 0.000000 1.640770 0.000000 
#    z -0.002950 0.000000 1.658610 
# 
# From -- ./inp_files/70272.got.cif
#   From: 2010.05.17/outbox.cif.g08.bks.cpg/sg10_36_cif.got.tgz:70272.got - 2010.06.03 11:33:40.
