data_PCOD9147687
_publ_section_title
;
Structure prediction by ZEFSAII (Michael W. Deem and Ramdas Pophale) SiO2 
 PCOD9147687
Probable space group: P 2/M
;
_chemical_formula_sum "Si O2"
_cell_formula_units_Z 32
_cell_length_a 23.530430
_cell_length_b 12.229862
_cell_length_c 7.544063
_cell_angle_alpha 90.000000
_cell_angle_beta 37.910282
_cell_angle_gamma 90.000000
_cell_volume 1333.911061
_symmetry_space_group_name_H-M "P 2/M"
_symmetry_group_IT_number 10
_symmetry_cell_setting 'monoclinic'
loop_
_space_group_symop_operation_xyz
x,y,z
-x,y,-z
-x,-y,-z
x,-y,z
loop_
_atom_site_type_symbol
_atom_site_label
_atom_site_fract_x
_atom_site_fract_y
_atom_site_fract_z
Si Si1 0.257968 0.257075 0.028134
Si Si2 0.571888 0.872934 0.486738
Si Si3 0.066894 0.174947 0.173659
Si Si4 0.319528 0.329872 0.258846
Si Si5 0.890135 0.121664 0.451391
Si Si6 0.180654 0.619166 0.899212
Si Si7 0.482178 0.377421 0.329411
Si Si8 0.757204 0.116639 0.437703
O O1 0.324573 0.152890 0.837479
O O2 0.250080 0.333330 0.877008
O O3 0.292730 0.319299 0.117821
O O4 0.154887 0.215018 0.317737
O O5 0.500000 0.875566 0.500000
O O6 0.552881 0.749593 0.620303
O O7 0.568636 0.000000 0.569800
O O8 0.000000 0.144907 0.500000
O O9 0.999555 0.138527 0.181396
O O10 0.092953 0.301814 0.097666
O O11 0.170030 0.125391 0.902622
O O12 0.238079 0.382282 0.574829
O O13 0.317970 0.208768 0.348683
O O14 0.420299 0.379882 0.013763
O O15 0.827943 0.128793 0.428223
O O16 0.873790 0.000000 0.561507
O O17 0.150959 0.500000 0.025072
O O18 0.500000 0.376311 0.500000
O O19 0.437444 0.500000 0.405857
O O20 0.711906 0.000000 0.551435
#
# Coordination Sequence:
#
# PCOD9147687 Si02
#       8
#     4   4   4   4   4   4   4   4
#     4  11  21  42  65  96 128 170 211 267 329 404
#     4  10  20  37  66 101 135 172 214 267 332 398
#     4  11  21  39  57  86 125 165 211 268 325 382
#     4  10  21  41  66  93 131 168 213 269 327 389
#     4  10  20  36  61  89 124 166 213 263 319 392
#     4  11  26  44  64  92 127 169 223 276 326 391
#     4  10  19  35  63  96 125 169 220 264 322 395
#     4   9  20  35  59  91 126 168 214 265 326 397
#
# _framework density 23.989605000000001
#
# number of rings (size 3 to 8) (size 9 to 14) (size 15 to 20)
#    0.000    1.750    3.750    1.500    0.000    4.750 
#    0.000    1.250    0.000    5.250    0.000    0.000 
#    0.000    0.000    0.000    0.000    0.000    0.000 
#
# Total GULP energy -178320.061536 kJ/mol
# GULP energy per Si atom -5572.501923 kJ/mol
# Density = 2.393500 g / cm^3
# Si number density = 23.989605 Si / 1000 Ang^3
#
#
#
# Elastic Constant Matrix: (Units=GPa)
#
#
# Indices 1 2 3 4 5 6 
#
# 1 82.8057 25.5543 16.2008 0.0000 6.4669 0.0000
# 2 25.5543 183.3852 13.9256 0.0000 2.7718 0.0000
# 3 16.2008 13.9256 77.7625 0.0000 9.4119 0.0000
# 4 0.0000 0.0000 0.0000 -0.3964 0.0000 -8.5704
# 5 6.4669 2.7718 9.4119 0.0000 30.0649 0.0000
# 6 0.0000 0.0000 0.0000 -8.5704 0.0000 19.5616
#
#
#
# Elastic Compliance Matrix: (Units=1/GPa)
#
#
# Indices 1 2 3 4 5 6 
#
# 1 0.013169 -0.001637 -0.002210 0.000000 -0.001990 0.000000
# 2 -0.001637 0.005733 -0.000690 0.000000 0.000040 0.000000
# 3 -0.002210 -0.000690 0.013905 0.000000 -0.003814 0.000000
# 4 0.000000 0.000000 0.000000 -0.240890 0.000000 -0.105540
# 5 -0.001990 0.000040 -0.003814 0.000000 0.034880 0.000000
# 6 0.000000 0.000000 0.000000 -0.105540 0.000000 0.004881
#
#
# Mechanical properties :
#
#
# Convention : Reuss Voigt Hill
#
# Bulk Modulus (GPa) = 42.13501 50.59052 46.36277
# Shear Modulus (GPa) = -33.03914 29.06419 -1.98747
#
# Velocity S-wave (km/s) = -3.71513 3.48448 -0.91119
# Velocity P-wave (km/s) = 0.89493 6.10927 4.27330
#
# Compressibility (1/GPa) = 0.02373323
#
# Stress axis : x y z
#
# Youngs Moduli (GPa) = 75.93326 174.42957 71.91511
#
# Poissons Ratio (x) = 0.28559 0.15891
# Poissons Ratio (y) = 0.12432 0.04965
# Poissons Ratio (z) = 0.16778 0.12042
#
# Static dielectric constant tensor:
#      x y z
#    x 2.027580 0.000000 0.069930 
#    y 0.000000 1.979250 0.000000 
#    z 0.069930 0.000000 1.959670 
# 
# From -- ./inp_files/38231.got.cif
#   From: 2010.05.17/outbox.cif.g08.bks.cpg/sg10_20_cif.got.tgz:38231.got - 2010.06.03 11:33:40.
