data_PCOD9147160
_publ_section_title
;
Structure prediction by ZEFSAII (Michael W. Deem and Ramdas Pophale) SiO2 
 PCOD9147160
Probable space group: P 2/M
;
_chemical_formula_sum "Si O2"
_cell_formula_units_Z 32
_cell_length_a 25.321216
_cell_length_b 7.480446
_cell_length_c 19.971819
_cell_angle_alpha 90.000000
_cell_angle_beta 22.171577
_cell_angle_gamma 90.000000
_cell_volume 1427.612060
_symmetry_space_group_name_H-M "P 2/M"
_symmetry_group_IT_number 10
_symmetry_cell_setting 'monoclinic'
loop_
_space_group_symop_operation_xyz
x,y,z
-x,y,-z
-x,-y,-z
x,-y,z
loop_
_atom_site_type_symbol
_atom_site_label
_atom_site_fract_x
_atom_site_fract_y
_atom_site_fract_z
Si Si1 0.580542 0.217272 0.071630
Si Si2 0.923470 0.282902 0.419223
Si Si3 0.357788 0.794044 0.851290
Si Si4 0.881191 0.718762 0.087849
Si Si5 0.427995 0.716231 0.515007
Si Si6 0.883758 0.210313 0.685279
Si Si7 0.617896 0.707020 0.811932
Si Si8 0.071457 0.294751 0.117388
O O1 0.726293 0.279538 0.866594
O O2 0.575041 0.000000 0.076886
O O3 0.593344 0.275277 0.133791
O O4 0.450559 0.284027 0.181334
O O5 0.918414 0.500000 0.423372
O O6 0.050966 0.230791 0.317844
O O7 0.775059 0.217375 0.622901
O O8 0.961638 0.217734 0.299851
O O9 0.484526 0.783884 0.650344
O O10 0.316338 0.000000 0.910146
O O11 0.222623 0.705114 0.976310
O O12 0.876762 0.500000 0.090241
O O13 0.731476 0.775306 0.291911
O O14 0.000000 0.771597 0.000000
O O15 0.909424 0.783450 0.979052
O O16 0.500000 0.769431 0.500000
O O17 0.432379 0.500000 0.506271
O O18 0.000000 0.291181 0.500000
O O19 0.872482 0.000000 0.683062
O O20 0.634334 0.500000 0.812964
O O21 0.500000 0.787513 0.000000
O O22 0.027759 0.500000 0.158242
#
# Coordination Sequence:
#
# PCOD9147160 Si02
#       8
#     4   4   4   4   4   4   4   4
#     4  10  22  38  55  81 112 146 191 233 275 334
#     4  10  21  35  56  84 111 145 188 232 283 340
#     4  11  22  36  56  83 115 147 185 234 283 328
#     4   9  18  33  55  82 111 142 181 230 274 322
#     4  10  19  34  57  84 110 145 190 228 273 332
#     4  10  20  35  56  81 109 143 186 231 274 329
#     4  10  22  39  57  83 119 152 185 231 287 342
#     4  10  19  35  57  81 110 143 185 232 281 334
#
# _framework density 22.415053
#
# number of rings (size 3 to 8) (size 9 to 14) (size 15 to 20)
#    0.000    2.000    2.500    1.125    0.000    3.750 
#    0.000    2.500    0.000    1.500    0.000    0.000 
#    0.000    0.000    0.000    0.000    0.000    0.000 
#
# Total GULP energy -178798.625092 kJ/mol
# GULP energy per Si atom -5587.457034 kJ/mol
# Density = 2.236404 g / cm^3
# Si number density = 22.415053 Si / 1000 Ang^3
#
#
#
# Elastic Constant Matrix: (Units=GPa)
#
#
# Indices 1 2 3 4 5 6 
#
# 1 72.2909 -12.4691 4.6477 0.0000 4.2616 0.0000
# 2 -12.4691 64.5773 -5.0182 0.0000 2.4676 0.0000
# 3 4.6477 -5.0182 103.8660 0.0000 3.9330 0.0000
# 4 0.0000 0.0000 0.0000 0.8475 0.0000 -2.7279
# 5 4.2616 2.4676 3.9330 0.0000 47.6832 0.0000
# 6 0.0000 0.0000 0.0000 -2.7279 0.0000 12.4421
#
#
#
# Elastic Compliance Matrix: (Units=1/GPa)
#
#
# Indices 1 2 3 4 5 6 
#
# 1 0.014428 0.002804 -0.000457 0.000000 -0.001397 0.000000
# 2 0.002804 0.016124 0.000697 0.000000 -0.001142 0.000000
# 3 -0.000457 0.000697 0.009712 0.000000 -0.000796 0.000000
# 4 0.000000 0.000000 0.000000 4.009341 0.000000 0.879050
# 5 -0.001397 -0.001142 -0.000796 0.000000 0.021221 0.000000
# 6 0.000000 0.000000 0.000000 0.879050 0.000000 0.273104
#
#
# Mechanical properties :
#
#
# Convention : Reuss Voigt Hill
#
# Bulk Modulus (GPa) = 21.57423 23.89502 22.73462
# Shear Modulus (GPa) = 1.14856 29.09949 15.12402
#
# Velocity S-wave (km/s) = 0.71660 3.60698 2.60037
# Velocity P-wave (km/s) = 3.21410 5.29438 4.37955
#
# Compressibility (1/GPa) = 0.04635160
#
# Stress axis : x y z
#
# Youngs Moduli (GPa) = 69.30801 62.01746 102.96470
#
# Poissons Ratio (x) = -0.17388 0.04708
# Poissons Ratio (y) = -0.19432 -0.07175
# Poissons Ratio (z) = 0.03169 -0.04322
#
# Static dielectric constant tensor:
#      x y z
#    x 1.818700 0.000000 0.013490 
#    y 0.000000 1.877600 0.000000 
#    z 0.013490 0.000000 1.838170 
# 
# From -- ./inp_files/86901.got.cif
#   From: 2010.05.17/outbox.cif.g08.bks.cpg/sg10_44_cif.got.tgz:86901.got - 2010.06.03 11:33:40.
