data_PCOD9147050
_publ_section_title
;
Structure prediction by ZEFSAII (Michael W. Deem and Ramdas Pophale) SiO2 
 PCOD9147050
Probable space group: P 2/M
;
_chemical_formula_sum "Si O2"
_cell_formula_units_Z 28
_cell_length_a 9.323366
_cell_length_b 15.742356
_cell_length_c 17.227215
_cell_angle_alpha 90.000000
_cell_angle_beta 36.534893
_cell_angle_gamma 90.000000
_cell_volume 1505.228167
_symmetry_space_group_name_H-M "P 2/M"
_symmetry_group_IT_number 10
_symmetry_cell_setting 'monoclinic'
loop_
_space_group_symop_operation_xyz
x,y,z
-x,y,-z
-x,-y,-z
x,-y,z
loop_
_atom_site_type_symbol
_atom_site_label
_atom_site_fract_x
_atom_site_fract_y
_atom_site_fract_z
Si Si1 0.617180 0.000000 0.032822
Si Si2 0.737484 0.859086 0.789307
Si Si3 0.704109 0.594497 0.844208
Si Si4 0.868097 0.000000 0.139350
Si Si5 0.101470 0.251509 0.147058
Si Si6 0.643951 0.186157 0.264535
Si Si7 0.830913 0.904457 0.497681
Si Si8 0.547812 0.715732 0.151713
O O1 0.490043 0.919497 0.127483
O O2 0.500000 0.000000 0.000000
O O3 0.901853 0.000000 0.903392
O O4 0.767139 0.824134 0.863131
O O5 0.677541 0.778076 0.763715
O O6 0.987078 0.898289 0.653406
O O7 0.806640 0.500000 0.790504
O O8 0.878340 0.666484 0.805243
O O9 0.568116 0.626148 0.824920
O O10 0.500000 0.591057 0.000000
O O11 0.735227 0.909305 0.202758
O O12 0.000000 0.000000 0.000000
O O13 0.833033 0.223224 0.243763
O O14 0.250380 0.266521 0.002612
O O15 0.375540 0.166309 0.411588
O O16 0.643259 0.253734 0.193487
O O17 0.000000 0.896516 0.500000
O O18 0.725730 0.000000 0.544510
#
# Coordination Sequence:
#
# PCOD9147050 Si02
#       8
#     2   4   4   2   4   4   4   4
#     4  12  22  33  51  75 105 142 187 231 279 325
#     4  11  20  36  53  75 101 147 193 232 270 311
#     4   8  16  34  59  85 113 145 173 210 277 352
#     4  12  24  31  49  75 107 150 183 223 275 321
#     4  10  21  34  55  85 115 138 176 233 281 329
#     4  12  22  37  51  79 113 150 189 231 277 312
#     4  11  23  39  54  70 103 154 202 241 263 318
#     4  10  19  34  56  82 112 139 181 225 270 336
#
# _framework density 18.601832000000002
#
# number of rings (size 3 to 8) (size 9 to 14) (size 15 to 20)
#    0.000    1.429    2.857    6.000    0.000    0.571 
#    0.000    1.429    0.000    3.429    0.000   16.000 
#    0.000    0.000    0.000    0.000    0.000    0.000 
#
# Total GULP energy -156000.241747 kJ/mol
# GULP energy per Si atom -5571.437205 kJ/mol
# Density = 1.855949 g / cm^3
# Si number density = 18.601832 Si / 1000 Ang^3
#
#
#
# Elastic Constant Matrix: (Units=GPa)
#
#
# Indices 1 2 3 4 5 6 
#
# 1 83.3830 29.9545 4.1880 0.0000 -11.3625 0.0000
# 2 29.9545 105.9064 14.9304 0.0000 -5.6900 0.0000
# 3 4.1880 14.9304 50.1826 0.0000 -9.3777 0.0000
# 4 0.0000 0.0000 0.0000 9.5496 0.0000 -2.5237
# 5 -11.3625 -5.6900 -9.3777 0.0000 17.8080 0.0000
# 6 0.0000 0.0000 0.0000 -2.5237 0.0000 20.1516
#
#
#
# Elastic Compliance Matrix: (Units=1/GPa)
#
#
# Indices 1 2 3 4 5 6 
#
# 1 0.014504 -0.003850 0.001591 0.000000 0.008862 0.000000
# 2 -0.003850 0.010929 -0.003036 0.000000 -0.000563 0.000000
# 3 0.001591 -0.003036 0.022966 0.000000 0.012139 0.000000
# 4 0.000000 0.000000 0.000000 0.108301 0.000000 0.013563
# 5 0.008862 -0.000563 0.012139 0.000000 0.068022 0.000000
# 6 0.000000 0.000000 0.000000 0.013563 0.000000 0.051322
#
#
# Mechanical properties :
#
#
# Convention : Reuss Voigt Hill
#
# Bulk Modulus (GPa) = 26.44850 37.51307 31.98078
# Shear Modulus (GPa) = 16.70918 22.19511 19.45214
#
# Velocity S-wave (km/s) = 3.00034 3.45797 3.23725
# Velocity P-wave (km/s) = 5.12365 6.01278 5.58594
#
# Compressibility (1/GPa) = 0.03780933
#
# Stress axis : x y z
#
# Youngs Moduli (GPa) = 68.94761 91.49941 43.54247
#
# Poissons Ratio (x) = 0.35231 -0.06929
# Poissons Ratio (y) = 0.26548 0.13218
# Poissons Ratio (z) = -0.10971 0.27775
#
# Static dielectric constant tensor:
#      x y z
#    x 1.644090 0.000000 0.097080 
#    y 0.000000 1.690550 0.000000 
#    z 0.097080 0.000000 1.600200 
# 
# From -- ./inp_files/75297.got.cif
#   From: 2010.05.17/outbox.cif.g08.bks.cpg/sg10_38_cif.got.tgz:75297.got - 2010.06.03 11:33:40.
