data_PCOD9147336
_publ_section_title
;
Structure prediction by ZEFSAII (Michael W. Deem and Ramdas Pophale) SiO2 
 PCOD9147336
Probable space group: P 2/M
;
_chemical_formula_sum "Si O2"
_cell_formula_units_Z 24
_cell_length_a 24.694151
_cell_length_b 7.780061
_cell_length_c 18.946000
_cell_angle_alpha 90.000000
_cell_angle_beta 20.809906
_cell_angle_gamma 90.000000
_cell_volume 1293.157539
_symmetry_space_group_name_H-M "P 2/M"
_symmetry_group_IT_number 10
_symmetry_cell_setting 'monoclinic'
loop_
_space_group_symop_operation_xyz
x,y,z
-x,y,-z
-x,-y,-z
x,-y,z
loop_
_atom_site_type_symbol
_atom_site_label
_atom_site_fract_x
_atom_site_fract_y
_atom_site_fract_z
Si Si1 0.733110 0.296268 0.552080
Si Si2 0.154140 0.311757 0.175576
Si Si3 0.485207 0.793157 0.741777
Si Si4 0.960949 0.000000 0.466578
Si Si5 0.648045 0.000000 0.768415
Si Si6 0.593630 0.203362 0.320041
Si Si7 0.925985 0.691988 0.891768
O O1 0.744316 0.500000 0.560252
O O2 0.623296 0.282777 0.618201
O O3 0.902844 0.235073 0.321212
O O4 0.668655 0.167633 0.691509
O O5 0.127928 0.500000 0.238446
O O6 0.041049 0.169073 0.339796
O O7 0.123695 0.319111 0.129257
O O8 0.328533 0.255883 0.972072
O O9 0.462855 0.730805 0.687924
O O10 0.498981 0.000000 0.724591
O O11 0.000000 0.000000 0.500000
O O12 0.788692 0.000000 0.651195
O O13 0.500000 0.000000 0.000000
O O14 0.500000 0.276831 0.500000
O O15 0.564052 0.000000 0.353075
O O16 0.775934 0.223968 0.108256
O O17 0.939978 0.500000 0.904733
#
# Coordination Sequence:
#
# PCOD9147336 Si02
#       7
#     4   4   4   2   2   4   4
#     4  11  23  41  64  89 120 160 207 251 296 362
#     4  10  20  38  60  84 114 153 199 246 290 346
#     4  10  19  34  62  89 119 160 206 246 296 351
#     4  12  26  40  62  88 119 150 193 243 296 372
#     4  12  28  44  64  90 123 161 195 246 319 367
#     4   9  19  34  57  91 126 158 197 248 301 352
#     4   9  19  35  59  84 108 156 205 237 291 351
#
# _framework density 18.559225000000001
#
# number of rings (size 3 to 8) (size 9 to 14) (size 15 to 20)
#    0.000    1.833    3.333    0.500    4.667    1.667 
#    0.000    0.833    0.000    5.000    0.000    0.000 
#    0.000    0.000    0.000    0.000    0.000    0.000 
#
# Total GULP energy -133686.236062 kJ/mol
# GULP energy per Si atom -5570.259836 kJ/mol
# Density = 1.851698 g / cm^3
# Si number density = 18.559225 Si / 1000 Ang^3
#
#
#
# Elastic Constant Matrix: (Units=GPa)
#
#
# Indices 1 2 3 4 5 6 
#
# 1 82.9442 20.1591 68.9919 0.0000 -16.0908 0.0000
# 2 20.1591 89.2089 38.7341 0.0000 12.7178 0.0000
# 3 68.9919 38.7341 156.0358 0.0000 -10.9201 0.0000
# 4 0.0000 0.0000 0.0000 63.2368 0.0000 -1.1564
# 5 -16.0908 12.7178 -10.9201 0.0000 33.7407 0.0000
# 6 0.0000 0.0000 0.0000 -1.1564 0.0000 19.1577
#
#
#
# Elastic Compliance Matrix: (Units=1/GPa)
#
#
# Indices 1 2 3 4 5 6 
#
# 1 0.020991 -0.002408 -0.008103 0.000000 0.008295 0.000000
# 2 -0.002408 0.014093 -0.002953 0.000000 -0.007416 0.000000
# 3 -0.008103 -0.002953 0.010776 0.000000 0.000736 0.000000
# 4 0.000000 0.000000 0.000000 0.015831 0.000000 0.000956
# 5 0.008295 -0.007416 0.000736 0.000000 0.036627 0.000000
# 6 0.000000 0.000000 0.000000 0.000956 0.000000 0.052256
#
#
# Mechanical properties :
#
#
# Convention : Reuss Voigt Hill
#
# Bulk Modulus (GPa) = 52.81831 64.88432 58.85132
# Shear Modulus (GPa) = 27.20169 36.58063 31.89116
#
# Velocity S-wave (km/s) = 3.83256 4.44444 4.14979
# Velocity P-wave (km/s) = 6.93583 7.83415 7.39864
#
# Compressibility (1/GPa) = 0.01893283
#
# Stress axis : x y z
#
# Youngs Moduli (GPa) = 47.64037 70.95670 92.79859
#
# Poissons Ratio (x) = 0.17085 0.75193
# Poissons Ratio (y) = 0.11471 0.27402
# Poissons Ratio (z) = 0.38602 0.20952
#
# Static dielectric constant tensor:
#      x y z
#    x 1.604110 0.000000 -0.000630 
#    y 0.000000 1.669820 0.000000 
#    z -0.000630 0.000000 1.658440 
# 
# From -- ./inp_files/80069.got.cif
#   From: 2010.05.17/outbox.cif.g08.bks.cpg/sg10_41_cif.got.tgz:80069.got - 2010.06.03 11:33:40.
