data_PCOD9147684
_publ_section_title
;
Structure prediction by ZEFSAII (Michael W. Deem and Ramdas Pophale) SiO2 
 PCOD9147684
Probable space group: P 2/M
;
_chemical_formula_sum "Si O2"
_cell_formula_units_Z 22
_cell_length_a 7.674396
_cell_length_b 14.842286
_cell_length_c 8.825408
_cell_angle_alpha 90.000000
_cell_angle_beta 83.374680
_cell_angle_gamma 90.000000
_cell_volume 998.549947
_symmetry_space_group_name_H-M "P 2/M"
_symmetry_group_IT_number 10
_symmetry_cell_setting 'monoclinic'
loop_
_space_group_symop_operation_xyz
x,y,z
-x,y,-z
-x,-y,-z
x,-y,z
loop_
_atom_site_type_symbol
_atom_site_label
_atom_site_fract_x
_atom_site_fract_y
_atom_site_fract_z
Si Si1 0.000000 0.691660 0.000000
Si Si2 0.712859 0.399363 0.489530
Si Si3 0.166294 0.227347 0.700311
Si Si4 0.697023 0.103647 0.555775
Si Si5 0.470043 0.209417 0.167823
Si Si6 0.293302 0.398086 0.160243
O O1 0.033053 0.754368 0.850017
O O2 0.842647 0.627990 0.958199
O O3 0.500000 0.384208 0.500000
O O4 0.744747 0.500000 0.425771
O O5 0.807303 0.321691 0.388631
O O6 0.773777 0.397231 0.658330
O O7 0.166395 0.150609 0.572433
O O8 0.346062 0.205979 0.768196
O O9 0.500000 0.105742 0.500000
O O10 0.672786 0.161390 0.711488
O O11 0.740081 0.000000 0.580777
O O12 0.425074 0.314515 0.152694
O O13 0.500000 0.167696 0.000000
O O14 0.359836 0.500000 0.132374
#
# Coordination Sequence:
#
# PCOD9147684 Si02
#       6
#     2   4   4   4   4   4
#     4  12  27  40  55  86 130 178 201 248 303 364
#     4  10  19  35  63  90 113 155 213 262 300 354
#     4  11  21  39  62  88 126 162 204 251 306 369
#     4   9  19  38  67  96 119 149 197 261 320 365
#     4  11  20  38  65  93 122 158 203 256 305 359
#     4  11  23  40  59  89 126 165 210 251 298 356
#
# _framework density 22.031948
#
# number of rings (size 3 to 8) (size 9 to 14) (size 15 to 20)
#    0.000    1.455    5.455    0.818    0.000    2.909 
#    0.000    2.273    0.000    2.182    0.000    0.000 
#    0.000    0.000    0.000    0.000    0.000    0.000 
#
# Total GULP energy -122828.235789 kJ/mol
# GULP energy per Si atom -5583.101627 kJ/mol
# Density = 2.198180 g / cm^3
# Si number density = 22.031948 Si / 1000 Ang^3
#
#
#
# Elastic Constant Matrix: (Units=GPa)
#
#
# Indices 1 2 3 4 5 6 
#
# 1 30.2769 20.9189 23.3720 0.0000 15.0331 0.0000
# 2 20.9189 139.5601 68.2959 0.0000 -28.4204 0.0000
# 3 23.3720 68.2959 150.2010 0.0000 -18.5737 0.0000
# 4 0.0000 0.0000 0.0000 -4.8090 0.0000 8.4945
# 5 15.0331 -28.4204 -18.5737 0.0000 44.3568 0.0000
# 6 0.0000 0.0000 0.0000 8.4945 0.0000 4.5740
#
#
#
# Elastic Compliance Matrix: (Units=1/GPa)
#
#
# Indices 1 2 3 4 5 6 
#
# 1 0.064802 -0.012306 -0.008626 0.000000 -0.033459 0.000000
# 2 -0.012306 0.012436 -0.002361 0.000000 0.011150 0.000000
# 3 -0.008626 -0.002361 0.009753 0.000000 0.005494 0.000000
# 4 0.000000 0.000000 0.000000 -0.048581 0.000000 0.090220
# 5 -0.033459 0.011150 0.005494 0.000000 0.043329 0.000000
# 6 0.000000 0.000000 0.000000 0.090220 0.000000 0.051077
#
#
# Mechanical properties :
#
#
# Convention : Reuss Voigt Hill
#
# Bulk Modulus (GPa) = 24.74866 60.57906 42.66386
# Shear Modulus (GPa) = 25.92434 22.65445 24.28939
#
# Velocity S-wave (km/s) = 3.43398 3.21012 3.32394
# Velocity P-wave (km/s) = 5.19427 6.42616 5.84277
#
# Compressibility (1/GPa) = 0.04040622
#
# Stress axis : x y z
#
# Youngs Moduli (GPa) = 15.43160 80.41266 102.53402
#
# Poissons Ratio (x) = 0.98954 0.88441
# Poissons Ratio (y) = 0.18990 0.24207
# Poissons Ratio (z) = 0.13311 0.18985
#
# Static dielectric constant tensor:
#      x y z
#    x 1.870640 0.000000 -0.032200 
#    y 0.000000 1.773280 0.000000 
#    z -0.032200 0.000000 1.859880 
# 
# From -- ./inp_files/18830.got.cif
#   From: 2010.05.17/outbox.cif.g08.bks.cpg/sg10_10_cif.got.tgz:18830.got - 2010.06.03 11:33:40.
