data_PCOD9147099
_publ_section_title
;
Structure prediction by ZEFSAII (Michael W. Deem and Ramdas Pophale) SiO2 
 PCOD9147099
Probable space group: P 2/M
;
_chemical_formula_sum "Si O2"
_cell_formula_units_Z 28
_cell_length_a 17.440838
_cell_length_b 7.604114
_cell_length_c 19.629263
_cell_angle_alpha 90.000000
_cell_angle_beta 30.957716
_cell_angle_gamma 90.000000
_cell_volume 1339.138319
_symmetry_space_group_name_H-M "P 2/M"
_symmetry_group_IT_number 10
_symmetry_cell_setting 'monoclinic'
loop_
_space_group_symop_operation_xyz
x,y,z
-x,y,-z
-x,-y,-z
x,-y,z
loop_
_atom_site_type_symbol
_atom_site_label
_atom_site_fract_x
_atom_site_fract_y
_atom_site_fract_z
Si Si1 0.034351 0.697977 0.299381
Si Si2 0.317711 0.215474 0.841982
Si Si3 0.845840 0.793622 0.161055
Si Si4 0.128257 0.198569 0.449159
Si Si5 0.625456 0.212531 0.957851
Si Si6 0.456919 0.214970 0.221979
Si Si7 0.977236 0.787244 0.849785
O O1 0.988778 0.500000 0.348417
O O2 0.209405 0.720657 0.181603
O O3 0.012483 0.735615 0.236321
O O4 0.937839 0.810848 0.424720
O O5 0.278506 0.278735 0.795723
O O6 0.469542 0.271351 0.762888
O O7 0.316466 0.000000 0.840934
O O8 0.179620 0.267105 0.996338
O O9 0.891207 0.721535 0.200311
O O10 0.810901 0.000000 0.197590
O O11 0.000000 0.785896 0.000000
O O12 0.292113 0.279367 0.329388
O O13 0.000000 0.282572 0.500000
O O14 0.150486 0.000000 0.403915
O O15 0.633500 0.000000 0.949224
O O16 0.500000 0.269587 0.000000
O O17 0.568967 0.262456 0.075823
O O18 0.449847 0.000000 0.229333
O O19 0.978025 0.000000 0.851601
#
# Coordination Sequence:
#
# PCOD9147099 Si02
#       7
#     4   4   4   4   4   4   4
#     4  12  24  35  50  75 109 143 173 207 252 304
#     4   8  12  22  45  78 106 123 157 213 268 308
#     4   7  11  19  39  73 104 128 154 200 263 311
#     4  10  21  38  57  75  97 132 179 220 257 305
#     4  10  19  34  57  81 102 128 167 215 264 309
#     4   9  16  28  51  79 101 125 163 218 267 303
#     4   9  15  28  50  74 102 133 168 208 253 305
#
# _framework density 20.908967000000001
#
# number of rings (size 3 to 8) (size 9 to 14) (size 15 to 20)
#    0.000    2.714    1.429    3.857    0.000    2.857 
#    0.000    0.714    0.000    4.714    0.000    6.000 
#    0.000    0.000    0.000    0.000    0.000    0.000 
#
# Total GULP energy -156137.590851 kJ/mol
# GULP energy per Si atom -5576.342530 kJ/mol
# Density = 2.086138 g / cm^3
# Si number density = 20.908967 Si / 1000 Ang^3
#
#
#
# Elastic Constant Matrix: (Units=GPa)
#
#
# Indices 1 2 3 4 5 6 
#
# 1 118.9260 2.9119 -15.1922 0.0000 -15.5179 0.0000
# 2 2.9119 50.9568 -3.1837 0.0000 -2.0310 0.0000
# 3 -15.1922 -3.1837 29.7796 0.0000 -8.4592 0.0000
# 4 0.0000 0.0000 0.0000 -30.0959 0.0000 -45.9412
# 5 -15.5179 -2.0310 -8.4592 0.0000 30.4719 0.0000
# 6 0.0000 0.0000 0.0000 -45.9412 0.0000 -51.5277
#
#
#
# Elastic Compliance Matrix: (Units=1/GPa)
#
#
# Indices 1 2 3 4 5 6 
#
# 1 0.010293 0.000161 0.007339 0.000000 0.007290 0.000000
# 2 0.000161 0.019879 0.002830 0.000000 0.002193 0.000000
# 3 0.007339 0.002830 0.042059 0.000000 0.015602 0.000000
# 4 0.000000 0.000000 0.000000 0.092043 0.000000 -0.082064
# 5 0.007290 0.002193 0.015602 0.000000 0.041007 0.000000
# 6 0.000000 0.000000 0.000000 -0.082064 0.000000 0.053760
#
#
# Mechanical properties :
#
#
# Convention : Reuss Voigt Hill
#
# Bulk Modulus (GPa) = 10.76514 18.74827 14.75671
# Shear Modulus (GPa) = 18.56360 4.11143 11.33751
#
# Velocity S-wave (km/s) = 2.98288 1.40379 2.33111
# Velocity P-wave (km/s) = 4.12592 3.40787 3.78396
#
# Compressibility (1/GPa) = 0.09289242
#
# Stress axis : x y z
#
# Youngs Moduli (GPa) = 97.14922 50.30311 23.77629
#
# Poissons Ratio (x) = -0.00809 -0.17450
# Poissons Ratio (y) = -0.01563 -0.06729
# Poissons Ratio (z) = -0.71301 -0.14237
#
# Static dielectric constant tensor:
#      x y z
#    x 1.803770 0.000000 -0.012950 
#    y 0.000000 2.073690 0.000000 
#    z -0.012950 0.000000 1.697680 
# 
# From -- ./inp_files/85609.got.cif
#   From: 2010.05.17/outbox.cif.g08.bks.cpg/sg10_43_cif.got.tgz:85609.got - 2010.06.03 11:33:40.
