data_PCOD9147536
_publ_section_title
;
Structure prediction by ZEFSAII (Michael W. Deem and Ramdas Pophale) SiO2 
 PCOD9147536
Probable space group: P 2/M
;
_chemical_formula_sum "Si O2"
_cell_formula_units_Z 28
_cell_length_a 27.702394
_cell_length_b 11.390274
_cell_length_c 22.072978
_cell_angle_alpha 90.000000
_cell_angle_beta 11.175203
_cell_angle_gamma 90.000000
_cell_volume 1349.858066
_symmetry_space_group_name_H-M "P 2/M"
_symmetry_group_IT_number 10
_symmetry_cell_setting 'monoclinic'
loop_
_space_group_symop_operation_xyz
x,y,z
-x,y,-z
-x,-y,-z
x,-y,z
loop_
_atom_site_type_symbol
_atom_site_label
_atom_site_fract_x
_atom_site_fract_y
_atom_site_fract_z
Si Si1 0.547516 0.168541 0.873989
Si Si2 0.774687 0.363960 0.431292
Si Si3 0.457892 0.366935 0.700133
Si Si4 0.508040 0.127859 0.793703
Si Si5 0.832779 0.636691 0.645816
Si Si6 0.911943 0.220188 0.776530
Si Si7 0.753530 0.366971 0.225547
O O1 0.413586 0.120703 0.979265
O O2 0.842596 0.155403 0.502481
O O3 0.500000 0.121646 0.000000
O O4 0.430472 0.299067 0.021619
O O5 0.795896 0.500000 0.430954
O O6 0.583556 0.376017 0.610780
O O7 0.666743 0.250020 0.598760
O O8 0.032409 0.323784 0.082464
O O9 0.393457 0.500000 0.758737
O O10 0.663940 0.315880 0.400062
O O11 0.218943 0.287692 0.006739
O O12 0.630001 0.000000 0.630748
O O13 0.292206 0.146184 0.009395
O O14 0.797857 0.500000 0.680020
O O15 0.000000 0.654818 0.500000
O O16 0.978116 0.690779 0.409562
O O17 0.500000 0.369294 0.500000
O O18 0.839089 0.500000 0.134339
#
# Coordination Sequence:
#
# PCOD9147536 Si02
#       7
#     4   4   4   4   4   4   4
#     4  10  23  39  59  87 115 157 204 247 297 357
#     4   9  19  36  59  85 116 156 196 238 296 357
#     4   9  17  30  52  83 116 151 193 241 288 345
#     4  11  24  42  62  88 121 156 198 253 305 353
#     4  10  19  35  58  86 125 162 195 242 300 358
#     4  10  21  37  59  84 116 157 202 244 297 357
#     4   9  17  29  50  84 120 152 190 239 291 347
#
# _framework density 20.742923000000001
#
# number of rings (size 3 to 8) (size 9 to 14) (size 15 to 20)
#    0.000    2.286    1.429    0.857    2.000    6.857 
#    0.000    5.000    0.000    7.286    0.000    0.000 
#    0.000    0.000    0.000    0.000    0.000    0.000 
#
# Total GULP energy -155870.918262 kJ/mol
# GULP energy per Si atom -5566.818509 kJ/mol
# Density = 2.069571 g / cm^3
# Si number density = 20.742923 Si / 1000 Ang^3
#
#
#
# Elastic Constant Matrix: (Units=GPa)
#
#
# Indices 1 2 3 4 5 6 
#
# 1 65.9222 24.3702 -4.8945 0.0000 8.3256 0.0000
# 2 24.3702 110.8766 27.1602 0.0000 9.1399 0.0000
# 3 -4.8945 27.1602 80.4812 0.0000 8.1911 0.0000
# 4 0.0000 0.0000 0.0000 -10.3437 0.0000 21.7569
# 5 8.3256 9.1399 8.1911 0.0000 28.5722 0.0000
# 6 0.0000 0.0000 0.0000 21.7569 0.0000 -91.1376
#
#
#
# Elastic Compliance Matrix: (Units=1/GPa)
#
#
# Indices 1 2 3 4 5 6 
#
# 1 0.017521 -0.004194 0.002950 0.000000 -0.004610 0.000000
# 2 -0.004194 0.010979 -0.003839 0.000000 -0.001190 0.000000
# 3 0.002950 -0.003839 0.014279 0.000000 -0.003725 0.000000
# 4 0.000000 0.000000 0.000000 -0.194184 0.000000 -0.046357
# 5 -0.004610 -0.001190 -0.003725 0.000000 0.037791 0.000000
# 6 0.000000 0.000000 0.000000 -0.046357 0.000000 -0.022039
#
#
# Mechanical properties :
#
#
# Convention : Reuss Voigt Hill
#
# Bulk Modulus (GPa) = 30.66189 38.95022 34.80605
# Shear Modulus (GPa) = -43.62417 -0.53888 -22.08152
#
# Velocity S-wave (km/s) = -4.59092 -0.51025 -3.26626
# Velocity P-wave (km/s) = 3.64528 4.29782 1.60983
#
# Compressibility (1/GPa) = 0.03261378
#
# Stress axis : x y z
#
# Youngs Moduli (GPa) = 57.07471 91.08061 70.03094
#
# Poissons Ratio (x) = 0.38196 -0.20659
# Poissons Ratio (y) = 0.23935 0.26886
# Poissons Ratio (z) = -0.16837 0.34968
#
# Static dielectric constant tensor:
#      x y z
#    x 1.791130 0.000000 0.007310 
#    y 0.000000 1.794030 0.000000 
#    z 0.007310 0.000000 1.797920 
# 
# From -- ./inp_files/91439.got.cif
#   From: 2010.05.17/outbox.cif.g08.bks.cpg/sg10_46_cif.got.tgz:91439.got - 2010.06.03 11:33:40.
