data_PCOD9147264
_publ_section_title
;
Structure prediction by ZEFSAII (Michael W. Deem and Ramdas Pophale) SiO2 
 PCOD9147264
Probable space group: P 2/M
;
_chemical_formula_sum "Si O2"
_cell_formula_units_Z 32
_cell_length_a 20.548024
_cell_length_b 7.524186
_cell_length_c 26.526296
_cell_angle_alpha 90.000000
_cell_angle_beta 160.172214
_cell_angle_gamma 90.000000
_cell_volume 1391.087904
_symmetry_space_group_name_H-M "P 2/M"
_symmetry_group_IT_number 10
_symmetry_cell_setting 'monoclinic'
loop_
_space_group_symop_operation_xyz
x,y,z
-x,y,-z
-x,-y,-z
x,-y,z
loop_
_atom_site_type_symbol
_atom_site_label
_atom_site_fract_x
_atom_site_fract_y
_atom_site_fract_z
Si Si1 0.145739 0.296908 0.378617
Si Si2 0.218693 0.214407 0.153401
Si Si3 0.542932 0.294585 0.319765
Si Si4 0.317142 0.217703 0.334531
Si Si5 0.200654 0.786212 0.802799
Si Si6 0.542360 0.793782 0.851454
Si Si7 0.033687 0.796458 0.856256
Si Si8 0.393809 0.786163 0.846161
O O1 0.190698 0.500000 0.396826
O O2 0.323405 0.216252 0.538906
O O3 0.972148 0.294656 0.292029
O O4 0.076513 0.202868 0.277515
O O5 0.327442 0.280734 0.183507
O O6 0.326583 0.269987 0.283162
O O7 0.218826 0.000000 0.150726
O O8 0.000000 0.272405 0.000000
O O9 0.597537 0.500000 0.354527
O O10 0.557871 0.212938 0.275608
O O11 0.500000 0.275862 0.500000
O O12 0.117292 0.279721 0.213804
O O13 0.314404 0.000000 0.334121
O O14 0.236766 0.721097 0.771986
O O15 0.171929 0.000000 0.781515
O O16 0.398616 0.754088 0.977124
O O17 0.416666 0.718939 0.805824
O O18 0.575863 0.000000 0.890089
O O19 0.756291 0.714051 0.000254
O O20 0.069333 0.000000 0.899109
O O21 0.363943 0.000000 0.823297
#
# Coordination Sequence:
#
# PCOD9147264 Si02
#       8
#     4   4   4   4   4   4   4   4
#     4  11  23  37  52  78 116 153 189 224 264 323
#     4  10  20  37  60  82 103 135 182 233 279 325
#     4  11  25  40  53  76 115 157 189 221 267 326
#     4   9  17  29  49  79 107 129 164 217 272 323
#     4   9  16  32  58  84 110 141 177 225 281 328
#     4  10  19  35  58  84 108 138 184 234 277 325
#     4  10  19  34  59  84 106 137 179 229 283 330
#     4   8  15  30  56  87 112 134 173 232 283 323
#
# _framework density 23.003578000000001
#
# number of rings (size 3 to 8) (size 9 to 14) (size 15 to 20)
#    0.000    2.250    1.250    3.000    0.000    5.750 
#    0.000    3.125    0.000    6.000    0.000    0.000 
#    0.000    0.000    0.000    0.000    0.000    0.000 
#
# Total GULP energy -178741.972837 kJ/mol
# GULP energy per Si atom -5585.686651 kJ/mol
# Density = 2.295122 g / cm^3
# Si number density = 23.003578 Si / 1000 Ang^3
#
#
#
# Elastic Constant Matrix: (Units=GPa)
#
#
# Indices 1 2 3 4 5 6 
#
# 1 144.8371 -5.6873 -4.4296 0.0000 -4.8483 0.0000
# 2 -5.6873 57.3251 -4.9913 0.0000 -0.5836 0.0000
# 3 -4.4296 -4.9913 23.7739 0.0000 -12.6624 0.0000
# 4 0.0000 0.0000 0.0000 -6.5839 0.0000 117.8189
# 5 -4.8483 -0.5836 -12.6624 0.0000 33.5263 0.0000
# 6 0.0000 0.0000 0.0000 117.8189 0.0000 -852.8641
#
#
#
# Elastic Compliance Matrix: (Units=1/GPa)
#
#
# Indices 1 2 3 4 5 6 
#
# 1 0.007089 0.000950 0.002598 0.000000 0.002023 0.000000
# 2 0.000950 0.018021 0.005259 0.000000 0.002437 0.000000
# 3 0.002598 0.005259 0.054955 0.000000 0.021223 0.000000
# 4 0.000000 0.000000 0.000000 0.103176 0.000000 0.014253
# 5 0.002023 0.002437 0.021223 0.000000 0.038178 0.000000
# 6 0.000000 0.000000 0.000000 0.014253 0.000000 0.000796
#
#
# Mechanical properties :
#
#
# Convention : Reuss Voigt Hill
#
# Bulk Modulus (GPa) = 10.23781 21.74666 15.99223
# Shear Modulus (GPa) = 21.08271 -149.11472 -64.01601
#
# Velocity S-wave (km/s) = 3.03065 -8.05997 -5.28102
# Velocity P-wave (km/s) = 4.08738 8.78313 5.49712
#
# Compressibility (1/GPa) = 0.09767718
#
# Stress axis : x y z
#
# Youngs Moduli (GPa) = 141.06834 55.48992 18.19684
#
# Poissons Ratio (x) = -0.05272 -0.04727
# Poissons Ratio (y) = -0.13402 -0.09569
# Poissons Ratio (z) = -0.36644 -0.29180
#
# Static dielectric constant tensor:
#      x y z
#    x 1.857130 0.000000 -0.001660 
#    y 0.000000 1.881600 0.000000 
#    z -0.001660 0.000000 1.858430 
# 
# From -- ./inp_files/93814.got.cif
#   From: 2010.05.17/outbox.cif.g08.bks.cpg/sg10_47_cif.got.tgz:93814.got - 2010.06.03 11:33:40.
