data_PCOD9147792
_publ_section_title
;
Structure prediction by ZEFSAII (Michael W. Deem and Ramdas Pophale) SiO2 
 PCOD9147792
Probable space group: P 2/M
;
_chemical_formula_sum "Si O2"
_cell_formula_units_Z 28
_cell_length_a 9.733817
_cell_length_b 9.440366
_cell_length_c 28.268955
_cell_angle_alpha 90.000000
_cell_angle_beta 37.723170
_cell_angle_gamma 90.000000
_cell_volume 1589.368374
_symmetry_space_group_name_H-M "P 2/M"
_symmetry_group_IT_number 10
_symmetry_cell_setting 'monoclinic'
loop_
_space_group_symop_operation_xyz
x,y,z
-x,y,-z
-x,-y,-z
x,-y,z
loop_
_atom_site_type_symbol
_atom_site_label
_atom_site_fract_x
_atom_site_fract_y
_atom_site_fract_z
Si Si1 0.500635 0.667164 0.291190
Si Si2 0.435758 0.330468 0.873840
Si Si3 0.751716 0.838723 0.450519
Si Si4 0.750826 0.336780 0.546137
Si Si5 0.859293 0.336152 0.693599
Si Si6 0.360933 0.166964 0.990441
Si Si7 0.172552 0.167674 0.864286
O O1 0.563615 0.500000 0.272259
O O2 0.423057 0.703620 0.365098
O O3 0.284814 0.681476 0.315456
O O4 0.692221 0.763525 0.216179
O O5 0.393915 0.500000 0.885093
O O6 0.680451 0.306830 0.783622
O O7 0.259565 0.251039 0.887185
O O8 0.426294 0.263595 0.928198
O O9 0.500000 0.835909 0.500000
O O10 0.748164 0.759832 0.501350
O O11 0.925013 0.761358 0.368526
O O12 0.825916 0.000000 0.436512
O O13 0.705348 0.500000 0.545072
O O14 0.000000 0.332414 0.500000
O O15 0.928194 0.500000 0.677822
O O16 0.093434 0.183938 0.070212
O O17 0.401761 0.000000 0.968451
O O18 0.500000 0.201362 0.000000
O O19 0.222418 0.000000 0.855461
#
# Coordination Sequence:
#
# PCOD9147792 Si02
#       7
#     4   4   4   4   4   4   4
#     4   9  18  34  57  85 112 139 180 233 279 321
#     4  10  21  37  60  87 111 140 183 233 276 321
#     4  11  24  38  52  79 115 149 187 229 272 323
#     4  10  19  36  60  82 108 144 185 229 276 325
#     4   9  18  36  58  80 109 143 183 227 274 327
#     4  10  22  40  58  80 114 152 184 219 272 332
#     4  10  20  35  58  85 113 146 184 224 271 329
#
# _framework density 17.617061
#
# number of rings (size 3 to 8) (size 9 to 14) (size 15 to 20)
#    0.000    2.143    1.429    2.571    0.000    8.000 
#    2.571    0.000    0.000    0.000    0.000    0.000 
#    0.000    0.000    0.000    0.000    0.000    0.000 
#
# Total GULP energy -156266.416808 kJ/mol
# GULP energy per Si atom -5580.943457 kJ/mol
# Density = 1.757696 g / cm^3
# Si number density = 17.617061 Si / 1000 Ang^3
#
#
#
# Elastic Constant Matrix: (Units=GPa)
#
#
# Indices 1 2 3 4 5 6 
#
# 1 67.5062 59.8729 56.0869 0.0000 2.3458 0.0000
# 2 59.8729 105.9570 83.0772 0.0000 -0.1392 0.0000
# 3 56.0869 83.0772 109.8309 0.0000 5.2061 0.0000
# 4 0.0000 0.0000 0.0000 23.2342 0.0000 -17.1675
# 5 2.3458 -0.1392 5.2061 0.0000 13.8863 0.0000
# 6 0.0000 0.0000 0.0000 -17.1675 0.0000 -6.6019
#
#
#
# Elastic Compliance Matrix: (Units=1/GPa)
#
#
# Indices 1 2 3 4 5 6 
#
# 1 0.031577 -0.013080 -0.006081 0.000000 -0.003186 0.000000
# 2 -0.013080 0.029285 -0.015873 0.000000 0.008454 0.000000
# 3 -0.006081 -0.015873 0.024613 0.000000 -0.008359 0.000000
# 4 0.000000 0.000000 0.000000 0.014733 0.000000 -0.038311
# 5 -0.003186 0.008454 -0.008359 0.000000 0.075771 0.000000
# 6 0.000000 0.000000 0.000000 -0.038311 0.000000 -0.051849
#
#
# Mechanical properties :
#
#
# Convention : Reuss Voigt Hill
#
# Bulk Modulus (GPa) = 64.90008 75.70755 70.30382
# Shear Modulus (GPa) = 25.08373 11.72085 18.40229
#
# Velocity S-wave (km/s) = 3.77746 2.58216 3.23549
# Velocity P-wave (km/s) = 7.47964 7.20815 7.34515
#
# Compressibility (1/GPa) = 0.01540830
#
# Stress axis : x y z
#
# Youngs Moduli (GPa) = 31.66877 34.14683 40.62906
#
# Poissons Ratio (x) = 0.44663 0.24705
# Poissons Ratio (y) = 0.41421 0.64491
# Poissons Ratio (z) = 0.19257 0.54202
#
# Static dielectric constant tensor:
#      x y z
#    x 1.574280 0.000000 -0.000640 
#    y 0.000000 1.593380 0.000000 
#    z -0.000640 0.000000 1.598770 
# 
# From -- ./inp_files/91991.got.cif
#   From: 2010.05.17/outbox.cif.g08.bks.cpg/sg10_46_cif.got.tgz:91991.got - 2010.06.03 11:33:40.
