data_PCOD9147777
_publ_section_title
;
Structure prediction by ZEFSAII (Michael W. Deem and Ramdas Pophale) SiO2 
 PCOD9147777
Probable space group: P 2/M
;
_chemical_formula_sum "Si O2"
_cell_formula_units_Z 28
_cell_length_a 9.942948
_cell_length_b 7.799946
_cell_length_c 31.545758
_cell_angle_alpha 90.000000
_cell_angle_beta 36.672055
_cell_angle_gamma 90.000000
_cell_volume 1461.141489
_symmetry_space_group_name_H-M "P 2/M"
_symmetry_group_IT_number 10
_symmetry_cell_setting 'monoclinic'
loop_
_space_group_symop_operation_xyz
x,y,z
-x,y,-z
-x,-y,-z
x,-y,z
loop_
_atom_site_type_symbol
_atom_site_label
_atom_site_fract_x
_atom_site_fract_y
_atom_site_fract_z
Si Si1 0.906932 0.206009 0.786202
Si Si2 0.162834 0.207306 0.496789
Si Si3 0.014734 0.298557 0.628829
Si Si4 0.675213 0.207377 0.371339
Si Si5 0.409629 0.196375 0.213197
Si Si6 0.744900 0.500000 0.122622
Si Si7 0.455213 0.198825 0.061005
Si Si8 0.758057 0.500000 0.017533
O O1 0.721619 0.247745 0.796957
O O2 0.793933 0.251590 0.859417
O O3 0.145794 0.273012 0.709047
O O4 0.930784 0.000000 0.779823
O O5 0.421523 0.269695 0.428565
O O6 0.000000 0.268225 0.500000
O O7 0.073598 0.255403 0.565803
O O8 0.167722 0.000000 0.493190
O O9 0.974111 0.500000 0.643490
O O10 0.788267 0.205994 0.701925
O O11 0.216648 0.251324 0.610264
O O12 0.668869 0.000000 0.370996
O O13 0.606001 0.332164 0.171485
O O14 0.488681 0.000000 0.189313
O O15 0.763438 0.500000 0.066913
O O16 0.007120 0.500000 0.067315
O O17 0.626104 0.329150 0.038709
O O18 0.489083 0.000000 0.065612
O O19 0.500000 0.208180 0.000000
#
# Coordination Sequence:
#
# PCOD9147777 Si02
#       8
#     4   4   4   4   4   2   4   2
#     4   8  15  30  54  80 106 141 189 241 287 329
#     4  10  21  37  55  79 115 158 196 233 289 351
#     4  11  21  34  58  86 114 145 193 246 292 340
#     4   9  18  34  57  82 109 145 193 245 290 339
#     4  10  19  36  59  84 116 151 191 239 285 334
#     4  11  22  36  56  88 115 155 186 232 290 351
#     4  10  20  36  58  82 112 153 198 242 290 342
#     4  11  23  36  56  82 122 149 189 235 293 348
#
# _framework density 19.163101000000001
#
# number of rings (size 3 to 8) (size 9 to 14) (size 15 to 20)
#    0.000    2.143    2.143    2.786    0.000    3.143 
#    0.000    2.857    0.000    3.429    0.000    0.000 
#    0.000    0.000    0.000    0.000    0.000    0.000 
#
# Total GULP energy -156133.987158 kJ/mol
# GULP energy per Si atom -5576.213827 kJ/mol
# Density = 1.911948 g / cm^3
# Si number density = 19.163101 Si / 1000 Ang^3
#
#
#
# Elastic Constant Matrix: (Units=GPa)
#
#
# Indices 1 2 3 4 5 6 
#
# 1 67.0838 17.6316 67.4146 0.0000 -3.7916 0.0000
# 2 17.6316 60.9224 25.5324 0.0000 -8.4109 0.0000
# 3 67.4146 25.5324 163.8131 0.0000 -0.7706 0.0000
# 4 0.0000 0.0000 0.0000 19.4404 0.0000 -6.7893
# 5 -3.7916 -8.4109 -0.7706 0.0000 25.8490 0.0000
# 6 0.0000 0.0000 0.0000 -6.7893 0.0000 6.2871
#
#
#
# Elastic Compliance Matrix: (Units=1/GPa)
#
#
# Indices 1 2 3 4 5 6 
#
# 1 0.026173 -0.002898 -0.010307 0.000000 0.002589 0.000000
# 2 -0.002898 0.018743 -0.001702 0.000000 0.005623 0.000000
# 3 -0.010307 -0.001702 0.010603 0.000000 -0.001750 0.000000
# 4 0.000000 0.000000 0.000000 0.082585 0.000000 0.089182
# 5 0.002589 0.005623 -0.001750 0.000000 0.040843 0.000000
# 6 0.000000 0.000000 0.000000 0.089182 0.000000 0.255363
#
#
# Mechanical properties :
#
#
# Convention : Reuss Voigt Hill
#
# Bulk Modulus (GPa) = 38.90370 56.99737 47.95054
# Shear Modulus (GPa) = 10.57772 22.39802 16.48787
#
# Velocity S-wave (km/s) = 2.35198 3.42249 2.93643
# Velocity P-wave (km/s) = 5.26509 6.73987 6.04760
#
# Compressibility (1/GPa) = 0.02570450
#
# Stress axis : x y z
#
# Youngs Moduli (GPa) = 38.20803 53.35427 94.30998
#
# Poissons Ratio (x) = 0.15460 0.97206
# Poissons Ratio (y) = 0.11071 0.16055
# Poissons Ratio (z) = 0.39381 0.09083
#
# Static dielectric constant tensor:
#      x y z
#    x 1.649720 0.000000 -0.003480 
#    y 0.000000 1.671830 0.000000 
#    z -0.003480 0.000000 1.703270 
# 
# From -- ./inp_files/37378.got.cif
#   From: 2010.05.17/outbox.cif.g08.bks.cpg/sg10_19_cif.got.tgz:37378.got - 2010.06.03 11:33:40.
