data_PCOD9147268
_publ_section_title
;
Structure prediction by ZEFSAII (Michael W. Deem and Ramdas Pophale) SiO2 
 PCOD9147268
Probable space group: P 2/M
;
_chemical_formula_sum "Si O2"
_cell_formula_units_Z 32
_cell_length_a 27.472612
_cell_length_b 9.198628
_cell_length_c 21.628432
_cell_angle_alpha 90.000000
_cell_angle_beta 161.231688
_cell_angle_gamma 90.000000
_cell_volume 1758.554878
_symmetry_space_group_name_H-M "P 2/M"
_symmetry_group_IT_number 10
_symmetry_cell_setting 'monoclinic'
loop_
_space_group_symop_operation_xyz
x,y,z
-x,y,-z
-x,-y,-z
x,-y,z
loop_
_atom_site_type_symbol
_atom_site_label
_atom_site_fract_x
_atom_site_fract_y
_atom_site_fract_z
Si Si1 0.122336 0.170552 0.551843
Si Si2 0.187756 0.669945 0.840885
Si Si3 0.324291 0.828741 0.677407
Si Si4 0.845978 0.325646 0.781947
Si Si5 0.632658 0.330336 0.068756
Si Si6 0.526482 0.325731 0.460486
Si Si7 0.617101 0.828498 0.825468
Si Si8 0.289132 0.828485 0.494645
O O1 0.187396 0.183939 0.560581
O O2 0.246953 0.243246 0.745594
O O3 0.963932 0.252809 0.365038
O O4 0.105335 0.000000 0.546070
O O5 0.159457 0.500000 0.818780
O O6 0.310852 0.680486 0.934140
O O7 0.253012 0.749262 0.979604
O O8 0.282654 0.780815 0.558032
O O9 0.367555 0.000000 0.726111
O O10 0.467448 0.739530 0.874177
O O11 0.852139 0.500000 0.782898
O O12 0.697845 0.291003 0.645019
O O13 0.817969 0.255924 0.681428
O O14 0.000000 0.276566 0.000000
O O15 0.631163 0.500000 0.084543
O O16 0.500000 0.287795 0.500000
O O17 0.505794 0.500000 0.428725
O O18 0.415681 0.243238 0.280239
O O19 0.460467 0.809433 0.675611
O O20 0.647067 0.000000 0.856296
O O21 0.254461 0.000000 0.450289
#
# Coordination Sequence:
#
# PCOD9147268 Si02
#       8
#     4   4   4   4   4   4   4   4
#     4  11  24  39  57  82 115 150 184 229 285 334
#     4  11  23  39  58  82 113 147 187 233 281 333
#     4  10  21  39  59  82 113 147 186 229 278 334
#     4   9  18  33  53  78 108 140 179 221 262 318
#     4  11  23  38  60  85 110 144 189 233 278 334
#     4   9  18  34  55  78 110 146 180 221 272 324
#     4  10  19  34  59  84 108 143 188 231 272 325
#     4   9  18  34  57  81 107 141 182 225 267 320
#
# _framework density 18.196759
#
# number of rings (size 3 to 8) (size 9 to 14) (size 15 to 20)
#    0.000    2.000    1.250    2.250    0.000    7.000 
#    2.250    0.000    0.000    0.000    0.000    0.000 
#    0.000    0.000    0.000    0.000    0.000    0.000 
#
# Total GULP energy -178705.172629 kJ/mol
# GULP energy per Si atom -5584.536645 kJ/mol
# Density = 1.815534 g / cm^3
# Si number density = 18.196759 Si / 1000 Ang^3
#
#
#
# Elastic Constant Matrix: (Units=GPa)
#
#
# Indices 1 2 3 4 5 6 
#
# 1 55.9797 21.6961 -1.5681 0.0000 -20.2168 0.0000
# 2 21.6961 59.9607 22.9552 0.0000 -6.5217 0.0000
# 3 -1.5681 22.9552 62.4695 0.0000 -14.3533 0.0000
# 4 0.0000 0.0000 0.0000 37.1543 0.0000 6.1696
# 5 -20.2168 -6.5217 -14.3533 0.0000 30.2086 0.0000
# 6 0.0000 0.0000 0.0000 6.1696 0.0000 57.1372
#
#
#
# Elastic Compliance Matrix: (Units=1/GPa)
#
#
# Indices 1 2 3 4 5 6 
#
# 1 0.031872 -0.013202 0.011110 0.000000 0.023758 0.000000
# 2 -0.013202 0.024898 -0.011535 0.000000 -0.008940 0.000000
# 3 0.011110 -0.011535 0.024316 0.000000 0.016499 0.000000
# 4 0.000000 0.000000 0.000000 0.027406 0.000000 -0.002959
# 5 0.023758 -0.008940 0.016499 0.000000 0.054912 0.000000
# 6 0.000000 0.000000 0.000000 -0.002959 0.000000 0.017821
#
#
# Mechanical properties :
#
#
# Convention : Reuss Voigt Hill
#
# Bulk Modulus (GPa) = 18.57593 29.39737 23.98665
# Shear Modulus (GPa) = 22.08265 33.92179 28.00222
#
# Velocity S-wave (km/s) = 3.48738 4.32228 3.92708
# Velocity P-wave (km/s) = 5.14260 6.41092 5.81146
#
# Compressibility (1/GPa) = 0.05383312
#
# Stress axis : x y z
#
# Youngs Moduli (GPa) = 31.37586 40.16404 41.12516
#
# Poissons Ratio (x) = 0.53023 -0.45690
# Poissons Ratio (y) = 0.41421 0.47436
# Poissons Ratio (z) = -0.34859 0.46328
#
# Static dielectric constant tensor:
#      x y z
#    x 1.625210 0.000000 0.002730 
#    y 0.000000 1.608240 0.000000 
#    z 0.002730 0.000000 1.590020 
# 
# From -- ./inp_files/86928.got.cif
#   From: 2010.05.17/outbox.cif.g08.bks.cpg/sg10_44_cif.got.tgz:86928.got - 2010.06.03 11:33:40.
