data_PCOD9147734
_publ_section_title
;
Structure prediction by ZEFSAII (Michael W. Deem and Ramdas Pophale) SiO2 
 PCOD9147734
Probable space group: P 2/M
;
_chemical_formula_sum "Si O2"
_cell_formula_units_Z 24
_cell_length_a 10.529200
_cell_length_b 8.380105
_cell_length_c 25.650755
_cell_angle_alpha 90.000000
_cell_angle_beta 32.717518
_cell_angle_gamma 90.000000
_cell_volume 1223.316252
_symmetry_space_group_name_H-M "P 2/M"
_symmetry_group_IT_number 10
_symmetry_cell_setting 'monoclinic'
loop_
_space_group_symop_operation_xyz
x,y,z
-x,y,-z
-x,-y,-z
x,-y,z
loop_
_atom_site_type_symbol
_atom_site_label
_atom_site_fract_x
_atom_site_fract_y
_atom_site_fract_z
Si Si1 0.237542 0.690252 0.568541
Si Si2 0.459506 0.500000 0.074714
Si Si3 0.242192 0.819116 0.883610
Si Si4 0.267076 0.810024 0.754872
Si Si5 0.275284 0.500000 0.918741
Si Si6 0.221957 0.192046 0.456742
Si Si7 0.016498 0.318448 0.243316
O O1 0.500000 0.715967 0.500000
O O2 0.201245 0.500000 0.574296
O O3 0.204057 0.767233 0.523847
O O4 0.068109 0.753476 0.673007
O O5 0.683129 0.500000 0.034039
O O6 0.294112 0.348515 0.145166
O O7 0.500000 0.500000 0.000000
O O8 0.197865 0.775992 0.838385
O O9 0.376506 0.665687 0.860772
O O10 0.346955 0.000000 0.849236
O O11 0.000000 0.829098 0.000000
O O12 0.527457 0.745767 0.651363
O O13 0.084704 0.757623 0.773763
O O14 0.280754 0.000000 0.746593
O O15 0.000000 0.500000 0.000000
O O16 0.000000 0.252044 0.500000
O O17 0.224761 0.000000 0.450659
O O18 0.915450 0.500000 0.277924
#
# Coordination Sequence:
#
# PCOD9147734 Si02
#       7
#     4   2   4   4   2   4   4
#     4  10  19  36  57  84 116 149 195 239 295 352
#     4  10  24  40  61  90 123 149 200 258 301 363
#     4   9  20  36  59  89 122 154 205 259 299 364
#     4  10  20  36  58  89 119 156 204 246 300 363
#     4  10  22  38  64  90 114 164 204 235 316 376
#     4  10  22  37  56  85 122 158 196 245 295 353
#     4   9  21  36  60  82 117 152 192 245 296 353
#
# _framework density 19.618803
#
# number of rings (size 3 to 8) (size 9 to 14) (size 15 to 20)
#    0.500    1.833    1.667    0.000    5.833    2.667 
#    0.000    0.833    0.000    1.000    0.000    0.000 
#    0.000    0.000    0.000    0.000    0.000    0.000 
#
# Total GULP energy -133644.171693 kJ/mol
# GULP energy per Si atom -5568.507154 kJ/mol
# Density = 1.957415 g / cm^3
# Si number density = 19.618803 Si / 1000 Ang^3
#
#
#
# Elastic Constant Matrix: (Units=GPa)
#
#
# Indices 1 2 3 4 5 6 
#
# 1 143.8250 16.5516 54.2458 0.0000 22.3321 0.0000
# 2 16.5516 52.2702 2.6838 0.0000 8.4104 0.0000
# 3 54.2458 2.6838 113.3417 0.0000 29.2258 0.0000
# 4 0.0000 0.0000 0.0000 59.8578 0.0000 11.7769
# 5 22.3321 8.4104 29.2258 0.0000 34.7434 0.0000
# 6 0.0000 0.0000 0.0000 11.7769 0.0000 24.9770
#
#
#
# Elastic Compliance Matrix: (Units=1/GPa)
#
#
# Indices 1 2 3 4 5 6 
#
# 1 0.008930 -0.002303 -0.003682 0.000000 -0.002086 0.000000
# 2 -0.002303 0.020587 0.001939 0.000000 -0.005134 0.000000
# 3 -0.003682 0.001939 0.012834 0.000000 -0.008898 0.000000
# 4 0.000000 0.000000 0.000000 0.018415 0.000000 -0.008683
# 5 -0.002086 -0.005134 -0.008898 0.000000 0.038851 0.000000
# 6 0.000000 0.000000 0.000000 -0.008683 0.000000 0.044131
#
#
# Mechanical properties :
#
#
# Convention : Reuss Voigt Hill
#
# Bulk Modulus (GPa) = 29.18996 50.71104 39.95050
# Shear Modulus (GPa) = 30.62606 39.64601 35.13604
#
# Velocity S-wave (km/s) = 3.95531 4.50023 4.23654
# Velocity P-wave (km/s) = 5.98081 7.27372 6.65872
#
# Compressibility (1/GPa) = 0.03425836
#
# Stress axis : x y z
#
# Youngs Moduli (GPa) = 111.97645 48.57382 77.92078
#
# Poissons Ratio (x) = 0.11188 0.28689
# Poissons Ratio (y) = 0.25791 -0.15106
# Poissons Ratio (z) = 0.41228 -0.09417
#
# Static dielectric constant tensor:
#      x y z
#    x 1.654400 0.000000 -0.008110 
#    y 0.000000 1.745520 0.000000 
#    z -0.008110 0.000000 1.725400 
# 
# From -- ./inp_files/57340.got.cif
#   From: 2010.05.17/outbox.cif.g08.bks.cpg/sg10_29_cif.got.tgz:57340.got - 2010.06.03 11:33:40.
