data_PCOD9147749
_publ_section_title
;
Structure prediction by ZEFSAII (Michael W. Deem and Ramdas Pophale) SiO2 
 PCOD9147749
Probable space group: P 2/M
;
_chemical_formula_sum "Si O2"
_cell_formula_units_Z 32
_cell_length_a 14.391096
_cell_length_b 7.760553
_cell_length_c 15.683144
_cell_angle_alpha 90.000000
_cell_angle_beta 126.235997
_cell_angle_gamma 90.000000
_cell_volume 1412.771795
_symmetry_space_group_name_H-M "P 2/M"
_symmetry_group_IT_number 10
_symmetry_cell_setting 'monoclinic'
loop_
_space_group_symop_operation_xyz
x,y,z
-x,y,-z
-x,-y,-z
x,-y,z
loop_
_atom_site_type_symbol
_atom_site_label
_atom_site_fract_x
_atom_site_fract_y
_atom_site_fract_z
Si Si1 0.318413 0.303029 0.145084
Si Si2 0.553608 0.193707 0.326767
Si Si3 0.035648 0.707746 0.786128
Si Si4 0.333036 0.301854 0.783337
Si Si5 0.822712 0.712057 0.778271
Si Si6 0.626485 0.706514 0.541008
Si Si7 0.071740 0.203362 0.620832
Si Si8 0.697557 0.289917 0.049328
O O1 0.282591 0.500000 0.108828
O O2 0.436824 0.303442 0.262104
O O3 0.220012 0.226677 0.152303
O O4 0.345120 0.228750 0.066019
O O5 0.612885 0.208697 0.267562
O O6 0.638428 0.247739 0.448319
O O7 0.515617 0.000000 0.321380
O O8 0.032447 0.500000 0.782475
O O9 0.006255 0.770224 0.674886
O O10 0.167235 0.757729 0.875674
O O11 0.946139 0.766054 0.809261
O O12 0.373940 0.500000 0.801482
O O13 0.194622 0.296005 0.697499
O O14 0.356885 0.229648 0.890996
O O15 0.821834 0.500000 0.780579
O O16 0.727493 0.767960 0.657231
O O17 0.500000 0.770970 0.500000
O O18 0.625406 0.500000 0.547327
O O19 0.000000 0.263363 0.500000
O O20 0.095407 0.000000 0.622724
O O21 0.687812 0.500000 0.049380
#
# Coordination Sequence:
#
# PCOD9147749 Si02
#       8
#     4   4   4   4   4   4   4   4
#     4  10  19  37  60  82 110 148 189 235 282 332
#     4  12  25  38  54  83 116 150 187 231 284 339
#     4   9  18  34  54  83 114 145 187 228 275 334
#     4  10  21  39  60  83 110 145 188 234 281 335
#     4   9  18  32  56  86 113 144 186 229 273 328
#     4  10  19  36  58  81 111 150 190 230 278 332
#     4  10  21  36  53  79 113 147 186 230 278 331
#     4   8  17  34  59  85 110 140 184 239 287 325
#
# _framework density 22.650510000000001
#
# number of rings (size 3 to 8) (size 9 to 14) (size 15 to 20)
#    0.000    2.250    1.250    2.625    1.750    2.250 
#    0.000    8.750    0.000    0.000    0.000    4.375 
#    0.000    0.000    0.000    0.000    0.000    0.000 
#
# Total GULP energy -178686.009398 kJ/mol
# GULP energy per Si atom -5583.937794 kJ/mol
# Density = 2.259896 g / cm^3
# Si number density = 22.650510 Si / 1000 Ang^3
#
#
#
# Elastic Constant Matrix: (Units=GPa)
#
#
# Indices 1 2 3 4 5 6 
#
# 1 66.6328 -3.6812 -1.5765 0.0000 -25.0634 0.0000
# 2 -3.6812 38.8839 -3.3817 0.0000 -0.7470 0.0000
# 3 -1.5765 -3.3817 83.0528 0.0000 -25.2700 0.0000
# 4 0.0000 0.0000 0.0000 171.1326 0.0000 -325.2778
# 5 -25.0634 -0.7470 -25.2700 0.0000 32.4499 0.0000
# 6 0.0000 0.0000 0.0000 -325.2778 0.0000 482.5464
#
#
#
# Elastic Compliance Matrix: (Units=1/GPa)
#
#
# Indices 1 2 3 4 5 6 
#
# 1 0.025350 0.003661 0.008667 0.000000 0.026413 0.000000
# 2 0.003661 0.026423 0.002871 0.000000 0.005672 0.000000
# 3 0.008667 0.002871 0.018844 0.000000 0.021434 0.000000
# 4 0.000000 0.000000 0.000000 -0.020776 0.000000 -0.014005
# 5 0.026413 0.005672 0.021434 0.000000 0.068040 0.000000
# 6 0.000000 0.000000 0.000000 -0.014005 0.000000 -0.007368
#
#
# Mechanical properties :
#
#
# Convention : Reuss Voigt Hill
#
# Bulk Modulus (GPa) = 9.89956 19.03230 14.46593
# Shear Modulus (GPa) = 43.94230 150.37305 97.15767
#
# Velocity S-wave (km/s) = 4.40934 8.15675 6.55648
# Velocity P-wave (km/s) = 5.50482 9.85550 7.98229
#
# Compressibility (1/GPa) = 0.10101458
#
# Stress axis : x y z
#
# Youngs Moduli (GPa) = 39.44775 37.84600 53.06830
#
# Poissons Ratio (x) = -0.13856 -0.45993
# Poissons Ratio (y) = -0.14442 -0.15237
# Poissons Ratio (z) = -0.34189 -0.10866
#
# Static dielectric constant tensor:
#      x y z
#    x 1.840730 0.000000 -0.027620 
#    y 0.000000 1.812980 0.000000 
#    z -0.027620 0.000000 1.851760 
# 
# From -- ./inp_files/66533.got.cif
#   From: 2010.05.17/outbox.cif.g08.bks.cpg/sg10_34_cif.got.tgz:66533.got - 2010.06.03 11:33:40.
