data_PCOD9147908
_publ_section_title
;
Structure prediction by ZEFSAII (Michael W. Deem and Ramdas Pophale) SiO2 
 PCOD9147908
Probable space group: P 2/M
;
_chemical_formula_sum "Si O2"
_cell_formula_units_Z 28
_cell_length_a 21.240611
_cell_length_b 15.530905
_cell_length_c 8.895781
_cell_angle_alpha 90.000000
_cell_angle_beta 151.454686
_cell_angle_gamma 90.000000
_cell_volume 1402.305888
_symmetry_space_group_name_H-M "P 2/M"
_symmetry_group_IT_number 10
_symmetry_cell_setting 'monoclinic'
loop_
_space_group_symop_operation_xyz
x,y,z
-x,y,-z
-x,-y,-z
x,-y,z
loop_
_atom_site_type_symbol
_atom_site_label
_atom_site_fract_x
_atom_site_fract_y
_atom_site_fract_z
Si Si1 0.681993 0.827988 0.769315
Si Si2 0.561514 0.640308 0.474654
Si Si3 0.378209 0.313489 0.839779
Si Si4 0.595554 0.000000 0.423569
Si Si5 0.781694 0.831194 0.319070
Si Si6 0.296432 0.000000 0.677267
Si Si7 0.801944 0.402918 0.786326
Si Si8 0.047363 0.250107 0.768111
O O1 0.592818 0.743017 0.557185
O O2 0.621455 0.913970 0.573430
O O3 0.714530 0.840689 0.013673
O O4 0.819419 0.805093 0.973727
O O5 0.500000 0.609209 0.500000
O O6 0.699119 0.600398 0.710663
O O7 0.453778 0.628046 0.119043
O O8 0.295700 0.242561 0.753841
O O9 0.283935 0.366073 0.531695
O O10 0.500000 0.273252 0.000000
O O11 0.688962 0.000000 0.471969
O O12 0.445847 0.000000 0.053250
O O13 0.772439 0.916415 0.398478
O O14 0.930828 0.802051 0.601428
O O15 0.845956 0.500000 0.852568
O O16 0.916111 0.335740 0.064393
O O17 0.000000 0.272936 0.500000
#
# Coordination Sequence:
#
# PCOD9147908 Si02
#       8
#     4   4   4   2   4   2   4   4
#     4  10  21  40  64  89 127 168 216 255 307 358
#     4  10  19  36  64  95 122 168 212 252 311 381
#     4  10  22  36  63  90 130 166 201 253 320 381
#     4  11  25  40  59  96 135 166 202 267 310 364
#     4  11  22  41  64  91 123 171 216 258 298 370
#     4  11  27  36  59  98 134 162 207 258 314 362
#     4  10  23  42  64  92 127 162 202 264 326 374
#     4   9  22  43  68  90 120 167 216 257 308 374
#
# _framework density 19.967113999999999
#
# number of rings (size 3 to 8) (size 9 to 14) (size 15 to 20)
#    0.000    1.857    1.429    1.286    8.000    4.857 
#    0.000    4.286    0.000    0.000    0.000    0.000 
#    0.000    0.000    0.000    0.000    0.000    0.000 
#
# Total GULP energy -156518.084835 kJ/mol
# GULP energy per Si atom -5589.931601 kJ/mol
# Density = 1.992167 g / cm^3
# Si number density = 19.967114 Si / 1000 Ang^3
#
#
#
# Elastic Constant Matrix: (Units=GPa)
#
#
# Indices 1 2 3 4 5 6 
#
# 1 116.5673 29.3428 26.7464 0.0000 1.5774 0.0000
# 2 29.3428 97.8240 24.2768 0.0000 -1.5444 0.0000
# 3 26.7464 24.2768 71.9978 0.0000 4.0073 0.0000
# 4 0.0000 0.0000 0.0000 96.6757 0.0000 -46.7243
# 5 1.5774 -1.5444 4.0073 0.0000 19.2942 0.0000
# 6 0.0000 0.0000 0.0000 -46.7243 0.0000 30.0199
#
#
#
# Elastic Compliance Matrix: (Units=1/GPa)
#
#
# Indices 1 2 3 4 5 6 
#
# 1 0.009805 -0.002235 -0.002867 0.000000 -0.000385 0.000000
# 2 -0.002235 0.011721 -0.003221 0.000000 0.001790 0.000000
# 3 -0.002867 -0.003221 0.016229 0.000000 -0.003394 0.000000
# 4 0.000000 0.000000 0.000000 0.041750 0.000000 0.064982
# 5 -0.000385 0.001790 -0.003394 0.000000 0.052709 0.000000
# 6 0.000000 0.000000 0.000000 0.064982 0.000000 0.134453
#
#
# Mechanical properties :
#
#
# Convention : Reuss Voigt Hill
#
# Bulk Modulus (GPa) = 47.37744 49.68011 48.52878
# Shear Modulus (GPa) = 17.22060 42.93285 30.07672
#
# Velocity S-wave (km/s) = 2.93993 4.64203 3.88534
# Velocity P-wave (km/s) = 5.94168 7.32573 6.66970
#
# Compressibility (1/GPa) = 0.02110709
#
# Stress axis : x y z
#
# Youngs Moduli (GPa) = 101.99377 85.31954 61.61635
#
# Poissons Ratio (x) = 0.19073 0.17666
# Poissons Ratio (y) = 0.22801 0.19848
# Poissons Ratio (z) = 0.29242 0.27483
#
# Static dielectric constant tensor:
#      x y z
#    x 1.716140 0.000000 -0.007310 
#    y 0.000000 1.674850 0.000000 
#    z -0.007310 0.000000 1.692960 
# 
# From -- ./inp_files/35331.got.cif
#   From: 2010.05.17/outbox.cif.g08.bks.cpg/sg10_18_cif.got.tgz:35331.got - 2010.06.03 11:33:40.
