data_PCOD9147098
_publ_section_title
;
Structure prediction by ZEFSAII (Michael W. Deem and Ramdas Pophale) SiO2 
 PCOD9147098
Probable space group: P 2/M
;
_chemical_formula_sum "Si O2"
_cell_formula_units_Z 32
_cell_length_a 14.086794
_cell_length_b 15.023503
_cell_length_c 18.557634
_cell_angle_alpha 90.000000
_cell_angle_beta 158.350393
_cell_angle_gamma 90.000000
_cell_volume 1448.936211
_symmetry_space_group_name_H-M "P 2/M"
_symmetry_group_IT_number 10
_symmetry_cell_setting 'monoclinic'
loop_
_space_group_symop_operation_xyz
x,y,z
-x,y,-z
-x,-y,-z
x,-y,z
loop_
_atom_site_type_symbol
_atom_site_label
_atom_site_fract_x
_atom_site_fract_y
_atom_site_fract_z
Si Si1 0.185070 0.899537 0.457738
Si Si2 0.403478 0.789762 0.319562
Si Si3 0.904243 0.212535 0.044056
Si Si4 0.389714 0.402039 0.504258
Si Si5 0.240064 0.215978 0.771090
Si Si6 0.662708 0.403654 0.188670
Si Si7 0.824999 0.598861 0.052122
Si Si8 0.492054 0.101372 0.825986
O O1 0.361506 0.857432 0.520438
O O2 0.349777 0.902334 0.648443
O O3 0.959586 0.832517 0.318639
O O4 0.100729 0.000000 0.382432
O O5 0.500750 0.687792 0.384412
O O6 0.207941 0.801037 0.247911
O O7 0.235792 0.808200 0.129859
O O8 0.857254 0.316779 0.024428
O O9 0.758086 0.154460 0.000813
O O10 0.500000 0.401703 0.500000
O O11 0.459010 0.500000 0.583934
O O12 0.078859 0.396877 0.282010
O O13 0.164772 0.315665 0.694000
O O14 0.311471 0.155091 0.753303
O O15 0.500000 0.224744 0.000000
O O16 0.792633 0.500000 0.289079
O O17 0.500000 0.408437 0.000000
O O18 0.442280 0.392550 0.093755
O O19 0.833860 0.500000 0.024687
O O20 0.531772 0.000000 0.878847
#
# Coordination Sequence:
#
# PCOD9147098 Si02
#       8
#     4   4   4   4   4   4   4   4
#     4  10  23  41  59  81 112 153 191 230 285 342
#     4  10  22  36  58  80 116 150 187 237 282 328
#     4  10  20  37  55  86 111 145 192 237 282 330
#     4  10  20  34  54  82 110 146 188 225 270 333
#     4  11  22  36  61  89 115 144 186 235 282 330
#     4   9  19  34  54  83 114 148 184 221 274 335
#     4  10  19  34  57  80 113 151 188 229 273 336
#     4  10  21  39  61  82 109 147 190 236 286 340
#
# _framework density 22.085169
#
# number of rings (size 3 to 8) (size 9 to 14) (size 15 to 20)
#    0.000    2.000    2.500    0.750    3.500    3.000 
#    0.000    3.750    0.000    2.625    0.000    0.000 
#    0.000    0.000    0.000    0.000    0.000    0.000 
#
# Total GULP energy -178720.898689 kJ/mol
# GULP energy per Si atom -5585.028084 kJ/mol
# Density = 2.203490 g / cm^3
# Si number density = 22.085169 Si / 1000 Ang^3
#
#
#
# Elastic Constant Matrix: (Units=GPa)
#
#
# Indices 1 2 3 4 5 6 
#
# 1 52.1183 33.8588 4.8919 0.0000 13.1373 0.0000
# 2 33.8588 174.6863 43.7194 0.0000 34.1775 0.0000
# 3 4.8919 43.7194 52.7419 0.0000 18.1603 0.0000
# 4 0.0000 0.0000 0.0000 10.0559 0.0000 -23.0824
# 5 13.1373 34.1775 18.1603 0.0000 33.1481 0.0000
# 6 0.0000 0.0000 0.0000 -23.0824 0.0000 15.2758
#
#
#
# Elastic Compliance Matrix: (Units=1/GPa)
#
#
# Indices 1 2 3 4 5 6 
#
# 1 0.023240 -0.004032 0.003607 0.000000 -0.007029 0.000000
# 2 -0.004032 0.008709 -0.005304 0.000000 -0.004476 0.000000
# 3 0.003607 -0.005304 0.026661 0.000000 -0.010567 0.000000
# 4 0.000000 0.000000 0.000000 -0.040286 0.000000 -0.060874
# 5 -0.007029 -0.004476 -0.010567 0.000000 0.043357 0.000000
# 6 0.000000 0.000000 0.000000 -0.060874 0.000000 -0.026520
#
#
# Mechanical properties :
#
#
# Convention : Reuss Voigt Hill
#
# Bulk Modulus (GPa) = 21.20814 49.38742 35.29778
# Shear Modulus (GPa) = 80.20896 24.83440 52.52168
#
# Velocity S-wave (km/s) = 6.03298 3.35697 4.88191
# Velocity P-wave (km/s) = 7.62580 6.11853 6.91337
#
# Compressibility (1/GPa) = 0.04715170
#
# Stress axis : x y z
#
# Youngs Moduli (GPa) = 43.02966 114.82041 37.50803
#
# Poissons Ratio (x) = 0.46295 -0.13529
# Poissons Ratio (y) = 0.17349 0.19895
# Poissons Ratio (z) = -0.15521 0.60904
#
# Static dielectric constant tensor:
#      x y z
#    x 1.813240 0.000000 -0.022140 
#    y 0.000000 1.822280 0.000000 
#    z -0.022140 0.000000 1.853260 
# 
# From -- ./inp_files/35095.got.cif
#   From: 2010.05.17/outbox.cif.g08.bks.cpg/sg10_18_cif.got.tgz:35095.got - 2010.06.03 11:33:40.
