data_PCOD9147024
_publ_section_title
;
Structure prediction by ZEFSAII (Michael W. Deem and Ramdas Pophale) SiO2 
 PCOD9147024
Probable space group: P 2/M
;
_chemical_formula_sum "Si O2"
_cell_formula_units_Z 28
_cell_length_a 20.074670
_cell_length_b 7.467805
_cell_length_c 23.549777
_cell_angle_alpha 90.000000
_cell_angle_beta 18.384024
_cell_angle_gamma 90.000000
_cell_volume 1113.444192
_symmetry_space_group_name_H-M "P 2/M"
_symmetry_group_IT_number 10
_symmetry_cell_setting 'monoclinic'
loop_
_space_group_symop_operation_xyz
x,y,z
-x,y,-z
-x,-y,-z
x,-y,z
loop_
_atom_site_type_symbol
_atom_site_label
_atom_site_fract_x
_atom_site_fract_y
_atom_site_fract_z
Si Si1 0.154716 0.713823 0.292656
Si Si2 0.171497 0.202617 0.937552
Si Si3 0.021291 0.792395 0.276762
Si Si4 0.689517 0.283201 0.718576
Si Si5 0.326308 0.702151 0.933378
Si Si6 0.267150 0.781844 0.669562
Si Si7 0.380141 0.217316 0.453700
O O1 0.182996 0.500000 0.266600
O O2 0.314380 0.779625 0.212600
O O3 0.139165 0.777763 0.241149
O O4 0.922057 0.750761 0.506232
O O5 0.242799 0.197419 0.945978
O O6 0.936225 0.283372 0.130628
O O7 0.150110 0.000000 0.932525
O O8 0.379620 0.286169 0.740723
O O9 0.775665 0.731802 0.472087
O O10 0.150820 0.693667 0.123953
O O11 0.020111 0.000000 0.261172
O O12 0.660804 0.500000 0.743672
O O13 0.522149 0.213573 0.808896
O O14 0.378317 0.500000 0.872441
O O15 0.500000 0.725411 0.500000
O O16 0.260629 0.734619 0.608353
O O17 0.260194 0.000000 0.678749
O O18 0.402952 0.000000 0.433851
#
# Coordination Sequence:
#
# PCOD9147024 Si02
#       7
#     4   4   4   4   4   4   4
#     4   9  17  34  55  74  98 134 178 224 273 318
#     4  10  19  34  56  80 110 143 174 219 271 312
#     4  11  21  34  50  74 109 141 175 222 271 318
#     4   8  17  33  53  74 100 133 176 228 271 316
#     4  11  21  34  53  77 103 137 182 223 264 318
#     4   9  17  31  53  83 115 142 173 214 259 315
#     4   9  18  32  52  79 110 143 177 216 265 313
#
# _framework density 25.147196000000001
#
# number of rings (size 3 to 8) (size 9 to 14) (size 15 to 20)
#    0.000    2.429    1.429    2.571    0.000    1.143 
#    0.000   10.000    0.000    0.429    0.000    1.000 
#    0.000    0.000    0.000    0.000    0.000    0.000 
#
# Total GULP energy -156377.070086 kJ/mol
# GULP energy per Si atom -5584.895360 kJ/mol
# Density = 2.508996 g / cm^3
# Si number density = 25.147196 Si / 1000 Ang^3
#
#
#
# Elastic Constant Matrix: (Units=GPa)
#
#
# Indices 1 2 3 4 5 6 
#
# 1 71.4783 0.2530 -15.3920 0.0000 -21.2541 0.0000
# 2 0.2530 78.3266 2.5547 0.0000 -2.8400 0.0000
# 3 -15.3920 2.5547 91.2966 0.0000 -16.8457 0.0000
# 4 0.0000 0.0000 0.0000 3.4829 0.0000 0.5138
# 5 -21.2541 -2.8400 -16.8457 0.0000 44.6796 0.0000
# 6 0.0000 0.0000 0.0000 0.5138 0.0000 5.4689
#
#
#
# Elastic Compliance Matrix: (Units=1/GPa)
#
#
# Indices 1 2 3 4 5 6 
#
# 1 0.018211 0.000161 0.005015 0.000000 0.010564 0.000000
# 2 0.000161 0.012802 -0.000179 0.000000 0.000823 0.000000
# 3 0.005015 -0.000179 0.013157 0.000000 0.007335 0.000000
# 4 0.000000 0.000000 0.000000 0.291155 0.000000 -0.027356
# 5 0.010564 0.000823 0.007335 0.000000 0.030225 0.000000
# 6 0.000000 0.000000 0.000000 -0.027356 0.000000 0.185423
#
#
# Mechanical properties :
#
#
# Convention : Reuss Voigt Hill
#
# Bulk Modulus (GPa) = 18.46292 23.99255 21.22774
# Shear Modulus (GPa) = 8.94399 27.63864 18.29132
#
# Velocity S-wave (km/s) = 1.88796 3.31883 2.69991
# Velocity P-wave (km/s) = 3.48000 4.92419 4.26369
#
# Compressibility (1/GPa) = 0.05416260
#
# Stress axis : x y z
#
# Youngs Moduli (GPa) = 54.91250 78.11150 76.00382
#
# Poissons Ratio (x) = -0.01255 -0.38115
# Poissons Ratio (y) = -0.00882 0.01363
# Poissons Ratio (z) = -0.27538 0.01401
#
# Static dielectric constant tensor:
#      x y z
#    x 1.994780 0.000000 -0.032690 
#    y 0.000000 2.007900 0.000000 
#    z -0.032690 0.000000 2.004240 
# 
# From -- ./inp_files/90353.got.cif
#   From: 2010.05.17/outbox.cif.g08.bks.cpg/sg10_46_cif.got.tgz:90353.got - 2010.06.03 11:33:40.
