data_PCOD9147121
_publ_section_title
;
Structure prediction by ZEFSAII (Michael W. Deem and Ramdas Pophale) SiO2 
 PCOD9147121
Probable space group: P 2/M
;
_chemical_formula_sum "Si O2"
_cell_formula_units_Z 32
_cell_length_a 14.291755
_cell_length_b 18.889394
_cell_length_c 15.064734
_cell_angle_alpha 90.000000
_cell_angle_beta 29.553238
_cell_angle_gamma 90.000000
_cell_volume 2005.932691
_symmetry_space_group_name_H-M "P 2/M"
_symmetry_group_IT_number 10
_symmetry_cell_setting 'monoclinic'
loop_
_space_group_symop_operation_xyz
x,y,z
-x,y,-z
-x,-y,-z
x,-y,z
loop_
_atom_site_type_symbol
_atom_site_label
_atom_site_fract_x
_atom_site_fract_y
_atom_site_fract_z
Si Si1 0.027044 0.673095 0.081156
Si Si2 0.250768 0.079747 0.108355
Si Si3 0.663849 0.583234 0.438243
Si Si4 0.104234 0.773538 0.174046
Si Si5 0.521560 0.314234 0.086090
Si Si6 0.705192 0.079500 0.717646
Si Si7 0.845957 0.772608 0.549597
Si Si8 0.600903 0.583954 0.177565
O O1 0.060297 0.742117 0.114099
O O2 0.843675 0.631274 0.268572
O O3 0.210687 0.623052 0.942805
O O4 0.000000 0.688763 0.000000
O O5 0.142753 0.142827 0.149106
O O6 0.238532 0.089094 0.225246
O O7 0.187319 0.000000 0.139076
O O8 0.476530 0.083803 0.902250
O O9 0.500000 0.594711 0.500000
O O10 0.717298 0.500000 0.389715
O O11 0.567831 0.597169 0.612753
O O12 0.938433 0.753506 0.379616
O O13 0.295789 0.735882 0.051018
O O14 0.339117 0.271590 0.271813
O O15 0.551237 0.382278 0.123700
O O16 0.500000 0.330330 0.000000
O O17 0.792872 0.144295 0.592675
O O18 0.763072 0.000000 0.642857
O O19 0.000000 0.761656 0.500000
O O20 0.631941 0.500000 0.147456
#
# Coordination Sequence:
#
# PCOD9147121 Si02
#       8
#     4   4   4   4   4   4   4   4
#     4  11  22  37  57  80 105 129 172 218 261 314
#     4   9  16  30  49  72 106 139 170 211 255 296
#     4  10  19  34  57  82 108 131 158 207 273 321
#     4  11  22  34  52  77 102 141 176 211 260 305
#     4  11  21  36  51  72 109 141 178 212 244 299
#     4   9  17  28  47  75 107 138 170 211 253 297
#     4  12  20  30  52  74 107 145 175 207 252 303
#     4  10  22  37  57  80 102 136 171 211 263 310
#
# _framework density 15.952679
#
# number of rings (size 3 to 8) (size 9 to 14) (size 15 to 20)
#    0.000    1.625    5.000    1.875    0.000    1.500 
#    0.000    0.000    0.000    0.750    0.000    0.000 
#    0.000    2.500    0.000    0.000    0.000    0.000 
#
# Total GULP energy -178644.974815 kJ/mol
# GULP energy per Si atom -5582.655463 kJ/mol
# Density = 1.591637 g / cm^3
# Si number density = 15.952679 Si / 1000 Ang^3
#
#
#
# Elastic Constant Matrix: (Units=GPa)
#
#
# Indices 1 2 3 4 5 6 
#
# 1 106.7990 57.8547 46.8518 0.0000 16.8558 0.0000
# 2 57.8547 90.8212 43.7085 0.0000 15.2446 0.0000
# 3 46.8518 43.7085 92.8646 0.0000 9.8783 0.0000
# 4 0.0000 0.0000 0.0000 -0.5714 0.0000 -0.0507
# 5 16.8558 15.2446 9.8783 0.0000 20.5307 0.0000
# 6 0.0000 0.0000 0.0000 -0.0507 0.0000 18.0348
#
#
#
# Elastic Compliance Matrix: (Units=1/GPa)
#
#
# Indices 1 2 3 4 5 6 
#
# 1 0.015982 -0.007273 -0.004025 0.000000 -0.005784 0.000000
# 2 -0.007273 0.018817 -0.004570 0.000000 -0.005802 0.000000
# 3 -0.004025 -0.004570 0.015005 0.000000 -0.000522 0.000000
# 4 0.000000 0.000000 0.000000 -1.749775 0.000000 -0.004921
# 5 -0.005784 -0.005802 -0.000522 0.000000 0.058016 0.000000
# 6 0.000000 0.000000 0.000000 -0.004921 0.000000 0.055434
#
#
# Mechanical properties :
#
#
# Convention : Reuss Voigt Hill
#
# Bulk Modulus (GPa) = 55.34373 65.25722 60.30047
# Shear Modulus (GPa) = -3.22838 17.07016 6.92089
#
# Velocity S-wave (km/s) = -1.42412 3.27471 2.08514
# Velocity P-wave (km/s) = 5.66247 7.43598 6.60899
#
# Compressibility (1/GPa) = 0.01806889
#
# Stress axis : x y z
#
# Youngs Moduli (GPa) = 62.57160 53.14396 66.64267
#
# Poissons Ratio (x) = 0.38651 0.26821
# Poissons Ratio (y) = 0.45507 0.30456
# Poissons Ratio (z) = 0.25183 0.24287
#
# Static dielectric constant tensor:
#      x y z
#    x 1.504880 0.000000 -0.007350 
#    y 0.000000 1.529140 0.000000 
#    z -0.007350 0.000000 1.550970 
# 
# From -- ./inp_files/67720.got.cif
#   From: 2010.05.17/outbox.cif.g08.bks.cpg/sg10_34_cif.got.tgz:67720.got - 2010.06.03 11:33:40.
