data_PCOD9147259
_publ_section_title
;
Structure prediction by ZEFSAII (Michael W. Deem and Ramdas Pophale) SiO2 
 PCOD9147259
Probable space group: P 2/M
;
_chemical_formula_sum "Si O2"
_cell_formula_units_Z 17
_cell_length_a 5.309245
_cell_length_b 19.244592
_cell_length_c 8.923883
_cell_angle_alpha 90.000000
_cell_angle_beta 125.874672
_cell_angle_gamma 90.000000
_cell_volume 738.825021
_symmetry_space_group_name_H-M "P 2/M"
_symmetry_group_IT_number 10
_symmetry_cell_setting 'monoclinic'
loop_
_space_group_symop_operation_xyz
x,y,z
-x,y,-z
-x,-y,-z
x,-y,z
loop_
_atom_site_type_symbol
_atom_site_label
_atom_site_fract_x
_atom_site_fract_y
_atom_site_fract_z
Si Si1 0.591730 0.363072 0.298371
Si Si2 0.345293 0.790726 0.783898
Si Si3 0.077124 0.419416 0.283722
Si Si4 0.771728 0.877906 0.705907
Si Si5 0.000000 0.000000 0.000000
O O1 0.684376 0.283753 0.304853
O O2 0.230807 0.373204 0.208720
O O3 0.751585 0.395829 0.502221
O O4 0.724106 0.404809 0.203992
O O5 0.583267 0.834472 0.765283
O O6 0.020832 0.830735 0.702112
O O7 0.500000 0.779910 0.000000
O O8 0.133908 0.500000 0.272759
O O9 0.500000 0.903792 0.500000
O O10 0.947560 0.939309 0.852656
#
# Coordination Sequence:
#
# PCOD9147259 Si02
#       5
#     4   4   4   4   1
#     4  10  20  32  59  89 131 179 228 288 353 426
#     4  12  25  47  68 107 150 191 236 306 370 425
#     4  10  19  34  58  94 133 181 237 303 354 429
#     4  12  28  47  80 108 146 193 243 294 356 447
#     4  12  26  58  76 112 152 194 232 298 376 416
#
# _framework density 23.009508
#
# number of rings (size 3 to 8) (size 9 to 14) (size 15 to 20)
#    0.000    0.941    2.353    6.000    9.882    1.882 
#    0.000    2.353    0.000    7.765    0.000    0.000 
#    0.000    0.000    0.000    0.000    0.000    0.000 
#
# Total GULP energy -94782.453707 kJ/mol
# GULP energy per Si atom -5575.438453 kJ/mol
# Density = 2.295714 g / cm^3
# Si number density = 23.009508 Si / 1000 Ang^3
#
#
#
# Elastic Constant Matrix: (Units=GPa)
#
#
# Indices 1 2 3 4 5 6 
#
# 1 203.9348 58.6481 20.8647 0.0000 -33.1216 0.0000
# 2 58.6481 166.6645 30.0728 0.0000 -19.4022 0.0000
# 3 20.8647 30.0728 88.1364 0.0000 2.0001 0.0000
# 4 0.0000 0.0000 0.0000 56.2740 0.0000 -14.5058
# 5 -33.1216 -19.4022 2.0001 0.0000 14.6235 0.0000
# 6 0.0000 0.0000 0.0000 -14.5058 0.0000 -18.7135
#
#
#
# Elastic Compliance Matrix: (Units=1/GPa)
#
#
# Indices 1 2 3 4 5 6 
#
# 1 0.008240 -0.000336 -0.002257 0.000000 0.018526 0.000000
# 2 -0.000336 0.007782 -0.002801 0.000000 0.009948 0.000000
# 3 -0.002257 -0.002801 0.013077 0.000000 -0.010616 0.000000
# 4 0.000000 0.000000 0.000000 0.014811 0.000000 -0.011481
# 5 0.018526 0.009948 -0.010616 0.000000 0.124994 0.000000
# 6 0.000000 0.000000 0.000000 -0.011481 0.000000 -0.044538
#
#
# Mechanical properties :
#
#
# Convention : Reuss Voigt Hill
#
# Bulk Modulus (GPa) = 54.61108 75.32298 64.96703
# Shear Modulus (GPa) = 35.39673 33.71347 34.55510
#
# Velocity S-wave (km/s) = 3.92644 3.83194 3.87948
# Velocity P-wave (km/s) = 6.65895 7.23775 6.95437
#
# Compressibility (1/GPa) = 0.01831130
#
# Stress axis : x y z
#
# Youngs Moduli (GPa) = 121.36239 128.50623 76.46993
#
# Poissons Ratio (x) = 0.04313 0.17255
# Poissons Ratio (y) = 0.04074 0.21423
# Poissons Ratio (z) = 0.27385 0.36000
#
# Static dielectric constant tensor:
#      x y z
#    x 1.845000 0.000000 -0.082920 
#    y 0.000000 1.782810 0.000000 
#    z -0.082920 0.000000 1.727340 
# 
# From -- ./inp_files/4248.got.cif
#   From: 2010.05.17/outbox.cif.g08.bks.cpg/sg10_3_cif.got.tgz:4248.got - 2010.06.03 11:33:40.
