data_PCOD9147195
_publ_section_title
;
Structure prediction by ZEFSAII (Michael W. Deem and Ramdas Pophale) SiO2 
 PCOD9147195
Probable space group: P 2/M
;
_chemical_formula_sum "Si O2"
_cell_formula_units_Z 32
_cell_length_a 14.430751
_cell_length_b 8.683936
_cell_length_c 12.810301
_cell_angle_alpha 90.000000
_cell_angle_beta 88.838507
_cell_angle_gamma 90.000000
_cell_volume 1605.002226
_symmetry_space_group_name_H-M "P 2/M"
_symmetry_group_IT_number 10
_symmetry_cell_setting 'monoclinic'
loop_
_space_group_symop_operation_xyz
x,y,z
-x,y,-z
-x,-y,-z
x,-y,z
loop_
_atom_site_type_symbol
_atom_site_label
_atom_site_fract_x
_atom_site_fract_y
_atom_site_fract_z
Si Si1 0.465083 0.186374 0.617669
Si Si2 0.228546 0.675209 0.448954
Si Si3 0.010067 0.313007 0.162280
Si Si4 0.220276 0.684033 0.102521
Si Si5 0.820439 0.817496 0.108635
Si Si6 0.649774 0.180512 0.722318
Si Si7 0.022018 0.322052 0.389749
Si Si8 0.264265 0.317180 0.678333
O O1 0.500000 0.228782 0.500000
O O2 0.544752 0.228725 0.699375
O O3 0.368748 0.264614 0.650115
O O4 0.454372 0.000000 0.618799
O O5 0.266792 0.500000 0.447048
O O6 0.296728 0.787666 0.387613
O O7 0.133218 0.671465 0.387369
O O8 0.211242 0.715633 0.570127
O O9 0.007985 0.500000 0.159943
O O10 0.115068 0.265344 0.134633
O O11 0.989725 0.257774 0.281145
O O12 0.924453 0.251973 0.097880
O O13 0.219789 0.500000 0.097022
O O14 0.294136 0.735034 0.187717
O O15 0.237525 0.753585 0.987940
O O16 0.776345 0.764824 0.219249
O O17 0.825363 0.000000 0.103808
O O18 0.650704 0.000000 0.745370
O O19 0.986415 0.500000 0.395302
O O20 0.000000 0.244071 0.500000
O O21 0.259101 0.500000 0.696634
#
# Coordination Sequence:
#
# PCOD9147195 Si02
#       8
#     4   4   4   4   4   4   4   4
#     4  10  21  39  62  91 129 167 198 240 306 372
#     4  10  19  34  57  86 119 158 201 247 299 353
#     4  10  20  37  61  88 119 160 207 252 300 355
#     4  11  23  42  66  89 120 160 210 261 302 353
#     4  12  26  42  61  87 124 163 204 254 311 369
#     4  11  22  37  61  91 125 160 197 243 301 364
#     4   9  16  29  51  80 117 157 197 241 294 352
#     4  11  23  39  64  93 123 160 208 258 303 359
#
# _framework density 19.937667999999999
#
# number of rings (size 3 to 8) (size 9 to 14) (size 15 to 20)
#    0.000    1.500    2.500    3.375    0.000    6.250 
#    0.000    0.625    0.000    5.250    0.000    0.000 
#    0.000    0.000    0.000    0.000    0.000    0.000 
#
# Total GULP energy -178711.698043 kJ/mol
# GULP energy per Si atom -5584.740564 kJ/mol
# Density = 1.989229 g / cm^3
# Si number density = 19.937668 Si / 1000 Ang^3
#
#
#
# Elastic Constant Matrix: (Units=GPa)
#
#
# Indices 1 2 3 4 5 6 
#
# 1 75.6846 19.4968 29.5242 0.0000 13.7430 0.0000
# 2 19.4968 37.4587 25.3818 0.0000 8.5534 0.0000
# 3 29.5242 25.3818 122.2513 0.0000 20.0865 0.0000
# 4 0.0000 0.0000 0.0000 33.6682 0.0000 -7.5135
# 5 13.7430 8.5534 20.0865 0.0000 28.2261 0.0000
# 6 0.0000 0.0000 0.0000 -7.5135 0.0000 32.6759
#
#
#
# Elastic Compliance Matrix: (Units=1/GPa)
#
#
# Indices 1 2 3 4 5 6 
#
# 1 0.016407 -0.006164 -0.001899 0.000000 -0.004769 0.000000
# 2 -0.006164 0.034144 -0.004975 0.000000 -0.003805 0.000000
# 3 -0.001899 -0.004975 0.010499 0.000000 -0.005039 0.000000
# 4 0.000000 0.000000 0.000000 0.031308 0.000000 0.007199
# 5 -0.004769 -0.003805 -0.005039 0.000000 0.042490 0.000000
# 6 0.000000 0.000000 0.000000 0.007199 0.000000 0.032259
#
#
# Mechanical properties :
#
#
# Convention : Reuss Voigt Hill
#
# Bulk Modulus (GPa) = 28.59211 42.68891 35.64051
# Shear Modulus (GPa) = 24.40896 29.64683 27.02789
#
# Velocity S-wave (km/s) = 3.50274 3.86032 3.68587
# Velocity P-wave (km/s) = 5.54354 6.42861 6.00241
#
# Compressibility (1/GPa) = 0.03497468
#
# Stress axis : x y z
#
# Youngs Moduli (GPa) = 60.94798 29.28742 95.24295
#
# Poissons Ratio (x) = 0.18053 0.18087
# Poissons Ratio (y) = 0.37568 0.47385
# Poissons Ratio (z) = 0.11575 0.14571
#
# Static dielectric constant tensor:
#      x y z
#    x 1.708980 0.000000 -0.005190 
#    y 0.000000 1.668830 0.000000 
#    z -0.005190 0.000000 1.726090 
# 
# From -- ./inp_files/49915.got.cif
#   From: 2010.05.17/outbox.cif.g08.bks.cpg/sg10_25_cif.got.tgz:49915.got - 2010.06.03 11:33:40.
