data_PCOD9147518
_publ_section_title
;
Structure prediction by ZEFSAII (Michael W. Deem and Ramdas Pophale) SiO2 
 PCOD9147518
Probable space group: P 2/M
;
_chemical_formula_sum "Si O2"
_cell_formula_units_Z 32
_cell_length_a 15.107678
_cell_length_b 7.707710
_cell_length_c 21.743848
_cell_angle_alpha 90.000000
_cell_angle_beta 146.016233
_cell_angle_gamma 90.000000
_cell_volume 1415.267927
_symmetry_space_group_name_H-M "P 2/M"
_symmetry_group_IT_number 10
_symmetry_cell_setting 'monoclinic'
loop_
_space_group_symop_operation_xyz
x,y,z
-x,y,-z
-x,-y,-z
x,-y,z
loop_
_atom_site_type_symbol
_atom_site_label
_atom_site_fract_x
_atom_site_fract_y
_atom_site_fract_z
Si Si1 0.850288 0.296399 0.792426
Si Si2 0.376159 0.289173 0.803202
Si Si3 0.503946 0.800256 0.391919
Si Si4 0.495205 0.710625 0.253805
Si Si5 0.716831 0.795495 0.042057
Si Si6 0.894499 0.702337 0.268100
Si Si7 0.840207 0.699480 0.979692
Si Si8 0.183486 0.707348 0.363145
O O1 0.890830 0.500000 0.812152
O O2 0.667330 0.287262 0.704598
O O3 0.859689 0.220910 0.728928
O O4 0.982689 0.223613 0.915293
O O5 0.375795 0.500000 0.804388
O O6 0.410785 0.235215 0.753075
O O7 0.528144 0.230226 0.929938
O O8 0.214345 0.223781 0.740470
O O9 0.565750 0.772458 0.358385
O O10 0.635084 0.735495 0.514780
O O11 0.476090 0.000000 0.388654
O O12 0.491374 0.500000 0.251770
O O13 0.313017 0.776806 0.142501
O O14 0.786272 0.706994 0.020502
O O15 0.752384 0.000000 0.060245
O O16 0.791640 0.716396 0.146326
O O17 0.919680 0.500000 0.298034
O O18 0.064179 0.777773 0.346236
O O19 0.848768 0.500000 0.962493
O O20 0.159316 0.500000 0.346158
#
# Coordination Sequence:
#
# PCOD9147518 Si02
#       8
#     4   4   4   4   4   4   4   4
#     4  10  20  38  64  89 112 141 184 236 289 337
#     4   9  19  35  58  83 110 147 191 236 277 324
#     4  12  26  40  56  80 114 154 191 231 283 341
#     4   9  19  38  61  83 111 148 193 235 275 327
#     4  11  20  29  48  82 124 158 182 217 275 341
#     4  10  19  35  58  84 111 144 189 237 281 329
#     4   9  18  36  61  87 113 146 188 235 283 330
#     4  10  21  39  63  86 111 144 188 238 284 332
#
# _framework density 22.61056
#
# number of rings (size 3 to 8) (size 9 to 14) (size 15 to 20)
#    0.000    2.000    1.250    3.750    0.000    7.500 
#    0.000    3.125    0.000    3.750    0.000    0.000 
#    0.000    0.000    0.000    0.000    0.000    0.000 
#
# Total GULP energy -178730.562316 kJ/mol
# GULP energy per Si atom -5585.330072 kJ/mol
# Density = 2.255910 g / cm^3
# Si number density = 22.610560 Si / 1000 Ang^3
#
#
#
# Elastic Constant Matrix: (Units=GPa)
#
#
# Indices 1 2 3 4 5 6 
#
# 1 64.3084 -2.0806 32.8762 0.0000 15.0743 0.0000
# 2 -2.0806 49.4019 -2.6392 0.0000 5.6522 0.0000
# 3 32.8762 -2.6392 69.0640 0.0000 -0.3536 0.0000
# 4 0.0000 0.0000 0.0000 27.7291 0.0000 -66.6076
# 5 15.0743 5.6522 -0.3536 0.0000 29.3271 0.0000
# 6 0.0000 0.0000 0.0000 -66.6076 0.0000 63.6980
#
#
#
# Elastic Compliance Matrix: (Units=1/GPa)
#
#
# Indices 1 2 3 4 5 6 
#
# 1 0.024726 0.001926 -0.011764 0.000000 -0.013222 0.000000
# 2 0.001926 0.020890 -0.000144 0.000000 -0.005018 0.000000
# 3 -0.011764 -0.000144 0.020106 0.000000 0.006317 0.000000
# 4 0.000000 0.000000 0.000000 -0.023854 0.000000 -0.024944
# 5 -0.013222 -0.005018 0.006317 0.000000 0.041938 0.000000
# 6 0.000000 0.000000 0.000000 -0.024944 0.000000 -0.010384
#
#
# Mechanical properties :
#
#
# Convention : Reuss Voigt Hill
#
# Bulk Modulus (GPa) = 21.85487 26.56523 24.21005
# Shear Modulus (GPa) = 46.02432 34.45872 40.24152
#
# Velocity S-wave (km/s) = 4.51657 3.90809 4.22330
# Velocity P-wave (km/s) = 6.07338 5.66911 5.87472
#
# Compressibility (1/GPa) = 0.04575640
#
# Stress axis : x y z
#
# Youngs Moduli (GPa) = 40.44336 47.87071 49.73574
#
# Poissons Ratio (x) = -0.09218 0.58511
# Poissons Ratio (y) = -0.07788 0.00717
# Poissons Ratio (z) = 0.47579 0.00690
#
# Static dielectric constant tensor:
#      x y z
#    x 1.882980 0.000000 0.045390 
#    y 0.000000 1.853820 0.000000 
#    z 0.045390 0.000000 1.827320 
# 
# From -- ./inp_files/58320.got.cif
#   From: 2010.05.17/outbox.cif.g08.bks.cpg/sg10_30_cif.got.tgz:58320.got - 2010.06.03 11:33:40.
