data_PCOD9147239
_publ_section_title
;
Structure prediction by ZEFSAII (Michael W. Deem and Ramdas Pophale) SiO2 
 PCOD9147239
Probable space group: P 2/M
;
_chemical_formula_sum "Si O2"
_cell_formula_units_Z 32
_cell_length_a 14.935766
_cell_length_b 8.579735
_cell_length_c 12.868545
_cell_angle_alpha 90.000000
_cell_angle_beta 89.805164
_cell_angle_gamma 90.000000
_cell_volume 1649.029062
_symmetry_space_group_name_H-M "P 2/M"
_symmetry_group_IT_number 10
_symmetry_cell_setting 'monoclinic'
loop_
_space_group_symop_operation_xyz
x,y,z
-x,y,-z
-x,-y,-z
x,-y,z
loop_
_atom_site_type_symbol
_atom_site_label
_atom_site_fract_x
_atom_site_fract_y
_atom_site_fract_z
Si Si1 0.530184 0.811502 0.882828
Si Si2 0.816071 0.812144 0.609142
Si Si3 0.050715 0.677892 0.891082
Si Si4 0.221286 0.818063 0.977427
Si Si5 0.006893 0.811988 0.683050
Si Si6 0.791441 0.809653 0.380062
Si Si7 0.652207 0.189675 0.205343
Si Si8 0.723444 0.316626 0.815548
O O1 0.451184 0.764082 0.803233
O O2 0.625520 0.747718 0.846484
O O3 0.535927 0.000000 0.884096
O O4 0.500000 0.764752 0.000000
O O5 0.921256 0.765850 0.614936
O O6 0.775594 0.760826 0.499069
O O7 0.763789 0.754716 0.710459
O O8 0.814359 0.000000 0.610564
O O9 0.079040 0.500000 0.869738
O O10 0.135359 0.789356 0.906358
O O11 0.992487 0.742058 0.797210
O O12 0.000000 0.680121 0.000000
O O13 0.303150 0.766045 0.904754
O O14 0.231393 0.000000 0.001954
O O15 0.216437 0.725789 0.084360
O O16 0.106802 0.761857 0.649257
O O17 0.007852 0.000000 0.686846
O O18 0.715839 0.755431 0.298928
O O19 0.790902 0.000000 0.376679
O O20 0.654432 0.000000 0.208496
O O21 0.719390 0.500000 0.803267
#
# Coordination Sequence:
#
# PCOD9147239 Si02
#       8
#     4   4   4   4   4   4   4   4
#     4  10  19  36  62  89 115 147 190 237 290 351
#     4  10  21  37  60  86 114 153 199 243 289 340
#     4  11  23  35  48  76 119 160 193 231 283 344
#     4  11  20  36  60  84 112 147 190 237 287 342
#     4  10  19  34  58  86 113 148 196 246 290 337
#     4   9  17  34  60  90 117 144 191 250 295 334
#     4   9  17  32  59  90 114 138 178 239 294 336
#     4  12  25  39  56  83 121 157 191 236 291 350
#
# _framework density 19.405359000000001
#
# number of rings (size 3 to 8) (size 9 to 14) (size 15 to 20)
#    0.000    1.750    2.500    3.000    0.000    5.250 
#    0.000    1.250    0.000    5.250    0.000    0.000 
#    0.000    0.000    0.000    0.000    0.000    0.000 
#
# Total GULP energy -178605.265734 kJ/mol
# GULP energy per Si atom -5581.414554 kJ/mol
# Density = 1.936119 g / cm^3
# Si number density = 19.405359 Si / 1000 Ang^3
#
#
#
# Elastic Constant Matrix: (Units=GPa)
#
#
# Indices 1 2 3 4 5 6 
#
# 1 84.4809 14.0595 43.2134 0.0000 14.3302 0.0000
# 2 14.0595 9.2381 12.3379 0.0000 3.7172 0.0000
# 3 43.2134 12.3379 121.2341 0.0000 18.3358 0.0000
# 4 0.0000 0.0000 0.0000 -21.7466 0.0000 -1.8885
# 5 14.3302 3.7172 18.3358 0.0000 24.2142 0.0000
# 6 0.0000 0.0000 0.0000 -1.8885 0.0000 4.8572
#
#
#
# Elastic Compliance Matrix: (Units=1/GPa)
#
#
# Indices 1 2 3 4 5 6 
#
# 1 0.017884 -0.020550 -0.003568 0.000000 -0.004727 0.000000
# 2 -0.020550 0.151447 -0.007240 0.000000 -0.005605 0.000000
# 3 -0.003568 -0.007240 0.011033 0.000000 -0.005132 0.000000
# 4 0.000000 0.000000 0.000000 -0.044482 0.000000 -0.017295
# 5 -0.004727 -0.005605 -0.005132 0.000000 0.048842 0.000000
# 6 0.000000 0.000000 0.000000 -0.017295 0.000000 0.199156
#
#
# Mechanical properties :
#
#
# Convention : Reuss Voigt Hill
#
# Bulk Modulus (GPa) = 8.49994 39.35274 23.92634
# Shear Modulus (GPa) = 10.29203 11.15444 10.72323
#
# Velocity S-wave (km/s) = 2.30548 2.40013 2.35328
# Velocity P-wave (km/s) = 3.38772 5.29189 4.44302
#
# Compressibility (1/GPa) = 0.11764785
#
# Stress axis : x y z
#
# Youngs Moduli (GPa) = 55.91542 6.60297 90.63412
#
# Poissons Ratio (x) = 0.13569 0.32342
# Poissons Ratio (y) = 1.14906 0.65618
# Poissons Ratio (z) = 0.19953 0.04780
#
# Static dielectric constant tensor:
#      x y z
#    x 1.698820 0.000000 0.009930 
#    y 0.000000 1.657710 0.000000 
#    z 0.009930 0.000000 1.676620 
# 
# From -- ./inp_files/49825.got.cif
#   From: 2010.05.17/outbox.cif.g08.bks.cpg/sg10_25_cif.got.tgz:49825.got - 2010.06.03 11:33:40.
