data_PCOD9147543
_publ_section_title
;
Structure prediction by ZEFSAII (Michael W. Deem and Ramdas Pophale) SiO2 
 PCOD9147543
Probable space group: P 2/M
;
_chemical_formula_sum "Si O2"
_cell_formula_units_Z 32
_cell_length_a 14.221926
_cell_length_b 13.623872
_cell_length_c 8.687602
_cell_angle_alpha 90.000000
_cell_angle_beta 95.912463
_cell_angle_gamma 90.000000
_cell_volume 1674.335406
_symmetry_space_group_name_H-M "P 2/M"
_symmetry_group_IT_number 10
_symmetry_cell_setting 'monoclinic'
loop_
_space_group_symop_operation_xyz
x,y,z
-x,y,-z
-x,-y,-z
x,-y,z
loop_
_atom_site_type_symbol
_atom_site_label
_atom_site_fract_x
_atom_site_fract_y
_atom_site_fract_z
Si Si1 0.451246 0.764894 0.130909
Si Si2 0.784772 0.390584 0.510582
Si Si3 0.137477 0.612788 0.824367
Si Si4 0.040097 0.723208 0.333927
Si Si5 0.346784 0.776388 0.409502
Si Si6 0.749593 0.204167 0.057732
Si Si7 0.623373 0.115679 0.280809
Si Si8 0.168466 0.115636 0.214961
O O1 0.420969 0.734790 0.297363
O O2 0.529110 0.848861 0.175859
O O3 0.500000 0.702733 0.000000
O O4 0.350526 0.794223 0.045525
O O5 0.759885 0.500000 0.554600
O O6 0.819127 0.392348 0.340267
O O7 0.871721 0.349650 0.625524
O O8 0.699833 0.316062 0.515433
O O9 0.129558 0.500000 0.879787
O O10 0.204530 0.687811 0.927705
O O11 0.037776 0.667862 0.781840
O O12 0.080325 0.821701 0.263895
O O13 0.000000 0.742401 0.500000
O O14 0.386993 0.847054 0.547081
O O15 0.261007 0.837654 0.314860
O O16 0.717482 0.163860 0.218979
O O17 0.816557 0.136696 0.964413
O O18 0.632393 0.000000 0.273002
O O19 0.161819 0.000000 0.243345
#
# Coordination Sequence:
#
# PCOD9147543 Si02
#       8
#     4   4   4   4   4   4   4   4
#     4   9  21  36  54  77 115 151 177 228 285 330
#     4   9  17  33  60  88 115 147 183 235 296 338
#     4  10  19  36  62  85 112 147 188 238 289 334
#     4   9  19  35  57  88 117 144 190 241 277 334
#     4  10  19  35  58  88 114 142 197 240 272 335
#     4  10  21  38  55  82 116 150 188 230 284 341
#     4  11  21  35  59  86 111 144 192 240 281 331
#     4  10  21  37  55  78 120 164 187 224 285 340
#
# _framework density 19.112061000000001
#
# number of rings (size 3 to 8) (size 9 to 14) (size 15 to 20)
#    0.000    2.250    1.250    1.500    0.000    7.500 
#    0.000    8.750    0.000    9.000    0.000    0.000 
#    0.000    0.000    0.000    0.000    0.000    0.000 
#
# Total GULP energy -178183.196550 kJ/mol
# GULP energy per Si atom -5568.224892 kJ/mol
# Density = 1.906856 g / cm^3
# Si number density = 19.112061 Si / 1000 Ang^3
#
#
#
# Elastic Constant Matrix: (Units=GPa)
#
#
# Indices 1 2 3 4 5 6 
#
# 1 64.1421 42.7081 16.5455 0.0000 -1.1468 0.0000
# 2 42.7081 129.0955 15.5060 0.0000 5.6941 0.0000
# 3 16.5455 15.5060 54.6129 0.0000 0.6485 0.0000
# 4 0.0000 0.0000 0.0000 19.0076 0.0000 -2.8484
# 5 -1.1468 5.6941 0.6485 0.0000 -6.4601 0.0000
# 6 0.0000 0.0000 0.0000 -2.8484 0.0000 10.0727
#
#
#
# Elastic Compliance Matrix: (Units=1/GPa)
#
#
# Indices 1 2 3 4 5 6 
#
# 1 0.020448 -0.005826 -0.004431 0.000000 -0.009210 0.000000
# 2 -0.005826 0.009389 -0.001010 0.000000 0.009208 0.000000
# 3 -0.004431 -0.001010 0.019917 0.000000 0.001896 0.000000
# 4 0.000000 0.000000 0.000000 0.054939 0.000000 0.015536
# 5 -0.009210 0.009208 0.001896 0.000000 -0.144854 0.000000
# 6 0.000000 0.000000 0.000000 0.015536 0.000000 0.103671
#
#
# Mechanical properties :
#
#
# Convention : Reuss Voigt Hill
#
# Bulk Modulus (GPa) = 36.73872 44.15219 40.44545
# Shear Modulus (GPa) = 52.56617 16.06345 34.31481
#
# Velocity S-wave (km/s) = 5.25013 2.90226 4.24188
# Velocity P-wave (km/s) = 7.48441 5.86368 6.72306
#
# Compressibility (1/GPa) = 0.02721924
#
# Stress axis : x y z
#
# Youngs Moduli (GPa) = 48.90434 106.50976 50.20727
#
# Poissons Ratio (x) = 0.62055 0.22249
# Poissons Ratio (y) = 0.28493 0.05071
# Poissons Ratio (z) = 0.21671 0.10757
#
# Static dielectric constant tensor:
#      x y z
#    x 1.676750 0.000000 -0.018440 
#    y 0.000000 1.619150 0.000000 
#    z -0.018440 0.000000 1.748740 
# 
# From -- ./inp_files/28616.got.cif
#   From: 2010.05.17/outbox.cif.g08.bks.cpg/sg10_15_cif.got.tgz:28616.got - 2010.06.03 11:33:40.
