data_PCOD9147398
_publ_section_title
;
Structure prediction by ZEFSAII (Michael W. Deem and Ramdas Pophale) SiO2 
 PCOD9147398
Probable space group: P 2/M
;
_chemical_formula_sum "Si O2"
_cell_formula_units_Z 16
_cell_length_a 23.654169
_cell_length_b 5.503487
_cell_length_c 13.191234
_cell_angle_alpha 90.000000
_cell_angle_beta 156.791099
_cell_angle_gamma 90.000000
_cell_volume 676.738107
_symmetry_space_group_name_H-M "P 2/M"
_symmetry_group_IT_number 10
_symmetry_cell_setting 'monoclinic'
loop_
_space_group_symop_operation_xyz
x,y,z
-x,y,-z
-x,-y,-z
x,-y,z
loop_
_atom_site_type_symbol
_atom_site_label
_atom_site_fract_x
_atom_site_fract_y
_atom_site_fract_z
Si Si1 0.328498 0.500000 0.238634
Si Si2 0.913544 0.000000 0.591065
Si Si3 0.050176 0.500000 0.297300
Si Si4 0.204627 0.500000 0.261769
Si Si5 0.632458 0.000000 0.014741
Si Si6 0.609829 0.500000 0.090353
Si Si7 0.647101 0.000000 0.804339
Si Si8 0.832683 0.000000 0.692031
O O1 0.500000 0.500000 0.500000
O O2 0.289749 0.500000 0.294620
O O3 0.277740 0.251484 0.101951
O O4 0.996300 0.749957 0.729103
O O5 0.832012 0.000000 0.568114
O O6 0.802566 0.000000 0.317531
O O7 0.223896 0.500000 0.595415
O O8 0.964893 0.500000 0.051210
O O9 0.231392 0.750558 0.367139
O O10 0.583941 0.252355 0.985358
O O11 0.605560 0.000000 0.852726
O O12 0.500000 0.500000 0.000000
O O13 0.500000 0.000000 0.500000
O O14 0.000000 0.000000 0.000000
#
# Coordination Sequence:
#
# PCOD9147398 Si02
#       8
#     2   2   2   2   2   2   2   2
#     4  10  23  43  63  92 121 156 213 271 313 363
#     4  10  20  35  56  87 127 160 198 240 294 373
#     4  10  19  35  55  83 119 162 200 235 294 357
#     4  12  22  37  64  89 127 169 202 261 310 352
#     4  10  21  39  63  84 119 166 198 255 311 358
#     4  10  21  38  60  91 129 162 200 241 302 386
#     4  10  21  43  68  85 117 153 213 269 315 361
#     4  12  21  35  60  95 132 166 200 243 302 385
#
# _framework density 23.642825999999999
#
# number of rings (size 3 to 8) (size 9 to 14) (size 15 to 20)
#    0.000    1.500    2.500    3.000    0.000    0.000 
#    0.000   30.000    0.000   18.000    0.000    0.000 
#    0.000    0.000    0.000    0.000    0.000    0.000 
#
# Total GULP energy -89413.209646 kJ/mol
# GULP energy per Si atom -5588.325603 kJ/mol
# Density = 2.358901 g / cm^3
# Si number density = 23.642826 Si / 1000 Ang^3
#
#
#
# Elastic Constant Matrix: (Units=GPa)
#
#
# Indices 1 2 3 4 5 6 
#
# 1 175.5038 82.4904 55.6915 0.0000 -1.2681 0.0000
# 2 82.4904 299.0371 20.0604 0.0000 -4.4028 0.0000
# 3 55.6915 20.0604 97.1393 0.0000 -10.9171 0.0000
# 4 0.0000 0.0000 0.0000 -244.0170 0.0000 229.8852
# 5 -1.2681 -4.4028 -10.9171 0.0000 40.4726 0.0000
# 6 0.0000 0.0000 0.0000 229.8852 0.0000 -249.0881
#
#
#
# Elastic Compliance Matrix: (Units=1/GPa)
#
#
# Indices 1 2 3 4 5 6 
#
# 1 0.007955 -0.001923 -0.004289 0.000000 -0.001117 0.000000
# 2 -0.001923 0.003857 0.000357 0.000000 0.000456 0.000000
# 3 -0.004289 0.000357 0.013065 0.000000 0.003429 0.000000
# 4 0.000000 0.000000 0.000000 -0.031393 0.000000 -0.028973
# 5 -0.001117 0.000456 0.003429 0.000000 0.025647 0.000000
# 6 0.000000 0.000000 0.000000 -0.028973 0.000000 -0.030754
#
#
# Mechanical properties :
#
#
# Convention : Reuss Voigt Hill
#
# Bulk Modulus (GPa) = 75.94575 98.68498 87.31536
# Shear Modulus (GPa) = 1117.01144 -62.96396 527.02374
#
# Velocity S-wave (km/s) = 21.75956 -5.16615 14.94639
# Velocity P-wave (km/s) = 25.75842 2.49901 18.29947
#
# Compressibility (1/GPa) = 0.01316729
#
# Stress axis : x y z
#
# Youngs Moduli (GPa) = 125.71259 259.24897 76.54060
#
# Poissons Ratio (x) = 0.49855 0.32828
# Poissons Ratio (y) = 0.24175 -0.02734
# Poissons Ratio (z) = 0.53917 -0.09259
#
# Static dielectric constant tensor:
#      x y z
#    x 1.844680 0.000000 0.016600 
#    y 0.000000 1.941690 0.000000 
#    z 0.016600 0.000000 1.853950 
# 
# From -- ./inp_files/54337.got.cif
#   From: 2010.05.17/outbox.cif.g08.bks.cpg/sg10_28_cif.got.tgz:54337.got - 2010.06.03 11:33:40.
