data_PCOD9147981
_publ_section_title
;
Structure prediction by ZEFSAII (Michael W. Deem and Ramdas Pophale) SiO2 
 PCOD9147981
Probable space group: P 2/M
;
_chemical_formula_sum "Si O2"
_cell_formula_units_Z 20
_cell_length_a 12.901376
_cell_length_b 8.547305
_cell_length_c 12.560655
_cell_angle_alpha 90.000000
_cell_angle_beta 47.975258
_cell_angle_gamma 90.000000
_cell_volume 1028.921029
_symmetry_space_group_name_H-M "P 2/M"
_symmetry_group_IT_number 10
_symmetry_cell_setting 'monoclinic'
loop_
_space_group_symop_operation_xyz
x,y,z
-x,y,-z
-x,-y,-z
x,-y,z
loop_
_atom_site_type_symbol
_atom_site_label
_atom_site_fract_x
_atom_site_fract_y
_atom_site_fract_z
Si Si1 0.239277 0.310368 0.148506
Si Si2 0.917311 0.309520 0.359295
Si Si3 0.141229 0.689056 0.841146
Si Si4 0.371970 0.185591 0.839221
Si Si5 0.330245 0.689202 0.317345
O O1 0.243821 0.500000 0.138102
O O2 0.317961 0.262985 0.202281
O O3 0.077038 0.262286 0.268598
O O4 0.306023 0.244002 0.995861
O O5 0.917796 0.500000 0.360625
O O6 0.870177 0.260813 0.273623
O O7 0.806743 0.258585 0.523825
O O8 0.145867 0.500000 0.840360
O O9 0.274560 0.751875 0.811670
O O10 0.000000 0.737199 0.000000
O O11 0.528986 0.249189 0.727144
O O12 0.373001 0.000000 0.836560
O O13 0.333202 0.500000 0.317094
#
# Coordination Sequence:
#
# PCOD9147981 Si02
#       5
#     4   4   4   4   4
#     4  10  19  37  63  88 113 146 192 239 284 336
#     4   9  18  35  62  92 114 140 184 242 294 334
#     4  10  19  37  64  87 111 143 189 241 285 336
#     4  12  25  38  55  82 120 158 193 231 277 337
#     4  10  21  37  60  88 117 148 187 236 288 339
#
# _framework density 19.437836000000001
#
# number of rings (size 3 to 8) (size 9 to 14) (size 15 to 20)
#    0.000    1.800    2.000    3.000    0.000    6.800 
#    0.000    6.000    0.000    2.400    0.000    0.000 
#    0.000    0.000    0.000    0.000    0.000    0.000 
#
# Total GULP energy -111754.178105 kJ/mol
# GULP energy per Si atom -5587.708905 kJ/mol
# Density = 1.939360 g / cm^3
# Si number density = 19.437836 Si / 1000 Ang^3
#
#
#
# Elastic Constant Matrix: (Units=GPa)
#
#
# Indices 1 2 3 4 5 6 
#
# 1 86.3533 11.6307 -14.9021 0.0000 -1.5006 0.0000
# 2 11.6307 16.2103 1.2891 0.0000 1.1574 0.0000
# 3 -14.9021 1.2891 24.2018 0.0000 -10.4796 0.0000
# 4 0.0000 0.0000 0.0000 -24.4379 0.0000 12.6182
# 5 -1.5006 1.1574 -10.4796 0.0000 35.2819 0.0000
# 6 0.0000 0.0000 0.0000 12.6182 0.0000 -11.3604
#
#
#
# Elastic Compliance Matrix: (Units=1/GPa)
#
#
# Indices 1 2 3 4 5 6 
#
# 1 0.015432 -0.012376 0.012189 0.000000 0.004683 0.000000
# 2 -0.012376 0.072246 -0.014601 0.000000 -0.007233 0.000000
# 3 0.012189 -0.014601 0.057419 0.000000 0.018052 0.000000
# 4 0.000000 0.000000 0.000000 -0.095945 0.000000 -0.106568
# 5 0.004683 -0.007233 0.018052 0.000000 0.034142 0.000000
# 6 0.000000 0.000000 0.000000 -0.106568 0.000000 -0.206392
#
#
# Mechanical properties :
#
#
# Convention : Reuss Voigt Hill
#
# Bulk Modulus (GPa) = 8.65631 13.64451 11.15041
# Shear Modulus (GPa) = -90.88354 8.47989 -41.20182
#
# Velocity S-wave (km/s) = -6.84525 2.09094 -4.60898
# Velocity P-wave (km/s) = 7.61667 3.58667 4.75129
#
# Compressibility (1/GPa) = 0.11552270
#
# Stress axis : x y z
#
# Youngs Moduli (GPa) = 64.80002 13.84153 17.41579
#
# Poissons Ratio (x) = 0.17130 -0.21228
# Poissons Ratio (y) = 0.80196 0.25428
# Poissons Ratio (z) = -0.78986 0.20209
#
# Static dielectric constant tensor:
#      x y z
#    x 1.654870 0.000000 -0.000060 
#    y 0.000000 1.666300 0.000000 
#    z -0.000060 0.000000 1.662600 
# 
# From -- ./inp_files/22134.got.cif
#   From: 2010.05.17/outbox.cif.g08.bks.cpg/sg10_12_cif.got.tgz:22134.got - 2010.06.03 11:33:40.
