data_PCOD9147394
_publ_section_title
;
Structure prediction by ZEFSAII (Michael W. Deem and Ramdas Pophale) SiO2 
 PCOD9147394
Probable space group: P 2/M
;
_chemical_formula_sum "Si O2"
_cell_formula_units_Z 28
_cell_length_a 10.830568
_cell_length_b 12.933356
_cell_length_c 18.488338
_cell_angle_alpha 90.000000
_cell_angle_beta 29.166471
_cell_angle_gamma 90.000000
_cell_volume 1262.118676
_symmetry_space_group_name_H-M "P 2/M"
_symmetry_group_IT_number 10
_symmetry_cell_setting 'monoclinic'
loop_
_space_group_symop_operation_xyz
x,y,z
-x,y,-z
-x,-y,-z
x,-y,z
loop_
_atom_site_type_symbol
_atom_site_label
_atom_site_fract_x
_atom_site_fract_y
_atom_site_fract_z
Si Si1 0.945477 0.116895 0.613419
Si Si2 0.373009 0.387968 0.643581
Si Si3 0.256942 0.235197 0.906074
Si Si4 0.987777 0.883374 0.831362
Si Si5 0.494001 0.829967 0.644551
Si Si6 0.382888 0.310764 0.176388
Si Si7 0.126809 0.678040 0.174089
O O1 0.222858 0.130661 0.506876
O O2 0.000000 0.134977 0.500000
O O3 0.742399 0.199157 0.744941
O O4 0.855779 0.000000 0.669320
O O5 0.500000 0.382740 0.500000
O O6 0.419751 0.500000 0.652742
O O7 0.473167 0.292138 0.637795
O O8 0.080218 0.374712 0.770973
O O9 0.392032 0.161425 0.778649
O O10 0.460693 0.321301 0.828319
O O11 0.000000 0.277514 0.000000
O O12 0.157919 0.166611 0.024631
O O13 0.284674 0.881103 0.700260
O O14 0.944787 0.799971 0.790410
O O15 0.906008 0.000000 0.858131
O O16 0.163239 0.362300 0.237762
O O17 0.615125 0.324891 0.002913
#
# Coordination Sequence:
#
# PCOD9147394 Si02
#       7
#     4   4   4   4   4   4   4
#     4  11  22  33  51  85 122 164 206 239 279 341
#     4  10  21  40  67  92 113 144 193 250 309 369
#     4   9  18  31  51  77 108 154 195 236 284 344
#     4   9  18  31  52  81 114 155 198 241 287 348
#     4  10  19  35  55  81 116 154 190 244 296 349
#     4  10  19  36  54  78 119 162 192 242 288 348
#     4   9  20  36  58  84 116 153 197 241 302 352
#
# _framework density 22.184916999999999
#
# number of rings (size 3 to 8) (size 9 to 14) (size 15 to 20)
#    0.000    2.286    1.429    2.143    0.000    6.000 
#    0.000    5.000    0.000   27.857    0.000    0.000 
#    0.000    0.000    0.000    0.000    0.000    0.000 
#
# Total GULP energy -155869.842864 kJ/mol
# GULP energy per Si atom -5566.780102 kJ/mol
# Density = 2.213442 g / cm^3
# Si number density = 22.184917 Si / 1000 Ang^3
#
#
#
# Elastic Constant Matrix: (Units=GPa)
#
#
# Indices 1 2 3 4 5 6 
#
# 1 68.7692 -12.8060 -7.8437 0.0000 -4.9516 0.0000
# 2 -12.8060 74.4135 -2.1780 0.0000 9.4105 0.0000
# 3 -7.8437 -2.1780 74.4721 0.0000 -5.1157 0.0000
# 4 0.0000 0.0000 0.0000 -34.9447 0.0000 7.1686
# 5 -4.9516 9.4105 -5.1157 0.0000 20.2155 0.0000
# 6 0.0000 0.0000 0.0000 7.1686 0.0000 -8.8164
#
#
#
# Elastic Compliance Matrix: (Units=1/GPa)
#
#
# Indices 1 2 3 4 5 6 
#
# 1 0.015418 0.002306 0.001910 0.000000 0.003186 0.000000
# 2 0.002306 0.014624 0.000246 0.000000 -0.006180 0.000000
# 3 0.001910 0.000246 0.013902 0.000000 0.003871 0.000000
# 4 0.000000 0.000000 0.000000 -0.034345 0.000000 -0.027926
# 5 0.003186 -0.006180 0.003871 0.000000 0.054104 0.000000
# 6 0.000000 0.000000 0.000000 -0.027926 0.000000 -0.136131
#
#
# Mechanical properties :
#
#
# Convention : Reuss Voigt Hill
#
# Bulk Modulus (GPa) = 18.91443 19.11103 19.01273
# Shear Modulus (GPa) = -78.45599 11.32304 -33.56648
#
# Velocity S-wave (km/s) = -5.95326 2.26164 -3.89399
# Velocity P-wave (km/s) = 6.22180 3.93105 3.41011
#
# Compressibility (1/GPa) = 0.05286969
#
# Stress axis : x y z
#
# Youngs Moduli (GPa) = 64.85853 68.38014 71.93119
#
# Poissons Ratio (x) = -0.15771 -0.13741
# Poissons Ratio (y) = -0.14958 -0.01770
# Poissons Ratio (z) = -0.12390 -0.01682
#
# Static dielectric constant tensor:
#      x y z
#    x 1.859240 0.000000 -0.039220 
#    y 0.000000 1.799910 0.000000 
#    z -0.039220 0.000000 1.832790 
# 
# From -- ./inp_files/83947.got.cif
#   From: 2010.05.17/outbox.cif.g08.bks.cpg/sg10_42_cif.got.tgz:83947.got - 2010.06.03 11:33:40.
