data_PCOD9147721
_publ_section_title
;
Structure prediction by ZEFSAII (Michael W. Deem and Ramdas Pophale) SiO2 
 PCOD9147721
Probable space group: P 2/M
;
_chemical_formula_sum "Si O2"
_cell_formula_units_Z 28
_cell_length_a 10.079445
_cell_length_b 7.511424
_cell_length_c 29.733638
_cell_angle_alpha 90.000000
_cell_angle_beta 139.542801
_cell_angle_gamma 90.000000
_cell_volume 1460.734280
_symmetry_space_group_name_H-M "P 2/M"
_symmetry_group_IT_number 10
_symmetry_cell_setting 'monoclinic'
loop_
_space_group_symop_operation_xyz
x,y,z
-x,y,-z
-x,-y,-z
x,-y,z
loop_
_atom_site_type_symbol
_atom_site_label
_atom_site_fract_x
_atom_site_fract_y
_atom_site_fract_z
Si Si1 0.818929 0.786645 0.185473
Si Si2 0.499225 0.788630 0.819049
Si Si3 0.409791 0.217427 0.693822
Si Si4 0.476576 0.702927 0.543085
Si Si5 0.712495 0.207941 0.694064
Si Si6 0.241885 0.500000 0.064494
Si Si7 0.558002 0.500000 0.067004
Si Si8 0.974614 0.785034 0.545774
O O1 0.705838 0.757627 0.204247
O O2 0.691452 0.671442 0.116725
O O3 0.054818 0.725152 0.247506
O O4 0.808815 0.000000 0.173968
O O5 0.471950 0.734711 0.760264
O O6 0.673123 0.672008 0.887205
O O7 0.542441 0.000000 0.831920
O O8 0.565619 0.282324 0.695393
O O9 0.178882 0.274724 0.623633
O O10 0.406641 0.000000 0.690821
O O11 0.500000 0.788400 0.500000
O O12 0.550858 0.500000 0.558928
O O13 0.599604 0.780212 0.616987
O O14 0.237046 0.707875 0.491933
O O15 0.733793 0.000000 0.710202
O O16 0.354315 0.500000 0.045213
O O17 0.000000 0.500000 0.000000
O O18 0.500000 0.500000 0.000000
O O19 0.000000 0.742267 0.500000
O O20 0.958685 0.000000 0.545513
#
# Coordination Sequence:
#
# PCOD9147721 Si02
#       8
#     4   4   4   4   4   2   2   4
#     4   9  20  37  59  86 116 152 191 229 279 338
#     4   9  19  38  58  84 118 150 185 229 279 332
#     4   9  18  34  56  81 109 142 186 234 284 338
#     4  11  25  39  49  76 114 151 194 244 291 341
#     4  10  20  37  58  80 108 146 191 238 283 335
#     4  10  22  40  60  90 118 144 188 224 270 342
#     4  10  22  40  62  88 118 154 182 229 278 328
#     4  10  19  36  57  77 106 144 188 241 289 333
#
# _framework density 19.168443
#
# number of rings (size 3 to 8) (size 9 to 14) (size 15 to 20)
#    0.000    2.286    1.429    0.429    3.000    3.143 
#    2.571    0.000    0.000    0.000    0.000    0.000 
#    0.000    0.000    0.000    0.000    0.000    0.000 
#
# Total GULP energy -156253.400083 kJ/mol
# GULP energy per Si atom -5580.478574 kJ/mol
# Density = 1.912481 g / cm^3
# Si number density = 19.168443 Si / 1000 Ang^3
#
#
#
# Elastic Constant Matrix: (Units=GPa)
#
#
# Indices 1 2 3 4 5 6 
#
# 1 122.5237 27.2545 107.0595 0.0000 -2.6422 0.0000
# 2 27.2545 56.0802 31.9217 0.0000 -0.7865 0.0000
# 3 107.0595 31.9217 161.5581 0.0000 4.1854 0.0000
# 4 0.0000 0.0000 0.0000 22.2469 0.0000 1.4357
# 5 -2.6422 -0.7865 4.1854 0.0000 43.3713 0.0000
# 6 0.0000 0.0000 0.0000 1.4357 0.0000 11.8336
#
#
#
# Elastic Compliance Matrix: (Units=1/GPa)
#
#
# Indices 1 2 3 4 5 6 
#
# 1 0.019920 -0.002364 -0.012796 0.000000 0.002405 0.000000
# 2 -0.002364 0.020396 -0.002476 0.000000 0.000465 0.000000
# 3 -0.012796 -0.002476 0.015218 0.000000 -0.002293 0.000000
# 4 0.000000 0.000000 0.000000 0.045305 0.000000 -0.005497
# 5 0.002405 0.000465 -0.002293 0.000000 0.023433 0.000000
# 6 0.000000 0.000000 0.000000 -0.005497 0.000000 0.085172
#
#
# Mechanical properties :
#
#
# Convention : Reuss Voigt Hill
#
# Bulk Modulus (GPa) = 49.34968 74.73704 62.04336
# Shear Modulus (GPa) = 19.88324 27.08546 23.48435
#
# Velocity S-wave (km/s) = 3.22419 3.76310 3.50402
# Velocity P-wave (km/s) = 6.29776 7.61285 6.98632
#
# Compressibility (1/GPa) = 0.02026355
#
# Stress axis : x y z
#
# Youngs Moduli (GPa) = 50.20081 49.02912 65.71361
#
# Poissons Ratio (x) = 0.11589 0.84085
# Poissons Ratio (y) = 0.11866 0.16268
# Poissons Ratio (z) = 0.64235 0.12138
#
# Static dielectric constant tensor:
#      x y z
#    x 1.659610 0.000000 -0.010030 
#    y 0.000000 1.711600 0.000000 
#    z -0.010030 0.000000 1.607490 
# 
# From -- ./inp_files/92141.got.cif
#   From: 2010.05.17/outbox.cif.g08.bks.cpg/sg10_47_cif.got.tgz:92141.got - 2010.06.03 11:33:40.
