data_PCOD9147445
_publ_section_title
;
Structure prediction by ZEFSAII (Michael W. Deem and Ramdas Pophale) SiO2 
 PCOD9147445
Probable space group: P 2/M
;
_chemical_formula_sum "Si O2"
_cell_formula_units_Z 28
_cell_length_a 19.335670
_cell_length_b 16.048902
_cell_length_c 5.134315
_cell_angle_alpha 90.000000
_cell_angle_beta 73.828500
_cell_angle_gamma 90.000000
_cell_volume 1530.219869
_symmetry_space_group_name_H-M "P 2/M"
_symmetry_group_IT_number 10
_symmetry_cell_setting 'monoclinic'
loop_
_space_group_symop_operation_xyz
x,y,z
-x,y,-z
-x,-y,-z
x,-y,z
loop_
_atom_site_type_symbol
_atom_site_label
_atom_site_fract_x
_atom_site_fract_y
_atom_site_fract_z
Si Si1 0.768404 0.829332 0.672716
Si Si2 0.187462 0.500000 0.881339
Si Si3 0.080839 0.649837 0.875253
Si Si4 0.919185 0.238380 0.624975
Si Si5 0.658486 0.318041 0.789136
Si Si6 0.717913 0.500000 0.718379
Si Si7 0.584710 0.756390 0.366760
Si Si8 0.306028 0.902635 0.748345
O O1 0.853026 0.821758 0.632980
O O2 0.731899 0.737091 0.726630
O O3 0.747062 0.867892 0.418839
O O4 0.730163 0.882941 0.936724
O O5 0.139666 0.580974 0.874265
O O6 0.252417 0.500000 0.606804
O O7 0.216804 0.500000 0.143324
O O8 0.086802 0.686493 0.579125
O O9 0.088128 0.724404 0.077662
O O10 0.000000 0.615712 0.000000
O O11 0.000000 0.203845 0.500000
O O12 0.674684 0.414861 0.807645
O O13 0.622611 0.298722 0.549837
O O14 0.606646 0.282453 0.067216
O O15 0.500000 0.759912 0.500000
O O16 0.621882 0.847145 0.345825
O O17 0.319304 0.000000 0.700907
#
# Coordination Sequence:
#
# PCOD9147445 Si02
#       8
#     4   2   4   4   4   2   4   4
#     4  10  19  35  57  78 111 146 180 224 269 320
#     4  12  21  32  50  72 103 142 180 232 290 318
#     4  10  20  32  47  72 104 137 181 232 283 332
#     4  10  20  34  53  76 103 143 190 227 265 319
#     4  10  21  37  55  81 110 145 185 223 268 313
#     4  12  24  36  54  78 108 144 194 232 256 314
#     4  10  21  39  61  83 111 141 173 217 271 329
#     4  10  21  36  59  87 111 139 172 214 272 334
#
# _framework density 18.298024999999999
#
# number of rings (size 3 to 8) (size 9 to 14) (size 15 to 20)
#    0.000    1.714    0.000    5.357    0.000    2.571 
#    0.000    5.000    0.000    7.714    0.000    0.000 
#    0.000    0.000    0.000    0.000    0.000    0.000 
#
# Total GULP energy -156433.426173 kJ/mol
# GULP energy per Si atom -5586.908078 kJ/mol
# Density = 1.825638 g / cm^3
# Si number density = 18.298025 Si / 1000 Ang^3
#
#
#
# Elastic Constant Matrix: (Units=GPa)
#
#
# Indices 1 2 3 4 5 6 
#
# 1 51.3648 8.6495 -7.7516 0.0000 -16.6610 0.0000
# 2 8.6495 93.3207 -12.5122 0.0000 -12.8470 0.0000
# 3 -7.7516 -12.5122 31.1840 0.0000 5.7357 0.0000
# 4 0.0000 0.0000 0.0000 11.0060 0.0000 1.1854
# 5 -16.6610 -12.8470 5.7357 0.0000 33.5355 0.0000
# 6 0.0000 0.0000 0.0000 1.1854 0.0000 10.8131
#
#
#
# Elastic Compliance Matrix: (Units=1/GPa)
#
#
# Indices 1 2 3 4 5 6 
#
# 1 0.023648 -0.000165 0.003782 0.000000 0.011038 0.000000
# 2 -0.000165 0.011783 0.003997 0.000000 0.003748 0.000000
# 3 0.003782 0.003997 0.035088 0.000000 -0.002591 0.000000
# 4 0.000000 0.000000 0.000000 0.091945 0.000000 -0.010080
# 5 0.011038 0.003748 -0.002591 0.000000 0.037182 0.000000
# 6 0.000000 0.000000 0.000000 -0.010080 0.000000 0.093586
#
#
# Mechanical properties :
#
#
# Convention : Reuss Voigt Hill
#
# Bulk Modulus (GPa) = 11.66228 16.96009 14.31119
# Shear Modulus (GPa) = 16.30861 23.56985 19.93923
#
# Velocity S-wave (km/s) = 2.98867 3.59292 3.30463
# Velocity P-wave (km/s) = 4.27748 5.14791 4.73275
#
# Compressibility (1/GPa) = 0.08574651
#
# Stress axis : x y z
#
# Youngs Moduli (GPa) = 42.28759 84.86810 28.49962
#
# Poissons Ratio (x) = 0.01401 -0.10778
# Poissons Ratio (y) = 0.00698 -0.11392
# Poissons Ratio (z) = -0.15992 -0.33925
#
# Static dielectric constant tensor:
#      x y z
#    x 1.618110 0.000000 -0.001330 
#    y 0.000000 1.599840 0.000000 
#    z -0.001330 0.000000 1.615710 
# 
# From -- ./inp_files/11385.got.cif
#   From: 2010.05.17/outbox.cif.g08.bks.cpg/sg10_6_cif.got.tgz:11385.got - 2010.06.03 11:33:40.
