data_PCOD9147002
_publ_section_title
;
Structure prediction by ZEFSAII (Michael W. Deem and Ramdas Pophale) SiO2 
 PCOD9147002
Probable space group: P 2/M
;
_chemical_formula_sum "Si O2"
_cell_formula_units_Z 28
_cell_length_a 15.777039
_cell_length_b 8.712141
_cell_length_c 19.541616
_cell_angle_alpha 90.000000
_cell_angle_beta 142.315534
_cell_angle_gamma 90.000000
_cell_volume 1642.003759
_symmetry_space_group_name_H-M "P 2/M"
_symmetry_group_IT_number 10
_symmetry_cell_setting 'monoclinic'
loop_
_space_group_symop_operation_xyz
x,y,z
-x,y,-z
-x,-y,-z
x,-y,z
loop_
_atom_site_type_symbol
_atom_site_label
_atom_site_fract_x
_atom_site_fract_y
_atom_site_fract_z
Si Si1 0.612693 0.686738 0.126450
Si Si2 0.598340 0.315634 0.273739
Si Si3 0.130524 0.675910 0.135666
Si Si4 0.083684 0.686037 0.893273
Si Si5 0.914285 0.685668 0.264924
Si Si6 0.684367 0.181630 0.856930
Si Si7 0.100764 0.816064 0.501195
O O1 0.609880 0.500000 0.123463
O O2 0.580456 0.733772 0.183011
O O3 0.766305 0.732780 0.202074
O O4 0.500000 0.741878 0.000000
O O5 0.598606 0.500000 0.276571
O O6 0.467458 0.252489 0.231330
O O7 0.747049 0.254044 0.392390
O O8 0.178194 0.500000 0.174648
O O9 0.246891 0.772270 0.171639
O O10 0.059020 0.732607 0.159721
O O11 0.000000 0.673106 0.000000
O O12 0.092559 0.500000 0.904065
O O13 0.083176 0.728262 0.813414
O O14 0.213346 0.752184 0.018610
O O15 0.924815 0.500000 0.275569
O O16 0.031804 0.759098 0.386955
O O17 0.678721 0.000000 0.859948
O O18 0.000000 0.767539 0.500000
O O19 0.109331 0.000000 0.507776
#
# Coordination Sequence:
#
# PCOD9147002 Si02
#       7
#     4   4   4   4   4   4   4
#     4   9  17  29  49  77 104 130 165 211 257 301
#     4  11  21  35  56  76 101 138 182 224 259 304
#     4   8  15  30  51  76 106 140 176 213 257 310
#     4   9  18  33  55  81 109 140 176 219 261 309
#     4  10  19  34  56  79 103 135 181 222 257 306
#     4  11  21  32  50  79 113 144 174 213 266 320
#     4  11  23  38  54  74 106 140 176 220 267 313
#
# _framework density 17.052336
#
# number of rings (size 3 to 8) (size 9 to 14) (size 15 to 20)
#    0.000    2.143    1.429    3.857    0.000    6.000 
#    0.000    0.000    0.000    3.000    0.000    6.000 
#    0.000    0.000    0.000    0.000    0.000    0.000 
#
# Total GULP energy -156217.431788 kJ/mol
# GULP energy per Si atom -5579.193992 kJ/mol
# Density = 1.701352 g / cm^3
# Si number density = 17.052336 Si / 1000 Ang^3
#
#
#
# Elastic Constant Matrix: (Units=GPa)
#
#
# Indices 1 2 3 4 5 6 
#
# 1 110.7599 35.8325 30.0165 0.0000 27.4353 0.0000
# 2 35.8325 46.9737 28.0813 0.0000 11.6670 0.0000
# 3 30.0165 28.0813 79.1749 0.0000 29.2798 0.0000
# 4 0.0000 0.0000 0.0000 3.0595 0.0000 -3.4848
# 5 27.4353 11.6670 29.2798 0.0000 20.4109 0.0000
# 6 0.0000 0.0000 0.0000 -3.4848 0.0000 12.6742
#
#
#
# Elastic Compliance Matrix: (Units=1/GPa)
#
#
# Indices 1 2 3 4 5 6 
#
# 1 0.017490 -0.010919 0.007727 0.000000 -0.028352 0.000000
# 2 -0.010919 0.033959 -0.013108 0.000000 0.014068 0.000000
# 3 0.007727 -0.013108 0.032843 0.000000 -0.050008 0.000000
# 4 0.000000 0.000000 0.000000 0.475877 0.000000 0.130842
# 5 -0.028352 0.014068 -0.050008 0.000000 0.150798 0.000000
# 6 0.000000 0.000000 0.000000 0.130842 0.000000 0.114876
#
#
# Mechanical properties :
#
#
# Convention : Reuss Voigt Hill
#
# Bulk Modulus (GPa) = 19.34499 47.19655 33.27077
# Shear Modulus (GPa) = 5.70989 16.76081 11.23535
#
# Velocity S-wave (km/s) = 1.83186 3.13853 2.56964
# Velocity P-wave (km/s) = 3.98038 6.39307 5.32517
#
# Compressibility (1/GPa) = 0.05169296
#
# Stress axis : x y z
#
# Youngs Moduli (GPa) = 57.17653 29.44704 30.44762
#
# Poissons Ratio (x) = 0.32153 -0.23526
# Poissons Ratio (y) = 0.62430 0.39909
# Poissons Ratio (z) = -0.44179 0.38598
#
# Static dielectric constant tensor:
#      x y z
#    x 1.590620 0.000000 -0.006970 
#    y 0.000000 1.570240 0.000000 
#    z -0.006970 0.000000 1.545760 
# 
# From -- ./inp_files/63491.got.cif
#   From: 2010.05.17/outbox.cif.g08.bks.cpg/sg10_32_cif.got.tgz:63491.got - 2010.06.03 11:33:40.
