data_PCOD9147999
_publ_section_title
;
Structure prediction by ZEFSAII (Michael W. Deem and Ramdas Pophale) SiO2 
 PCOD9147999
Probable space group: P 2/M
;
_chemical_formula_sum "Si O2"
_cell_formula_units_Z 32
_cell_length_a 12.930656
_cell_length_b 18.943978
_cell_length_c 8.790917
_cell_angle_alpha 90.000000
_cell_angle_beta 129.210930
_cell_angle_gamma 90.000000
_cell_volume 1668.510447
_symmetry_space_group_name_H-M "P 2/M"
_symmetry_group_IT_number 10
_symmetry_cell_setting 'monoclinic'
loop_
_space_group_symop_operation_xyz
x,y,z
-x,y,-z
-x,-y,-z
x,-y,z
loop_
_atom_site_type_symbol
_atom_site_label
_atom_site_fract_x
_atom_site_fract_y
_atom_site_fract_z
Si Si1 0.012511 0.150578 0.330430
Si Si2 0.615587 0.694921 0.388065
Si Si3 0.906556 0.307271 0.562284
Si Si4 0.325040 0.327158 0.197763
Si Si5 0.753176 0.078810 0.601251
Si Si6 0.743778 0.164866 0.898953
Si Si7 0.929631 0.579219 0.097429
Si Si8 0.529967 0.147797 0.206900
O O1 0.076636 0.228117 0.354804
O O2 0.108486 0.091120 0.355488
O O3 0.000000 0.145493 0.500000
O O4 0.872096 0.145652 0.116006
O O5 0.746906 0.677192 0.408862
O O6 0.655839 0.680740 0.601600
O O7 0.467514 0.659756 0.246702
O O8 0.582182 0.775944 0.314791
O O9 0.000000 0.305010 0.500000
O O10 0.976031 0.367905 0.723597
O O11 0.271772 0.249570 0.103766
O O12 0.215323 0.385261 0.055947
O O13 0.750521 0.135785 0.734512
O O14 0.639096 0.093998 0.371001
O O15 0.740497 0.000000 0.651622
O O16 0.609826 0.133016 0.843322
O O17 0.920794 0.500000 0.154139
O O18 0.000000 0.574382 0.000000
O O19 0.500000 0.149685 0.000000
#
# Coordination Sequence:
#
# PCOD9147999 Si02
#       8
#     4   4   4   4   4   4   4   4
#     4  11  23  40  65  96 122 160 213 264 317 374
#     4  10  20  36  62  94 125 155 217 260 313 365
#     4  11  22  37  65  93 127 167 205 257 312 377
#     4  10  19  37  64  93 121 168 206 270 311 359
#     4  12  26  43  62  88 125 167 207 261 325 386
#     4  11  22  38  65  92 120 162 214 260 313 375
#     4  11  23  39  62  96 131 167 211 257 313 376
#     4  11  23  39  63  92 125 160 204 267 316 380
#
# _framework density 19.178784
#
# number of rings (size 3 to 8) (size 9 to 14) (size 15 to 20)
#    0.000    1.125    5.000    1.500    1.750    2.750 
#    0.000    3.125    0.000    0.750    0.000    0.000 
#    0.000    0.000    0.000    0.000    0.000    0.000 
#
# Total GULP energy -178518.190538 kJ/mol
# GULP energy per Si atom -5578.693454 kJ/mol
# Density = 1.913513 g / cm^3
# Si number density = 19.178784 Si / 1000 Ang^3
#
#
#
# Elastic Constant Matrix: (Units=GPa)
#
#
# Indices 1 2 3 4 5 6 
#
# 1 126.9841 20.2239 44.6419 0.0000 30.0582 0.0000
# 2 20.2239 54.2214 24.3119 0.0000 9.6175 0.0000
# 3 44.6419 24.3119 95.3964 0.0000 20.6786 0.0000
# 4 0.0000 0.0000 0.0000 41.6374 0.0000 15.9029
# 5 30.0582 9.6175 20.6786 0.0000 39.2916 0.0000
# 6 0.0000 0.0000 0.0000 15.9029 0.0000 16.0743
#
#
#
# Elastic Compliance Matrix: (Units=1/GPa)
#
#
# Indices 1 2 3 4 5 6 
#
# 1 0.010715 -0.001422 -0.003331 0.000000 -0.006096 0.000000
# 2 -0.001422 0.021249 -0.004355 0.000000 -0.001821 0.000000
# 3 -0.003331 -0.004355 0.013960 0.000000 -0.003733 0.000000
# 4 0.000000 0.000000 0.000000 0.038604 0.000000 -0.038192
# 5 -0.006096 -0.001821 -0.003733 0.000000 0.032525 0.000000
# 6 0.000000 0.000000 0.000000 -0.038192 0.000000 0.099996
#
#
# Mechanical properties :
#
#
# Convention : Reuss Voigt Hill
#
# Bulk Modulus (GPa) = 36.08869 50.55081 43.31975
# Shear Modulus (GPa) = 20.44972 31.89559 26.17266
#
# Velocity S-wave (km/s) = 3.26892 4.08250 3.69815
# Velocity P-wave (km/s) = 5.75375 6.97404 6.39308
#
# Compressibility (1/GPa) = 0.02770952
#
# Stress axis : x y z
#
# Youngs Moduli (GPa) = 93.32349 47.06080 71.63187
#
# Poissons Ratio (x) = 0.06692 0.23857
# Poissons Ratio (y) = 0.13271 0.31196
# Poissons Ratio (z) = 0.31081 0.20495
#
# Static dielectric constant tensor:
#      x y z
#    x 1.698390 0.000000 0.012540 
#    y 0.000000 1.657440 0.000000 
#    z 0.012540 0.000000 1.629710 
# 
# From -- ./inp_files/26111.got.cif
#   From: 2010.05.17/outbox.cif.g08.bks.cpg/sg10_14_cif.got.tgz:26111.got - 2010.06.03 11:33:40.
