data_PCOD9147004
_publ_section_title
;
Structure prediction by ZEFSAII (Michael W. Deem and Ramdas Pophale) SiO2 
 PCOD9147004
Probable space group: P 2/M
;
_chemical_formula_sum "Si O2"
_cell_formula_units_Z 20
_cell_length_a 22.520851
_cell_length_b 7.784758
_cell_length_c 5.184009
_cell_angle_alpha 90.000000
_cell_angle_beta 96.555061
_cell_angle_gamma 90.000000
_cell_volume 902.915663
_symmetry_space_group_name_H-M "P 2/M"
_symmetry_group_IT_number 10
_symmetry_cell_setting 'monoclinic'
loop_
_space_group_symop_operation_xyz
x,y,z
-x,y,-z
-x,-y,-z
x,-y,z
loop_
_atom_site_type_symbol
_atom_site_label
_atom_site_fract_x
_atom_site_fract_y
_atom_site_fract_z
Si Si1 0.465187 0.207032 0.232370
Si Si2 0.868572 0.299780 0.548325
Si Si3 0.061990 0.199651 0.918648
Si Si4 0.260370 0.710513 0.709794
Si Si5 0.672158 0.293846 0.757093
O O1 0.500000 0.271747 0.500000
O O2 0.395620 0.250778 0.208138
O O3 0.469093 0.000000 0.233195
O O4 0.500000 0.272521 0.000000
O O5 0.860824 0.500000 0.610447
O O6 0.914200 0.283173 0.331689
O O7 0.805248 0.232723 0.410602
O O8 0.891748 0.213611 0.821128
O O9 0.051778 0.000000 0.849529
O O10 0.000000 0.273217 0.000000
O O11 0.258876 0.500000 0.717289
O O12 0.307369 0.765834 0.514279
O O13 0.282815 0.769874 0.999213
O O14 0.676999 0.500000 0.755653
#
# Coordination Sequence:
#
# PCOD9147004 Si02
#       5
#     4   4   4   4   4
#     4  10  21  36  52  73 105 140 173 216 268 316
#     4  11  22  39  64  89 115 152 199 242 284 345
#     4  11  24  41  59  84 122 159 190 237 299 347
#     4   9  19  35  55  81 111 140 173 226 284 322
#     4  10  19  34  56  79 105 138 177 219 269 328
#
# _framework density 22.150462999999998
#
# number of rings (size 3 to 8) (size 9 to 14) (size 15 to 20)
#    0.000    1.800    0.000    4.200    0.000    8.000 
#    0.000    6.000    0.000    0.000    0.000    0.000 
#    0.000    0.000    0.000    0.000    0.000    0.000 
#
# Total GULP energy -111839.523926 kJ/mol
# GULP energy per Si atom -5591.976196 kJ/mol
# Density = 2.210005 g / cm^3
# Si number density = 22.150463 Si / 1000 Ang^3
#
#
#
# Elastic Constant Matrix: (Units=GPa)
#
#
# Indices 1 2 3 4 5 6 
#
# 1 52.2486 -8.1201 -24.0236 0.0000 -0.5367 0.0000
# 2 -8.1201 29.9908 -2.6186 0.0000 -1.6782 0.0000
# 3 -24.0236 -2.6186 80.7584 0.0000 -2.1640 0.0000
# 4 0.0000 0.0000 0.0000 21.1664 0.0000 -0.6906
# 5 -0.5367 -1.6782 -2.1640 0.0000 41.5781 0.0000
# 6 0.0000 0.0000 0.0000 -0.6906 0.0000 36.8500
#
#
#
# Elastic Compliance Matrix: (Units=1/GPa)
#
#
# Indices 1 2 3 4 5 6 
#
# 1 0.023594 0.007077 0.007274 0.000000 0.000969 0.000000
# 2 0.007077 0.035644 0.003307 0.000000 0.001702 0.000000
# 3 0.007274 0.003307 0.014680 0.000000 0.000991 0.000000
# 4 0.000000 0.000000 0.000000 0.047273 0.000000 0.000886
# 5 0.000969 0.001702 0.000991 0.000000 0.024184 0.000000
# 6 0.000000 0.000000 0.000000 0.000886 0.000000 0.027154
#
#
# Mechanical properties :
#
#
# Convention : Reuss Voigt Hill
#
# Bulk Modulus (GPa) = 9.15470 10.38593 9.77031
# Shear Modulus (GPa) = 28.79789 33.10291 30.95040
#
# Velocity S-wave (km/s) = 3.60961 3.87001 3.74208
# Velocity P-wave (km/s) = 4.63835 4.96672 4.80534
#
# Compressibility (1/GPa) = 0.10923353
#
# Stress axis : x y z
#
# Youngs Moduli (GPa) = 42.38429 28.05546 68.11889
#
# Poissons Ratio (x) = -0.19856 -0.49549
# Poissons Ratio (y) = -0.29997 -0.22525
# Poissons Ratio (z) = -0.30830 -0.09277
#
# Static dielectric constant tensor:
#      x y z
#    x 1.791080 0.000000 0.003580 
#    y 0.000000 1.803720 0.000000 
#    z 0.003580 0.000000 1.766730 
# 
# From -- ./inp_files/11986.got.cif
#   From: 2010.05.17/outbox.cif.g08.bks.cpg/sg10_6_cif.got.tgz:11986.got - 2010.06.03 11:33:40.
