data_PCOD9147824
_publ_section_title
;
Structure prediction by ZEFSAII (Michael W. Deem and Ramdas Pophale) SiO2 
 PCOD9147824
Probable space group: P 2/M
;
_chemical_formula_sum "Si O2"
_cell_formula_units_Z 15
_cell_length_a 5.298320
_cell_length_b 20.646372
_cell_length_c 5.837065
_cell_angle_alpha 90.000000
_cell_angle_beta 92.154254
_cell_angle_gamma 90.000000
_cell_volume 638.071600
_symmetry_space_group_name_H-M "P 2/M"
_symmetry_group_IT_number 10
_symmetry_cell_setting 'monoclinic'
loop_
_space_group_symop_operation_xyz
x,y,z
-x,y,-z
-x,-y,-z
x,-y,z
loop_
_atom_site_type_symbol
_atom_site_label
_atom_site_fract_x
_atom_site_fract_y
_atom_site_fract_z
Si Si1 0.744150 0.139383 0.843334
Si Si2 0.256739 0.000000 0.159881
Si Si3 0.254254 0.409557 0.136779
Si Si4 0.245153 0.719476 0.358697
Si Si5 0.500000 0.500000 0.500000
O O1 0.736948 0.069583 0.715119
O O2 0.750495 0.204800 0.700806
O O3 0.500000 0.142448 0.000000
O O4 0.000000 0.139715 0.000000
O O5 0.500000 0.000000 0.000000
O O6 0.000000 0.000000 0.000000
O O7 0.242868 0.331778 0.154288
O O8 0.311366 0.443544 0.380795
O O9 0.500000 0.428329 0.000000
O O10 0.000000 0.430253 0.000000
O O11 0.500000 0.705375 0.500000
O O12 0.000000 0.705770 0.500000
#
# Coordination Sequence:
#
# PCOD9147824 Si02
#       5
#     4   2   4   4   1
#     4  10  19  36  60  89 121 167 221 269 329 395
#     4   8  16  30  54  84 120 160 212 272 322 387
#     4  12  27  48  74 103 137 182 221 272 341 401
#     4  12  24  42  64  94 133 172 219 280 328 384
#     4  12  28  50  76 108 142 166 230 278 334 398
#
# _framework density 23.508334999999999
#
# number of rings (size 3 to 8) (size 9 to 14) (size 15 to 20)
#    0.000    1.067    1.333    5.600    0.000    1.067 
#    0.000    1.333    0.000    0.000    0.000    0.000 
#    0.000    0.000    0.000    0.000    0.000    0.000 
#
# Total GULP energy -83598.128187 kJ/mol
# GULP energy per Si atom -5573.208546 kJ/mol
# Density = 2.345483 g / cm^3
# Si number density = 23.508335 Si / 1000 Ang^3
#
#
#
# Elastic Constant Matrix: (Units=GPa)
#
#
# Indices 1 2 3 4 5 6 
#
# 1 233.0636 24.5593 51.2653 0.0000 22.8335 0.0000
# 2 24.5593 195.9049 18.0357 0.0000 10.7920 0.0000
# 3 51.2653 18.0357 30.0121 0.0000 24.3523 0.0000
# 4 0.0000 0.0000 0.0000 21.1769 0.0000 8.4607
# 5 22.8335 10.7920 24.3523 0.0000 54.7019 0.0000
# 6 0.0000 0.0000 0.0000 8.4607 0.0000 48.1677
#
#
#
# Elastic Compliance Matrix: (Units=1/GPa)
#
#
# Indices 1 2 3 4 5 6 
#
# 1 0.007405 0.000333 -0.016106 0.000000 0.004013 0.000000
# 2 0.000333 0.005431 -0.004463 0.000000 0.000776 0.000000
# 3 -0.016106 -0.004463 0.089772 0.000000 -0.032361 0.000000
# 4 0.000000 0.000000 0.000000 0.050785 0.000000 -0.008920
# 5 0.004013 0.000776 -0.032361 0.000000 0.030859 0.000000
# 6 0.000000 0.000000 0.000000 -0.008920 0.000000 0.022328
#
#
# Mechanical properties :
#
#
# Convention : Reuss Voigt Hill
#
# Bulk Modulus (GPa) = 16.09346 71.85570 43.97458
# Shear Modulus (GPa) = 18.67328 49.15065 33.91197
#
# Velocity S-wave (km/s) = 2.82144 4.57746 3.80221
# Velocity P-wave (km/s) = 4.18028 7.65310 6.16622
#
# Compressibility (1/GPa) = 0.06213703
#
# Stress axis : x y z
#
# Youngs Moduli (GPa) = 135.04375 184.13369 11.13939
#
# Poissons Ratio (x) = -0.06138 0.17941
# Poissons Ratio (y) = -0.04502 0.04971
# Poissons Ratio (z) = 2.17496 0.82177
#
# Static dielectric constant tensor:
#      x y z
#    x 1.902980 0.000000 -0.211470 
#    y 0.000000 1.954840 0.000000 
#    z -0.211470 0.000000 2.363380 
# 
# From -- ./inp_files/1166.got.cif
#   From: 2010.05.17/outbox.cif.g08.bks.cpg/sg10_1_cif.got.tgz:1166.got - 2010.06.03 11:33:40.
