data_PCOD9147523
_publ_section_title
;
Structure prediction by ZEFSAII (Michael W. Deem and Ramdas Pophale) SiO2 
 PCOD9147523
Probable space group: P 2/M
;
_chemical_formula_sum "Si O2"
_cell_formula_units_Z 22
_cell_length_a 29.542372
_cell_length_b 7.306265
_cell_length_c 9.866831
_cell_angle_alpha 90.000000
_cell_angle_beta 156.820390
_cell_angle_gamma 90.000000
_cell_volume 838.281497
_symmetry_space_group_name_H-M "P 2/M"
_symmetry_group_IT_number 10
_symmetry_cell_setting 'monoclinic'
loop_
_space_group_symop_operation_xyz
x,y,z
-x,y,-z
-x,-y,-z
x,-y,z
loop_
_atom_site_type_symbol
_atom_site_label
_atom_site_fract_x
_atom_site_fract_y
_atom_site_fract_z
Si Si1 0.052094 0.791557 0.504682
Si Si2 0.096799 0.719803 0.155888
Si Si3 0.341749 0.721006 0.950369
Si Si4 0.698209 0.000000 0.622065
Si Si5 0.603044 0.281927 0.182935
Si Si6 0.693678 0.291990 0.849060
O O1 0.000000 0.712169 0.500000
O O2 0.089639 0.000000 0.645650
O O3 0.165717 0.701163 0.754721
O O4 0.953372 0.794395 0.121768
O O5 0.105397 0.500000 0.161768
O O6 0.217255 0.779001 0.551324
O O7 0.000000 0.760386 0.000000
O O8 0.342601 0.500000 0.963865
O O9 0.421930 0.765410 0.042789
O O10 0.355697 0.779147 0.143584
O O11 0.705290 0.838805 0.523206
O O12 0.677669 0.840227 0.680209
O O13 0.622706 0.500000 0.246202
O O14 0.500000 0.227651 0.000000
O O15 0.652300 0.500000 0.708953
#
# Coordination Sequence:
#
# PCOD9147523 Si02
#       6
#     4   4   4   2   4   4
#     4  11  24  38  54  87 132 172 216 266 316 374
#     4  10  19  35  58  84 116 162 214 257 306 365
#     4   9  20  40  66  93 126 171 222 271 319 382
#     4  12  25  42  66 101 131 164 209 267 330 392
#     4  10  23  46  73  98 127 166 213 268 329 391
#     4  11  23  42  63  92 134 175 215 263 322 387
#
# _framework density 26.244167000000001
#
# number of rings (size 3 to 8) (size 9 to 14) (size 15 to 20)
#    0.000    1.636    2.727    1.364    2.545    2.545 
#    1.636    1.818    0.000    4.364    0.000    0.000 
#    0.000    0.000    0.000    0.000    0.000    0.000 
#
# Total GULP energy -122652.134796 kJ/mol
# GULP energy per Si atom -5575.097036 kJ/mol
# Density = 2.618443 g / cm^3
# Si number density = 26.244167 Si / 1000 Ang^3
#
#
#
# Elastic Constant Matrix: (Units=GPa)
#
#
# Indices 1 2 3 4 5 6 
#
# 1 170.2391 26.2896 39.9144 0.0000 -41.7340 0.0000
# 2 26.2896 124.5959 11.0607 0.0000 -18.0236 0.0000
# 3 39.9144 11.0607 67.2292 0.0000 -8.4201 0.0000
# 4 0.0000 0.0000 0.0000-1103.4888 0.0000 196.2393
# 5 -41.7340 -18.0236 -8.4201 0.0000 62.1741 0.0000
# 6 0.0000 0.0000 0.0000 196.2393 0.0000 -14.6769
#
#
#
# Elastic Compliance Matrix: (Units=1/GPa)
#
#
# Indices 1 2 3 4 5 6 
#
# 1 0.008086 -0.000665 -0.004106 0.000000 0.004679 0.000000
# 2 -0.000665 0.008512 -0.000765 0.000000 0.001917 0.000000
# 3 -0.004106 -0.000765 0.017359 0.000000 -0.000627 0.000000
# 4 0.000000 0.000000 0.000000 0.000658 0.000000 0.008794
# 5 0.004679 0.001917 -0.000627 0.000000 0.019696 0.000000
# 6 0.000000 0.000000 0.000000 0.008794 0.000000 0.049453
#
#
# Mechanical properties :
#
#
# Convention : Reuss Voigt Hill
#
# Bulk Modulus (GPa) = 43.69545 57.39930 50.54737
# Shear Modulus (GPa) = 40.82839 -192.21168 -75.69164
#
# Velocity S-wave (km/s) = 3.94853 -8.56731 -5.37624
# Velocity P-wave (km/s) = 6.12157 8.71472 4.38593
#
# Compressibility (1/GPa) = 0.02288568
#
# Stress axis : x y z
#
# Youngs Moduli (GPa) = 123.66327 117.48731 57.60557
#
# Poissons Ratio (x) = 0.07812 0.23650
# Poissons Ratio (y) = 0.08222 0.04409
# Poissons Ratio (z) = 0.50771 0.08993
#
# Static dielectric constant tensor:
#      x y z
#    x 2.014320 0.000000 0.077640 
#    y 0.000000 2.015580 0.000000 
#    z 0.077640 0.000000 2.265440 
# 
# From -- ./inp_files/36861.got.cif
#   From: 2010.05.17/outbox.cif.g08.bks.cpg/sg10_19_cif.got.tgz:36861.got - 2010.06.03 11:33:40.
