data_PCOD9147947
_publ_section_title
;
Structure prediction by ZEFSAII (Michael W. Deem and Ramdas Pophale) SiO2 
 PCOD9147947
Probable space group: P 2/M
;
_chemical_formula_sum "Si O2"
_cell_formula_units_Z 28
_cell_length_a 8.975924
_cell_length_b 16.095119
_cell_length_c 10.704026
_cell_angle_alpha 90.000000
_cell_angle_beta 117.709728
_cell_angle_gamma 90.000000
_cell_volume 1369.046453
_symmetry_space_group_name_H-M "P 2/M"
_symmetry_group_IT_number 10
_symmetry_cell_setting 'monoclinic'
loop_
_space_group_symop_operation_xyz
x,y,z
-x,y,-z
-x,-y,-z
x,-y,z
loop_
_atom_site_type_symbol
_atom_site_label
_atom_site_fract_x
_atom_site_fract_y
_atom_site_fract_z
Si Si1 0.290180 0.272823 0.341281
Si Si2 0.807690 0.147604 0.390260
Si Si3 0.315021 0.406729 0.867626
Si Si4 0.269772 0.911666 0.368836
Si Si5 0.605535 0.313208 0.341961
Si Si6 0.922443 0.270805 0.102548
Si Si7 0.880000 0.910281 0.146275
O O1 0.348009 0.175955 0.360790
O O2 0.402515 0.313128 0.276350
O O3 0.332741 0.314857 0.490266
O O4 0.090061 0.270020 0.252967
O O5 0.750990 0.096053 0.489350
O O6 0.686753 0.226640 0.326514
O O7 0.815386 0.098892 0.263358
O O8 0.000000 0.174533 0.500000
O O9 0.247218 0.500000 0.856038
O O10 0.333120 0.382640 0.729058
O O11 0.203613 0.337613 0.891965
O O12 0.500000 0.403805 0.000000
O O13 0.082670 0.912552 0.237237
O O14 0.348983 0.000000 0.364795
O O15 0.843691 0.177635 0.065747
O O16 0.000000 0.293175 0.000000
O O17 0.824963 0.000000 0.071506
#
# Coordination Sequence:
#
# PCOD9147947 Si02
#       7
#     4   4   4   4   4   4   4
#     4   9  20  35  58  88 123 160 196 238 291 347
#     4   9  15  26  50  80 116 155 199 240 285 334
#     4  11  25  44  67  91 114 147 192 242 296 358
#     4   8  14  25  45  76 117 158 199 241 279 329
#     4  10  19  37  60  86 122 154 188 242 294 344
#     4  11  22  39  62  87 118 161 199 242 294 345
#     4   9  16  28  49  82 115 153 201 239 281 338
#
# _framework density 20.452190999999999
#
# number of rings (size 3 to 8) (size 9 to 14) (size 15 to 20)
#    0.000    2.429    1.429    2.143    0.000    2.286 
#    0.000   10.000    0.000    0.429    0.000    0.000 
#    0.000    0.000    0.000    0.000    0.000    0.000 
#
# Total GULP energy -156095.820650 kJ/mol
# GULP energy per Si atom -5574.850738 kJ/mol
# Density = 2.040564 g / cm^3
# Si number density = 20.452191 Si / 1000 Ang^3
#
#
#
# Elastic Constant Matrix: (Units=GPa)
#
#
# Indices 1 2 3 4 5 6 
#
# 1 74.0445 52.5188 8.6928 0.0000 -12.3975 0.0000
# 2 52.5188 129.1844 23.0962 0.0000 -1.1060 0.0000
# 3 8.6928 23.0962 27.1640 0.0000 -5.8516 0.0000
# 4 0.0000 0.0000 0.0000 -16.0000 0.0000 -19.2504
# 5 -12.3975 -1.1060 -5.8516 0.0000 27.7150 0.0000
# 6 0.0000 0.0000 0.0000 -19.2504 0.0000 -37.3270
#
#
#
# Elastic Compliance Matrix: (Units=1/GPa)
#
#
# Indices 1 2 3 4 5 6 
#
# 1 0.021235 -0.009093 0.003042 0.000000 0.009778 0.000000
# 2 -0.009093 0.013070 -0.009394 0.000000 -0.005529 0.000000
# 3 0.003042 -0.009394 0.046138 0.000000 0.010727 0.000000
# 4 0.000000 0.000000 0.000000 -0.164687 0.000000 0.084933
# 5 0.009778 -0.005529 0.010727 0.000000 0.042500 0.000000
# 6 0.000000 0.000000 0.000000 0.084933 0.000000 -0.070592
#
#
# Mechanical properties :
#
#
# Convention : Reuss Voigt Hill
#
# Bulk Modulus (GPa) = 20.18015 44.33429 32.25722
# Shear Modulus (GPa) = -77.00582 4.61660 -36.19461
#
# Velocity S-wave (km/s) = -6.14275 1.50405 -4.21137
# Velocity P-wave (km/s) = 6.35789 4.97396 2.80022
#
# Compressibility (1/GPa) = 0.04955364
#
# Stress axis : x y z
#
# Youngs Moduli (GPa) = 47.09185 76.51250 21.67419
#
# Poissons Ratio (x) = 0.69574 -0.06594
# Poissons Ratio (y) = 0.42821 0.20360
# Poissons Ratio (z) = -0.14327 0.71874
#
# Static dielectric constant tensor:
#      x y z
#    x 1.733100 0.000000 0.024470 
#    y 0.000000 1.738540 0.000000 
#    z 0.024470 0.000000 1.781370 
# 
# From -- ./inp_files/43026.got.cif
#   From: 2010.05.17/outbox.cif.g08.bks.cpg/sg10_22_cif.got.tgz:43026.got - 2010.06.03 11:33:40.
