data_PCOD9147044
_publ_section_title
;
Structure prediction by ZEFSAII (Michael W. Deem and Ramdas Pophale) SiO2 
 PCOD9147044
Probable space group: P 2/M
;
_chemical_formula_sum "Si O2"
_cell_formula_units_Z 32
_cell_length_a 20.511182
_cell_length_b 7.504456
_cell_length_c 26.281423
_cell_angle_alpha 90.000000
_cell_angle_beta 159.421666
_cell_angle_gamma 90.000000
_cell_volume 1421.899368
_symmetry_space_group_name_H-M "P 2/M"
_symmetry_group_IT_number 10
_symmetry_cell_setting 'monoclinic'
loop_
_space_group_symop_operation_xyz
x,y,z
-x,y,-z
-x,-y,-z
x,-y,z
loop_
_atom_site_type_symbol
_atom_site_label
_atom_site_fract_x
_atom_site_fract_y
_atom_site_fract_z
Si Si1 0.119618 0.295605 0.363156
Si Si2 0.204034 0.290763 0.143162
Si Si3 0.536004 0.284477 0.323057
Si Si4 0.687381 0.216116 0.665220
Si Si5 0.206233 0.784880 0.801239
Si Si6 0.544855 0.788953 0.846322
Si Si7 0.040456 0.796037 0.860951
Si Si8 0.420530 0.783865 0.863215
O O1 0.151644 0.500000 0.371144
O O2 0.308210 0.219133 0.524140
O O3 0.036955 0.203260 0.253174
O O4 0.971798 0.290254 0.300849
O O5 0.180054 0.500000 0.113915
O O6 0.335993 0.217451 0.195723
O O7 0.307124 0.272323 0.272236
O O8 0.000000 0.210703 0.000000
O O9 0.538905 0.500000 0.327942
O O10 0.565744 0.234884 0.286516
O O11 0.500000 0.276002 0.500000
O O12 0.877043 0.281753 0.776700
O O13 0.688278 0.000000 0.663626
O O14 0.256488 0.723388 0.780923
O O15 0.187766 0.000000 0.787698
O O16 0.386053 0.742230 0.967085
O O17 0.441773 0.718711 0.821163
O O18 0.569956 0.000000 0.874058
O O19 0.753528 0.713740 0.990644
O O20 0.063402 0.000000 0.895196
O O21 0.405351 0.000000 0.851516
#
# Coordination Sequence:
#
# PCOD9147044 Si02
#       8
#     4   4   4   4   4   4   4   4
#     4  11  22  35  52  78 111 145 180 216 259 318
#     4  10  21  38  58  77 101 140 186 224 262 317
#     4  10  23  39  52  74 111 147 178 216 266 319
#     4  10  21  35  53  81 111 136 170 219 272 322
#     4   9  16  32  57  80 107 140 172 217 268 310
#     4  10  19  34  56  82 104 132 179 224 262 311
#     4  10  20  35  56  80 107 137 174 222 270 318
#     4   8  15  30  55  83 107 134 172 220 267 309
#
# _framework density 22.505109000000001
#
# number of rings (size 3 to 8) (size 9 to 14) (size 15 to 20)
#    0.000    2.250    1.250    2.625    0.000    3.000 
#    0.000    2.500    0.000    3.750    0.000    0.000 
#    0.000    0.000    0.000    0.000    0.000    0.000 
#
# Total GULP energy -178742.068088 kJ/mol
# GULP energy per Si atom -5585.689628 kJ/mol
# Density = 2.245389 g / cm^3
# Si number density = 22.505109 Si / 1000 Ang^3
#
#
#
# Elastic Constant Matrix: (Units=GPa)
#
#
# Indices 1 2 3 4 5 6 
#
# 1 108.7647 -11.6722 0.3823 0.0000 3.9240 0.0000
# 2 -11.6722 60.2703 -7.7483 0.0000 5.5680 0.0000
# 3 0.3823 -7.7483 26.1064 0.0000 -11.3532 0.0000
# 4 0.0000 0.0000 0.0000 4.2219 0.0000 5.7384
# 5 3.9240 5.5680 -11.3532 0.0000 31.0055 0.0000
# 6 0.0000 0.0000 0.0000 5.7384 0.0000 -34.3457
#
#
#
# Elastic Compliance Matrix: (Units=1/GPa)
#
#
# Indices 1 2 3 4 5 6 
#
# 1 0.009464 0.001950 -0.000277 0.000000 -0.001649 0.000000
# 2 0.001950 0.017707 0.004444 0.000000 -0.001799 0.000000
# 3 -0.000277 0.004444 0.046739 0.000000 0.016351 0.000000
# 4 0.000000 0.000000 0.000000 0.193027 0.000000 0.032251
# 5 -0.001649 -0.001799 0.016351 0.000000 0.038771 0.000000
# 6 0.000000 0.000000 0.000000 0.032251 0.000000 -0.023727
#
#
# Mechanical properties :
#
#
# Convention : Reuss Voigt Hill
#
# Bulk Modulus (GPa) = 11.60858 17.45166 14.53012
# Shear Modulus (GPa) = 16.75257 14.45496 15.60377
#
# Velocity S-wave (km/s) = 2.73131 2.53711 2.63600
# Velocity P-wave (km/s) = 3.88795 4.04400 3.96674
#
# Compressibility (1/GPa) = 0.08614318
#
# Stress axis : x y z
#
# Youngs Moduli (GPa) = 105.66519 56.47459 21.39551
#
# Poissons Ratio (x) = -0.11010 0.00593
# Poissons Ratio (y) = -0.20600 -0.09509
# Poissons Ratio (z) = 0.02929 -0.25100
#
# Static dielectric constant tensor:
#      x y z
#    x 1.827190 0.000000 0.026320 
#    y 0.000000 1.947860 0.000000 
#    z 0.026320 0.000000 1.812510 
# 
# From -- ./inp_files/86825.got.cif
#   From: 2010.05.17/outbox.cif.g08.bks.cpg/sg10_44_cif.got.tgz:86825.got - 2010.06.03 11:33:40.
