data_PCOD9147412
_publ_section_title
;
Structure prediction by ZEFSAII (Michael W. Deem and Ramdas Pophale) SiO2 
 PCOD9147412
Probable space group: P 2/M
;
_chemical_formula_sum "Si O2"
_cell_formula_units_Z 32
_cell_length_a 8.548167
_cell_length_b 29.218160
_cell_length_c 14.740435
_cell_angle_alpha 90.000000
_cell_angle_beta 29.556566
_cell_angle_gamma 90.000000
_cell_volume 1816.067342
_symmetry_space_group_name_H-M "P 2/M"
_symmetry_group_IT_number 10
_symmetry_cell_setting 'monoclinic'
loop_
_space_group_symop_operation_xyz
x,y,z
-x,y,-z
-x,-y,-z
x,-y,z
loop_
_atom_site_type_symbol
_atom_site_label
_atom_site_fract_x
_atom_site_fract_y
_atom_site_fract_z
Si Si1 0.190056 0.802190 0.500001
Si Si2 0.690266 0.447974 0.500000
Si Si3 0.371319 0.876765 0.793946
Si Si4 0.253156 0.123235 0.206054
Si Si5 0.128595 0.626862 0.206170
Si Si6 0.752893 0.626862 0.206170
Si Si7 0.188220 0.697386 0.500000
Si Si8 0.687814 0.052942 0.500001
O O1 0.505027 0.831761 0.321967
O O2 0.243442 0.749933 0.500000
O O3 0.000000 0.801282 0.500000
O O4 0.970924 0.831761 0.678035
O O5 0.500000 0.449351 0.500000
O O6 0.747667 0.500000 0.500000
O O7 0.469790 0.418276 0.678088
O O8 0.004056 0.418276 0.321910
O O9 0.557454 0.878053 0.795031
O O10 0.484996 0.919880 0.677261
O O11 0.000000 0.876323 0.000000
O O12 0.016776 0.080120 0.322741
O O13 0.500000 0.123676 0.000000
O O14 0.941510 0.628562 0.205660
O O15 0.016787 0.669801 0.322728
O O16 0.500000 0.626281 0.000000
O O17 0.515031 0.669801 0.322727
O O18 0.000000 0.626280 0.000000
O O19 0.000000 0.696622 0.500000
O O20 0.500000 0.054940 0.500000
O O21 0.736569 0.000000 0.500000
#
# Coordination Sequence:
#
# PCOD9147412 Si02
#       8
#     4   4   4   4   4   4   4   4
#     4   8  18  35  54  77 104 135 171 214 258 304
#     4   8  16  32  52  73 100 133 169 212 258 304
#     4  10  20  36  56  79 107 137 172 212 257 306
#     4  10  20  36  56  79 107 137 172 212 257 306
#     4  10  20  34  52  76 105 136 172 211 255 306
#     4  10  20  34  52  76 105 136 172 211 255 306
#     4  10  19  35  56  77 104 135 171 214 260 306
#     4  10  21  37  56  79 106 137 175 216 258 304
#
# _framework density 17.620491000000001
#
# number of rings (size 3 to 8) (size 9 to 14) (size 15 to 20)
#    0.000    2.500    0.000    3.750    0.000    3.000 
#    0.000   10.000    0.000   12.750    0.000    0.000 
#    0.000    0.000    0.000    0.000    0.000    0.000 
#
# Total GULP energy -178527.993139 kJ/mol
# GULP energy per Si atom -5578.999786 kJ/mol
# Density = 1.758039 g / cm^3
# Si number density = 17.620491 Si / 1000 Ang^3
#
#
#
# Elastic Constant Matrix: (Units=GPa)
#
#
# Indices 1 2 3 4 5 6 
#
# 1 54.8190 42.4523 43.2618 0.0000 -1.1600 0.0000
# 2 42.4523 204.6462 112.1594 0.0000 -2.3468 0.0000
# 3 43.2618 112.1594 202.5024 0.0000 -3.8121 0.0000
# 4 0.0000 0.0000 0.0000 -70.3385 0.0000 3.1480
# 5 -1.1600 -2.3468 -3.8121 0.0000 23.0945 0.0000
# 6 0.0000 0.0000 0.0000 3.1480 0.0000 22.8691
#
#
#
# Elastic Compliance Matrix: (Units=1/GPa)
#
#
# Indices 1 2 3 4 5 6 
#
# 1 0.023162 -0.003005 -0.003278 0.000000 0.000317 0.000000
# 2 -0.003005 0.007406 -0.003460 0.000000 0.000031 0.000000
# 3 -0.003278 -0.003460 0.007569 0.000000 0.000733 0.000000
# 4 0.000000 0.000000 0.000000 -0.014130 0.000000 0.001945
# 5 0.000317 0.000031 0.000733 0.000000 0.043440 0.000000
# 6 0.000000 0.000000 0.000000 0.001945 0.000000 0.043459
#
#
# Mechanical properties :
#
#
# Convention : Reuss Voigt Hill
#
# Bulk Modulus (GPa) = 53.61249 95.30161 74.45705
# Shear Modulus (GPa) = 36.60081 12.73131 24.66606
#
# Velocity S-wave (km/s) = 4.56255 2.69091 3.74552
# Velocity P-wave (km/s) = 7.63204 7.99110 7.81363
#
# Compressibility (1/GPa) = 0.01865237
#
# Stress axis : x y z
#
# Youngs Moduli (GPa) = 43.17340 135.02246 132.12639
#
# Poissons Ratio (x) = 0.40568 0.43314
# Poissons Ratio (y) = 0.12972 0.45710
# Poissons Ratio (z) = 0.14153 0.46712
#
# Static dielectric constant tensor:
#      x y z
#    x 1.597020 0.000000 0.000970 
#    y 0.000000 1.596630 0.000000 
#    z 0.000970 0.000000 1.568290 
# 
# From -- ./inp_files/62738.got.cif
#   From: 2010.05.17/outbox.cif.g08.bks.cpg/sg10_32_cif.got.tgz:62738.got - 2010.06.03 11:33:40.
