data_PCOD9147356
_publ_section_title
;
Structure prediction by ZEFSAII (Michael W. Deem and Ramdas Pophale) SiO2 
 PCOD9147356
Probable space group: P 2/M
;
_chemical_formula_sum "Si O2"
_cell_formula_units_Z 24
_cell_length_a 12.150325
_cell_length_b 9.110022
_cell_length_c 24.092224
_cell_angle_alpha 90.000000
_cell_angle_beta 32.488615
_cell_angle_gamma 90.000000
_cell_volume 1432.403087
_symmetry_space_group_name_H-M "P 2/M"
_symmetry_group_IT_number 10
_symmetry_cell_setting 'monoclinic'
loop_
_space_group_symop_operation_xyz
x,y,z
-x,y,-z
-x,-y,-z
x,-y,z
loop_
_atom_site_type_symbol
_atom_site_label
_atom_site_fract_x
_atom_site_fract_y
_atom_site_fract_z
Si Si1 0.482891 0.673449 0.641583
Si Si2 0.252738 0.166051 0.557800
Si Si3 0.236742 0.823067 0.385572
Si Si4 0.228494 0.169963 0.262524
Si Si5 0.122479 0.172693 0.739064
Si Si6 0.292401 0.325735 0.121843
O O1 0.465505 0.500000 0.655224
O O2 0.616534 0.716075 0.530529
O O3 0.607448 0.745002 0.639272
O O4 0.262469 0.747040 0.724584
O O5 0.235985 0.186095 0.630817
O O6 0.019192 0.173023 0.635658
O O7 0.330687 0.000000 0.512837
O O8 0.283950 0.786318 0.301406
O O9 0.000000 0.783402 0.500000
O O10 0.251278 0.000000 0.385919
O O11 0.308699 0.267357 0.177955
O O12 0.289091 0.000000 0.227612
O O13 0.901069 0.244915 0.823839
O O14 0.101989 0.000000 0.759303
O O15 0.254889 0.500000 0.138159
O O16 0.500000 0.295898 0.000000
#
# Coordination Sequence:
#
# PCOD9147356 Si02
#       6
#     4   4   4   4   4   4
#     4  12  23  31  46  75 110 144 176 215 263 312
#     4   9  17  32  50  71 101 140 180 216 256 305
#     4  10  19  35  54  72 104 148 187 217 250 302
#     4   9  18  33  55  79 103 139 183 221 254 300
#     4  10  21  36  54  74 100 138 181 220 259 310
#     4  10  21  37  58  83 110 135 162 213 279 325
#
# _framework density 16.755058999999999
#
# number of rings (size 3 to 8) (size 9 to 14) (size 15 to 20)
#    0.000    2.000    1.667    4.000    0.000    7.667 
#    0.000    0.000    0.000    1.000    0.000    7.000 
#    0.000    0.000    0.000    0.000    0.000    0.000 
#
# Total GULP energy -133968.405181 kJ/mol
# GULP energy per Si atom -5582.016883 kJ/mol
# Density = 1.671692 g / cm^3
# Si number density = 16.755059 Si / 1000 Ang^3
#
#
#
# Elastic Constant Matrix: (Units=GPa)
#
#
# Indices 1 2 3 4 5 6 
#
# 1 147.2600 83.1050 54.5362 0.0000 -13.6522 0.0000
# 2 83.1050 104.8438 63.9264 0.0000 -3.2831 0.0000
# 3 54.5362 63.9264 79.6806 0.0000 0.7555 0.0000
# 4 0.0000 0.0000 0.0000 40.4356 0.0000 -13.7256
# 5 -13.6522 -3.2831 0.7555 0.0000 8.7758 0.0000
# 6 0.0000 0.0000 0.0000 -13.7256 0.0000 33.1625
#
#
#
# Elastic Compliance Matrix: (Units=1/GPa)
#
#
# Indices 1 2 3 4 5 6 
#
# 1 0.015165 -0.009675 -0.002809 0.000000 0.020214 0.000000
# 2 -0.009675 0.025465 -0.013768 0.000000 -0.004339 0.000000
# 3 -0.002809 -0.013768 0.025629 0.000000 -0.011727 0.000000
# 4 0.000000 0.000000 0.000000 0.028773 0.000000 0.011909
# 5 0.020214 -0.004339 -0.011727 0.000000 0.144783 0.000000
# 6 0.000000 0.000000 0.000000 0.011909 0.000000 0.035083
#
#
# Mechanical properties :
#
#
# Convention : Reuss Voigt Hill
#
# Bulk Modulus (GPa) = 72.69131 81.65771 77.17451
# Shear Modulus (GPa) = 15.06080 25.15589 20.10834
#
# Velocity S-wave (km/s) = 3.00139 3.87898 3.46806
# Velocity P-wave (km/s) = 7.44916 8.30084 7.88651
#
# Compressibility (1/GPa) = 0.01375680
#
# Stress axis : x y z
#
# Youngs Moduli (GPa) = 65.94177 39.26905 39.01757
#
# Poissons Ratio (x) = 0.37992 0.10961
# Poissons Ratio (y) = 0.63797 0.53718
# Poissons Ratio (z) = 0.18524 0.54064
#
# Static dielectric constant tensor:
#      x y z
#    x 1.582490 0.000000 -0.004310 
#    y 0.000000 1.555640 0.000000 
#    z -0.004310 0.000000 1.548280 
# 
# From -- ./inp_files/45182.got.cif
#   From: 2010.05.17/outbox.cif.g08.bks.cpg/sg10_23_cif.got.tgz:45182.got - 2010.06.03 11:33:40.
