data_PCOD9147411
_publ_section_title
;
Structure prediction by ZEFSAII (Michael W. Deem and Ramdas Pophale) SiO2 
 PCOD9147411
Probable space group: P 2/M
;
_chemical_formula_sum "Si O2"
_cell_formula_units_Z 32
_cell_length_a 21.790989
_cell_length_b 8.344447
_cell_length_c 21.752487
_cell_angle_alpha 90.000000
_cell_angle_beta 25.395252
_cell_angle_gamma 90.000000
_cell_volume 1696.286629
_symmetry_space_group_name_H-M "P 2/M"
_symmetry_group_IT_number 10
_symmetry_cell_setting 'monoclinic'
loop_
_space_group_symop_operation_xyz
x,y,z
-x,y,-z
-x,-y,-z
x,-y,z
loop_
_atom_site_type_symbol
_atom_site_label
_atom_site_fract_x
_atom_site_fract_y
_atom_site_fract_z
Si Si1 0.295880 0.188493 0.642630
Si Si2 0.438145 0.306361 0.121658
Si Si3 0.322262 0.307597 0.998407
Si Si4 0.938022 0.194784 0.242367
Si Si5 0.598163 0.314242 0.330425
Si Si6 0.005440 0.805722 0.316081
Si Si7 0.119955 0.806310 0.440352
Si Si8 0.262956 0.191203 0.918665
O O1 0.182123 0.251753 0.696054
O O2 0.454323 0.213263 0.471886
O O3 0.296969 0.272919 0.707818
O O4 0.270001 0.000000 0.675949
O O5 0.437386 0.500000 0.121755
O O6 0.548003 0.254274 0.075477
O O7 0.277518 0.249552 0.279246
O O8 0.500000 0.251360 0.000000
O O9 0.322285 0.500000 0.995139
O O10 0.333457 0.238293 0.919674
O O11 0.169404 0.252406 0.164062
O O12 0.929342 0.247129 0.321395
O O13 0.929925 0.000000 0.250499
O O14 0.096235 0.238007 0.075951
O O15 0.558930 0.500000 0.369556
O O16 0.666211 0.273505 0.203726
O O17 0.926799 0.752065 0.449121
O O18 0.008913 0.000000 0.312836
O O19 0.000000 0.752443 0.500000
O O20 0.119631 0.000000 0.440693
O O21 0.270402 0.000000 0.904183
#
# Coordination Sequence:
#
# PCOD9147411 Si02
#       8
#     4   4   4   4   4   4   4   4
#     4  10  19  35  56  77 102 139 183 223 268 321
#     4  10  22  38  55  78 110 146 182 219 265 322
#     4  10  20  35  55  81 109 138 177 222 264 313
#     4   8  17  33  55  79 102 132 176 222 260 312
#     4  11  22  36  52  77 110 141 176 221 268 317
#     4   9  18  35  55  77 107 141 175 215 267 321
#     4  10  21  35  54  82 111 140 182 231 270 310
#     4  10  20  37  58  80 106 140 177 216 267 321
#
# _framework density 18.864737000000002
#
# number of rings (size 3 to 8) (size 9 to 14) (size 15 to 20)
#    0.000    2.250    0.000    4.500    0.000    3.500 
#    0.000   10.000    0.000    0.000    0.000    0.000 
#    0.000    0.000    0.000    0.000    0.000    0.000 
#
# Total GULP energy -178626.116145 kJ/mol
# GULP energy per Si atom -5582.066130 kJ/mol
# Density = 1.882180 g / cm^3
# Si number density = 18.864737 Si / 1000 Ang^3
#
#
#
# Elastic Constant Matrix: (Units=GPa)
#
#
# Indices 1 2 3 4 5 6 
#
# 1 163.6221 2.2760 88.8842 0.0000 -7.5294 0.0000
# 2 2.2760 13.9658 -1.3788 0.0000 0.1714 0.0000
# 3 88.8842 -1.3788 98.5148 0.0000 11.2274 0.0000
# 4 0.0000 0.0000 0.0000 -11.0163 0.0000 12.6480
# 5 -7.5294 0.1714 11.2274 0.0000 39.6123 0.0000
# 6 0.0000 0.0000 0.0000 12.6480 0.0000 18.6012
#
#
#
# Elastic Compliance Matrix: (Units=1/GPa)
#
#
# Indices 1 2 3 4 5 6 
#
# 1 0.013454 -0.003543 -0.012899 0.000000 0.006229 0.000000
# 2 -0.003543 0.072650 0.004470 0.000000 -0.002255 0.000000
# 3 -0.012899 0.004470 0.022871 0.000000 -0.008954 0.000000
# 4 0.000000 0.000000 0.000000 -0.050978 0.000000 0.034663
# 5 0.006229 -0.002255 -0.008954 0.000000 0.028976 0.000000
# 6 0.000000 0.000000 0.000000 0.034663 0.000000 0.030191
#
#
# Mechanical properties :
#
#
# Convention : Reuss Voigt Hill
#
# Bulk Modulus (GPa) = 11.76009 50.62947 31.19478
# Shear Modulus (GPa) = 29.50698 21.86085 25.68392
#
# Velocity S-wave (km/s) = 3.95920 3.40784 3.69382
# Velocity P-wave (km/s) = 5.21036 6.51006 5.89613
#
# Compressibility (1/GPa) = 0.08503337
#
# Stress axis : x y z
#
# Youngs Moduli (GPa) = 74.32505 13.76467 43.72276
#
# Poissons Ratio (x) = 0.04876 0.56396
# Poissons Ratio (y) = 0.26330 -0.19544
# Poissons Ratio (z) = 0.95869 -0.06153
#
# Static dielectric constant tensor:
#      x y z
#    x 1.662250 0.000000 -0.001400 
#    y 0.000000 1.655180 0.000000 
#    z -0.001400 0.000000 1.612880 
# 
# From -- ./inp_files/90530.got.cif
#   From: 2010.05.17/outbox.cif.g08.bks.cpg/sg10_46_cif.got.tgz:90530.got - 2010.06.03 11:33:40.
