data_PCOD9147333
_publ_section_title
;
Structure prediction by ZEFSAII (Michael W. Deem and Ramdas Pophale) SiO2 
 PCOD9147333
Probable space group: P 2/M
;
_chemical_formula_sum "Si O2"
_cell_formula_units_Z 24
_cell_length_a 10.620765
_cell_length_b 12.290619
_cell_length_c 11.832684
_cell_angle_alpha 90.000000
_cell_angle_beta 131.095072
_cell_angle_gamma 90.000000
_cell_volume 1164.032745
_symmetry_space_group_name_H-M "P 2/M"
_symmetry_group_IT_number 10
_symmetry_cell_setting 'monoclinic'
loop_
_space_group_symop_operation_xyz
x,y,z
-x,y,-z
-x,-y,-z
x,-y,z
loop_
_atom_site_type_symbol
_atom_site_label
_atom_site_fract_x
_atom_site_fract_y
_atom_site_fract_z
Si Si1 0.275512 0.000000 0.497006
Si Si2 0.180110 0.765397 0.541159
Si Si3 0.203366 0.771424 0.124123
Si Si4 0.171756 0.615562 0.919940
Si Si5 0.639194 0.623724 0.180700
Si Si6 0.786126 0.623726 0.667049
Si Si7 0.323693 0.000000 0.264993
O O1 0.209299 0.889593 0.517036
O O2 0.240652 0.000000 0.341467
O O3 0.476409 0.000000 0.615893
O O4 0.324964 0.717818 0.709079
O O5 0.198471 0.687917 0.441580
O O6 0.000000 0.758020 0.500000
O O7 0.283069 0.703088 0.275923
O O8 0.265753 0.892416 0.168800
O O9 0.252381 0.710438 0.038646
O O10 0.000000 0.775932 0.000000
O O11 0.243294 0.500000 0.001443
O O12 0.196995 0.623641 0.802098
O O13 0.975703 0.612236 0.823494
O O14 0.623137 0.500000 0.218151
O O15 0.500000 0.638463 0.000000
O O16 0.718078 0.500000 0.617649
#
# Coordination Sequence:
#
# PCOD9147333 Si02
#       7
#     2   4   4   4   4   4   2
#     4  11  27  44  62  85 117 163 212 268 320 346
#     4  12  23  42  66  90 122 165 215 258 300 367
#     4  10  20  36  62  94 121 160 204 252 306 366
#     4   9  18  34  57  90 128 159 191 244 307 363
#     4  10  22  38  60  92 129 163 193 242 313 375
#     4  10  19  34  61  95 123 153 203 253 301 361
#     4  11  23  44  63  82 121 165 208 263 312 366
#
# _framework density 20.617975000000001
#
# number of rings (size 3 to 8) (size 9 to 14) (size 15 to 20)
#    0.000    1.667    3.333    1.500    2.333    2.667 
#    0.000    1.250    0.000    1.000    0.000    0.000 
#    0.000    0.000    0.000    0.000    0.000    0.000 
#
# Total GULP energy -133724.091664 kJ/mol
# GULP energy per Si atom -5571.837153 kJ/mol
# Density = 2.057105 g / cm^3
# Si number density = 20.617975 Si / 1000 Ang^3
#
#
#
# Elastic Constant Matrix: (Units=GPa)
#
#
# Indices 1 2 3 4 5 6 
#
# 1 33.7024 23.3617 10.3405 0.0000 -6.1809 0.0000
# 2 23.3617 203.8731 70.1479 0.0000 -26.4730 0.0000
# 3 10.3405 70.1479 79.1029 0.0000 -11.6077 0.0000
# 4 0.0000 0.0000 0.0000 147.2949 0.0000 55.6373
# 5 -6.1809 -26.4730 -11.6077 0.0000 24.1885 0.0000
# 6 0.0000 0.0000 0.0000 55.6373 0.0000 99.1532
#
#
#
# Elastic Compliance Matrix: (Units=1/GPa)
#
#
# Indices 1 2 3 4 5 6 
#
# 1 0.032808 -0.002734 -0.001154 0.000000 0.004837 0.000000
# 2 -0.002734 0.007919 -0.005912 0.000000 0.005131 0.000000
# 3 -0.001154 -0.005912 0.018334 0.000000 0.002033 0.000000
# 4 0.000000 0.000000 0.000000 0.008615 0.000000 -0.004834
# 5 0.004837 0.005131 0.002033 0.000000 0.049169 0.000000
# 6 0.000000 0.000000 0.000000 -0.004834 0.000000 0.012798
#
#
# Mechanical properties :
#
#
# Convention : Reuss Voigt Hill
#
# Bulk Modulus (GPa) = 25.34236 58.26428 41.80332
# Shear Modulus (GPa) = 30.78886 68.31588 49.55237
#
# Velocity S-wave (km/s) = 3.86852 5.76247 4.90772
# Velocity P-wave (km/s) = 5.68084 8.52027 7.24110
#
# Compressibility (1/GPa) = 0.03945962
#
# Stress axis : x y z
#
# Youngs Moduli (GPa) = 30.48033 126.28304 54.54462
#
# Poissons Ratio (x) = 0.34529 0.06296
# Poissons Ratio (y) = 0.08334 0.32246
# Poissons Ratio (z) = 0.03518 0.74658
#
# Static dielectric constant tensor:
#      x y z
#    x 1.834240 0.000000 0.023910 
#    y 0.000000 1.725570 0.000000 
#    z 0.023910 0.000000 1.740450 
# 
# From -- ./inp_files/45852.got.cif
#   From: 2010.05.17/outbox.cif.g08.bks.cpg/sg10_23_cif.got.tgz:45852.got - 2010.06.03 11:33:40.
