data_PCOD9147579
_publ_section_title
;
Structure prediction by ZEFSAII (Michael W. Deem and Ramdas Pophale) SiO2 
 PCOD9147579
Probable space group: P 2/M
;
_chemical_formula_sum "Si O2"
_cell_formula_units_Z 26
_cell_length_a 24.157207
_cell_length_b 13.692574
_cell_length_c 5.280647
_cell_angle_alpha 90.000000
_cell_angle_beta 121.297050
_cell_angle_gamma 90.000000
_cell_volume 1492.532137
_symmetry_space_group_name_H-M "P 2/M"
_symmetry_group_IT_number 10
_symmetry_cell_setting 'monoclinic'
loop_
_space_group_symop_operation_xyz
x,y,z
-x,y,-z
-x,-y,-z
x,-y,z
loop_
_atom_site_type_symbol
_atom_site_label
_atom_site_fract_x
_atom_site_fract_y
_atom_site_fract_z
Si Si1 0.318837 0.307519 0.284331
Si Si2 0.543350 0.613875 0.352826
Si Si3 0.872932 0.695693 0.477906
Si Si4 0.861615 0.893686 0.618550
Si Si5 0.204087 0.827639 0.028841
Si Si6 0.743921 0.387383 0.368979
Si Si7 0.956604 0.500000 0.646624
O O1 0.395572 0.314079 0.498170
O O2 0.289098 0.372598 0.439660
O O3 0.278297 0.207037 0.218113
O O4 0.301151 0.348742 0.965387
O O5 0.500000 0.626251 0.500000
O O6 0.566830 0.500000 0.408424
O O7 0.500000 0.626855 0.000000
O O8 0.903652 0.795388 0.665261
O O9 0.839982 0.730911 0.136320
O O10 0.810803 0.671173 0.503864
O O11 0.914852 0.599534 0.550237
O O12 0.811625 0.887874 0.263143
O O13 0.893935 0.000000 0.693979
O O14 0.823035 0.879164 0.787761
O O15 0.758245 0.500000 0.357682
O O16 0.000000 0.500000 0.500000
O O17 0.000000 0.500000 0.000000
#
# Coordination Sequence:
#
# PCOD9147579 Si02
#       7
#     4   4   4   4   4   4   2
#     4  11  19  32  47  75 103 139 192 216 280 324
#     4  10  20  31  42  61 100 149 189 227 257 316
#     4   9  22  38  55  84 115 145 183 222 277 322
#     4  10  19  35  59  85 112 142 172 226 296 338
#     4   9  19  33  55  83 110 135 173 238 274 341
#     4  11  19  30  51  74 104 142 169 233 263 323
#     4  12  28  40  62  84 120 164 190 222 258 320
#
# _framework density 17.420061
#
# number of rings (size 3 to 8) (size 9 to 14) (size 15 to 20)
#    0.923    0.923    2.308    2.769    2.154    1.231 
#    0.000    0.000    0.000    0.923    0.000    0.000 
#    0.000   12.308    0.000    0.000    0.000    0.000 
#
# Total GULP energy -144735.009256 kJ/mol
# GULP energy per Si atom -5566.731125 kJ/mol
# Density = 1.738041 g / cm^3
# Si number density = 17.420061 Si / 1000 Ang^3
#
#
#
# Elastic Constant Matrix: (Units=GPa)
#
#
# Indices 1 2 3 4 5 6 
#
# 1 68.3214 28.6201 41.5867 0.0000 -8.0757 0.0000
# 2 28.6201 99.3560 16.6250 0.0000 8.4294 0.0000
# 3 41.5867 16.6250 76.2861 0.0000 -14.3717 0.0000
# 4 0.0000 0.0000 0.0000 4.1404 0.0000 1.2327
# 5 -8.0757 8.4294 -14.3717 0.0000 29.6620 0.0000
# 6 0.0000 0.0000 0.0000 1.2327 0.0000 8.0737
#
#
#
# Elastic Compliance Matrix: (Units=1/GPa)
#
#
# Indices 1 2 3 4 5 6 
#
# 1 0.024160 -0.005233 -0.011567 0.000000 0.002461 0.000000
# 2 -0.005233 0.012150 -0.000786 0.000000 -0.005258 0.000000
# 3 -0.011567 -0.000786 0.020946 0.000000 0.007223 0.000000
# 4 0.000000 0.000000 0.000000 0.253022 0.000000 -0.038630
# 5 0.002461 -0.005258 0.007223 0.000000 0.039377 0.000000
# 6 0.000000 0.000000 0.000000 -0.038630 0.000000 0.129756
#
#
# Mechanical properties :
#
#
# Convention : Reuss Voigt Hill
#
# Bulk Modulus (GPa) = 45.27902 46.40300 45.84101
# Shear Modulus (GPa) = 9.57958 18.85068 14.21513
#
# Velocity S-wave (km/s) = 2.34757 3.29314 2.85971
# Velocity P-wave (km/s) = 5.77902 6.41523 6.10542
#
# Compressibility (1/GPa) = 0.02208529
#
# Stress axis : x y z
#
# Youngs Moduli (GPa) = 41.39041 82.30630 47.74182
#
# Poissons Ratio (x) = 0.43069 0.55222
# Poissons Ratio (y) = 0.21659 0.03751
# Poissons Ratio (z) = 0.47875 0.06467
#
# Static dielectric constant tensor:
#      x y z
#    x 1.578230 0.000000 -0.006090 
#    y 0.000000 1.652280 0.000000 
#    z -0.006090 0.000000 1.608430 
# 
# From -- ./inp_files/13315.got.cif
#   From: 2010.05.17/outbox.cif.g08.bks.cpg/sg10_7_cif.got.tgz:13315.got - 2010.06.03 11:33:40.
