data_PCOD9147534
_publ_section_title
;
Structure prediction by ZEFSAII (Michael W. Deem and Ramdas Pophale) SiO2 
 PCOD9147534
Probable space group: P 2/M
;
_chemical_formula_sum "Si O2"
_cell_formula_units_Z 32
_cell_length_a 13.118612
_cell_length_b 8.463815
_cell_length_c 34.282383
_cell_angle_alpha 90.000000
_cell_angle_beta 24.979278
_cell_angle_gamma 90.000000
_cell_volume 1607.445712
_symmetry_space_group_name_H-M "P 2/M"
_symmetry_group_IT_number 10
_symmetry_cell_setting 'monoclinic'
loop_
_space_group_symop_operation_xyz
x,y,z
-x,y,-z
-x,-y,-z
x,-y,z
loop_
_atom_site_type_symbol
_atom_site_label
_atom_site_fract_x
_atom_site_fract_y
_atom_site_fract_z
Si Si1 0.513059 0.807018 0.689982
Si Si2 0.091577 0.811111 0.387208
Si Si3 0.546683 0.193127 0.588694
Si Si4 0.274041 0.189832 0.607431
Si Si5 0.250046 0.679712 0.111360
Si Si6 0.483527 0.812878 0.909713
Si Si7 0.012485 0.809853 0.119208
Si Si8 0.788887 0.315385 0.736618
O O1 0.742513 0.750792 0.634977
O O2 0.510496 0.756786 0.645805
O O3 0.257934 0.760740 0.797653
O O4 0.521587 0.000000 0.686712
O O5 0.210206 0.773505 0.304769
O O6 0.815690 0.753798 0.483267
O O7 0.076895 0.000000 0.396831
O O8 0.354126 0.243446 0.622889
O O9 0.541498 0.000000 0.589724
O O10 0.500000 0.218757 0.500000
O O11 0.034406 0.268536 0.674049
O O12 0.234418 0.000000 0.621579
O O13 0.186184 0.500000 0.143692
O O14 0.313837 0.777364 0.127659
O O15 0.064864 0.754795 0.145228
O O16 0.500000 0.676930 0.000000
O O17 0.568044 0.731478 0.841020
O O18 0.468728 0.000000 0.908892
O O19 0.229036 0.754167 0.016046
O O20 0.024604 0.000000 0.115005
O O21 0.788425 0.500000 0.729161
#
# Coordination Sequence:
#
# PCOD9147534 Si02
#       8
#     4   4   4   4   4   4   4   4
#     4   9  18  32  57  89 114 141 187 241 279 322
#     4  10  19  37  60  82 111 149 191 230 278 335
#     4   9  17  31  56  89 118 143 179 225 273 331
#     4  10  19  35  58  86 118 150 185 223 274 338
#     4   9  17  30  49  75 109 146 180 221 275 333
#     4  10  20  35  55  77 108 149 192 235 283 337
#     4   9  18  33  53  82 113 145 188 237 283 327
#     4  12  25  38  55  81 114 149 192 236 286 341
#
# _framework density 19.907359
#
# number of rings (size 3 to 8) (size 9 to 14) (size 15 to 20)
#    0.000    2.250    1.250    2.250    1.750    3.750 
#    0.000    1.250    0.000    6.750    0.000    0.000 
#    0.000    0.000    0.000    0.000    0.000    0.000 
#
# Total GULP energy -178624.245542 kJ/mol
# GULP energy per Si atom -5582.007673 kJ/mol
# Density = 1.986205 g / cm^3
# Si number density = 19.907359 Si / 1000 Ang^3
#
#
#
# Elastic Constant Matrix: (Units=GPa)
#
#
# Indices 1 2 3 4 5 6 
#
# 1 78.8965 -10.9715 5.8146 0.0000 4.8463 0.0000
# 2 -10.9715 -1.5829 -4.3720 0.0000 -11.4130 0.0000
# 3 5.8146 -4.3720 46.5292 0.0000 10.2038 0.0000
# 4 0.0000 0.0000 0.0000 7.0559 0.0000 0.7022
# 5 4.8463 -11.4130 10.2038 0.0000 18.0937 0.0000
# 6 0.0000 0.0000 0.0000 0.7022 0.0000 -11.4466
#
#
#
# Elastic Compliance Matrix: (Units=1/GPa)
#
#
# Indices 1 2 3 4 5 6 
#
# 1 0.011807 -0.010723 -0.000349 0.000000 -0.009729 0.000000
# 2 -0.010723 -0.102793 0.006014 0.000000 -0.065358 0.000000
# 3 -0.000349 0.006014 0.024247 0.000000 -0.009787 0.000000
# 4 0.000000 0.000000 0.000000 0.140865 0.000000 0.008641
# 5 -0.009729 -0.065358 -0.009787 0.000000 0.022167 0.000000
# 6 0.000000 0.000000 0.000000 0.008641 0.000000 -0.086832
#
#
# Mechanical properties :
#
#
# Convention : Reuss Voigt Hill
#
# Bulk Modulus (GPa) = -13.01143 11.64278 -0.68433
# Shear Modulus (GPa) = -827.64391 11.63205 -408.00593
#
# Velocity S-wave (km/s) = -20.41201 2.41987 -14.33169
# Velocity P-wave (km/s) = 23.70831 3.69714 16.55921
#
# Compressibility (1/GPa) = -0.07685548
#
# Stress axis : x y z
#
# Youngs Moduli (GPa) = 84.69523 -9.72829 41.24245
#
# Poissons Ratio (x) = -0.10432 0.01441
# Poissons Ratio (y) = 0.90819 -0.24805
# Poissons Ratio (z) = 0.02960 0.05851
#
# Static dielectric constant tensor:
#      x y z
#    x 1.681330 0.000000 -0.005440 
#    y 0.000000 1.684450 0.000000 
#    z -0.005440 0.000000 1.728990 
# 
# From -- ./inp_files/94993.got.cif
#   From: 2010.05.17/outbox.cif.g08.bks.cpg/sg10_48_cif.got.tgz:94993.got - 2010.06.03 11:33:40.
