data_PCOD9147224
_publ_section_title
;
Structure prediction by ZEFSAII (Michael W. Deem and Ramdas Pophale) SiO2 
 PCOD9147224
Probable space group: P 2/M
;
_chemical_formula_sum "Si O2"
_cell_formula_units_Z 32
_cell_length_a 29.764941
_cell_length_b 7.817420
_cell_length_c 12.826825
_cell_angle_alpha 90.000000
_cell_angle_beta 29.836556
_cell_angle_gamma 90.000000
_cell_volume 1484.925769
_symmetry_space_group_name_H-M "P 2/M"
_symmetry_group_IT_number 10
_symmetry_cell_setting 'monoclinic'
loop_
_space_group_symop_operation_xyz
x,y,z
-x,y,-z
-x,-y,-z
x,-y,z
loop_
_atom_site_type_symbol
_atom_site_label
_atom_site_fract_x
_atom_site_fract_y
_atom_site_fract_z
Si Si1 0.285043 0.707252 0.810488
Si Si2 0.512266 0.302882 0.636544
Si Si3 0.477257 0.804499 0.160083
Si Si4 0.151083 0.798572 0.896728
Si Si5 0.236396 0.296895 0.352918
Si Si6 0.966940 0.206203 0.182105
Si Si7 0.319219 0.709554 0.969825
Si Si8 0.702375 0.301772 0.551831
O O1 0.286421 0.500000 0.797950
O O2 0.387264 0.770588 0.579195
O O3 0.208138 0.767325 0.886265
O O4 0.270576 0.755254 0.960197
O O5 0.519462 0.500000 0.588705
O O6 0.490159 0.294143 0.804379
O O7 0.423842 0.230338 0.758279
O O8 0.368860 0.797988 0.374856
O O9 0.508762 0.000000 0.102878
O O10 0.500000 0.733254 0.000000
O O11 0.202789 0.709091 0.697505
O O12 0.153041 0.000000 0.869890
O O13 0.046611 0.745240 0.102251
O O14 0.253413 0.500000 0.318820
O O15 0.130606 0.271539 0.587438
O O16 0.288994 0.229475 0.349057
O O17 0.270711 0.229897 0.172898
O O18 0.959290 0.000000 0.194133
O O19 0.000000 0.261292 0.000000
O O20 0.322030 0.500000 0.967043
O O21 0.674339 0.500000 0.610342
#
# Coordination Sequence:
#
# PCOD9147224 Si02
#       8
#     4   4   4   4   4   4   4   4
#     4  10  20  36  60  86 113 151 195 233 276 333
#     4  10  19  34  58  84 111 148 194 237 276 328
#     4  11  23  35  49  76 116 157 190 227 279 334
#     4  11  22  37  58  83 114 146 182 232 285 335
#     4  10  21  36  58  86 115 147 186 237 285 333
#     4  10  21  38  59  83 112 150 187 227 287 347
#     4   9  19  37  58  84 117 150 188 235 286 333
#     4  11  21  34  55  83 113 146 185 229 281 335
#
# _framework density 21.549900999999998
#
# number of rings (size 3 to 8) (size 9 to 14) (size 15 to 20)
#    0.000    1.750    2.500    2.250    0.000    5.250 
#    0.000    2.500    0.000    5.250    0.000    0.000 
#    0.000    0.000    0.000    0.000    0.000    0.000 
#
# Total GULP energy -178725.188314 kJ/mol
# GULP energy per Si atom -5585.162135 kJ/mol
# Density = 2.150085 g / cm^3
# Si number density = 21.549901 Si / 1000 Ang^3
#
#
#
# Elastic Constant Matrix: (Units=GPa)
#
#
# Indices 1 2 3 4 5 6 
#
# 1 144.2502 8.3276 38.8935 0.0000 8.4223 0.0000
# 2 8.3276 40.5980 2.6495 0.0000 0.9377 0.0000
# 3 38.8935 2.6495 62.2780 0.0000 2.9119 0.0000
# 4 0.0000 0.0000 0.0000 13.0376 0.0000 -10.7053
# 5 8.4223 0.9377 2.9119 0.0000 35.2638 0.0000
# 6 0.0000 0.0000 0.0000 -10.7053 0.0000 21.9666
#
#
#
# Elastic Compliance Matrix: (Units=1/GPa)
#
#
# Indices 1 2 3 4 5 6 
#
# 1 0.008498 -0.001369 -0.005176 0.000000 -0.001566 0.000000
# 2 -0.001369 0.024932 -0.000191 0.000000 -0.000320 0.000000
# 3 -0.005176 -0.000191 0.019314 0.000000 -0.000354 0.000000
# 4 0.000000 0.000000 0.000000 0.127870 0.000000 0.062317
# 5 -0.001566 -0.000320 -0.000354 0.000000 0.028769 0.000000
# 6 0.000000 0.000000 0.000000 0.062317 0.000000 0.075894
#
#
# Mechanical properties :
#
#
# Convention : Reuss Voigt Hill
#
# Bulk Modulus (GPa) = 25.46251 38.54081 32.00166
# Shear Modulus (GPa) = 16.03383 27.20398 21.61891
#
# Velocity S-wave (km/s) = 2.73066 3.55684 3.17077
# Velocity P-wave (km/s) = 4.66725 5.89843 5.31858
#
# Compressibility (1/GPa) = 0.03927343
#
# Stress axis : x y z
#
# Youngs Moduli (GPa) = 117.66871 40.10833 51.77558
#
# Poissons Ratio (x) = 0.05492 0.26799
# Poissons Ratio (y) = 0.16112 0.00987
# Poissons Ratio (z) = 0.60904 0.00765
#
# Static dielectric constant tensor:
#      x y z
#    x 1.791280 0.000000 -0.004670 
#    y 0.000000 1.787310 0.000000 
#    z -0.004670 0.000000 1.824200 
# 
# From -- ./inp_files/58131.got.cif
#   From: 2010.05.17/outbox.cif.g08.bks.cpg/sg10_30_cif.got.tgz:58131.got - 2010.06.03 11:33:40.
