data_PCOD9147541
_publ_section_title
;
Structure prediction by ZEFSAII (Michael W. Deem and Ramdas Pophale) SiO2 
 PCOD9147541
Probable space group: P 2/M
;
_chemical_formula_sum "Si O2"
_cell_formula_units_Z 22
_cell_length_a 7.286326
_cell_length_b 11.991672
_cell_length_c 11.323269
_cell_angle_alpha 90.000000
_cell_angle_beta 106.886833
_cell_angle_gamma 90.000000
_cell_volume 946.711836
_symmetry_space_group_name_H-M "P 2/M"
_symmetry_group_IT_number 10
_symmetry_cell_setting 'monoclinic'
loop_
_space_group_symop_operation_xyz
x,y,z
-x,y,-z
-x,-y,-z
x,-y,z
loop_
_atom_site_type_symbol
_atom_site_label
_atom_site_fract_x
_atom_site_fract_y
_atom_site_fract_z
Si Si1 0.216767 0.620495 0.702850
Si Si2 0.148532 0.116450 0.919410
Si Si3 0.284611 0.650921 0.974726
Si Si4 0.195058 0.126898 0.322184
Si Si5 0.000000 0.794688 0.500000
Si Si6 0.323428 0.627448 0.246241
O O1 0.163096 0.500000 0.643718
O O2 0.171650 0.618884 0.834918
O O3 0.446406 0.632729 0.731711
O O4 0.109805 0.715385 0.612332
O O5 0.286623 0.217218 0.962900
O O6 0.010730 0.124138 0.781459
O O7 0.253338 0.000000 0.937644
O O8 0.000000 0.119163 0.000000
O O9 0.500000 0.609380 0.000000
O O10 0.224909 0.626096 0.097416
O O11 0.153065 0.135969 0.453281
O O12 0.277803 0.250808 0.298430
O O13 0.279739 0.000000 0.311884
O O14 0.287528 0.500000 0.291627
#
# Coordination Sequence:
#
# PCOD9147541 Si02
#       6
#     4   4   4   4   2   4
#     4  10  22  40  62  92 129 165 203 252 307 364
#     4  10  19  35  58  87 123 160 199 252 312 368
#     4  10  19  36  61  93 126 157 197 249 309 368
#     4  11  24  43  64  89 125 165 209 258 309 365
#     4  12  24  42  64  88 117 164 219 258 301 362
#     4  10  22  41  66  95 127 161 201 253 313 371
#
# _framework density 23.238329
#
# number of rings (size 3 to 8) (size 9 to 14) (size 15 to 20)
#    0.000    1.636    3.636    1.091    0.000    4.727 
#    0.000    8.182    0.000    0.000    0.000    0.000 
#    0.000    0.000    0.000    0.000    0.000    0.000 
#
# Total GULP energy -122521.256258 kJ/mol
# GULP energy per Si atom -5569.148012 kJ/mol
# Density = 2.318544 g / cm^3
# Si number density = 23.238329 Si / 1000 Ang^3
#
#
#
# Elastic Constant Matrix: (Units=GPa)
#
#
# Indices 1 2 3 4 5 6 
#
# 1 55.2799 44.3614 14.6975 0.0000 -7.5954 0.0000
# 2 44.3614 243.1072 20.0083 0.0000 -10.3840 0.0000
# 3 14.6975 20.0083 83.6505 0.0000 -10.4456 0.0000
# 4 0.0000 0.0000 0.0000 -11.5084 0.0000 4.9808
# 5 -7.5954 -10.3840 -10.4456 0.0000 28.3587 0.0000
# 6 0.0000 0.0000 0.0000 4.9808 0.0000 14.6010
#
#
#
# Elastic Compliance Matrix: (Units=1/GPa)
#
#
# Indices 1 2 3 4 5 6 
#
# 1 0.022236 -0.003690 -0.002567 0.000000 0.003659 0.000000
# 2 -0.003690 0.004849 -0.000433 0.000000 0.000628 0.000000
# 3 -0.002567 -0.000433 0.013002 0.000000 0.003943 0.000000
# 4 0.000000 0.000000 0.000000 -0.075715 0.000000 0.025828
# 5 0.003659 0.000628 0.003943 0.000000 0.037925 0.000000
# 6 0.000000 0.000000 0.000000 0.025828 0.000000 0.059678
#
#
# Mechanical properties :
#
#
# Convention : Reuss Voigt Hill
#
# Bulk Modulus (GPa) = 37.44506 60.01912 48.73209
# Shear Modulus (GPa) = 59.34142 26.48827 42.91485
#
# Velocity S-wave (km/s) = 5.05880 3.37983 4.30202
# Velocity P-wave (km/s) = 7.09016 6.41208 6.75963
#
# Compressibility (1/GPa) = 0.02670579
#
# Stress axis : x y z
#
# Youngs Moduli (GPa) = 44.97156 206.21896 76.91395
#
# Poissons Ratio (x) = 0.76095 0.19747
# Poissons Ratio (y) = 0.16595 0.03332
# Poissons Ratio (z) = 0.11546 0.08932
#
# Static dielectric constant tensor:
#      x y z
#    x 1.870620 0.000000 -0.056970 
#    y 0.000000 1.996640 0.000000 
#    z -0.056970 0.000000 1.937320 
# 
# From -- ./inp_files/42080.got.cif
#   From: 2010.05.17/outbox.cif.g08.bks.cpg/sg10_22_cif.got.tgz:42080.got - 2010.06.03 11:33:40.
