data_PCOD9147472
_publ_section_title
;
Structure prediction by ZEFSAII (Michael W. Deem and Ramdas Pophale) SiO2 
 PCOD9147472
Probable space group: P 2/M
;
_chemical_formula_sum "Si O2"
_cell_formula_units_Z 28
_cell_length_a 9.692867
_cell_length_b 7.622090
_cell_length_c 28.332373
_cell_angle_alpha 90.000000
_cell_angle_beta 142.690457
_cell_angle_gamma 90.000000
_cell_volume 1268.727999
_symmetry_space_group_name_H-M "P 2/M"
_symmetry_group_IT_number 10
_symmetry_cell_setting 'monoclinic'
loop_
_space_group_symop_operation_xyz
x,y,z
-x,y,-z
-x,-y,-z
x,-y,z
loop_
_atom_site_type_symbol
_atom_site_label
_atom_site_fract_x
_atom_site_fract_y
_atom_site_fract_z
Si Si1 0.261722 0.713739 0.069600
Si Si2 0.549394 0.714269 0.237646
Si Si3 0.171863 0.288479 0.206437
Si Si4 0.284825 0.714560 0.971132
Si Si5 0.073993 0.712384 0.376163
Si Si6 0.667628 0.799629 0.650311
Si Si7 0.168334 0.299233 0.506051
O O1 0.266191 0.500000 0.073007
O O2 0.409700 0.773646 0.153725
O O3 0.335735 0.769778 0.038162
O O4 0.000000 0.767080 0.000000
O O5 0.551491 0.500000 0.238871
O O6 0.404670 0.770507 0.243982
O O7 0.810202 0.768663 0.304376
O O8 0.168791 0.500000 0.203814
O O9 0.171380 0.237572 0.261075
O O10 0.953823 0.227451 0.116753
O O11 0.274330 0.500000 0.968608
O O12 0.500000 0.769969 0.000000
O O13 0.085380 0.500000 0.377936
O O14 0.210318 0.768074 0.366577
O O15 0.166122 0.775164 0.452145
O O16 0.431255 0.697119 0.592559
O O17 0.597114 0.000000 0.633053
O O18 0.084300 0.500000 0.477341
O O19 0.000000 0.220333 0.500000
#
# Coordination Sequence:
#
# PCOD9147472 Si02
#       7
#     4   4   4   4   4   4   4
#     4   9  14  24  42  74 116 146 173 224 287 338
#     4   9  17  30  53  84 115 145 183 233 288 340
#     4  10  19  35  57  83 115 150 192 239 287 338
#     4   9  17  26  44  80 117 146 180 230 290 344
#     4  10  21  37  60  88 114 146 185 231 284 335
#     4  12  26  40  56  82 118 156 193 230 276 332
#     4  10  21  41  68  94 117 142 181 229 281 340
#
# _framework density 22.069348000000002
#
# number of rings (size 3 to 8) (size 9 to 14) (size 15 to 20)
#    0.000    2.143    1.429    2.571    2.000    4.857 
#    0.000    2.143    0.000    0.429    0.000    1.000 
#    0.000    0.000    0.000    0.000    0.000    0.000 
#
# Total GULP energy -156324.474987 kJ/mol
# GULP energy per Si atom -5583.016964 kJ/mol
# Density = 2.201912 g / cm^3
# Si number density = 22.069348 Si / 1000 Ang^3
#
#
#
# Elastic Constant Matrix: (Units=GPa)
#
#
# Indices 1 2 3 4 5 6 
#
# 1 145.3333 4.5925 20.5604 0.0000 -16.5468 0.0000
# 2 4.5925 48.4160 -1.2916 0.0000 -1.5031 0.0000
# 3 20.5604 -1.2916 82.1550 0.0000 -16.1186 0.0000
# 4 0.0000 0.0000 0.0000 -20.6677 0.0000 -16.6091
# 5 -16.5468 -1.5031 -16.1186 0.0000 42.5046 0.0000
# 6 0.0000 0.0000 0.0000 -16.6091 0.0000 144.3179
#
#
#
# Elastic Compliance Matrix: (Units=1/GPa)
#
#
# Indices 1 2 3 4 5 6 
#
# 1 0.007363 -0.000664 -0.001399 0.000000 0.002312 0.000000
# 2 -0.000664 0.020756 0.000633 0.000000 0.000716 0.000000
# 3 -0.001399 0.000633 0.013429 0.000000 0.004570 0.000000
# 4 0.000000 0.000000 0.000000 -0.044289 0.000000 -0.005097
# 5 0.002312 0.000716 0.004570 0.000000 0.026185 0.000000
# 6 0.000000 0.000000 0.000000 -0.005097 0.000000 0.006343
#
#
# Mechanical properties :
#
#
# Convention : Reuss Voigt Hill
#
# Bulk Modulus (GPa) = 25.84834 35.95851 30.90342
# Shear Modulus (GPa) = 109.78280 50.03383 79.90832
#
# Velocity S-wave (km/s) = 7.06063 4.76659 6.02382
# Velocity P-wave (km/s) = 8.84351 6.82808 7.90033
#
# Compressibility (1/GPa) = 0.03868721
#
# Stress axis : x y z
#
# Youngs Moduli (GPa) = 135.81510 48.17785 74.46599
#
# Poissons Ratio (x) = 0.03199 0.10421
# Poissons Ratio (y) = 0.09018 -0.04713
# Poissons Ratio (z) = 0.19007 -0.03049
#
# Static dielectric constant tensor:
#      x y z
#    x 1.464770 0.000000 0.118730 
#    y 0.000000 1.835880 0.000000 
#    z 0.118730 0.000000 1.724750 
# 
# From -- ./inp_files/92055.got.cif
#   From: 2010.05.17/outbox.cif.g08.bks.cpg/sg10_47_cif.got.tgz:92055.got - 2010.06.03 11:33:40.
