data_PCOD9147916
_publ_section_title
;
Structure prediction by ZEFSAII (Michael W. Deem and Ramdas Pophale) SiO2 
 PCOD9147916
Probable space group: P 2/M
;
_chemical_formula_sum "Si O2"
_cell_formula_units_Z 32
_cell_length_a 20.700053
_cell_length_b 13.967611
_cell_length_c 14.184374
_cell_angle_alpha 90.000000
_cell_angle_beta 22.422350
_cell_angle_gamma 90.000000
_cell_volume 1564.298914
_symmetry_space_group_name_H-M "P 2/M"
_symmetry_group_IT_number 10
_symmetry_cell_setting 'monoclinic'
loop_
_space_group_symop_operation_xyz
x,y,z
-x,y,-z
-x,-y,-z
x,-y,z
loop_
_atom_site_type_symbol
_atom_site_label
_atom_site_fract_x
_atom_site_fract_y
_atom_site_fract_z
Si Si1 0.153059 0.793938 0.732011
Si Si2 0.353266 0.278975 0.142770
Si Si3 0.677258 0.711302 0.025925
Si Si4 0.599135 0.291148 0.460291
Si Si5 0.992664 0.609109 0.369110
Si Si6 0.898818 0.890680 0.733979
Si Si7 0.948267 0.389457 0.934007
Si Si8 0.788290 0.109706 0.548266
O O1 0.309721 0.784251 0.592548
O O2 0.194053 0.849269 0.580852
O O3 0.000000 0.838052 0.000000
O O4 0.079669 0.688364 0.799917
O O5 0.324774 0.179106 0.235143
O O6 0.172591 0.328800 0.391669
O O7 0.500000 0.333875 0.000000
O O8 0.404646 0.273620 0.965202
O O9 0.547737 0.667005 0.275004
O O10 0.844446 0.646593 0.795434
O O11 0.751586 0.815354 0.952939
O O12 0.500000 0.257683 0.500000
O O13 0.756317 0.359094 0.219877
O O14 0.957272 0.500000 0.439797
O O15 0.036404 0.617701 0.199327
O O16 0.000000 0.864826 0.500000
O O17 0.030581 0.887876 0.642342
O O18 0.839414 0.000000 0.801182
O O19 0.982703 0.500000 0.914030
O O20 0.729622 0.000000 0.626512
#
# Coordination Sequence:
#
# PCOD9147916 Si02
#       8
#     4   4   4   4   4   4   4   4
#     4  10  22  41  66  93 130 175 218 262 329 388
#     4  12  25  41  66  96 131 170 214 268 329 390
#     4  12  22  40  66  93 133 172 215 268 325 392
#     4  11  24  40  63  95 130 172 217 272 324 376
#     4  11  23  42  67  93 128 176 220 264 325 392
#     4  10  19  36  66  98 125 165 218 266 319 386
#     4  10  21  42  70  96 130 175 225 270 319 386
#     4  11  22  41  67  98 130 165 216 271 325 390
#
# _framework density 20.456448000000002
#
# number of rings (size 3 to 8) (size 9 to 14) (size 15 to 20)
#    0.000    1.125    5.000    1.125    1.750    4.750 
#    0.000    1.875    0.000    1.500    0.000    0.000 
#    0.000    0.000    0.000    0.000    0.000    0.000 
#
# Total GULP energy -178684.118491 kJ/mol
# GULP energy per Si atom -5583.878703 kJ/mol
# Density = 2.040989 g / cm^3
# Si number density = 20.456448 Si / 1000 Ang^3
#
#
#
# Elastic Constant Matrix: (Units=GPa)
#
#
# Indices 1 2 3 4 5 6 
#
# 1 157.6984 30.1636 33.9531 0.0000 5.8795 0.0000
# 2 30.1636 88.9868 20.6337 0.0000 6.2327 0.0000
# 3 33.9531 20.6337 79.6845 0.0000 -1.7260 0.0000
# 4 0.0000 0.0000 0.0000 -0.7037 0.0000 5.9067
# 5 5.8795 6.2327 -1.7260 0.0000 37.2998 0.0000
# 6 0.0000 0.0000 0.0000 5.9067 0.0000 6.8456
#
#
#
# Elastic Compliance Matrix: (Units=1/GPa)
#
#
# Indices 1 2 3 4 5 6 
#
# 1 0.007293 -0.001786 -0.002666 0.000000 -0.000975 0.000000
# 2 -0.001786 0.012566 -0.002535 0.000000 -0.001936 0.000000
# 3 -0.002666 -0.002535 0.014375 0.000000 0.001509 0.000000
# 4 0.000000 0.000000 0.000000 -0.172404 0.000000 0.148760
# 5 -0.000975 -0.001936 0.001509 0.000000 0.027357 0.000000
# 6 0.000000 0.000000 0.000000 0.148760 0.000000 0.017721
#
#
# Mechanical properties :
#
#
# Convention : Reuss Voigt Hill
#
# Bulk Modulus (GPa) = 49.35784 55.09673 52.22729
# Shear Modulus (GPa) = -69.09443 24.79629 -22.14907
#
# Velocity S-wave (km/s) = -5.81805 3.48537 -3.29408
# Velocity P-wave (km/s) = 4.57737 6.57185 3.33444
#
# Compressibility (1/GPa) = 0.02026020
#
# Stress axis : x y z
#
# Youngs Moduli (GPa) = 137.11460 79.57811 69.56668
#
# Poissons Ratio (x) = 0.14210 0.18549
# Poissons Ratio (y) = 0.24484 0.17635
# Poissons Ratio (z) = 0.36559 0.20173
#
# Static dielectric constant tensor:
#      x y z
#    x 1.760030 0.000000 -0.001660 
#    y 0.000000 1.714810 0.000000 
#    z -0.001660 0.000000 1.745470 
# 
# From -- ./inp_files/70742.got.cif
#   From: 2010.05.17/outbox.cif.g08.bks.cpg/sg10_36_cif.got.tgz:70742.got - 2010.06.03 11:33:40.
