data_PCOD9147951
_publ_section_title
;
Structure prediction by ZEFSAII (Michael W. Deem and Ramdas Pophale) SiO2 
 PCOD9147951
Probable space group: P 2/M
;
_chemical_formula_sum "Si O2"
_cell_formula_units_Z 24
_cell_length_a 17.301425
_cell_length_b 7.652195
_cell_length_c 24.911575
_cell_angle_alpha 90.000000
_cell_angle_beta 160.345750
_cell_angle_gamma 90.000000
_cell_volume 1109.307621
_symmetry_space_group_name_H-M "P 2/M"
_symmetry_group_IT_number 10
_symmetry_cell_setting 'monoclinic'
loop_
_space_group_symop_operation_xyz
x,y,z
-x,y,-z
-x,-y,-z
x,-y,z
loop_
_atom_site_type_symbol
_atom_site_label
_atom_site_fract_x
_atom_site_fract_y
_atom_site_fract_z
Si Si1 0.562324 0.786410 0.267176
Si Si2 0.262391 0.199503 0.324861
Si Si3 0.939391 0.785749 0.020504
Si Si4 0.976415 0.788585 0.614653
Si Si5 0.046681 0.299866 0.781945
Si Si6 0.433278 0.211244 0.853476
O O1 0.314162 0.731034 0.126777
O O2 0.767901 0.729060 0.440443
O O3 0.591620 0.730629 0.224624
O O4 0.565296 0.000000 0.268852
O O5 0.500000 0.282653 0.500000
O O6 0.086001 0.194776 0.259062
O O7 0.320524 0.000000 0.346551
O O8 0.128235 0.277454 0.186640
O O9 0.938714 0.000000 0.021629
O O10 0.000000 0.732763 0.000000
O O11 0.956016 0.735855 0.663064
O O12 0.219500 0.727329 0.749270
O O13 0.977535 0.000000 0.614027
O O14 0.007022 0.500000 0.770016
O O15 0.318500 0.263408 0.961967
O O16 0.427580 0.000000 0.849736
#
# Coordination Sequence:
#
# PCOD9147951 Si02
#       6
#     4   4   4   4   4   4
#     4   9  17  32  57  87 118 144 182 242 299 345
#     4  10  21  38  63  89 113 145 190 239 287 339
#     4   9  17  30  54  89 117 137 172 232 294 343
#     4  10  21  35  59  89 115 149 195 244 291 340
#     4  12  25  39  56  81 120 161 195 232 284 344
#     4  10  19  37  61  86 114 148 195 246 292 339
#
# _framework density 21.635117000000001
#
# number of rings (size 3 to 8) (size 9 to 14) (size 15 to 20)
#    0.000    2.000    1.667    2.500    2.333    5.000 
#    0.000    0.833    0.000    2.500    0.000    0.000 
#    0.000    0.000    0.000    0.000    0.000    0.000 
#
# Total GULP energy -134144.089024 kJ/mol
# GULP energy per Si atom -5589.337043 kJ/mol
# Density = 2.158587 g / cm^3
# Si number density = 21.635117 Si / 1000 Ang^3
#
#
#
# Elastic Constant Matrix: (Units=GPa)
#
#
# Indices 1 2 3 4 5 6 
#
# 1 98.8013 -2.3198 26.4740 0.0000 -15.4213 0.0000
# 2 -2.3198 49.2376 5.1613 0.0000 -1.2236 0.0000
# 3 26.4740 5.1613 131.7075 0.0000 -6.7545 0.0000
# 4 0.0000 0.0000 0.0000 641.2720 0.0000 306.7709
# 5 -15.4213 -1.2236 -6.7545 0.0000 38.1147 0.0000
# 6 0.0000 0.0000 0.0000 306.7709 0.0000 95.3151
#
#
#
# Elastic Compliance Matrix: (Units=1/GPa)
#
#
# Indices 1 2 3 4 5 6 
#
# 1 0.011369 0.000862 -0.002101 0.000000 0.004255 0.000000
# 2 0.000862 0.020469 -0.000932 0.000000 0.000840 0.000000
# 3 -0.002101 -0.000932 0.008080 0.000000 0.000552 0.000000
# 4 0.000000 0.000000 0.000000 -0.002890 0.000000 0.009300
# 5 0.004255 0.000840 0.000552 0.000000 0.028083 0.000000
# 6 0.000000 0.000000 0.000000 0.009300 0.000000 -0.019441
#
#
# Mechanical properties :
#
#
# Convention : Reuss Voigt Hill
#
# Bulk Modulus (GPa) = 28.11004 37.59749 32.85376
# Shear Modulus (GPa) = 80.81415 171.63575 126.22495
#
# Velocity S-wave (km/s) = 6.11836 8.91652 7.64652
# Velocity P-wave (km/s) = 7.93306 11.10952 9.65284
#
# Compressibility (1/GPa) = 0.03557448
#
# Stress axis : x y z
#
# Youngs Moduli (GPa) = 87.96156 48.85469 123.76736
#
# Poissons Ratio (x) = -0.04209 0.26000
# Poissons Ratio (y) = -0.07578 0.11538
# Poissons Ratio (z) = 0.18478 0.04554
#
# Static dielectric constant tensor:
#      x y z
#    x 1.732510 0.000000 0.002030 
#    y 0.000000 1.828010 0.000000 
#    z 0.002030 0.000000 1.759410 
# 
# From -- ./inp_files/68774.got.cif
#   From: 2010.05.17/outbox.cif.g08.bks.cpg/sg10_35_cif.got.tgz:68774.got - 2010.06.03 11:33:40.
