data_PCOD9147789
_publ_section_title
;
Structure prediction by ZEFSAII (Michael W. Deem and Ramdas Pophale) SiO2 
 PCOD9147789
Probable space group: P 2/M
;
_chemical_formula_sum "Si O2"
_cell_formula_units_Z 32
_cell_length_a 21.009712
_cell_length_b 9.091853
_cell_length_c 14.559734
_cell_angle_alpha 90.000000
_cell_angle_beta 136.926305
_cell_angle_gamma 90.000000
_cell_volume 1899.361048
_symmetry_space_group_name_H-M "P 2/M"
_symmetry_group_IT_number 10
_symmetry_cell_setting 'monoclinic'
loop_
_space_group_symop_operation_xyz
x,y,z
-x,y,-z
-x,-y,-z
x,-y,z
loop_
_atom_site_type_symbol
_atom_site_label
_atom_site_fract_x
_atom_site_fract_y
_atom_site_fract_z
Si Si1 0.487143 0.175771 0.094657
Si Si2 0.805755 0.823119 0.354970
Si Si3 0.668158 0.675599 0.356057
Si Si4 0.890992 0.676528 0.902491
Si Si5 0.724819 0.175301 0.074061
Si Si6 0.964901 0.171743 0.655640
Si Si7 0.144433 0.675283 0.924315
Si Si8 0.801147 0.172871 0.634919
O O1 0.564468 0.263953 0.232139
O O2 0.502164 0.000000 0.121737
O O3 0.500000 0.208161 0.000000
O O4 0.382011 0.210431 0.014161
O O5 0.729867 0.740331 0.337063
O O6 0.787226 0.789093 0.229629
O O7 0.907373 0.788178 0.503221
O O8 0.792136 0.000000 0.353424
O O9 0.671204 0.500000 0.359139
O O10 0.716897 0.740827 0.498122
O O11 0.879432 0.500000 0.880189
O O12 0.830810 0.759257 0.762879
O O13 0.865400 0.719113 0.979389
O O14 0.000000 0.709601 0.000000
O O15 0.765593 0.258271 0.030015
O O16 0.731042 0.000000 0.066354
O O17 0.889197 0.187290 0.657921
O O18 0.054249 0.265729 0.774837
O O19 0.991947 0.000000 0.677678
O O20 0.146019 0.500000 0.922283
O O21 0.779882 0.000000 0.619329
#
# Coordination Sequence:
#
# PCOD9147789 Si02
#       8
#     4   4   4   4   4   4   4   4
#     4  10  19  36  60  81 106 142 185 228 269 315
#     4   9  18  35  54  76 106 146 189 225 264 313
#     4  11  21  32  53  84 116 143 173 222 277 328
#     4  10  20  36  56  79 110 145 181 223 277 328
#     4  10  21  37  57  77 106 146 185 227 270 318
#     4   9  18  32  52  76 105 141 185 225 261 314
#     4  11  23  36  52  76 112 148 179 223 274 329
#     4  10  20  34  56  83 109 140 183 230 269 318
#
# _framework density 16.847771999999999
#
# number of rings (size 3 to 8) (size 9 to 14) (size 15 to 20)
#    0.000    2.000    2.500    2.625    0.000    5.000 
#    0.000    2.500    0.000    0.750    0.000    5.250 
#    0.000    0.000    0.000    0.000    0.000    0.000 
#
# Total GULP energy -178653.980376 kJ/mol
# GULP energy per Si atom -5582.936887 kJ/mol
# Density = 1.680943 g / cm^3
# Si number density = 16.847772 Si / 1000 Ang^3
#
#
#
# Elastic Constant Matrix: (Units=GPa)
#
#
# Indices 1 2 3 4 5 6 
#
# 1 103.1396 48.7600 56.6929 0.0000 -7.1113 0.0000
# 2 48.7600 54.8634 56.8251 0.0000 -2.9330 0.0000
# 3 56.6929 56.8251 109.3413 0.0000 -7.2823 0.0000
# 4 0.0000 0.0000 0.0000 -93.1744 0.0000 15.3651
# 5 -7.1113 -2.9330 -7.2823 0.0000 16.3046 0.0000
# 6 0.0000 0.0000 0.0000 15.3651 0.0000 23.2566
#
#
#
# Elastic Compliance Matrix: (Units=1/GPa)
#
#
# Indices 1 2 3 4 5 6 
#
# 1 0.017230 -0.013271 -0.001747 0.000000 0.004347 0.000000
# 2 -0.013271 0.049771 -0.019350 0.000000 -0.005477 0.000000
# 3 -0.001747 -0.019350 0.020433 0.000000 0.004883 0.000000
# 4 0.000000 0.000000 0.000000 -0.009678 0.000000 0.006394
# 5 0.004347 -0.005477 0.004883 0.000000 0.064424 0.000000
# 6 0.000000 0.000000 0.000000 0.006394 0.000000 0.038774
#
#
# Mechanical properties :
#
#
# Convention : Reuss Voigt Hill
#
# Bulk Modulus (GPa) = 53.48304 65.76669 59.62486
# Shear Modulus (GPa) = 19.53728 -3.71821 7.90953
#
# Velocity S-wave (km/s) = 3.40904 -1.48719 2.16908
# Velocity P-wave (km/s) = 6.87817 6.01428 6.46068
#
# Compressibility (1/GPa) = 0.01869752
#
# Stress axis : x y z
#
# Youngs Moduli (GPa) = 58.03982 20.09215 48.94090
#
# Poissons Ratio (x) = 0.26664 0.08549
# Poissons Ratio (y) = 0.77025 0.94700
# Poissons Ratio (z) = 0.10139 0.38878
#
# Static dielectric constant tensor:
#      x y z
#    x 1.561140 0.000000 -0.000840 
#    y 0.000000 1.558370 0.000000 
#    z -0.000840 0.000000 1.562380 
# 
# From -- ./inp_files/69962.got.cif
#   From: 2010.05.17/outbox.cif.g08.bks.cpg/sg10_35_cif.got.tgz:69962.got - 2010.06.03 11:33:40.
