data_PCOD9147371
_publ_section_title
;
Structure prediction by ZEFSAII (Michael W. Deem and Ramdas Pophale) SiO2 
 PCOD9147371
Probable space group: P 2/M
;
_chemical_formula_sum "Si O2"
_cell_formula_units_Z 24
_cell_length_a 13.175893
_cell_length_b 19.187651
_cell_length_c 15.412594
_cell_angle_alpha 90.000000
_cell_angle_beta 161.482293
_cell_angle_gamma 90.000000
_cell_volume 1237.527844
_symmetry_space_group_name_H-M "P 2/M"
_symmetry_group_IT_number 10
_symmetry_cell_setting 'monoclinic'
loop_
_space_group_symop_operation_xyz
x,y,z
-x,y,-z
-x,-y,-z
x,-y,z
loop_
_atom_site_type_symbol
_atom_site_label
_atom_site_fract_x
_atom_site_fract_y
_atom_site_fract_z
Si Si1 0.020625 0.774169 0.418302
Si Si2 0.120218 0.777471 0.190513
Si Si3 0.618917 0.579838 0.194927
Si Si4 0.871398 0.922955 0.055942
Si Si5 0.891181 0.924024 0.555018
Si Si6 0.685970 0.285697 0.978785
O O1 0.958847 0.856697 0.367697
O O2 0.000000 0.747299 0.500000
O O3 0.793821 0.741238 0.161671
O O4 0.391290 0.758007 0.699064
O O5 0.500000 0.779282 0.500000
O O6 0.989354 0.856229 0.099110
O O7 0.978793 0.729411 0.152347
O O8 0.000000 0.752316 0.000000
O O9 0.555979 0.500000 0.171441
O O10 0.000000 0.589745 0.500000
O O11 0.500000 0.588062 0.000000
O O12 0.442846 0.636283 0.111972
O O13 0.030126 0.918543 0.279357
O O14 0.947834 0.000000 0.080569
O O15 0.491068 0.920508 0.762371
O O16 0.003377 0.000000 0.614690
#
# Coordination Sequence:
#
# PCOD9147371 Si02
#       6
#     4   4   4   4   4   4
#     4  12  22  35  59  87 115 156 196 233 294 360
#     4  12  24  38  59  83 113 154 205 247 299 353
#     4  10  21  39  65  97 127 155 187 225 282 355
#     4  10  20  37  57  76 107 148 196 258 313 345
#     4  10  19  35  54  76 111 152 191 241 295 348
#     4  12  23  40  59  87 124 153 189 247 294 339
#
# _framework density 19.393501000000001
#
# number of rings (size 3 to 8) (size 9 to 14) (size 15 to 20)
#    0.000    1.000    3.333    5.000    0.000    1.000 
#    0.000    0.000    0.000    6.000    0.000    0.000 
#    0.000    0.000    0.000    0.000    0.000    0.000 
#
# Total GULP energy -134119.954964 kJ/mol
# GULP energy per Si atom -5588.331457 kJ/mol
# Density = 1.934936 g / cm^3
# Si number density = 19.393501 Si / 1000 Ang^3
#
#
#
# Elastic Constant Matrix: (Units=GPa)
#
#
# Indices 1 2 3 4 5 6 
#
# 1 89.5454 22.1796 36.1421 0.0000 -33.7462 0.0000
# 2 22.1796 174.8650 -17.5272 0.0000 32.1340 0.0000
# 3 36.1421 -17.5272 126.6395 0.0000 -67.3208 0.0000
# 4 0.0000 0.0000 0.0000 -605.4140 0.0000 -612.0559
# 5 -33.7462 32.1340 -67.3208 0.0000 73.6429 0.0000
# 6 0.0000 0.0000 0.0000 -612.0559 0.0000 -573.8813
#
#
#
# Elastic Compliance Matrix: (Units=1/GPa)
#
#
# Indices 1 2 3 4 5 6 
#
# 1 0.015265 -0.003457 -0.000612 0.000000 0.007944 0.000000
# 2 -0.003457 0.007085 -0.001008 0.000000 -0.005597 0.000000
# 3 -0.000612 -0.001008 0.015595 0.000000 0.014416 0.000000
# 4 0.000000 0.000000 0.000000 0.021117 0.000000 -0.022521
# 5 0.007944 -0.005597 0.014416 0.000000 0.032840 0.000000
# 6 0.000000 0.000000 0.000000 -0.022521 0.000000 0.022277
#
#
# Mechanical properties :
#
#
# Convention : Reuss Voigt Hill
#
# Bulk Modulus (GPa) = 35.98543 52.51544 44.25043
# Shear Modulus (GPa) = 37.42633 -197.78012 -80.17689
#
# Velocity S-wave (km/s) = 4.39776 -10.10960 -6.43676
# Velocity P-wave (km/s) = 6.66204 10.44674 5.68998
#
# Compressibility (1/GPa) = 0.02778902
#
# Stress axis : x y z
#
# Youngs Moduli (GPa) = 65.51072 141.14777 64.12433
#
# Poissons Ratio (x) = 0.48799 0.03924
# Poissons Ratio (y) = 0.22649 0.06466
# Poissons Ratio (z) = 0.04009 0.14233
#
# Static dielectric constant tensor:
#      x y z
#    x 1.668910 0.000000 0.011930 
#    y 0.000000 1.704230 0.000000 
#    z 0.011930 0.000000 1.684690 
# 
# From -- ./inp_files/65488.got.cif
#   From: 2010.05.17/outbox.cif.g08.bks.cpg/sg10_33_cif.got.tgz:65488.got - 2010.06.03 11:33:40.
