data_PCOD9147745
_publ_section_title
;
Structure prediction by ZEFSAII (Michael W. Deem and Ramdas Pophale) SiO2 
 PCOD9147745
Probable space group: P 2/M
;
_chemical_formula_sum "Si O2"
_cell_formula_units_Z 32
_cell_length_a 20.731210
_cell_length_b 8.510798
_cell_length_c 25.751549
_cell_angle_alpha 90.000000
_cell_angle_beta 23.255219
_cell_angle_gamma 90.000000
_cell_volume 1793.931007
_symmetry_space_group_name_H-M "P 2/M"
_symmetry_group_IT_number 10
_symmetry_cell_setting 'monoclinic'
loop_
_space_group_symop_operation_xyz
x,y,z
-x,y,-z
-x,-y,-z
x,-y,z
loop_
_atom_site_type_symbol
_atom_site_label
_atom_site_fract_x
_atom_site_fract_y
_atom_site_fract_z
Si Si1 0.455422 0.689625 0.116259
Si Si2 0.746955 0.812071 0.181028
Si Si3 0.030654 0.686324 0.897014
Si Si4 0.759205 0.690948 0.818652
Si Si5 0.941586 0.811172 0.853583
Si Si6 0.436305 0.810885 0.856417
Si Si7 0.926070 0.311383 0.353574
Si Si8 0.570195 0.809898 0.645649
O O1 0.453873 0.500000 0.119879
O O2 0.306825 0.741421 0.188842
O O3 0.462388 0.755386 0.168744
O O4 0.621424 0.736601 0.962850
O O5 0.568814 0.763016 0.292984
O O6 0.811999 0.733569 0.185415
O O7 0.750634 0.000000 0.184439
O O8 0.877424 0.766497 0.039860
O O9 0.008850 0.500000 0.914823
O O10 0.032908 0.746463 0.836709
O O11 0.759273 0.500000 0.817827
O O12 0.935785 0.743515 0.707391
O O13 0.019553 0.750766 0.742828
O O14 0.944686 0.000000 0.852182
O O15 0.751892 0.758017 0.997865
O O16 0.510438 0.756886 0.746873
O O17 0.433944 0.000000 0.857363
O O18 0.928505 0.500000 0.350771
O O19 0.747334 0.253389 0.500797
O O20 0.574781 0.000000 0.642552
#
# Coordination Sequence:
#
# PCOD9147745 Si02
#       8
#     4   4   4   4   4   4   4   4
#     4   9  16  31  55  80 108 142 181 228 278 326
#     4  10  19  36  58  80 112 152 188 223 275 336
#     4  11  21  33  55  88 117 140 181 237 280 320
#     4   8  16  31  52  79 111 144 178 222 278 335
#     4  11  21  37  58  82 112 149 186 227 277 333
#     4  10  20  35  55  82 111 141 187 234 270 320
#     4  11  22  37  57  84 113 145 185 232 281 331
#     4  10  22  40  57  78 112 153 188 222 272 337
#
# _framework density 17.837921000000001
#
# number of rings (size 3 to 8) (size 9 to 14) (size 15 to 20)
#    0.000    2.000    2.500    3.750    0.000    2.000 
#    0.000    3.750    0.000    7.500    0.000    0.000 
#    0.000    0.000    0.000    0.000    0.000    0.000 
#
# Total GULP energy -178602.542395 kJ/mol
# GULP energy per Si atom -5581.329450 kJ/mol
# Density = 1.779732 g / cm^3
# Si number density = 17.837921 Si / 1000 Ang^3
#
#
#
# Elastic Constant Matrix: (Units=GPa)
#
#
# Indices 1 2 3 4 5 6 
#
# 1 152.9071 10.9730 77.9512 0.0000 -16.1723 0.0000
# 2 10.9730 14.2749 14.5806 0.0000 -1.8018 0.0000
# 3 77.9512 14.5806 118.9168 0.0000 -11.5247 0.0000
# 4 0.0000 0.0000 0.0000 22.5174 0.0000 -0.0430
# 5 -16.1723 -1.8018 -11.5247 0.0000 28.5221 0.0000
# 6 0.0000 0.0000 0.0000 -0.0430 0.0000 31.1713
#
#
#
# Elastic Compliance Matrix: (Units=1/GPa)
#
#
# Indices 1 2 3 4 5 6 
#
# 1 0.010105 -0.001047 -0.006189 0.000000 0.003163 0.000000
# 2 -0.001047 0.080226 -0.009072 0.000000 0.000809 0.000000
# 3 -0.006189 -0.009072 0.013720 0.000000 0.001462 0.000000
# 4 0.000000 0.000000 0.000000 0.044410 0.000000 0.000061
# 5 0.003163 0.000809 0.001462 0.000000 0.037495 0.000000
# 6 0.000000 0.000000 0.000000 0.000061 0.000000 0.032081
#
#
# Mechanical properties :
#
#
# Convention : Reuss Voigt Hill
#
# Bulk Modulus (GPa) = 13.99870 54.78982 34.39426
# Shear Modulus (GPa) = 18.21733 28.61511 23.41622
#
# Velocity S-wave (km/s) = 3.19920 4.00956 3.62708
# Velocity P-wave (km/s) = 4.63802 7.22616 6.07160
#
# Compressibility (1/GPa) = 0.07143521
#
# Stress axis : x y z
#
# Youngs Moduli (GPa) = 98.96545 12.46481 72.88609
#
# Poissons Ratio (x) = 0.01305 0.45108
# Poissons Ratio (y) = 0.10359 0.66123
# Poissons Ratio (z) = 0.61248 0.11308
#
# Static dielectric constant tensor:
#      x y z
#    x 1.615150 0.000000 -0.021600 
#    y 0.000000 1.607570 0.000000 
#    z -0.021600 0.000000 1.584960 
# 
# From -- ./inp_files/93573.got.cif
#   From: 2010.05.17/outbox.cif.g08.bks.cpg/sg10_47_cif.got.tgz:93573.got - 2010.06.03 11:33:40.
