data_PCOD9147629
_publ_section_title
;
Structure prediction by ZEFSAII (Michael W. Deem and Ramdas Pophale) SiO2 
 PCOD9147629
Probable space group: P 2/M
;
_chemical_formula_sum "Si O2"
_cell_formula_units_Z 32
_cell_length_a 9.247999
_cell_length_b 14.328497
_cell_length_c 26.299916
_cell_angle_alpha 90.000000
_cell_angle_beta 28.965793
_cell_angle_gamma 90.000000
_cell_volume 1687.741426
_symmetry_space_group_name_H-M "P 2/M"
_symmetry_group_IT_number 10
_symmetry_cell_setting 'monoclinic'
loop_
_space_group_symop_operation_xyz
x,y,z
-x,y,-z
-x,-y,-z
x,-y,z
loop_
_atom_site_type_symbol
_atom_site_label
_atom_site_fract_x
_atom_site_fract_y
_atom_site_fract_z
Si Si1 0.212138 0.696489 0.783458
Si Si2 0.850801 0.281727 0.395727
Si Si3 0.243069 0.898348 0.804759
Si Si4 0.728279 0.104169 0.742547
Si Si5 0.923485 0.609833 0.770693
Si Si6 0.611118 0.309457 0.019128
Si Si7 0.862829 0.610755 0.598554
Si Si8 0.406095 0.102708 0.948741
O O1 0.237475 0.808554 0.770791
O O2 0.524983 0.649795 0.701141
O O3 0.085361 0.654897 0.770064
O O4 0.966746 0.683956 0.904257
O O5 0.500000 0.264268 0.500000
O O6 0.034645 0.186462 0.331227
O O7 0.939620 0.349827 0.322463
O O8 0.949575 0.331276 0.417773
O O9 0.524160 0.889280 0.755398
O O10 0.250396 0.000000 0.776760
O O11 0.947209 0.898232 0.931289
O O12 0.509428 0.110876 0.858758
O O13 0.862806 0.000000 0.702961
O O14 0.958420 0.500000 0.762868
O O15 0.573015 0.637978 0.881345
O O16 0.501952 0.201170 0.054874
O O17 0.500000 0.350938 0.000000
O O18 0.865017 0.500000 0.609792
O O19 0.000000 0.622527 0.500000
O O20 0.519443 0.000000 0.932171
#
# Coordination Sequence:
#
# PCOD9147629 Si02
#       8
#     4   4   4   4   4   4   4   4
#     4  10  20  37  62  90 120 160 200 245 291 354
#     4  12  25  42  63  88 118 156 198 254 307 358
#     4   9  17  32  58  91 123 155 194 242 292 352
#     4  10  19  35  60  87 121 157 193 238 297 360
#     4  11  23  40  60  86 123 162 201 244 302 358
#     4   9  19  33  54  86 123 161 198 235 294 357
#     4  11  24  43  66  90 113 149 206 260 302 348
#     4   9  16  29  53  86 120 156 195 236 290 352
#
# _framework density 18.960249999999998
#
# number of rings (size 3 to 8) (size 9 to 14) (size 15 to 20)
#    0.000    1.875    2.500    1.875    0.000    6.750 
#    0.000    3.125    0.000    4.500    0.000    0.000 
#    0.000    0.000    0.000    0.000    0.000    0.000 
#
# Total GULP energy -178436.033192 kJ/mol
# GULP energy per Si atom -5576.126037 kJ/mol
# Density = 1.891710 g / cm^3
# Si number density = 18.960250 Si / 1000 Ang^3
#
#
#
# Elastic Constant Matrix: (Units=GPa)
#
#
# Indices 1 2 3 4 5 6 
#
# 1 59.0608 50.1495 16.1232 0.0000 -1.4676 0.0000
# 2 50.1495 172.3196 51.6862 0.0000 3.5325 0.0000
# 3 16.1232 51.6862 53.5566 0.0000 -4.7486 0.0000
# 4 0.0000 0.0000 0.0000 17.5344 0.0000 3.7009
# 5 -1.4676 3.5325 -4.7486 0.0000 25.7906 0.0000
# 6 0.0000 0.0000 0.0000 3.7009 0.0000 26.7679
#
#
#
# Elastic Compliance Matrix: (Units=1/GPa)
#
#
# Indices 1 2 3 4 5 6 
#
# 1 0.022616 -0.006530 -0.000319 0.000000 0.002123 0.000000
# 2 -0.006530 0.010230 -0.008198 0.000000 -0.003282 0.000000
# 3 -0.000319 -0.008198 0.027221 0.000000 0.006117 0.000000
# 4 0.000000 0.000000 0.000000 0.058745 0.000000 -0.008122
# 5 0.002123 -0.003282 0.006117 0.000000 0.040470 0.000000
# 6 0.000000 0.000000 0.000000 -0.008122 0.000000 0.038481
#
#
# Mechanical properties :
#
#
# Convention : Reuss Voigt Hill
#
# Bulk Modulus (GPa) = 33.36105 57.87275 45.61690
# Shear Modulus (GPa) = 21.02190 25.15044 23.08617
#
# Velocity S-wave (km/s) = 3.33338 3.64604 3.49321
# Velocity P-wave (km/s) = 5.69637 6.95085 6.35464
#
# Compressibility (1/GPa) = 0.02997508
#
# Stress axis : x y z
#
# Youngs Moduli (GPa) = 44.21653 97.75550 36.73586
#
# Poissons Ratio (x) = 0.63832 0.01170
# Poissons Ratio (y) = 0.28873 0.30114
# Poissons Ratio (z) = 0.01409 0.80136
#
# Static dielectric constant tensor:
#      x y z
#    x 1.649930 0.000000 -0.009430 
#    y 0.000000 1.679650 0.000000 
#    z -0.009430 0.000000 1.662940 
# 
# From -- ./inp_files/88229.got.cif
#   From: 2010.05.17/outbox.cif.g08.bks.cpg/sg10_45_cif.got.tgz:88229.got - 2010.06.03 11:33:40.
