data_PCOD9147698
_publ_section_title
;
Structure prediction by ZEFSAII (Michael W. Deem and Ramdas Pophale) SiO2 
 PCOD9147698
Probable space group: P 2/M
;
_chemical_formula_sum "Si O2"
_cell_formula_units_Z 20
_cell_length_a 7.647774
_cell_length_b 23.990973
_cell_length_c 5.191233
_cell_angle_alpha 90.000000
_cell_angle_beta 64.814970
_cell_angle_gamma 90.000000
_cell_volume 861.930767
_symmetry_space_group_name_H-M "P 2/M"
_symmetry_group_IT_number 10
_symmetry_cell_setting 'monoclinic'
loop_
_space_group_symop_operation_xyz
x,y,z
-x,y,-z
-x,-y,-z
x,-y,z
loop_
_atom_site_type_symbol
_atom_site_label
_atom_site_fract_x
_atom_site_fract_y
_atom_site_fract_z
Si Si1 0.632628 0.437898 0.669071
Si Si2 0.287374 0.064404 0.255602
Si Si3 0.000000 0.852654 0.500000
Si Si4 0.500000 0.134490 0.500000
Si Si5 0.877555 0.665609 0.333861
Si Si6 0.213682 0.781180 0.739895
O O1 0.500000 0.440916 0.500000
O O2 0.718503 0.500000 0.657352
O O3 0.779194 0.388836 0.513469
O O4 0.500000 0.425154 0.000000
O O5 0.336862 0.091955 0.500030
O O6 0.118767 0.103350 0.248537
O O7 0.232869 0.000000 0.296524
O O8 0.500000 0.068841 0.000000
O O9 0.163880 0.811722 0.503812
O O10 0.618502 0.179761 0.250951
O O11 0.740304 0.716377 0.328879
O O12 0.000000 0.688592 0.500000
O O13 0.000000 0.651197 0.000000
O O14 0.000000 0.782559 0.000000
#
# Coordination Sequence:
#
# PCOD9147698 Si02
#       6
#     4   4   2   2   4   4
#     4  10  22  41  64  93 129 168 211 259 311 373
#     4  10  20  34  54  80 108 142 189 240 295 362
#     4  10  19  36  54  76 111 148 186 238 306 358
#     4  10  21  36  56  80 107 154 192 238 308 358
#     4  11  23  40  62  92 126 164 210 263 313 372
#     4  10  21  37  55  80 116 150 198 248 303 368
#
# _framework density 23.203720000000001
#
# number of rings (size 3 to 8) (size 9 to 14) (size 15 to 20)
#    0.000    1.800    1.000    3.000    1.400    0.800 
#    0.000    1.000    0.000    9.600    0.000    0.000 
#    0.000    0.000    0.000    0.000    0.000    0.000 
#
# Total GULP energy -111350.489881 kJ/mol
# GULP energy per Si atom -5567.524494 kJ/mol
# Density = 2.315091 g / cm^3
# Si number density = 23.203720 Si / 1000 Ang^3
#
#
#
# Elastic Constant Matrix: (Units=GPa)
#
#
# Indices 1 2 3 4 5 6 
#
# 1 58.8558 20.9332 16.1308 0.0000 -14.0511 0.0000
# 2 20.9332 191.7086 62.7531 0.0000 -34.0899 0.0000
# 3 16.1308 62.7531 125.8513 0.0000 -11.8694 0.0000
# 4 0.0000 0.0000 0.0000 26.4140 0.0000 -5.4649
# 5 -14.0511 -34.0899 -11.8694 0.0000 31.9183 0.0000
# 6 0.0000 0.0000 0.0000 -5.4649 0.0000 19.4654
#
#
#
# Elastic Compliance Matrix: (Units=1/GPa)
#
#
# Indices 1 2 3 4 5 6 
#
# 1 0.019351 -0.000205 -0.001653 0.000000 0.007685 0.000000
# 2 -0.000205 0.007429 -0.003045 0.000000 0.006712 0.000000
# 3 -0.001653 -0.003045 0.009639 0.000000 -0.000395 0.000000
# 4 0.000000 0.000000 0.000000 0.040193 0.000000 0.011284
# 5 0.007685 0.006712 -0.000395 0.000000 0.041734 0.000000
# 6 0.000000 0.000000 0.000000 0.011284 0.000000 0.054541
#
#
# Mechanical properties :
#
#
# Convention : Reuss Voigt Hill
#
# Bulk Modulus (GPa) = 37.57681 64.00554 50.79117
# Shear Modulus (GPa) = 26.10077 33.99946 30.05011
#
# Velocity S-wave (km/s) = 3.35752 3.83202 3.60259
# Velocity P-wave (km/s) = 5.59107 6.87192 6.26432
#
# Compressibility (1/GPa) = 0.02661216
#
# Stress axis : x y z
#
# Youngs Moduli (GPa) = 51.67568 134.61048 103.74776
#
# Poissons Ratio (x) = 0.02765 0.17151
# Poissons Ratio (y) = 0.01061 0.31590
# Poissons Ratio (z) = 0.08543 0.40988
#
# Static dielectric constant tensor:
#      x y z
#    x 2.038340 0.000000 0.008420 
#    y 0.000000 1.868420 0.000000 
#    z 0.008420 0.000000 1.959530 
# 
# From -- ./inp_files/5054.got.cif
#   From: 2010.05.17/outbox.cif.g08.bks.cpg/sg10_3_cif.got.tgz:5054.got - 2010.06.03 11:33:40.
