data_PCOD9147943
_publ_section_title
;
Structure prediction by ZEFSAII (Michael W. Deem and Ramdas Pophale) SiO2 
 PCOD9147943
Probable space group: P 2/M
;
_chemical_formula_sum "Si O2"
_cell_formula_units_Z 32
_cell_length_a 9.154303
_cell_length_b 15.810312
_cell_length_c 24.229227
_cell_angle_alpha 90.000000
_cell_angle_beta 150.184101
_cell_angle_gamma 90.000000
_cell_volume 1743.609696
_symmetry_space_group_name_H-M "P 2/M"
_symmetry_group_IT_number 10
_symmetry_cell_setting 'monoclinic'
loop_
_space_group_symop_operation_xyz
x,y,z
-x,y,-z
-x,-y,-z
x,-y,z
loop_
_atom_site_type_symbol
_atom_site_label
_atom_site_fract_x
_atom_site_fract_y
_atom_site_fract_z
Si Si1 0.842987 0.331576 0.108670
Si Si2 0.568020 0.404759 0.194717
Si Si3 0.825884 0.321218 0.596578
Si Si4 0.239142 0.753191 0.032051
Si Si5 0.590113 0.902701 0.093572
Si Si6 0.270101 0.254238 0.555746
Si Si7 0.437887 0.592331 0.282010
Si Si8 0.118751 0.201516 0.283377
O O1 0.095889 0.401302 0.187342
O O2 0.928793 0.271717 0.187714
O O3 0.500000 0.356819 0.000000
O O4 0.888576 0.276096 0.068461
O O5 0.498348 0.500000 0.151920
O O6 0.415233 0.328972 0.111633
O O7 0.467571 0.399102 0.225688
O O8 0.915064 0.386460 0.306407
O O9 0.500000 0.356974 0.500000
O O10 0.843397 0.290347 0.539589
O O11 0.855247 0.240501 0.646987
O O12 0.429603 0.835633 0.080540
O O13 0.000000 0.772496 0.000000
O O14 0.933707 0.883161 0.215478
O O15 0.517516 0.000000 0.081305
O O16 0.500000 0.885506 0.000000
O O17 0.390233 0.332992 0.631208
O O18 0.556987 0.198826 0.636332
O O19 0.000000 0.213706 0.500000
O O20 0.556142 0.500000 0.336198
#
# Coordination Sequence:
#
# PCOD9147943 Si02
#       8
#     4   4   4   4   4   4   4   4
#     4  11  19  36  57  79 111 160 195 235 297 350
#     4  11  22  35  54  84 120 161 203 241 291 346
#     4  10  20  36  57  81 110 154 201 249 291 335
#     4  12  22  37  60  86 124 157 193 244 289 344
#     4  11  22  40  68  95 119 151 188 231 298 366
#     4  10  20  34  58  84 109 154 201 244 298 336
#     4  10  22  35  51  82 117 155 207 251 294 346
#     4  10  19  37  60  83 117 147 194 235 290 354
#
# _framework density 18.352730000000001
#
# number of rings (size 3 to 8) (size 9 to 14) (size 15 to 20)
#    0.000    1.375    6.250    0.000    0.000    2.250 
#    0.000    8.750    0.000    4.125    0.000    0.000 
#    0.000    0.000    0.000    0.000    0.000    0.000 
#
# Total GULP energy -178552.868580 kJ/mol
# GULP energy per Si atom -5579.777143 kJ/mol
# Density = 1.831096 g / cm^3
# Si number density = 18.352730 Si / 1000 Ang^3
#
#
#
# Elastic Constant Matrix: (Units=GPa)
#
#
# Indices 1 2 3 4 5 6 
#
# 1 108.5737 37.6007 32.3623 0.0000 10.9206 0.0000
# 2 37.6007 95.7464 29.5122 0.0000 3.1087 0.0000
# 3 32.3623 29.5122 67.9550 0.0000 9.8819 0.0000
# 4 0.0000 0.0000 0.0000 13.0752 0.0000 -3.4955
# 5 10.9206 3.1087 9.8819 0.0000 35.6729 0.0000
# 6 0.0000 0.0000 0.0000 -3.4955 0.0000 12.8961
#
#
#
# Elastic Compliance Matrix: (Units=1/GPa)
#
#
# Indices 1 2 3 4 5 6 
#
# 1 0.011734 -0.003364 -0.003801 0.000000 -0.002246 0.000000
# 2 -0.003364 0.013029 -0.004211 0.000000 0.001061 0.000000
# 3 -0.003801 -0.004211 0.018893 0.000000 -0.003703 0.000000
# 4 0.000000 0.000000 0.000000 0.082455 0.000000 0.022349
# 5 -0.002246 0.001061 -0.003703 0.000000 0.029654 0.000000
# 6 0.000000 0.000000 0.000000 0.022349 0.000000 0.083600
#
#
# Mechanical properties :
#
#
# Convention : Reuss Voigt Hill
#
# Bulk Modulus (GPa) = 47.83417 52.35839 50.09628
# Shear Modulus (GPa) = 18.58164 23.84884 21.21524
#
# Velocity S-wave (km/s) = 3.18539 3.60873 3.40365
# Velocity P-wave (km/s) = 6.29677 6.77899 6.54233
#
# Compressibility (1/GPa) = 0.02090556
#
# Stress axis : x y z
#
# Youngs Moduli (GPa) = 85.22245 76.75421 52.93049
#
# Poissons Ratio (x) = 0.25818 0.20117
# Poissons Ratio (y) = 0.28666 0.22287
# Poissons Ratio (z) = 0.32390 0.32318
#
# Static dielectric constant tensor:
#      x y z
#    x 1.655280 0.000000 0.022080 
#    y 0.000000 1.607960 0.000000 
#    z 0.022080 0.000000 1.663000 
# 
# From -- ./inp_files/36472.got.cif
#   From: 2010.05.17/outbox.cif.g08.bks.cpg/sg10_19_cif.got.tgz:36472.got - 2010.06.03 11:33:40.
