data_PCOD9147992
_publ_section_title
;
Structure prediction by ZEFSAII (Michael W. Deem and Ramdas Pophale) SiO2 
 PCOD9147992
Probable space group: P 2/M
;
_chemical_formula_sum "Si O2"
_cell_formula_units_Z 28
_cell_length_a 32.129983
_cell_length_b 7.746821
_cell_length_c 10.333263
_cell_angle_alpha 90.000000
_cell_angle_beta 144.754661
_cell_angle_gamma 90.000000
_cell_volume 1484.248388
_symmetry_space_group_name_H-M "P 2/M"
_symmetry_group_IT_number 10
_symmetry_cell_setting 'monoclinic'
loop_
_space_group_symop_operation_xyz
x,y,z
-x,y,-z
-x,-y,-z
x,-y,z
loop_
_atom_site_type_symbol
_atom_site_label
_atom_site_fract_x
_atom_site_fract_y
_atom_site_fract_z
Si Si1 0.817200 0.702121 0.131807
Si Si2 0.933057 0.000000 0.733330
Si Si3 0.327065 0.202044 0.829395
Si Si4 0.932721 0.000000 0.425375
Si Si5 0.337612 0.708704 0.367829
Si Si6 0.822583 0.692260 0.450097
Si Si7 0.421587 0.201815 0.835498
Si Si8 0.582730 0.290702 0.690939
O O1 0.833781 0.500000 0.147528
O O2 0.799860 0.714372 0.241454
O O3 0.882806 0.831738 0.274712
O O4 0.745456 0.753157 0.871689
O O5 0.952871 0.000000 0.630028
O O6 0.882380 0.165384 0.629028
O O7 0.000000 0.000000 0.000000
O O8 0.249082 0.287068 0.647045
O O9 0.378677 0.276680 0.848782
O O10 0.314084 0.000000 0.769664
O O11 0.368925 0.220812 0.070433
O O12 0.000000 0.000000 0.500000
O O13 0.341192 0.500000 0.384686
O O14 0.370843 0.783439 0.582123
O O15 0.385430 0.763586 0.366221
O O16 0.852253 0.500000 0.539865
O O17 0.434253 0.000000 0.899901
O O18 0.500000 0.278161 0.000000
O O19 0.500000 0.238328 0.500000
O O20 0.586311 0.500000 0.705359
#
# Coordination Sequence:
#
# PCOD9147992 Si02
#       8
#     4   2   4   2   4   4   4   4
#     4   9  19  36  60  89 119 150 193 239 281 347
#     4  10  22  42  64  92 125 148 188 236 277 354
#     4  11  21  35  56  82 114 154 203 248 292 350
#     4  10  22  40  64  92 115 156 186 218 297 346
#     4  10  20  35  55  81 110 148 196 241 290 346
#     4  10  19  37  64  89 119 157 191 236 295 345
#     4  10  23  39  52  75 116 161 199 247 304 350
#     4  10  20  33  53  82 112 144 192 252 296 339
#
# _framework density 18.864767000000001
#
# number of rings (size 3 to 8) (size 9 to 14) (size 15 to 20)
#    0.000    2.000    2.143    1.286    1.000    2.857 
#    2.571    0.000    0.000    0.000    0.000    0.000 
#    0.000    0.000    0.000    0.000    0.000    0.000 
#
# Total GULP energy -156356.114883 kJ/mol
# GULP energy per Si atom -5584.146960 kJ/mol
# Density = 1.882183 g / cm^3
# Si number density = 18.864767 Si / 1000 Ang^3
#
#
#
# Elastic Constant Matrix: (Units=GPa)
#
#
# Indices 1 2 3 4 5 6 
#
# 1 104.2482 23.3070 4.0283 0.0000 24.4062 0.0000
# 2 23.3070 67.4605 21.9472 0.0000 18.5614 0.0000
# 3 4.0283 21.9472 66.3925 0.0000 19.9192 0.0000
# 4 0.0000 0.0000 0.0000 27.9954 0.0000 -0.1027
# 5 24.4062 18.5614 19.9192 0.0000 26.6204 0.0000
# 6 0.0000 0.0000 0.0000 -0.1027 0.0000 16.5312
#
#
#
# Elastic Compliance Matrix: (Units=1/GPa)
#
#
# Indices 1 2 3 4 5 6 
#
# 1 0.013059 -0.002088 0.003937 0.000000 -0.013463 0.000000
# 2 -0.002088 0.019111 -0.003568 0.000000 -0.008740 0.000000
# 3 0.003937 -0.003568 0.021069 0.000000 -0.016887 0.000000
# 4 0.000000 0.000000 0.000000 0.035721 0.000000 0.000222
# 5 -0.013463 -0.008740 -0.016887 0.000000 0.068639 0.000000
# 6 0.000000 0.000000 0.000000 0.000222 0.000000 0.060493
#
#
# Mechanical properties :
#
#
# Convention : Reuss Voigt Hill
#
# Bulk Modulus (GPa) = 20.08047 37.40734 28.74391
# Shear Modulus (GPa) = 20.99684 26.81730 23.90707
#
# Velocity S-wave (km/s) = 3.33981 3.77444 3.56376
# Velocity P-wave (km/s) = 5.05371 6.23438 5.67483
#
# Compressibility (1/GPa) = 0.04979964
#
# Stress axis : x y z
#
# Youngs Moduli (GPa) = 76.57480 52.32638 47.46284
#
# Poissons Ratio (x) = 0.10928 -0.18687
# Poissons Ratio (y) = 0.15993 0.16937
# Poissons Ratio (z) = -0.30149 0.18672
#
# Static dielectric constant tensor:
#      x y z
#    x 1.648810 0.000000 -0.005210 
#    y 0.000000 1.676450 0.000000 
#    z -0.005210 0.000000 1.594330 
# 
# From -- ./inp_files/37411.got.cif
#   From: 2010.05.17/outbox.cif.g08.bks.cpg/sg10_19_cif.got.tgz:37411.got - 2010.06.03 11:33:40.
