data_PCOD9147041
_publ_section_title
;
Structure prediction by ZEFSAII (Michael W. Deem and Ramdas Pophale) SiO2 
 PCOD9147041
Probable space group: P 2/M
;
_chemical_formula_sum "Si O2"
_cell_formula_units_Z 32
_cell_length_a 11.917541
_cell_length_b 15.845259
_cell_length_c 18.353262
_cell_angle_alpha 90.000000
_cell_angle_beta 151.023870
_cell_angle_gamma 90.000000
_cell_volume 1678.973808
_symmetry_space_group_name_H-M "P 2/M"
_symmetry_group_IT_number 10
_symmetry_cell_setting 'monoclinic'
loop_
_space_group_symop_operation_xyz
x,y,z
-x,y,-z
-x,-y,-z
x,-y,z
loop_
_atom_site_type_symbol
_atom_site_label
_atom_site_fract_x
_atom_site_fract_y
_atom_site_fract_z
Si Si1 0.863591 0.724770 0.743126
Si Si2 0.505081 0.275677 0.673194
Si Si3 0.381317 0.273533 0.096147
Si Si4 0.655222 0.404936 0.160705
Si Si5 0.187566 0.401703 0.414917
Si Si6 0.172756 0.091378 0.277251
Si Si7 0.463100 0.908464 0.641605
Si Si8 0.684336 0.909325 0.921684
O O1 0.701336 0.728529 0.722145
O O2 0.789146 0.651631 0.646134
O O3 0.839508 0.817588 0.691698
O O4 0.127947 0.710567 0.918185
O O5 0.618176 0.285064 0.816666
O O6 0.344827 0.354317 0.562976
O O7 0.363818 0.186234 0.591485
O O8 0.566877 0.334674 0.165695
O O9 0.432735 0.174163 0.112928
O O10 0.620910 0.500000 0.170735
O O11 0.921183 0.395800 0.288957
O O12 0.500000 0.397503 0.000000
O O13 0.246577 0.500000 0.439068
O O14 0.401109 0.089296 0.357460
O O15 0.155416 0.000000 0.306176
O O16 0.952413 0.094718 0.097112
O O17 0.645929 0.907832 0.813014
O O18 0.338544 0.000000 0.578504
O O19 0.593057 0.000000 0.896142
#
# Coordination Sequence:
#
# PCOD9147041 Si02
#       8
#     4   4   4   4   4   4   4   4
#     4  10  19  34  56  81 114 150 178 210 264 330
#     4  10  21  34  53  87 118 140 174 220 271 320
#     4  10  19  34  59  85 110 140 180 229 266 301
#     4  10  21  40  63  80  96 131 186 233 269 319
#     4  11  24  41  58  75 103 145 184 220 270 331
#     4   8  13  22  41  72 106 140 178 215 248 293
#     4   8  13  24  43  69 106 147 177 204 247 307
#     4   8  13  22  42  74 109 140 170 208 257 311
#
# _framework density 19.059260999999999
#
# number of rings (size 3 to 8) (size 9 to 14) (size 15 to 20)
#    0.000    2.625    1.250    1.125    0.000    6.500 
#    0.000    1.875    0.000    7.125    0.000    3.500 
#    0.000    0.000    0.000    0.000    0.000    0.000 
#
# Total GULP energy -178244.888441 kJ/mol
# GULP energy per Si atom -5570.152764 kJ/mol
# Density = 1.901588 g / cm^3
# Si number density = 19.059261 Si / 1000 Ang^3
#
#
#
# Elastic Constant Matrix: (Units=GPa)
#
#
# Indices 1 2 3 4 5 6 
#
# 1 34.6831 41.4264 1.4249 0.0000 0.8040 0.0000
# 2 41.4264 181.9967 32.0041 0.0000 -3.3293 0.0000
# 3 1.4249 32.0041 54.7053 0.0000 -13.2155 0.0000
# 4 0.0000 0.0000 0.0000 26.5098 0.0000 -6.3405
# 5 0.8040 -3.3293 -13.2155 0.0000 13.7063 0.0000
# 6 0.0000 0.0000 0.0000 -6.3405 0.0000 29.5933
#
#
#
# Elastic Compliance Matrix: (Units=1/GPa)
#
#
# Indices 1 2 3 4 5 6 
#
# 1 0.040727 -0.010120 0.004809 0.000000 -0.000211 0.000000
# 2 -0.010120 0.008709 -0.005445 0.000000 -0.002541 0.000000
# 3 0.004809 -0.005445 0.027315 0.000000 0.024732 0.000000
# 4 0.000000 0.000000 0.000000 0.039759 0.000000 0.008519
# 5 -0.000211 -0.002541 0.024732 0.000000 0.096201 0.000000
# 6 0.000000 0.000000 0.000000 0.008519 0.000000 0.035617
#
#
# Mechanical properties :
#
#
# Convention : Reuss Voigt Hill
#
# Bulk Modulus (GPa) = 18.10340 46.78843 32.44592
# Shear Modulus (GPa) = 17.34580 27.06387 22.20483
#
# Velocity S-wave (km/s) = 3.02006 3.77236 3.41697
# Velocity P-wave (km/s) = 4.65619 6.60125 5.71212
#
# Compressibility (1/GPa) = 0.05523825
#
# Stress axis : x y z
#
# Youngs Moduli (GPa) = 24.55355 114.82100 36.60999
#
# Poissons Ratio (x) = 1.16198 -0.17605
# Poissons Ratio (y) = 0.24848 0.19936
# Poissons Ratio (z) = -0.11807 0.62526
#
# Static dielectric constant tensor:
#      x y z
#    x 1.621730 0.000000 -0.022400 
#    y 0.000000 1.729540 0.000000 
#    z -0.022400 0.000000 1.680870 
# 
# From -- ./inp_files/53982.got.cif
#   From: 2010.05.17/outbox.cif.g08.bks.cpg/sg10_27_cif.got.tgz:53982.got - 2010.06.03 11:33:40.
