data_PCOD9147062
_publ_section_title
;
Structure prediction by ZEFSAII (Michael W. Deem and Ramdas Pophale) SiO2 
 PCOD9147062
Probable space group: P 2/M
;
_chemical_formula_sum "Si O2"
_cell_formula_units_Z 24
_cell_length_a 8.832929
_cell_length_b 19.182274
_cell_length_c 10.597914
_cell_angle_alpha 90.000000
_cell_angle_beta 41.118864
_cell_angle_gamma 90.000000
_cell_volume 1180.870902
_symmetry_space_group_name_H-M "P 2/M"
_symmetry_group_IT_number 10
_symmetry_cell_setting 'monoclinic'
loop_
_space_group_symop_operation_xyz
x,y,z
-x,y,-z
-x,-y,-z
x,-y,z
loop_
_atom_site_type_symbol
_atom_site_label
_atom_site_fract_x
_atom_site_fract_y
_atom_site_fract_z
Si Si1 0.876324 0.182542 0.963238
Si Si2 0.155210 0.678793 0.146783
Si Si3 0.638497 0.657455 0.711988
Si Si4 0.253665 0.579312 0.590869
Si Si5 0.575872 0.202121 0.602097
Si Si6 0.772550 0.920842 0.374044
O O1 0.868843 0.238110 0.856417
O O2 0.033078 0.114558 0.837975
O O3 0.626703 0.172753 0.180342
O O4 0.000000 0.223098 0.000000
O O5 0.209865 0.663797 0.258253
O O6 0.934451 0.634689 0.245649
O O7 0.375876 0.656334 0.925855
O O8 0.656860 0.725988 0.611685
O O9 0.500000 0.591557 0.500000
O O10 0.180729 0.500000 0.660921
O O11 0.293843 0.593100 0.417318
O O12 0.500000 0.213762 0.500000
O O13 0.757334 0.139231 0.487949
O O14 0.500000 0.923861 0.500000
O O15 0.834992 0.000000 0.365597
#
# Coordination Sequence:
#
# PCOD9147062 Si02
#       6
#     4   4   4   4   4   4
#     4  11  20  33  56  83 110 145 188 239 288 334
#     4  10  24  39  62  90 113 152 195 241 289 339
#     4  10  22  41  62  87 117 149 194 243 288 339
#     4  11  25  41  60  88 121 156 190 230 285 345
#     4  10  19  34  56  83 111 147 188 238 290 336
#     4  10  20  32  49  80 116 149 188 234 288 340
#
# _framework density 20.323982999999998
#
# number of rings (size 3 to 8) (size 9 to 14) (size 15 to 20)
#    0.000    1.667    3.333    2.000    4.667    3.667 
#    0.000    3.333    0.000    2.000    0.000    4.667 
#    0.000    0.000    0.000    0.000    0.000    0.000 
#
# Total GULP energy -133715.569861 kJ/mol
# GULP energy per Si atom -5571.482078 kJ/mol
# Density = 2.027772 g / cm^3
# Si number density = 20.323983 Si / 1000 Ang^3
#
#
#
# Elastic Constant Matrix: (Units=GPa)
#
#
# Indices 1 2 3 4 5 6 
#
# 1 37.8795 21.3245 18.9559 0.0000 3.7108 0.0000
# 2 21.3245 95.9841 55.1242 0.0000 -11.2044 0.0000
# 3 18.9559 55.1242 116.2187 0.0000 -10.2814 0.0000
# 4 0.0000 0.0000 0.0000 6.2106 0.0000 7.4221
# 5 3.7108 -11.2044 -10.2814 0.0000 26.5985 0.0000
# 6 0.0000 0.0000 0.0000 7.4221 0.0000 -4.8279
#
#
#
# Elastic Compliance Matrix: (Units=1/GPa)
#
#
# Indices 1 2 3 4 5 6 
#
# 1 0.032337 -0.006470 -0.002947 0.000000 -0.008376 0.000000
# 2 -0.006470 0.015940 -0.006038 0.000000 0.005283 0.000000
# 3 -0.002947 -0.006038 0.012177 0.000000 0.002574 0.000000
# 4 0.000000 0.000000 0.000000 0.056751 0.000000 0.087245
# 5 -0.008376 0.005283 0.002574 0.000000 0.041985 0.000000
# 6 0.000000 0.000000 0.000000 0.087245 0.000000 -0.073004
#
#
# Mechanical properties :
#
#
# Convention : Reuss Voigt Hill
#
# Bulk Modulus (GPa) = 33.84656 48.98794 41.41725
# Shear Modulus (GPa) = 39.38797 15.90809 27.64803
#
# Velocity S-wave (km/s) = 4.40705 2.80076 3.69231
# Velocity P-wave (km/s) = 6.52578 5.88344 6.21292
#
# Compressibility (1/GPa) = 0.02954510
#
# Stress axis : x y z
#
# Youngs Moduli (GPa) = 30.92460 62.73488 82.12374
#
# Poissons Ratio (x) = 0.40587 0.24199
# Poissons Ratio (y) = 0.20007 0.49586
# Poissons Ratio (z) = 0.09112 0.37879
#
# Static dielectric constant tensor:
#      x y z
#    x 1.770980 0.000000 -0.034590 
#    y 0.000000 1.710720 0.000000 
#    z -0.034590 0.000000 1.810820 
# 
# From -- ./inp_files/43234.got.cif
#   From: 2010.05.17/outbox.cif.g08.bks.cpg/sg10_22_cif.got.tgz:43234.got - 2010.06.03 11:33:40.
