data_PCOD9147249
_publ_section_title
;
Structure prediction by ZEFSAII (Michael W. Deem and Ramdas Pophale) SiO2 
 PCOD9147249
Probable space group: P 2/M
;
_chemical_formula_sum "Si O2"
_cell_formula_units_Z 25
_cell_length_a 19.173252
_cell_length_b 12.328496
_cell_length_c 14.562747
_cell_angle_alpha 90.000000
_cell_angle_beta 159.831087
_cell_angle_gamma 90.000000
_cell_volume 1186.868276
_symmetry_space_group_name_H-M "P 2/M"
_symmetry_group_IT_number 10
_symmetry_cell_setting 'monoclinic'
loop_
_space_group_symop_operation_xyz
x,y,z
-x,y,-z
-x,-y,-z
x,-y,z
loop_
_atom_site_type_symbol
_atom_site_label
_atom_site_fract_x
_atom_site_fract_y
_atom_site_fract_z
Si Si1 0.731245 0.125277 0.591264
Si Si2 0.180226 0.174717 0.102407
Si Si3 0.182707 0.124611 0.650018
Si Si4 0.641262 0.500000 0.031869
Si Si5 0.052700 0.725086 0.769130
Si Si6 0.932810 0.500000 0.557687
Si Si7 0.429461 0.739396 0.094161
Si Si8 0.500000 0.000000 0.500000
O O1 0.745559 0.195604 0.702264
O O2 0.594899 0.186180 0.349057
O O3 0.667241 0.000000 0.538215
O O4 0.961595 0.118927 0.842893
O O5 0.346088 0.093488 0.269850
O O6 0.139874 0.265830 0.978630
O O7 0.000000 0.123434 0.500000
O O8 0.096696 0.180150 0.451590
O O9 0.244678 0.000000 0.712040
O O10 0.351636 0.199257 0.906801
O O11 0.737948 0.500000 0.252192
O O12 0.852397 0.500000 0.233304
O O13 0.525785 0.612702 0.870319
O O14 0.940327 0.611774 0.620410
O O15 0.239714 0.733410 0.929822
#
# Coordination Sequence:
#
# PCOD9147249 Si02
#       8
#     4   4   4   2   4   2   4   1
#     4  11  22  41  57  82 125 161 192 239 302 367
#     4  11  23  38  59  88 114 154 196 241 298 356
#     4   9  17  28  47  84 122 151 191 243 295 348
#     4   9  16  32  60  89 116 165 209 241 293 356
#     4  10  20  33  59  89 118 157 205 256 288 343
#     4   9  16  34  58  87 126 154 205 260 295 330
#     4  10  19  34  58  87 120 161 202 243 297 351
#     4  12  20  38  64  86 112 142 200 236 284 366
#
# _framework density 21.063836999999999
#
# number of rings (size 3 to 8) (size 9 to 14) (size 15 to 20)
#    0.000    1.920    3.200    1.920    1.120    0.640 
#    0.000    2.400    0.000    8.160    0.000    0.000 
#    0.000    0.000    0.000    0.000    0.000    0.000 
#
# Total GULP energy -139283.641677 kJ/mol
# GULP energy per Si atom -5571.345667 kJ/mol
# Density = 2.101589 g / cm^3
# Si number density = 21.063837 Si / 1000 Ang^3
#
#
#
# Elastic Constant Matrix: (Units=GPa)
#
#
# Indices 1 2 3 4 5 6 
#
# 1 57.2912 27.4720 31.1665 0.0000 -8.0263 0.0000
# 2 27.4720 136.5329 50.4602 0.0000 -26.4147 0.0000
# 3 31.1665 50.4602 116.1707 0.0000 -20.0964 0.0000
# 4 0.0000 0.0000 0.0000 3.6067 0.0000 5.3069
# 5 -8.0263 -26.4147 -20.0964 0.0000 29.3268 0.0000
# 6 0.0000 0.0000 0.0000 5.3069 0.0000 -15.9437
#
#
#
# Elastic Compliance Matrix: (Units=1/GPa)
#
#
# Indices 1 2 3 4 5 6 
#
# 1 0.021175 -0.002506 -0.004516 0.000000 0.000444 0.000000
# 2 -0.002506 0.010051 -0.002548 0.000000 0.006621 0.000000
# 3 -0.004516 -0.002548 0.011703 0.000000 0.004488 0.000000
# 4 0.000000 0.000000 0.000000 0.186111 0.000000 0.061947
# 5 0.000444 0.006621 0.004488 0.000000 0.043259 0.000000
# 6 0.000000 0.000000 0.000000 0.061947 0.000000 -0.042102
#
#
# Mechanical properties :
#
#
# Convention : Reuss Voigt Hill
#
# Bulk Modulus (GPa) = 42.03525 58.68802 50.36163
# Shear Modulus (GPa) = 19.43504 16.79105 18.11305
#
# Velocity S-wave (km/s) = 3.04085 2.82645 2.93561
# Velocity P-wave (km/s) = 5.68581 6.21081 5.95410
#
# Compressibility (1/GPa) = 0.02378956
#
# Stress axis : x y z
#
# Youngs Moduli (GPa) = 47.22551 99.49065 85.44984
#
# Poissons Ratio (x) = 0.24931 0.38586
# Poissons Ratio (y) = 0.11834 0.21774
# Poissons Ratio (z) = 0.21325 0.25352
#
# Static dielectric constant tensor:
#      x y z
#    x 1.720550 0.000000 -0.041080 
#    y 0.000000 1.708880 0.000000 
#    z -0.041080 0.000000 1.683390 
# 
# From -- ./inp_files/70619.got.cif
#   From: 2010.05.17/outbox.cif.g08.bks.cpg/sg10_36_cif.got.tgz:70619.got - 2010.06.03 11:33:40.
