data_PCOD9147334
_publ_section_title
;
Structure prediction by ZEFSAII (Michael W. Deem and Ramdas Pophale) SiO2 
 PCOD9147334
Probable space group: P 2/M
;
_chemical_formula_sum "Si O2"
_cell_formula_units_Z 32
_cell_length_a 24.131731
_cell_length_b 14.830291
_cell_length_c 9.079643
_cell_angle_alpha 90.000000
_cell_angle_beta 29.738453
_cell_angle_gamma 90.000000
_cell_volume 1611.851224
_symmetry_space_group_name_H-M "P 2/M"
_symmetry_group_IT_number 10
_symmetry_cell_setting 'monoclinic'
loop_
_space_group_symop_operation_xyz
x,y,z
-x,y,-z
-x,-y,-z
x,-y,z
loop_
_atom_site_type_symbol
_atom_site_label
_atom_site_fract_x
_atom_site_fract_y
_atom_site_fract_z
Si Si1 0.103564 0.829840 0.856128
Si Si2 0.437173 0.398389 0.301690
Si Si3 0.763254 0.605522 0.719896
Si Si4 0.981543 0.395289 0.380446
Si Si5 0.742240 0.104900 0.754098
Si Si6 0.205541 0.353182 0.696686
Si Si7 0.947069 0.106221 0.473247
Si Si8 0.430611 0.740041 0.803430
O O1 0.178623 0.888125 0.572604
O O2 0.183094 0.753182 0.737223
O O3 0.000000 0.788705 0.000000
O O4 0.039468 0.880885 0.133227
O O5 0.452046 0.500000 0.332427
O O6 0.307932 0.381438 0.562640
O O7 0.488365 0.315350 0.274135
O O8 0.500000 0.399223 0.000000
O O9 0.745966 0.500000 0.790438
O O10 0.877437 0.641203 0.528930
O O11 0.771414 0.615731 0.523941
O O12 0.663636 0.665173 0.011717
O O13 0.953493 0.500000 0.468384
O O14 0.000000 0.355077 0.500000
O O15 0.091867 0.390541 0.027820
O O16 0.826446 0.137620 0.690692
O O17 0.710698 0.000000 0.849153
O O18 0.638383 0.173187 0.979684
O O19 0.000000 0.145287 0.500000
O O20 0.929863 0.000000 0.536106
O O21 0.500000 0.766156 0.500000
#
# Coordination Sequence:
#
# PCOD9147334 Si02
#       8
#     4   4   4   4   4   4   4   4
#     4  10  19  34  61  95 129 164 206 246 303 381
#     4  11  23  42  65  89 123 166 218 269 308 361
#     4  11  22  41  64  88 124 166 207 254 311 376
#     4  10  23  38  56  90 131 166 202 249 310 375
#     4  10  21  42  67  89 123 167 210 256 313 383
#     4  12  22  37  64  92 125 164 213 255 306 369
#     4   9  19  35  60  97 132 161 198 248 314 384
#     4  12  27  43  63  92 122 159 221 267 320 371
#
# _framework density 19.852948000000001
#
# number of rings (size 3 to 8) (size 9 to 14) (size 15 to 20)
#    0.000    1.375    2.500    3.000    3.500    5.250 
#    0.000    0.000    0.000    4.125    0.000    0.000 
#    0.000    0.000    0.000    0.000    0.000    0.000 
#
# Total GULP energy -178606.740406 kJ/mol
# GULP energy per Si atom -5581.460638 kJ/mol
# Density = 1.980776 g / cm^3
# Si number density = 19.852948 Si / 1000 Ang^3
#
#
#
# Elastic Constant Matrix: (Units=GPa)
#
#
# Indices 1 2 3 4 5 6 
#
# 1 99.2341 24.7718 30.5647 0.0000 -14.9802 0.0000
# 2 24.7718 95.3358 11.5788 0.0000 -13.5941 0.0000
# 3 30.5647 11.5788 90.3354 0.0000 -11.4323 0.0000
# 4 0.0000 0.0000 0.0000 -7.1445 0.0000 -9.8816
# 5 -14.9802 -13.5941 -11.4323 0.0000 30.1793 0.0000
# 6 0.0000 0.0000 0.0000 -9.8816 0.0000 18.7480
#
#
#
# Elastic Compliance Matrix: (Units=1/GPa)
#
#
# Indices 1 2 3 4 5 6 
#
# 1 0.012247 -0.002231 -0.003378 0.000000 0.003795 0.000000
# 2 -0.002231 0.011676 -0.000227 0.000000 0.004066 0.000000
# 3 -0.003378 -0.000227 0.012622 0.000000 0.003002 0.000000
# 4 0.000000 0.000000 0.000000 -0.080953 0.000000 -0.042668
# 5 0.003795 0.004066 0.003002 0.000000 0.037988 0.000000
# 6 0.000000 0.000000 0.000000 -0.042668 0.000000 0.030850
#
#
# Mechanical properties :
#
#
# Convention : Reuss Voigt Hill
#
# Bulk Modulus (GPa) = 40.20302 46.52619 43.36461
# Shear Modulus (GPa) = 112.63267 22.88926 67.76096
#
# Velocity S-wave (km/s) = 7.54033 3.39918 5.84855
# Velocity P-wave (km/s) = 9.80322 6.23636 8.21570
#
# Compressibility (1/GPa) = 0.02487375
#
# Stress axis : x y z
#
# Youngs Moduli (GPa) = 81.65079 85.64353 79.22840
#
# Poissons Ratio (x) = 0.19107 0.26760
# Poissons Ratio (y) = 0.18216 0.01800
# Poissons Ratio (z) = 0.27579 0.01946
#
# Static dielectric constant tensor:
#      x y z
#    x 1.738670 0.000000 -0.008420 
#    y 0.000000 1.722620 0.000000 
#    z -0.008420 0.000000 1.672620 
# 
# From -- ./inp_files/36352.got.cif
#   From: 2010.05.17/outbox.cif.g08.bks.cpg/sg10_19_cif.got.tgz:36352.got - 2010.06.03 11:33:40.
