data_PCOD9147774
_publ_section_title
;
Structure prediction by ZEFSAII (Michael W. Deem and Ramdas Pophale) SiO2 
 PCOD9147774
Probable space group: P 2/M
;
_chemical_formula_sum "Si O2"
_cell_formula_units_Z 24
_cell_length_a 15.181941
_cell_length_b 11.934901
_cell_length_c 14.441890
_cell_angle_alpha 90.000000
_cell_angle_beta 154.423757
_cell_angle_gamma 90.000000
_cell_volume 1129.702396
_symmetry_space_group_name_H-M "P 2/M"
_symmetry_group_IT_number 10
_symmetry_cell_setting 'monoclinic'
loop_
_space_group_symop_operation_xyz
x,y,z
-x,y,-z
-x,-y,-z
x,-y,z
loop_
_atom_site_type_symbol
_atom_site_label
_atom_site_fract_x
_atom_site_fract_y
_atom_site_fract_z
Si Si1 0.942013 0.500000 0.727252
Si Si2 0.190075 0.254814 0.613522
Si Si3 0.926287 0.258962 0.176166
Si Si4 0.196970 0.500000 0.619117
Si Si5 0.526926 0.124997 0.846217
Si Si6 0.767218 0.500000 0.755210
Si Si7 0.265938 0.873492 0.409119
Si Si8 0.500000 0.297774 0.500000
O O1 0.070745 0.385732 0.858329
O O2 0.853932 0.500000 0.538949
O O3 0.769733 0.500000 0.644230
O O4 0.287739 0.377599 0.725284
O O5 0.370018 0.165872 0.775895
O O6 0.000000 0.229686 0.500000
O O7 0.076634 0.261768 0.407070
O O8 0.039382 0.174056 0.213459
O O9 0.709839 0.211413 0.002512
O O10 0.000000 0.500000 0.500000
O O11 0.392369 0.121222 0.624857
O O12 0.607152 0.000000 0.940572
O O13 0.662221 0.387592 0.692665
O O14 0.000000 0.500000 0.000000
O O15 0.383272 0.783180 0.458913
O O16 0.259994 0.000000 0.364991
#
# Coordination Sequence:
#
# PCOD9147774 Si02
#       8
#     2   4   4   2   4   2   4   2
#     4  10  19  36  59  84 114 154 192 227 295 349
#     4   9  19  36  58  84 114 146 186 237 287 343
#     4  10  20  37  57  81 116 148 188 238 288 343
#     4   8  16  34  61  87 113 143 184 238 290 339
#     4  10  22  37  56  83 111 151 195 230 283 344
#     4  11  25  40  57  90 126 153 191 237 286 348
#     4  10  21  38  59  82 110 147 193 241 286 334
#     4  11  23  40  62  84 115 151 194 238 288 339
#
# _framework density 21.244534000000002
#
# number of rings (size 3 to 8) (size 9 to 14) (size 15 to 20)
#    0.000    2.167    1.667    0.750    2.333    2.333 
#    0.000    1.667    0.000   10.000    0.000    0.000 
#    0.000    0.000    0.000    0.000    0.000    0.000 
#
# Total GULP energy -133833.857032 kJ/mol
# GULP energy per Si atom -5576.410710 kJ/mol
# Density = 2.119618 g / cm^3
# Si number density = 21.244534 Si / 1000 Ang^3
#
#
#
# Elastic Constant Matrix: (Units=GPa)
#
#
# Indices 1 2 3 4 5 6 
#
# 1 95.3941 45.9944 10.5345 0.0000 25.3352 0.0000
# 2 45.9944 178.0711 30.2613 0.0000 34.6313 0.0000
# 3 10.5345 30.2613 55.4089 0.0000 24.0545 0.0000
# 4 0.0000 0.0000 0.0000 5.2871 0.0000 13.9766
# 5 25.3352 34.6313 24.0545 0.0000 36.0788 0.0000
# 6 0.0000 0.0000 0.0000 13.9766 0.0000 22.9273
#
#
#
# Elastic Compliance Matrix: (Units=1/GPa)
#
#
# Indices 1 2 3 4 5 6 
#
# 1 0.013709 -0.002181 0.002611 0.000000 -0.009274 0.000000
# 2 -0.002181 0.007315 -0.001685 0.000000 -0.004366 0.000000
# 3 0.002611 -0.001685 0.026128 0.000000 -0.017636 0.000000
# 4 0.000000 0.000000 0.000000 -0.309294 0.000000 0.188548
# 5 -0.009274 -0.004366 -0.017636 0.000000 0.050179 0.000000
# 6 0.000000 0.000000 0.000000 0.188548 0.000000 -0.071324
#
#
# Mechanical properties :
#
#
# Convention : Reuss Voigt Hill
#
# Bulk Modulus (GPa) = 22.40054 55.82828 39.11441
# Shear Modulus (GPa) = -18.80424 28.99757 5.09667
#
# Velocity S-wave (km/s) = -2.97835 3.69852 1.55057
# Velocity P-wave (km/s) = 1.12266 6.67643 4.65373
#
# Compressibility (1/GPa) = 0.04464178
#
# Stress axis : x y z
#
# Youngs Moduli (GPa) = 72.94406 136.71438 38.27359
#
# Poissons Ratio (x) = 0.29818 -0.09993
# Poissons Ratio (y) = 0.15909 0.06448
# Poissons Ratio (z) = -0.19045 0.23031
#
# Static dielectric constant tensor:
#      x y z
#    x 1.807840 0.000000 -0.042850 
#    y 0.000000 1.786640 0.000000 
#    z -0.042850 0.000000 1.758060 
# 
# From -- ./inp_files/67448.got.cif
#   From: 2010.05.17/outbox.cif.g08.bks.cpg/sg10_34_cif.got.tgz:67448.got - 2010.06.03 11:33:40.
