data_PCOD9147821
_publ_section_title
;
Structure prediction by ZEFSAII (Michael W. Deem and Ramdas Pophale) SiO2 
 PCOD9147821
Probable space group: P 2/M
;
_chemical_formula_sum "Si O2"
_cell_formula_units_Z 28
_cell_length_a 21.448695
_cell_length_b 8.698222
_cell_length_c 14.464249
_cell_angle_alpha 90.000000
_cell_angle_beta 147.795173
_cell_angle_gamma 90.000000
_cell_volume 1438.174989
_symmetry_space_group_name_H-M "P 2/M"
_symmetry_group_IT_number 10
_symmetry_cell_setting 'monoclinic'
loop_
_space_group_symop_operation_xyz
x,y,z
-x,y,-z
-x,-y,-z
x,-y,z
loop_
_atom_site_type_symbol
_atom_site_label
_atom_site_fract_x
_atom_site_fract_y
_atom_site_fract_z
Si Si1 0.131737 0.825763 0.627155
Si Si2 0.685350 0.683120 0.001878
Si Si3 0.463378 0.686266 0.850877
Si Si4 0.039666 0.674798 0.339218
Si Si5 0.867501 0.313326 0.863193
Si Si6 0.246582 0.680864 0.461194
Si Si7 0.807489 0.180250 0.988097
O O1 0.217341 0.759449 0.810840
O O2 0.124369 0.716333 0.529656
O O3 0.000000 0.827836 0.500000
O O4 0.164869 0.000000 0.643640
O O5 0.700449 0.500000 0.019772
O O6 0.706916 0.746088 0.925923
O O7 0.563846 0.717195 0.901269
O O8 0.452560 0.500000 0.847148
O O9 0.343528 0.745553 0.653243
O O10 0.500000 0.742595 0.000000
O O11 0.996038 0.500000 0.293540
O O12 0.119718 0.686886 0.349681
O O13 0.929970 0.786644 0.194904
O O14 0.867734 0.500000 0.864826
O O15 0.776029 0.257526 0.669880
O O16 0.828559 0.254696 0.914430
O O17 0.000000 0.266239 0.000000
O O18 0.276782 0.500000 0.488446
O O19 0.788228 0.000000 0.955495
#
# Coordination Sequence:
#
# PCOD9147821 Si02
#       7
#     4   4   4   4   4   4   4
#     4  11  22  34  50  79 117 153 185 231 290 349
#     4  11  22  37  60  85 113 154 199 242 289 349
#     4   9  18  35  60  91 119 145 189 246 296 342
#     4  11  20  34  58  86 114 150 193 238 290 350
#     4  10  19  36  60  88 117 152 196 244 292 349
#     4   9  18  34  59  88 117 146 187 247 300 339
#     4  12  24  37  54  82 121 157 189 238 298 350
#
# _framework density 19.469118999999999
#
# number of rings (size 3 to 8) (size 9 to 14) (size 15 to 20)
#    0.000    1.571    2.857    3.429    0.000    3.143 
#    0.000    0.714    0.000   15.429    0.000    0.000 
#    0.000    0.000    0.000    0.000    0.000    0.000 
#
# Total GULP energy -156228.558327 kJ/mol
# GULP energy per Si atom -5579.591369 kJ/mol
# Density = 1.942481 g / cm^3
# Si number density = 19.469119 Si / 1000 Ang^3
#
#
#
# Elastic Constant Matrix: (Units=GPa)
#
#
# Indices 1 2 3 4 5 6 
#
# 1 87.0840 10.4646 28.8876 0.0000 -18.5516 0.0000
# 2 10.4646 35.6200 3.1909 0.0000 6.2018 0.0000
# 3 28.8876 3.1909 79.5722 0.0000 -8.7003 0.0000
# 4 0.0000 0.0000 0.0000 -118.9903 0.0000 -38.3737
# 5 -18.5516 6.2018 -8.7003 0.0000 30.0385 0.0000
# 6 0.0000 0.0000 0.0000 -38.3737 0.0000 -6.0590
#
#
#
# Elastic Compliance Matrix: (Units=1/GPa)
#
#
# Indices 1 2 3 4 5 6 
#
# 1 0.015710 -0.005899 -0.004412 0.000000 0.009642 0.000000
# 2 -0.005899 0.031612 -0.000246 0.000000 -0.010241 0.000000
# 3 -0.004412 -0.000246 0.014341 0.000000 0.001479 0.000000
# 4 0.000000 0.000000 0.000000 0.008062 0.000000 -0.051058
# 5 0.009642 -0.010241 0.001479 0.000000 0.041788 0.000000
# 6 0.000000 0.000000 0.000000 -0.051058 0.000000 0.158321
#
#
# Mechanical properties :
#
#
# Convention : Reuss Voigt Hill
#
# Bulk Modulus (GPa) = 24.66190 31.92914 28.29552
# Shear Modulus (GPa) = 16.42228 -8.35330 4.03449
#
# Velocity S-wave (km/s) = 2.90746 -2.07361 1.44109
# Velocity P-wave (km/s) = 4.89549 3.27144 4.16342
#
# Compressibility (1/GPa) = 0.04054837
#
# Stress axis : x y z
#
# Youngs Moduli (GPa) = 63.65466 31.63333 69.73171
#
# Poissons Ratio (x) = 0.18660 0.30768
# Poissons Ratio (y) = 0.37549 0.01715
# Poissons Ratio (z) = 0.28087 0.00778
#
# Static dielectric constant tensor:
#      x y z
#    x 1.723330 0.000000 -0.022190 
#    y 0.000000 1.657670 0.000000 
#    z -0.022190 0.000000 1.698080 
# 
# From -- ./inp_files/70298.got.cif
#   From: 2010.05.17/outbox.cif.g08.bks.cpg/sg10_36_cif.got.tgz:70298.got - 2010.06.03 11:33:40.
