data_PCOD9147844
_publ_section_title
;
Structure prediction by ZEFSAII (Michael W. Deem and Ramdas Pophale) SiO2 
 PCOD9147844
Probable space group: P 2/M
;
_chemical_formula_sum "Si O2"
_cell_formula_units_Z 28
_cell_length_a 11.359904
_cell_length_b 9.433378
_cell_length_c 14.848129
_cell_angle_alpha 90.000000
_cell_angle_beta 113.325192
_cell_angle_gamma 90.000000
_cell_volume 1461.117529
_symmetry_space_group_name_H-M "P 2/M"
_symmetry_group_IT_number 10
_symmetry_cell_setting 'monoclinic'
loop_
_space_group_symop_operation_xyz
x,y,z
-x,y,-z
-x,-y,-z
x,-y,z
loop_
_atom_site_type_symbol
_atom_site_label
_atom_site_fract_x
_atom_site_fract_y
_atom_site_fract_z
Si Si1 0.628653 0.835030 0.283283
Si Si2 0.852098 0.163725 0.481682
Si Si3 0.788463 0.166517 0.955491
Si Si4 0.823856 0.331159 0.656512
Si Si5 0.979738 0.833404 0.844443
Si Si6 0.424693 0.162598 0.382858
Si Si7 0.527764 0.666620 0.903108
O O1 0.763519 0.798545 0.370052
O O2 0.523900 0.821374 0.331457
O O3 0.584107 0.737845 0.188834
O O4 0.631603 0.000000 0.256157
O O5 0.827468 0.265878 0.557701
O O6 0.000000 0.167450 0.500000
O O7 0.817591 0.000000 0.496126
O O8 0.874068 0.185380 0.891694
O O9 0.661613 0.259001 0.918373
O O10 0.753822 0.000000 0.949221
O O11 0.883664 0.198110 0.067886
O O12 0.827609 0.500000 0.657440
O O13 0.938951 0.264050 0.749578
O O14 0.691688 0.271236 0.658245
O O15 0.978596 0.000000 0.818392
O O16 0.500000 0.180839 0.500000
O O17 0.375030 0.000000 0.365347
O O18 0.535330 0.500000 0.886710
O O19 0.500000 0.687692 0.000000
#
# Coordination Sequence:
#
# PCOD9147844 Si02
#       7
#     4   4   4   4   4   4   4
#     4  10  21  39  64  90 113 148 196 248 297 339
#     4  10  22  42  64  84 111 151 200 246 289 340
#     4   9  19  38  63  88 111 146 196 248 292 338
#     4  12  24  35  54  88 125 157 191 231 288 358
#     4   9  19  37  61  87 117 149 189 241 295 344
#     4  10  19  36  61  86 117 152 192 243 293 342
#     4  11  25  41  57  82 120 161 194 236 294 351
#
# _framework density 19.163415000000001
#
# number of rings (size 3 to 8) (size 9 to 14) (size 15 to 20)
#    0.000    1.857    1.429    3.429    0.000    8.571 
#    0.000    5.714    0.000    0.000    0.000    0.000 
#    0.000    0.000    0.000    0.000    0.000    0.000 
#
# Total GULP energy -156518.207634 kJ/mol
# GULP energy per Si atom -5589.935987 kJ/mol
# Density = 1.911980 g / cm^3
# Si number density = 19.163415 Si / 1000 Ang^3
#
#
#
# Elastic Constant Matrix: (Units=GPa)
#
#
# Indices 1 2 3 4 5 6 
#
# 1 53.0460 35.7178 32.3180 0.0000 22.3474 0.0000
# 2 35.7178 101.9976 93.3856 0.0000 15.1866 0.0000
# 3 32.3180 93.3856 143.5099 0.0000 24.7238 0.0000
# 4 0.0000 0.0000 0.0000 -9.7986 0.0000 -14.6192
# 5 22.3474 15.1866 24.7238 0.0000 18.3681 0.0000
# 6 0.0000 0.0000 0.0000 -14.6192 0.0000 -8.5355
#
#
#
# Elastic Compliance Matrix: (Units=1/GPa)
#
#
# Indices 1 2 3 4 5 6 
#
# 1 0.050559 -0.019354 0.011781 0.000000 -0.061368 0.000000
# 2 -0.019354 0.031697 -0.020582 0.000000 0.025044 0.000000
# 3 0.011781 -0.020582 0.022453 0.000000 -0.027537 0.000000
# 4 0.000000 0.000000 0.000000 0.065615 0.000000 -0.112382
# 5 -0.061368 0.025044 -0.027537 0.000000 0.145465 0.000000
# 6 0.000000 0.000000 0.000000 -0.112382 0.000000 0.075325
#
#
# Mechanical properties :
#
#
# Convention : Reuss Voigt Hill
#
# Bulk Modulus (GPa) = 20.66186 69.04403 44.85295
# Shear Modulus (GPa) = 10.78616 9.14895 9.96755
#
# Velocity S-wave (km/s) = 2.37502 2.18736 2.28312
# Velocity P-wave (km/s) = 4.28092 6.51818 5.51421
#
# Compressibility (1/GPa) = 0.04839834
#
# Stress axis : x y z
#
# Youngs Moduli (GPa) = 19.77881 31.54867 44.53805
#
# Poissons Ratio (x) = 0.61058 -0.52468
# Poissons Ratio (y) = 0.38279 0.91669
# Poissons Ratio (z) = -0.23301 0.64934
#
# Static dielectric constant tensor:
#      x y z
#    x 1.659180 0.000000 0.003380 
#    y 0.000000 1.631160 0.000000 
#    z 0.003380 0.000000 1.674410 
# 
# From -- ./inp_files/49614.got.cif
#   From: 2010.05.17/outbox.cif.g08.bks.cpg/sg10_25_cif.got.tgz:49614.got - 2010.06.03 11:33:40.
