data_PCOD9147143
_publ_section_title
;
Structure prediction by ZEFSAII (Michael W. Deem and Ramdas Pophale) SiO2 
 PCOD9147143
Probable space group: P 2/M
;
_chemical_formula_sum "Si O2"
_cell_formula_units_Z 24
_cell_length_a 25.576998
_cell_length_b 11.943787
_cell_length_c 9.725470
_cell_angle_alpha 90.000000
_cell_angle_beta 27.719260
_cell_angle_gamma 90.000000
_cell_volume 1381.928504
_symmetry_space_group_name_H-M "P 2/M"
_symmetry_group_IT_number 10
_symmetry_cell_setting 'monoclinic'
loop_
_space_group_symop_operation_xyz
x,y,z
-x,y,-z
-x,-y,-z
x,-y,z
loop_
_atom_site_type_symbol
_atom_site_label
_atom_site_fract_x
_atom_site_fract_y
_atom_site_fract_z
Si Si1 0.954035 0.363838 0.254471
Si Si2 0.101923 0.372618 0.155375
Si Si3 0.473239 0.760397 0.902107
Si Si4 0.689481 0.754516 0.200848
Si Si5 0.692883 0.634699 0.908014
Si Si6 0.433301 0.000000 0.881480
Si Si7 0.671396 0.000000 0.163593
O O1 0.956120 0.500000 0.259246
O O2 0.824418 0.333852 0.581646
O O3 0.043160 0.321660 0.158438
O O4 0.000000 0.330808 0.000000
O O5 0.139713 0.500000 0.038349
O O6 0.000000 0.378505 0.500000
O O7 0.205092 0.307521 0.978761
O O8 0.586073 0.750447 0.547663
O O9 0.429990 0.887666 0.978800
O O10 0.500000 0.739462 0.000000
O O11 0.381713 0.678923 0.044917
O O12 0.722654 0.882424 0.090000
O O13 0.655707 0.694521 0.136199
O O14 0.684743 0.500000 0.939334
O O15 0.550486 0.000000 0.523085
O O16 0.344054 0.000000 0.965035
#
# Coordination Sequence:
#
# PCOD9147143 Si02
#       7
#     4   4   4   4   4   2   2
#     4   9  19  35  56  79 108 149 189 224 263 322
#     4  10  19  34  57  83 108 143 189 226 265 327
#     4  11  24  37  56  85 113 147 184 232 287 329
#     4  11  21  37  59  82 113 146 185 235 276 328
#     4  11  22  37  57  83 115 150 186 223 277 338
#     4   9  17  38  60  76 105 144 197 231 263 329
#     4   9  18  34  59  84 102 143 194 231 268 324
#
# _framework density 17.367035000000001
#
# number of rings (size 3 to 8) (size 9 to 14) (size 15 to 20)
#    0.000    1.833    3.333    1.250    2.333    2.333 
#    0.000    0.417    0.000    0.000    0.000    2.917 
#    0.000    0.000    0.000    0.000    0.000    0.000 
#
# Total GULP energy -133844.820392 kJ/mol
# GULP energy per Si atom -5576.867516 kJ/mol
# Density = 1.732751 g / cm^3
# Si number density = 17.367035 Si / 1000 Ang^3
#
#
#
# Elastic Constant Matrix: (Units=GPa)
#
#
# Indices 1 2 3 4 5 6 
#
# 1 164.6551 52.3043 41.1329 0.0000 5.5777 0.0000
# 2 52.3043 95.1149 28.4958 0.0000 -8.6334 0.0000
# 3 41.1329 28.4958 54.0886 0.0000 3.6676 0.0000
# 4 0.0000 0.0000 0.0000 -2.0301 0.0000 19.0293
# 5 5.5777 -8.6334 3.6676 0.0000 34.1612 0.0000
# 6 0.0000 0.0000 0.0000 19.0293 0.0000 17.6821
#
#
#
# Elastic Compliance Matrix: (Units=1/GPa)
#
#
# Indices 1 2 3 4 5 6 
#
# 1 0.008318 -0.003411 -0.004410 0.000000 -0.001747 0.000000
# 2 -0.003411 0.014418 -0.005325 0.000000 0.004773 0.000000
# 3 -0.004410 -0.005325 0.024871 0.000000 -0.003296 0.000000
# 4 0.000000 0.000000 0.000000 -0.044426 0.000000 0.047811
# 5 -0.001747 0.004773 -0.003296 0.000000 0.031118 0.000000
# 6 0.000000 0.000000 0.000000 0.047811 0.000000 0.005101
#
#
# Mechanical properties :
#
#
# Convention : Reuss Voigt Hill
#
# Bulk Modulus (GPa) = 46.91815 61.96938 54.44377
# Shear Modulus (GPa) = 68.68441 22.75770 45.72105
#
# Velocity S-wave (km/s) = 6.29560 3.62387 5.13649
# Velocity P-wave (km/s) = 8.93982 7.29860 8.16057
#
# Compressibility (1/GPa) = 0.02131371
#
# Stress axis : x y z
#
# Youngs Moduli (GPa) = 120.22491 69.35686 40.20798
#
# Poissons Ratio (x) = 0.23660 0.17731
# Poissons Ratio (y) = 0.41014 0.21412
# Poissons Ratio (z) = 0.53016 0.36935
#
# Static dielectric constant tensor:
#      x y z
#    x 1.680680 0.000000 0.047040 
#    y 0.000000 1.598290 0.000000 
#    z 0.047040 0.000000 1.587730 
# 
# From -- ./inp_files/36106.got.cif
#   From: 2010.05.17/outbox.cif.g08.bks.cpg/sg10_19_cif.got.tgz:36106.got - 2010.06.03 11:33:40.
