data_PCOD9147516
_publ_section_title
;
Structure prediction by ZEFSAII (Michael W. Deem and Ramdas Pophale) SiO2 
 PCOD9147516
Probable space group: P 2/M
;
_chemical_formula_sum "Si O2"
_cell_formula_units_Z 28
_cell_length_a 13.419490
_cell_length_b 9.450545
_cell_length_c 14.890446
_cell_angle_alpha 90.000000
_cell_angle_beta 127.106171
_cell_angle_gamma 90.000000
_cell_volume 1506.057614
_symmetry_space_group_name_H-M "P 2/M"
_symmetry_group_IT_number 10
_symmetry_cell_setting 'monoclinic'
loop_
_space_group_symop_operation_xyz
x,y,z
-x,y,-z
-x,-y,-z
x,-y,z
loop_
_atom_site_type_symbol
_atom_site_label
_atom_site_fract_x
_atom_site_fract_y
_atom_site_fract_z
Si Si1 0.232760 0.165248 0.308731
Si Si2 0.977256 0.656987 0.882572
Si Si3 0.620349 0.830321 0.127378
Si Si4 0.657848 0.666201 0.328475
Si Si5 0.135258 0.335853 0.796719
Si Si6 0.862716 0.330454 0.572780
Si Si7 0.452974 0.656993 0.371886
O O1 0.112080 0.214039 0.188530
O O2 0.214253 0.249417 0.391997
O O3 0.349401 0.222940 0.316126
O O4 0.240777 0.000000 0.329527
O O5 0.922558 0.500000 0.829173
O O6 0.093805 0.670734 0.878580
O O7 0.000000 0.655955 0.000000
O O8 0.612825 0.761184 0.221985
O O9 0.748006 0.763760 0.157807
O O10 0.628705 0.000000 0.137256
O O11 0.500000 0.794914 0.000000
O O12 0.659068 0.500000 0.303325
O O13 0.796125 0.703553 0.442023
O O14 0.562882 0.680104 0.360573
O O15 0.166144 0.500000 0.792745
O O16 0.009216 0.299539 0.670818
O O17 0.847625 0.500000 0.576126
O O18 0.500000 0.655026 0.500000
O O19 0.399378 0.500000 0.323986
#
# Coordination Sequence:
#
# PCOD9147516 Si02
#       7
#     4   4   4   4   4   4   4
#     4  11  21  31  50  83 123 159 187 229 287 349
#     4   9  19  37  60  85 113 149 197 246 290 340
#     4  11  26  45  60  79 117 161 197 242 296 352
#     4  10  21  38  64  90 113 151 201 249 291 345
#     4   9  19  37  64  89 113 148 192 245 292 344
#     4   9  18  37  61  88 118 147 188 238 294 351
#     4  10  19  35  58  83 116 156 194 234 285 344
#
# _framework density 18.591584999999998
#
# number of rings (size 3 to 8) (size 9 to 14) (size 15 to 20)
#    0.000    2.143    1.429    2.571    0.000    6.857 
#    0.000    7.143    0.000    0.000    0.000    0.000 
#    0.000    0.000    0.000    0.000    0.000    0.000 
#
# Total GULP energy -156101.047384 kJ/mol
# GULP energy per Si atom -5575.037407 kJ/mol
# Density = 1.854927 g / cm^3
# Si number density = 18.591585 Si / 1000 Ang^3
#
#
#
# Elastic Constant Matrix: (Units=GPa)
#
#
# Indices 1 2 3 4 5 6 
#
# 1 103.7563 53.5990 57.9036 0.0000 3.4200 0.0000
# 2 53.5990 84.1145 60.3072 0.0000 12.4478 0.0000
# 3 57.9036 60.3072 126.3806 0.0000 -7.0242 0.0000
# 4 0.0000 0.0000 0.0000 22.8488 0.0000 13.1126
# 5 3.4200 12.4478 -7.0242 0.0000 23.6067 0.0000
# 6 0.0000 0.0000 0.0000 13.1126 0.0000 46.4316
#
#
#
# Elastic Compliance Matrix: (Units=1/GPa)
#
#
# Indices 1 2 3 4 5 6 
#
# 1 0.015383 -0.007401 -0.003481 0.000000 0.000638 0.000000
# 2 -0.007401 0.025990 -0.009877 0.000000 -0.015571 0.000000
# 3 -0.003481 -0.009877 0.014782 0.000000 0.010111 0.000000
# 4 0.000000 0.000000 0.000000 0.052231 0.000000 -0.014750
# 5 0.000638 -0.015571 0.010111 0.000000 0.053488 0.000000
# 6 0.000000 0.000000 0.000000 -0.014750 0.000000 0.025703
#
#
# Mechanical properties :
#
#
# Convention : Reuss Voigt Hill
#
# Bulk Modulus (GPa) = 68.31370 73.09679 70.70525
# Shear Modulus (GPa) = 21.36999 28.07351 24.72175
#
# Velocity S-wave (km/s) = 3.39402 3.89010 3.65050
# Velocity P-wave (km/s) = 7.22381 7.71879 7.47540
#
# Compressibility (1/GPa) = 0.01463835
#
# Stress axis : x y z
#
# Youngs Moduli (GPa) = 65.00830 38.47609 67.64801
#
# Poissons Ratio (x) = 0.28476 0.23547
# Poissons Ratio (y) = 0.48112 0.66814
# Poissons Ratio (z) = 0.22628 0.38002
#
# Static dielectric constant tensor:
#      x y z
#    x 1.658990 0.000000 0.008870 
#    y 0.000000 1.620830 0.000000 
#    z 0.008870 0.000000 1.672960 
# 
# From -- ./inp_files/66658.got.cif
#   From: 2010.05.17/outbox.cif.g08.bks.cpg/sg10_34_cif.got.tgz:66658.got - 2010.06.03 11:33:40.
