data_PCOD9147221
_publ_section_title
;
Structure prediction by ZEFSAII (Michael W. Deem and Ramdas Pophale) SiO2 
 PCOD9147221
Probable space group: P 2/M
;
_chemical_formula_sum "Si O2"
_cell_formula_units_Z 28
_cell_length_a 9.578034
_cell_length_b 8.739817
_cell_length_c 30.119317
_cell_angle_alpha 90.000000
_cell_angle_beta 37.326471
_cell_angle_gamma 90.000000
_cell_volume 1528.802570
_symmetry_space_group_name_H-M "P 2/M"
_symmetry_group_IT_number 10
_symmetry_cell_setting 'monoclinic'
loop_
_space_group_symop_operation_xyz
x,y,z
-x,y,-z
-x,-y,-z
x,-y,z
loop_
_atom_site_type_symbol
_atom_site_label
_atom_site_fract_x
_atom_site_fract_y
_atom_site_fract_z
Si Si1 0.079224 0.316277 0.706635
Si Si2 0.675135 0.817117 0.865667
Si Si3 0.399042 0.183311 0.701771
Si Si4 0.832907 0.317326 0.002140
Si Si5 0.093566 0.314889 0.427718
Si Si6 0.988266 0.183273 0.870354
Si Si7 0.764796 0.686429 0.430397
O O1 0.081871 0.500000 0.707961
O O2 0.278760 0.252985 0.688454
O O3 0.125859 0.267938 0.644290
O O4 0.839461 0.255062 0.786789
O O5 0.416927 0.757672 0.929381
O O6 0.792478 0.778462 0.883430
O O7 0.681752 0.000000 0.859719
O O8 0.653920 0.246787 0.643166
O O9 0.229995 0.222445 0.785606
O O10 0.400518 0.000000 0.697351
O O11 0.807480 0.500000 0.009555
O O12 0.941072 0.266490 0.928107
O O13 0.000000 0.270443 0.000000
O O14 0.109064 0.500000 0.422594
O O15 0.000000 0.271412 0.500000
O O16 0.917383 0.264909 0.433758
O O17 0.981349 0.000000 0.879189
O O18 0.500000 0.738065 0.500000
O O19 0.761168 0.500000 0.432122
#
# Coordination Sequence:
#
# PCOD9147221 Si02
#       7
#     4   4   4   4   4   4   4
#     4  10  19  34  58  84 110 141 180 225 271 321
#     4  10  21  38  59  82 110 143 181 223 270 327
#     4  10  21  37  56  81 113 144 179 223 270 324
#     4  11  24  38  54  81 113 143 181 227 270 317
#     4  10  20  35  57  82 108 143 186 228 273 323
#     4   9  20  38  58  80 106 141 182 222 269 326
#     4   9  18  33  54  81 110 140 179 227 273 319
#
# _framework density 18.314986999999999
#
# number of rings (size 3 to 8) (size 9 to 14) (size 15 to 20)
#    0.000    2.143    0.000    3.857    0.000   10.000 
#    0.000    5.714    0.000    3.000    0.000    0.000 
#    0.000    0.000    0.000    0.000    0.000    0.000 
#
# Total GULP energy -156384.570987 kJ/mol
# GULP energy per Si atom -5585.163250 kJ/mol
# Density = 1.827330 g / cm^3
# Si number density = 18.314987 Si / 1000 Ang^3
#
#
#
# Elastic Constant Matrix: (Units=GPa)
#
#
# Indices 1 2 3 4 5 6 
#
# 1 161.7235 48.9529 132.7582 0.0000 -3.1407 0.0000
# 2 48.9529 36.3856 49.9346 0.0000 0.6818 0.0000
# 3 132.7582 49.9346 156.1860 0.0000 1.1721 0.0000
# 4 0.0000 0.0000 0.0000 193.3010 0.0000 121.9310
# 5 -3.1407 0.6818 1.1721 0.0000 36.9732 0.0000
# 6 0.0000 0.0000 0.0000 121.9310 0.0000 116.1193
#
#
#
# Elastic Compliance Matrix: (Units=1/GPa)
#
#
# Indices 1 2 3 4 5 6 
#
# 1 0.021589 -0.006918 -0.016158 0.000000 0.002474 0.000000
# 2 -0.006918 0.051192 -0.010478 0.000000 -0.001199 0.000000
# 3 -0.016158 -0.010478 0.023501 0.000000 -0.001924 0.000000
# 4 0.000000 0.000000 0.000000 0.015322 0.000000 -0.016088
# 5 0.002474 -0.001199 -0.001924 0.000000 0.027340 0.000000
# 6 0.000000 0.000000 0.000000 -0.016088 0.000000 0.025505
#
#
# Mechanical properties :
#
#
# Convention : Reuss Voigt Hill
#
# Bulk Modulus (GPa) = 34.27457 90.84293 62.55875
# Shear Modulus (GPa) = 20.72269 77.45534 49.08902
#
# Velocity S-wave (km/s) = 3.36737 6.51018 5.18274
# Velocity P-wave (km/s) = 5.82009 10.30621 8.36933
#
# Compressibility (1/GPa) = 0.02917615
#
# Stress axis : x y z
#
# Youngs Moduli (GPa) = 46.31927 19.53413 42.55153
#
# Poissons Ratio (x) = 0.13514 0.68753
# Poissons Ratio (y) = 0.32044 0.44583
# Poissons Ratio (z) = 0.74841 0.20467
#
# Static dielectric constant tensor:
#      x y z
#    x 1.607500 0.000000 0.004240 
#    y 0.000000 1.614600 0.000000 
#    z 0.004240 0.000000 1.607000 
# 
# From -- ./inp_files/37297.got.cif
#   From: 2010.05.17/outbox.cif.g08.bks.cpg/sg10_19_cif.got.tgz:37297.got - 2010.06.03 11:33:40.
