data_PCOD9147988
_publ_section_title
;
Structure prediction by ZEFSAII (Michael W. Deem and Ramdas Pophale) SiO2 
 PCOD9147988
Probable space group: P 2/M
;
_chemical_formula_sum "Si O2"
_cell_formula_units_Z 32
_cell_length_a 15.932630
_cell_length_b 7.728406
_cell_length_c 12.429592
_cell_angle_alpha 90.000000
_cell_angle_beta 89.866375
_cell_angle_gamma 90.000000
_cell_volume 1530.499147
_symmetry_space_group_name_H-M "P 2/M"
_symmetry_group_IT_number 10
_symmetry_cell_setting 'monoclinic'
loop_
_space_group_symop_operation_xyz
x,y,z
-x,y,-z
-x,-y,-z
x,-y,z
loop_
_atom_site_type_symbol
_atom_site_label
_atom_site_fract_x
_atom_site_fract_y
_atom_site_fract_z
Si Si1 0.663125 0.209208 0.768470
Si Si2 0.988147 0.702988 0.120227
Si Si3 0.099770 0.299475 0.488840
Si Si4 0.403681 0.209193 0.000922
Si Si5 0.653655 0.295880 0.234115
Si Si6 0.503354 0.707753 0.623333
Si Si7 0.851606 0.197703 0.743731
Si Si8 0.159099 0.713154 0.721255
O O1 0.636126 0.268006 0.887336
O O2 0.591604 0.257218 0.682583
O O3 0.757809 0.273008 0.750230
O O4 0.665332 0.000000 0.767349
O O5 0.968680 0.500000 0.105965
O O6 0.910917 0.773288 0.192461
O O7 0.074234 0.716470 0.187742
O O8 0.000000 0.777535 0.000000
O O9 0.126703 0.500000 0.475063
O O10 0.124665 0.202509 0.381372
O O11 0.135529 0.232708 0.600830
O O12 0.000000 0.298025 0.500000
O O13 0.400919 0.000000 0.999233
O O14 0.500000 0.264544 0.000000
O O15 0.362757 0.273231 0.891885
O O16 0.657154 0.500000 0.258506
O O17 0.574977 0.225265 0.303934
O O18 0.746491 0.226727 0.256887
O O19 0.500000 0.772431 0.500000
O O20 0.495296 0.500000 0.618732
O O21 0.848266 0.000000 0.782672
O O22 0.156525 0.500000 0.722379
#
# Coordination Sequence:
#
# PCOD9147988 Si02
#       8
#     4   4   4   4   4   4   4   4
#     4  10  23  41  58  81 115 155 193 231 280 341
#     4  10  21  39  61  84 113 151 194 232 278 345
#     4  10  19  37  64  85 110 150 194 235 281 338
#     4  10  20  38  61  80 107 149 193 233 279 338
#     4  10  21  36  57  86 116 143 181 236 288 331
#     4  10  22  38  57  85 117 147 185 235 286 336
#     4  11  24  39  57  85 120 151 189 240 288 334
#     4   9  19  36  57  85 115 145 183 232 283 331
#
# _framework density 20.908211999999999
#
# number of rings (size 3 to 8) (size 9 to 14) (size 15 to 20)
#    0.000    2.000    2.500    0.375    3.500    2.500 
#    0.000    1.250    0.000    0.000    0.000    0.000 
#    0.000    0.000    0.000    0.000    0.000    0.000 
#
# Total GULP energy -178643.318386 kJ/mol
# GULP energy per Si atom -5582.603700 kJ/mol
# Density = 2.086062 g / cm^3
# Si number density = 20.908212 Si / 1000 Ang^3
#
#
#
# Elastic Constant Matrix: (Units=GPa)
#
#
# Indices 1 2 3 4 5 6 
#
# 1 151.5316 -0.9793 82.1772 0.0000 5.2864 0.0000
# 2 -0.9793 27.9098 -3.4305 0.0000 -4.6169 0.0000
# 3 82.1772 -3.4305 162.6827 0.0000 3.3172 0.0000
# 4 0.0000 0.0000 0.0000 1.8902 0.0000 -33.1307
# 5 5.2864 -4.6169 3.3172 0.0000 38.2957 0.0000
# 6 0.0000 0.0000 0.0000 -33.1307 0.0000 -18.2549
#
#
#
# Elastic Compliance Matrix: (Units=1/GPa)
#
#
# Indices 1 2 3 4 5 6 
#
# 1 0.009122 -0.000395 -0.004598 0.000000 -0.000909 0.000000
# 2 -0.000395 0.036652 0.000883 0.000000 0.004397 0.000000
# 3 -0.004598 0.000883 0.008488 0.000000 0.000006 0.000000
# 4 0.000000 0.000000 0.000000 0.016124 0.000000 -0.029264
# 5 -0.000909 0.004397 0.000006 0.000000 0.026768 0.000000
# 6 0.000000 0.000000 0.000000 -0.029264 0.000000 -0.001670
#
#
# Mechanical properties :
#
#
# Convention : Reuss Voigt Hill
#
# Bulk Modulus (GPa) = 21.71961 55.29544 38.50753
# Shear Modulus (GPa) = 41.99903 22.00999 32.00451
#
# Velocity S-wave (km/s) = 4.48675 3.24805 3.91668
# Velocity P-wave (km/s) = 6.10343 6.36950 6.23789
#
# Compressibility (1/GPa) = 0.04604133
#
# Stress axis : x y z
#
# Youngs Moduli (GPa) = 109.62850 27.28387 117.81583
#
# Poissons Ratio (x) = 0.01079 0.54166
# Poissons Ratio (y) = 0.04334 -0.10402
# Poissons Ratio (z) = 0.50402 -0.02409
#
# Static dielectric constant tensor:
#      x y z
#    x 1.737290 0.000000 -0.029850 
#    y 0.000000 1.756330 0.000000 
#    z -0.029850 0.000000 1.665310 
# 
# From -- ./inp_files/49881.got.cif
#   From: 2010.05.17/outbox.cif.g08.bks.cpg/sg10_25_cif.got.tgz:49881.got - 2010.06.03 11:33:40.
