data_PCOD9147076
_publ_section_title
;
Structure prediction by ZEFSAII (Michael W. Deem and Ramdas Pophale) SiO2 
 PCOD9147076
Probable space group: P 2/M
;
_chemical_formula_sum "Si O2"
_cell_formula_units_Z 32
_cell_length_a 12.431491
_cell_length_b 7.878897
_cell_length_c 29.979372
_cell_angle_alpha 90.000000
_cell_angle_beta 29.865782
_cell_angle_gamma 90.000000
_cell_volume 1462.225283
_symmetry_space_group_name_H-M "P 2/M"
_symmetry_group_IT_number 10
_symmetry_cell_setting 'monoclinic'
loop_
_space_group_symop_operation_xyz
x,y,z
-x,y,-z
-x,-y,-z
x,-y,z
loop_
_atom_site_type_symbol
_atom_site_label
_atom_site_fract_x
_atom_site_fract_y
_atom_site_fract_z
Si Si1 0.869178 0.798739 0.171208
Si Si2 0.008442 0.305177 0.697837
Si Si3 0.546918 0.193978 0.850278
Si Si4 0.728821 0.794680 0.477664
Si Si5 0.089793 0.206841 0.419660
Si Si6 0.451977 0.791874 0.786390
Si Si7 0.641657 0.696498 0.989950
Si Si8 0.721363 0.794296 0.318704
O O1 0.756124 0.734531 0.166864
O O2 0.751065 0.731098 0.257865
O O3 0.829546 0.000000 0.184886
O O4 0.122796 0.773381 0.086512
O O5 0.943744 0.500000 0.718147
O O6 0.209508 0.270940 0.593072
O O7 0.080416 0.260835 0.721708
O O8 0.806344 0.196528 0.754078
O O9 0.459082 0.265605 0.835173
O O10 0.483718 0.287560 0.918287
O O11 0.470193 0.000000 0.882788
O O12 0.501349 0.735842 0.579054
O O13 0.919664 0.743672 0.442755
O O14 0.723465 0.000000 0.477451
O O15 0.330237 0.259675 0.318495
O O16 0.000000 0.264260 0.500000
O O17 0.093471 0.000000 0.419889
O O18 0.456846 0.000000 0.787053
O O19 0.679115 0.500000 0.965455
O O20 0.500000 0.770853 0.000000
O O21 0.717727 0.000000 0.319517
#
# Coordination Sequence:
#
# PCOD9147076 Si02
#       8
#     4   4   4   4   4   4   4   4
#     4  10  21  39  63  92 121 151 193 244 299 355
#     4  12  24  37  55  82 120 162 202 245 298 359
#     4  11  22  40  66  91 118 154 197 249 301 353
#     4  10  19  34  56  85 117 154 202 251 298 349
#     4   9  15  27  53  86 118 152 194 245 294 340
#     4   9  18  34  58  90 122 151 191 243 297 350
#     4  11  25  44  64  89 121 157 197 241 296 360
#     4  10  21  36  58  87 118 154 201 253 298 347
#
# _framework density 21.884454000000002
#
# number of rings (size 3 to 8) (size 9 to 14) (size 15 to 20)
#    0.000    1.750    1.250    3.750    0.000    9.000 
#    0.000    3.750    0.000    0.375    0.000    0.000 
#    0.000    0.000    0.000    0.000    0.000    0.000 
#
# Total GULP energy -178835.268941 kJ/mol
# GULP energy per Si atom -5588.602154 kJ/mol
# Density = 2.183464 g / cm^3
# Si number density = 21.884454 Si / 1000 Ang^3
#
#
#
# Elastic Constant Matrix: (Units=GPa)
#
#
# Indices 1 2 3 4 5 6 
#
# 1 185.9482 5.2538 53.0191 0.0000 -1.4361 0.0000
# 2 5.2538 25.8930 -7.2875 0.0000 1.0518 0.0000
# 3 53.0191 -7.2875 81.8161 0.0000 6.1674 0.0000
# 4 0.0000 0.0000 0.0000 1424.9373 0.0000 1153.7305
# 5 -1.4361 1.0518 6.1674 0.0000 34.1039 0.0000
# 6 0.0000 0.0000 0.0000 1153.7305 0.0000 883.6599
#
#
#
# Elastic Compliance Matrix: (Units=1/GPa)
#
#
# Indices 1 2 3 4 5 6 
#
# 1 0.006824 -0.002775 -0.004762 0.000000 0.001234 0.000000
# 2 -0.002775 0.040862 0.005618 0.000000 -0.002393 0.000000
# 3 -0.004762 0.005618 0.016056 0.000000 -0.003277 0.000000
# 4 0.000000 0.000000 0.000000 -0.012284 0.000000 0.016039
# 5 0.001234 -0.002393 -0.003277 0.000000 0.030041 0.000000
# 6 0.000000 0.000000 0.000000 0.016039 0.000000 -0.019809
#
#
# Mechanical properties :
#
#
# Convention : Reuss Voigt Hill
#
# Bulk Modulus (GPa) = 16.69336 43.95868 30.32602
# Shear Modulus (GPa) = 58.48345 484.71836 271.60091
#
# Velocity S-wave (km/s) = 5.17511 14.89868 11.15241
# Velocity P-wave (km/s) = 6.58434 17.77895 13.40606
#
# Compressibility (1/GPa) = 0.05990405
#
# Stress axis : x y z
#
# Youngs Moduli (GPa) = 146.55065 24.47266 62.28209
#
# Poissons Ratio (x) = 0.06791 0.29659
# Poissons Ratio (y) = 0.40667 -0.34992
# Poissons Ratio (z) = 0.69788 -0.13749
#
# Static dielectric constant tensor:
#      x y z
#    x 1.800810 0.000000 0.008720 
#    y 0.000000 1.794270 0.000000 
#    z 0.008720 0.000000 1.779710 
# 
# From -- ./inp_files/94981.got.cif
#   From: 2010.05.17/outbox.cif.g08.bks.cpg/sg10_48_cif.got.tgz:94981.got - 2010.06.03 11:33:40.
