data_PCOD9147679
_publ_section_title
;
Structure prediction by ZEFSAII (Michael W. Deem and Ramdas Pophale) SiO2 
 PCOD9147679
Probable space group: P 2/M
;
_chemical_formula_sum "Si O2"
_cell_formula_units_Z 30
_cell_length_a 12.304463
_cell_length_b 8.006872
_cell_length_c 14.889797
_cell_angle_alpha 90.000000
_cell_angle_beta 90.581654
_cell_angle_gamma 90.000000
_cell_volume 1466.871086
_symmetry_space_group_name_H-M "P 2/M"
_symmetry_group_IT_number 10
_symmetry_cell_setting 'monoclinic'
loop_
_space_group_symop_operation_xyz
x,y,z
-x,y,-z
-x,-y,-z
x,-y,z
loop_
_atom_site_type_symbol
_atom_site_label
_atom_site_fract_x
_atom_site_fract_y
_atom_site_fract_z
Si Si1 0.500000 0.248358 0.000000
Si Si2 0.290209 0.807196 0.679130
Si Si3 0.287699 0.296230 0.304093
Si Si4 0.892679 0.701569 0.829704
Si Si5 0.140469 0.197630 0.831293
Si Si6 0.265910 0.696697 0.006792
Si Si7 0.622592 0.697606 0.507802
Si Si8 0.508620 0.311028 0.209421
O O1 0.374310 0.191055 0.009082
O O2 0.487104 0.317810 0.898050
O O3 0.190062 0.740782 0.737258
O O4 0.317465 0.721258 0.585706
O O5 0.394761 0.792346 0.745467
O O6 0.270020 0.000000 0.657917
O O7 0.282529 0.500000 0.303210
O O8 0.176510 0.239920 0.256981
O O9 0.313661 0.236448 0.404652
O O10 0.391279 0.251648 0.242886
O O11 0.903589 0.500000 0.827412
O O12 0.012380 0.774659 0.836750
O O13 0.818133 0.740258 0.915416
O O14 0.203523 0.286280 0.912674
O O15 0.164111 0.000000 0.838203
O O16 0.299793 0.500000 0.019840
O O17 0.500000 0.768509 0.500000
O O18 0.610869 0.500000 0.524193
O O19 0.523107 0.500000 0.244442
#
# Coordination Sequence:
#
# PCOD9147679 Si02
#       8
#     2   4   4   4   4   4   4   4
#     4  12  21  32  61  98 125 150 183 230 291 348
#     4  11  24  39  55  82 117 154 194 238 283 336
#     4   9  18  34  58  89 118 142 181 236 288 342
#     4  10  21  38  60  85 113 148 194 243 282 330
#     4  11  25  42  56  76 113 160 203 238 278 331
#     4  11  21  35  60  91 118 148 189 234 284 341
#     4  10  19  35  62  91 116 147 183 228 293 356
#     4  11  19  34  59  87 120 154 186 229 286 344
#
# _framework density 20.451695000000001
#
# number of rings (size 3 to 8) (size 9 to 14) (size 15 to 20)
#    0.000    1.467    4.000    2.400    0.000    4.000 
#    0.000    3.333    0.000    4.000    0.000    0.000 
#    0.000    0.000    0.000    0.000    0.000    0.000 
#
# Total GULP energy -167335.215453 kJ/mol
# GULP energy per Si atom -5577.840515 kJ/mol
# Density = 2.040515 g / cm^3
# Si number density = 20.451695 Si / 1000 Ang^3
#
#
#
# Elastic Constant Matrix: (Units=GPa)
#
#
# Indices 1 2 3 4 5 6 
#
# 1 131.4553 5.0282 39.8801 0.0000 -7.7594 0.0000
# 2 5.0282 21.2865 1.6199 0.0000 -1.4625 0.0000
# 3 39.8801 1.6199 131.2198 0.0000 -5.0327 0.0000
# 4 0.0000 0.0000 0.0000 -9.4546 0.0000 -21.9322
# 5 -7.7594 -1.4625 -5.0327 0.0000 21.6859 0.0000
# 6 0.0000 0.0000 0.0000 -21.9322 0.0000 -5.3426
#
#
#
# Elastic Compliance Matrix: (Units=1/GPa)
#
#
# Indices 1 2 3 4 5 6 
#
# 1 0.008567 -0.001671 -0.002492 0.000000 0.002374 0.000000
# 2 -0.001671 0.047551 0.000021 0.000000 0.002614 0.000000
# 3 -0.002492 0.000021 0.008419 0.000000 0.001063 0.000000
# 4 0.000000 0.000000 0.000000 0.012410 0.000000 -0.050945
# 5 0.002374 0.002614 0.001063 0.000000 0.047385 0.000000
# 6 0.000000 0.000000 0.000000 -0.050945 0.000000 0.021961
#
#
# Mechanical properties :
#
#
# Convention : Reuss Voigt Hill
#
# Bulk Modulus (GPa) = 17.77683 41.89089 29.83386
# Shear Modulus (GPa) = 28.84695 17.20662 23.02679
#
# Velocity S-wave (km/s) = 3.75973 2.90372 3.35910
# Velocity P-wave (km/s) = 5.24961 5.63643 5.44646
#
# Compressibility (1/GPa) = 0.05625299
#
# Stress axis : x y z
#
# Youngs Moduli (GPa) = 116.72370 21.03011 118.78306
#
# Poissons Ratio (x) = 0.03514 0.29601
# Poissons Ratio (y) = 0.19504 -0.00250
# Poissons Ratio (z) = 0.29088 -0.00044
#
# Static dielectric constant tensor:
#      x y z
#    x 1.704090 0.000000 -0.005250 
#    y 0.000000 1.787110 0.000000 
#    z -0.005250 0.000000 1.711710 
# 
# From -- ./inp_files/63476.got.cif
#   From: 2010.05.17/outbox.cif.g08.bks.cpg/sg10_32_cif.got.tgz:63476.got - 2010.06.03 11:33:40.
