data_PCOD9147226
_publ_section_title
;
Structure prediction by ZEFSAII (Michael W. Deem and Ramdas Pophale) SiO2 
 PCOD9147226
Probable space group: P 2/M
;
_chemical_formula_sum "Si O2"
_cell_formula_units_Z 32
_cell_length_a 18.079159
_cell_length_b 14.108724
_cell_length_c 16.532116
_cell_angle_alpha 90.000000
_cell_angle_beta 22.453201
_cell_angle_gamma 90.000000
_cell_volume 1610.559157
_symmetry_space_group_name_H-M "P 2/M"
_symmetry_group_IT_number 10
_symmetry_cell_setting 'monoclinic'
loop_
_space_group_symop_operation_xyz
x,y,z
-x,y,-z
-x,-y,-z
x,-y,z
loop_
_atom_site_type_symbol
_atom_site_label
_atom_site_fract_x
_atom_site_fract_y
_atom_site_fract_z
Si Si1 0.041553 0.715658 0.092273
Si Si2 0.369150 0.391210 0.711235
Si Si3 0.280983 0.893720 0.876729
Si Si4 0.393463 0.756606 0.429036
Si Si5 0.511536 0.257140 0.127043
Si Si6 0.146373 0.387459 0.156666
Si Si7 0.105511 0.731693 0.478974
Si Si8 0.831952 0.890970 0.818770
O O1 0.150185 0.644887 0.921666
O O2 0.144752 0.816268 0.973754
O O3 0.098298 0.668811 0.122177
O O4 0.815264 0.734857 0.324061
O O5 0.500000 0.379560 0.500000
O O6 0.369821 0.500000 0.734559
O O7 0.469094 0.327414 0.678443
O O8 0.498804 0.852696 0.652568
O O9 0.211353 0.892004 0.041143
O O10 0.266409 0.000000 0.861007
O O11 0.399860 0.758623 0.325529
O O12 0.648190 0.167136 0.969782
O O13 0.337142 0.270496 0.241102
O O14 0.662219 0.342026 0.994726
O O15 0.161290 0.500000 0.129634
O O16 0.970459 0.357611 0.392886
O O17 0.000000 0.728805 0.500000
O O18 0.019196 0.827053 0.609008
O O19 0.848225 0.000000 0.775166
#
# Coordination Sequence:
#
# PCOD9147226 Si02
#       8
#     4   4   4   4   4   4   4   4
#     4  11  19  36  59  86 114 147 188 231 271 328
#     4  10  22  38  56  86 124 152 180 225 280 333
#     4   9  17  33  56  85 116 144 183 235 280 325
#     4  10  19  34  58  84 112 147 190 225 272 328
#     4  10  19  38  56  80 107 145 187 233 277 331
#     4  11  22  37  57  80 105 141 191 235 277 331
#     4  11  23  39  55  78 114 147 184 239 290 331
#     4   9  18  34  56  82 111 145 185 228 282 343
#
# _framework density 19.868874999999999
#
# number of rings (size 3 to 8) (size 9 to 14) (size 15 to 20)
#    0.000    1.875    6.250    0.375    0.000    5.500 
#    0.000    5.000    0.000    6.000    0.000    7.000 
#    0.000    0.000    0.000    0.000    0.000    0.000 
#
# Total GULP energy -178441.504962 kJ/mol
# GULP energy per Si atom -5576.297030 kJ/mol
# Density = 1.982365 g / cm^3
# Si number density = 19.868875 Si / 1000 Ang^3
#
#
#
# Elastic Constant Matrix: (Units=GPa)
#
#
# Indices 1 2 3 4 5 6 
#
# 1 32.1445 18.4937 8.2009 0.0000 -15.5695 0.0000
# 2 18.4937 122.5732 31.3204 0.0000 0.6489 0.0000
# 3 8.2009 31.3204 102.6155 0.0000 -21.2263 0.0000
# 4 0.0000 0.0000 0.0000 21.2873 0.0000 -0.8014
# 5 -15.5695 0.6489 -21.2263 0.0000 28.5539 0.0000
# 6 0.0000 0.0000 0.0000 -0.8014 0.0000 19.4639
#
#
#
# Elastic Compliance Matrix: (Units=1/GPa)
#
#
# Indices 1 2 3 4 5 6 
#
# 1 0.050283 -0.009105 0.005288 0.000000 0.031555 0.000000
# 2 -0.009105 0.010665 -0.004260 0.000000 -0.008373 0.000000
# 3 0.005288 -0.004260 0.013281 0.000000 0.012853 0.000000
# 4 0.000000 0.000000 0.000000 0.047049 0.000000 0.001937
# 5 0.031555 -0.008373 0.012853 0.000000 0.061972 0.000000
# 6 0.000000 0.000000 0.000000 0.001937 0.000000 0.051457
#
#
# Mechanical properties :
#
#
# Convention : Reuss Voigt Hill
#
# Bulk Modulus (GPa) = 17.21887 41.48480 29.35183
# Shear Modulus (GPa) = 18.50346 27.14889 22.82618
#
# Velocity S-wave (km/s) = 3.05500 3.70050 3.39313
# Velocity P-wave (km/s) = 4.59664 6.25962 5.49145
#
# Compressibility (1/GPa) = 0.05807583
#
# Stress axis : x y z
#
# Youngs Moduli (GPa) = 19.88748 93.76589 75.29372
#
# Poissons Ratio (x) = 0.85372 -0.39814
# Poissons Ratio (y) = 0.18107 0.32072
# Poissons Ratio (z) = -0.10516 0.39940
#
# Static dielectric constant tensor:
#      x y z
#    x 1.752430 0.000000 0.025770 
#    y 0.000000 1.678870 0.000000 
#    z 0.025770 0.000000 1.748180 
# 
# From -- ./inp_files/79696.got.cif
#   From: 2010.05.17/outbox.cif.g08.bks.cpg/sg10_40_cif.got.tgz:79696.got - 2010.06.03 11:33:40.
