data_PCOD9147430
_publ_section_title
;
Structure prediction by ZEFSAII (Michael W. Deem and Ramdas Pophale) SiO2 
 PCOD9147430
Probable space group: P 2/M
;
_chemical_formula_sum "Si O2"
_cell_formula_units_Z 28
_cell_length_a 12.310346
_cell_length_b 18.021827
_cell_length_c 8.426906
_cell_angle_alpha 90.000000
_cell_angle_beta 35.213808
_cell_angle_gamma 90.000000
_cell_volume 1078.037522
_symmetry_space_group_name_H-M "P 2/M"
_symmetry_group_IT_number 10
_symmetry_cell_setting 'monoclinic'
loop_
_space_group_symop_operation_xyz
x,y,z
-x,y,-z
-x,-y,-z
x,-y,z
loop_
_atom_site_type_symbol
_atom_site_label
_atom_site_fract_x
_atom_site_fract_y
_atom_site_fract_z
Si Si1 0.230259 0.415379 0.214878
Si Si2 0.821825 0.917167 0.389887
Si Si3 0.159949 0.796266 0.417640
Si Si4 0.769028 0.342432 0.461157
Si Si5 0.623153 0.082012 0.022998
Si Si6 0.287467 0.835501 0.790092
Si Si7 0.790288 0.330790 0.075523
O O1 0.282717 0.500000 0.117956
O O2 0.300186 0.391872 0.307766
O O3 0.000000 0.412202 0.500000
O O4 0.291195 0.364203 0.991847
O O5 0.931150 0.867566 0.386099
O O6 0.603687 0.920516 0.710488
O O7 0.807950 0.869715 0.249136
O O8 0.890773 0.000000 0.289517
O O9 0.245048 0.740331 0.444642
O O10 0.000000 0.759146 0.500000
O O11 0.309369 0.839466 0.130663
O O12 0.703214 0.347433 0.355676
O O13 0.993273 0.358095 0.179553
O O14 0.680783 0.094586 0.134509
O O15 0.695254 0.000000 0.886042
O O16 0.500000 0.810003 0.500000
O O17 0.195456 0.758353 0.951478
#
# Coordination Sequence:
#
# PCOD9147430 Si02
#       7
#     4   4   4   4   4   4   4
#     4   9  18  33  55  86 116 143 180 222 267 333
#     4  10  21  37  54  76 107 143 189 241 286 334
#     4  12  22  35  53  77 110 146 186 231 281 343
#     4  10  20  34  56  81 115 149 179 222 281 338
#     4  10  21  36  55  76 104 144 187 240 299 337
#     4  10  19  35  57  78 103 138 191 236 278 335
#     4  10  19  35  56  82 112 147 181 224 281 329
#
# _framework density 25.973122
#
# number of rings (size 3 to 8) (size 9 to 14) (size 15 to 20)
#    0.000    1.857    1.429    4.286    0.000    4.571 
#    0.000    2.857    0.000    3.000    0.000    1.000 
#    0.000    0.000    0.000    0.000    0.000    0.000 
#
# Total GULP energy -156503.988810 kJ/mol
# GULP energy per Si atom -5589.428172 kJ/mol
# Density = 2.591401 g / cm^3
# Si number density = 25.973122 Si / 1000 Ang^3
#
#
#
# Elastic Constant Matrix: (Units=GPa)
#
#
# Indices 1 2 3 4 5 6 
#
# 1 91.7006 28.7932 37.7192 0.0000 37.5387 0.0000
# 2 28.7932 152.6434 38.4606 0.0000 37.9773 0.0000
# 3 37.7192 38.4606 101.6946 0.0000 23.7155 0.0000
# 4 0.0000 0.0000 0.0000 39.7485 0.0000 20.6625
# 5 37.5387 37.9773 23.7155 0.0000 57.7966 0.0000
# 6 0.0000 0.0000 0.0000 20.6625 0.0000 32.1922
#
#
#
# Elastic Compliance Matrix: (Units=1/GPa)
#
#
# Indices 1 2 3 4 5 6 
#
# 1 0.016158 0.000189 -0.003968 0.000000 -0.008991 0.000000
# 2 0.000189 0.008199 -0.002085 0.000000 -0.004654 0.000000
# 3 -0.003968 -0.002085 0.012356 0.000000 -0.001122 0.000000
# 4 0.000000 0.000000 0.000000 0.037755 0.000000 -0.024233
# 5 -0.008991 -0.004654 -0.001122 0.000000 0.026660 0.000000
# 6 0.000000 0.000000 0.000000 -0.024233 0.000000 0.046617
#
#
# Mechanical properties :
#
#
# Convention : Reuss Voigt Hill
#
# Bulk Modulus (GPa) = 40.02647 61.77609 50.90128
# Shear Modulus (GPa) = 29.79681 42.01849 35.90765
#
# Velocity S-wave (km/s) = 3.39073 4.02651 3.72222
# Velocity P-wave (km/s) = 5.54740 6.74191 6.17361
#
# Compressibility (1/GPa) = 0.02498347
#
# Stress axis : x y z
#
# Youngs Moduli (GPa) = 61.88747 121.96512 80.93534
#
# Poissons Ratio (x) = -0.02301 0.32115
# Poissons Ratio (y) = -0.01168 0.16879
# Poissons Ratio (z) = 0.24557 0.25435
#
# Static dielectric constant tensor:
#      x y z
#    x 2.076120 0.000000 0.076070 
#    y 0.000000 1.959490 0.000000 
#    z 0.076070 0.000000 2.333370 
# 
# From -- ./inp_files/30104.got.cif
#   From: 2010.05.17/outbox.cif.g08.bks.cpg/sg10_16_cif.got.tgz:30104.got - 2010.06.03 11:33:40.
