data_PCOD9147443
_publ_section_title
;
Structure prediction by ZEFSAII (Michael W. Deem and Ramdas Pophale) SiO2 
 PCOD9147443
Probable space group: P 2/M
;
_chemical_formula_sum "Si O2"
_cell_formula_units_Z 32
_cell_length_a 12.311694
_cell_length_b 8.267579
_cell_length_c 29.893287
_cell_angle_alpha 90.000000
_cell_angle_beta 32.339823
_cell_angle_gamma 90.000000
_cell_volume 1627.701181
_symmetry_space_group_name_H-M "P 2/M"
_symmetry_group_IT_number 10
_symmetry_cell_setting 'monoclinic'
loop_
_space_group_symop_operation_xyz
x,y,z
-x,y,-z
-x,-y,-z
x,-y,z
loop_
_atom_site_type_symbol
_atom_site_label
_atom_site_fract_x
_atom_site_fract_y
_atom_site_fract_z
Si Si1 0.533336 0.188405 0.131457
Si Si2 0.393625 0.196052 0.797458
Si Si3 0.823285 0.804612 0.373098
Si Si4 0.803055 0.685238 0.813869
Si Si5 0.437541 0.803699 0.683665
Si Si6 0.587076 0.196295 0.539260
Si Si7 0.069487 0.313204 0.045746
Si Si8 0.036417 0.188442 0.152117
O O1 0.497939 0.247355 0.194546
O O2 0.405934 0.281405 0.138697
O O3 0.476988 0.000000 0.148319
O O4 0.770322 0.210831 0.038133
O O5 0.483178 0.250118 0.718434
O O6 0.161519 0.255770 0.879633
O O7 0.390147 0.000000 0.798850
O O8 0.627203 0.767648 0.410485
O O9 0.763567 0.750296 0.444004
O O10 0.020200 0.727963 0.282880
O O11 0.847327 0.000000 0.364468
O O12 0.819552 0.500000 0.821766
O O13 0.839709 0.788443 0.845700
O O14 0.571849 0.743917 0.595434
O O15 0.199867 0.765279 0.757267
O O16 0.450851 0.000000 0.678805
O O17 0.600359 0.000000 0.535791
O O18 0.088717 0.500000 0.026412
O O19 0.115098 0.288297 0.082542
O O20 0.036530 0.000000 0.138738
#
# Coordination Sequence:
#
# PCOD9147443 Si02
#       8
#     4   4   4   4   4   4   4   4
#     4  11  23  39  56  74  99 140 189 225 258 310
#     4   9  19  35  57  81 104 135 181 226 262 305
#     4   9  16  29  50  77 106 141 175 207 252 315
#     4  12  24  36  51  75 109 142 175 218 269 324
#     4   8  13  26  52  82 105 128 164 218 264 297
#     4   8  13  24  50  82 107 132 172 213 253 306
#     4  11  22  36  56  83 111 134 166 217 272 319
#     4  10  19  35  57  78 105 141 177 212 258 313
#
# _framework density 19.659627
#
# number of rings (size 3 to 8) (size 9 to 14) (size 15 to 20)
#    0.000    2.250    1.250    4.875    0.000    3.000 
#    0.000    3.750    0.000    0.750    0.000    5.250 
#    0.000    0.000    0.000    0.000    0.000    0.000 
#
# Total GULP energy -178543.878146 kJ/mol
# GULP energy per Si atom -5579.496192 kJ/mol
# Density = 1.961488 g / cm^3
# Si number density = 19.659627 Si / 1000 Ang^3
#
#
#
# Elastic Constant Matrix: (Units=GPa)
#
#
# Indices 1 2 3 4 5 6 
#
# 1 78.8475 -2.2563 8.7007 0.0000 26.8935 0.0000
# 2 -2.2563 21.6124 -3.7014 0.0000 -1.7577 0.0000
# 3 8.7007 -3.7014 32.7715 0.0000 21.1975 0.0000
# 4 0.0000 0.0000 0.0000 106.6800 0.0000 10.8708
# 5 26.8935 -1.7577 21.1975 0.0000 27.5828 0.0000
# 6 0.0000 0.0000 0.0000 10.8708 0.0000 10.6117
#
#
#
# Elastic Compliance Matrix: (Units=1/GPa)
#
#
# Indices 1 2 3 4 5 6 
#
# 1 0.022885 0.002432 0.016963 0.000000 -0.035194 0.000000
# 2 0.002432 0.047506 0.008541 0.000000 -0.005908 0.000000
# 3 0.016963 0.008541 0.074210 0.000000 -0.073026 0.000000
# 4 0.000000 0.000000 0.000000 0.010466 0.000000 -0.010722
# 5 -0.035194 -0.005908 -0.073026 0.000000 0.126313 0.000000
# 6 0.000000 0.000000 0.000000 -0.010722 0.000000 0.105220
#
#
# Mechanical properties :
#
#
# Convention : Reuss Voigt Hill
#
# Bulk Modulus (GPa) = 4.98817 15.41303 10.20060
# Shear Modulus (GPa) = 12.57698 37.67413 25.12556
#
# Velocity S-wave (km/s) = 2.53205 4.38233 3.57883
# Velocity P-wave (km/s) = 3.33033 5.78475 4.71988
#
# Compressibility (1/GPa) = 0.20047422
#
# Stress axis : x y z
#
# Youngs Moduli (GPa) = 43.69765 21.04998 13.47522
#
# Poissons Ratio (x) = -0.05119 -0.22858
# Poissons Ratio (y) = -0.10627 -0.11510
# Poissons Ratio (z) = -0.74126 -0.17980
#
# Static dielectric constant tensor:
#      x y z
#    x 1.712830 0.000000 0.035840 
#    y 0.000000 1.668500 0.000000 
#    z 0.035840 0.000000 1.688030 
# 
# From -- ./inp_files/83589.got.cif
#   From: 2010.05.17/outbox.cif.g08.bks.cpg/sg10_42_cif.got.tgz:83589.got - 2010.06.03 11:33:40.
