data_PCOD9147748
_publ_section_title
;
Structure prediction by ZEFSAII (Michael W. Deem and Ramdas Pophale) SiO2 
 PCOD9147748
Probable space group: P 2/M
;
_chemical_formula_sum "Si O2"
_cell_formula_units_Z 30
_cell_length_a 15.689996
_cell_length_b 15.482333
_cell_length_c 21.130860
_cell_angle_alpha 90.000000
_cell_angle_beta 18.414251
_cell_angle_gamma 90.000000
_cell_volume 1621.457111
_symmetry_space_group_name_H-M "P 2/M"
_symmetry_group_IT_number 10
_symmetry_cell_setting 'monoclinic'
loop_
_space_group_symop_operation_xyz
x,y,z
-x,y,-z
-x,-y,-z
x,-y,z
loop_
_atom_site_type_symbol
_atom_site_label
_atom_site_fract_x
_atom_site_fract_y
_atom_site_fract_z
Si Si1 0.275679 0.400427 0.842939
Si Si2 0.142396 0.231149 0.145270
Si Si3 0.284706 0.098604 0.829692
Si Si4 0.314589 0.901582 0.571119
Si Si5 0.500000 0.746833 0.000000
Si Si6 0.478990 0.753080 0.785157
Si Si7 0.865332 0.594413 0.388599
Si Si8 0.976001 0.338998 0.590950
O O1 0.738700 0.500000 0.123899
O O2 0.336376 0.330234 0.853681
O O3 0.542079 0.395468 0.610977
O O4 0.000000 0.381664 0.000000
O O5 0.920962 0.165548 0.275639
O O6 0.011461 0.324268 0.254146
O O7 0.286888 0.201519 0.108073
O O8 0.367025 0.239362 0.933870
O O9 0.497856 0.097955 0.622693
O O10 0.389680 0.164268 0.807981
O O11 0.250590 0.000000 0.877344
O O12 0.000000 0.126475 0.000000
O O13 0.500000 0.876789 0.500000
O O14 0.217259 0.000000 0.651113
O O15 0.319116 0.690474 0.176643
O O16 0.799930 0.737002 0.560015
O O17 0.946747 0.500000 0.306686
O O18 0.929285 0.597531 0.419180
O O19 0.000000 0.367112 0.500000
#
# Coordination Sequence:
#
# PCOD9147748 Si02
#       8
#     4   4   4   4   2   4   4   4
#     4   9  18  34  54  77 110 150 189 234 286 341
#     4  11  22  36  58  82 117 156 192 244 295 350
#     4  10  20  35  56  83 115 148 187 236 285 343
#     4  10  21  38  60  88 118 149 190 240 295 352
#     4  10  20  38  58  84 118 154 196 248 294 348
#     4  11  21  34  58  84 110 152 193 236 286 351
#     4   9  20  36  55  81 114 152 195 242 285 341
#     4  10  19  36  58  81 111 148 197 240 294 342
#
# _framework density 18.501877
#
# number of rings (size 3 to 8) (size 9 to 14) (size 15 to 20)
#    0.000    2.000    1.333    3.600    0.000    3.467 
#    0.000    5.667    0.000    4.000    0.000    0.000 
#    0.000    0.000    0.000    0.000    0.000    0.000 
#
# Total GULP energy -167232.884122 kJ/mol
# GULP energy per Si atom -5574.429471 kJ/mol
# Density = 1.845977 g / cm^3
# Si number density = 18.501877 Si / 1000 Ang^3
#
#
#
# Elastic Constant Matrix: (Units=GPa)
#
#
# Indices 1 2 3 4 5 6 
#
# 1 83.6333 42.7021 33.8681 0.0000 -3.0888 0.0000
# 2 42.7021 75.1544 31.8884 0.0000 -10.7266 0.0000
# 3 33.8681 31.8884 93.8004 0.0000 -4.7934 0.0000
# 4 0.0000 0.0000 0.0000 -13.0586 0.0000 -17.9097
# 5 -3.0888 -10.7266 -4.7934 0.0000 33.9005 0.0000
# 6 0.0000 0.0000 0.0000 -17.9097 0.0000 -21.4907
#
#
#
# Elastic Compliance Matrix: (Units=1/GPa)
#
#
# Indices 1 2 3 4 5 6 
#
# 1 0.017860 -0.008899 -0.003509 0.000000 -0.001685 0.000000
# 2 -0.008899 0.020601 -0.003524 0.000000 0.005209 0.000000
# 3 -0.003509 -0.003524 0.013148 0.000000 0.000424 0.000000
# 4 0.000000 0.000000 0.000000 0.535690 0.000000 -0.446427
# 5 -0.001685 0.005209 0.000424 0.000000 0.031053 0.000000
# 6 0.000000 0.000000 0.000000 -0.446427 0.000000 0.325507
#
#
# Mechanical properties :
#
#
# Convention : Reuss Voigt Hill
#
# Bulk Modulus (GPa) = 50.64980 52.16726 51.40853
# Shear Modulus (GPa) = 5.09007 9.47887 7.28447
#
# Velocity S-wave (km/s) = 1.66045 2.26590 1.98638
# Velocity P-wave (km/s) = 5.57773 5.92475 5.75385
#
# Compressibility (1/GPa) = 0.01974342
#
# Stress axis : x y z
#
# Youngs Moduli (GPa) = 55.99213 48.54075 76.05858
#
# Poissons Ratio (x) = 0.43197 0.26691
# Poissons Ratio (y) = 0.49828 0.26805
# Poissons Ratio (z) = 0.19649 0.17107
#
# Static dielectric constant tensor:
#      x y z
#    x 1.651700 0.000000 -0.013770 
#    y 0.000000 1.634960 0.000000 
#    z -0.013770 0.000000 1.663500 
# 
# From -- ./inp_files/85338.got.cif
#   From: 2010.05.17/outbox.cif.g08.bks.cpg/sg10_43_cif.got.tgz:85338.got - 2010.06.03 11:33:40.
