data_PCOD9147003
_publ_section_title
;
Structure prediction by ZEFSAII (Michael W. Deem and Ramdas Pophale) SiO2 
 PCOD9147003
Probable space group: P 2/M
;
_chemical_formula_sum "Si O2"
_cell_formula_units_Z 32
_cell_length_a 14.349693
_cell_length_b 8.417665
_cell_length_c 14.694720
_cell_angle_alpha 90.000000
_cell_angle_beta 120.027620
_cell_angle_gamma 90.000000
_cell_volume 1536.757197
_symmetry_space_group_name_H-M "P 2/M"
_symmetry_group_IT_number 10
_symmetry_cell_setting 'monoclinic'
loop_
_space_group_symop_operation_xyz
x,y,z
-x,y,-z
-x,-y,-z
x,-y,z
loop_
_atom_site_type_symbol
_atom_site_label
_atom_site_fract_x
_atom_site_fract_y
_atom_site_fract_z
Si Si1 0.614406 0.192489 0.347786
Si Si2 0.793239 0.190996 0.291812
Si Si3 0.803756 0.189693 0.793693
Si Si4 0.030984 0.681973 0.870697
Si Si5 0.019728 0.683336 0.371655
Si Si6 0.747119 0.811244 0.066405
Si Si7 0.753671 0.690905 0.568161
Si Si8 0.616730 0.805579 0.839185
O O1 0.707016 0.247191 0.322996
O O2 0.648502 0.256649 0.462671
O O3 0.498380 0.245500 0.254838
O O4 0.614789 0.000000 0.351001
O O5 0.759626 0.253042 0.174741
O O6 0.917430 0.236712 0.368191
O O7 0.788477 0.000000 0.287636
O O8 0.763945 0.239996 0.673929
O O9 0.713598 0.244175 0.820426
O O10 0.923294 0.258400 0.866858
O O11 0.811856 0.000000 0.801559
O O12 0.052406 0.500000 0.905118
O O13 0.140592 0.780254 0.931445
O O14 0.002713 0.689452 0.748525
O O15 0.021139 0.500000 0.400315
O O16 0.140435 0.750264 0.436312
O O17 0.734077 0.000000 0.068966
O O18 0.649671 0.751537 0.956468
O O19 0.760861 0.500000 0.577037
O O20 0.615256 0.000000 0.839171
#
# Coordination Sequence:
#
# PCOD9147003 Si02
#       8
#     4   4   4   4   4   4   4   4
#     4  10  21  37  53  75 105 138 177 220 259 305
#     4   9  18  31  53  81 106 133 170 214 258 300
#     4  10  19  34  56  79 103 137 174 214 260 310
#     4   9  17  31  51  79 110 138 168 210 261 313
#     4   8  16  31  51  73 102 134 165 203 257 318
#     4   9  17  33  55  79 106 139 175 213 255 307
#     4  10  21  37  55  78 105 137 172 213 264 315
#     4   9  20  36  54  76 104 138 180 219 257 306
#
# _framework density 20.823067999999999
#
# number of rings (size 3 to 8) (size 9 to 14) (size 15 to 20)
#    0.000    2.750    0.000    1.875    0.000    6.000 
#    0.000   13.125    0.000    0.000    0.000    4.375 
#    0.000    0.000    0.000    0.000    0.000    0.000 
#
# Total GULP energy -178581.749072 kJ/mol
# GULP energy per Si atom -5580.679658 kJ/mol
# Density = 2.077567 g / cm^3
# Si number density = 20.823068 Si / 1000 Ang^3
#
#
#
# Elastic Constant Matrix: (Units=GPa)
#
#
# Indices 1 2 3 4 5 6 
#
# 1 40.7829 -5.7856 9.8146 0.0000 -3.7779 0.0000
# 2 -5.7856 6.5853 -8.6177 0.0000 -4.3398 0.0000
# 3 9.8146 -8.6177 91.4285 0.0000 16.3183 0.0000
# 4 0.0000 0.0000 0.0000 7.1425 0.0000 7.4354
# 5 -3.7779 -4.3398 16.3183 0.0000 27.1284 0.0000
# 6 0.0000 0.0000 0.0000 7.4354 0.0000 -24.8899
#
#
#
# Elastic Compliance Matrix: (Units=1/GPa)
#
#
# Indices 1 2 3 4 5 6 
#
# 1 0.030382 0.030668 -0.002242 0.000000 0.010486 0.000000
# 2 0.030668 0.214482 0.011245 0.000000 0.031818 0.000000
# 3 -0.002242 0.011245 0.013413 0.000000 -0.006581 0.000000
# 4 0.000000 0.000000 0.000000 0.106795 0.000000 0.031903
# 5 0.010486 0.031818 -0.006581 0.000000 0.047371 0.000000
# 6 0.000000 0.000000 0.000000 0.031903 0.000000 -0.030646
#
#
# Mechanical properties :
#
#
# Convention : Reuss Voigt Hill
#
# Bulk Modulus (GPa) = 2.96192 14.40215 8.68203
# Shear Modulus (GPa) = 12.04839 11.43523 11.74181
#
# Velocity S-wave (km/s) = 2.40804 2.34596 2.37720
# Velocity P-wave (km/s) = 3.02606 3.77750 3.42247
#
# Compressibility (1/GPa) = 0.33761870
#
# Stress axis : x y z
#
# Youngs Moduli (GPa) = 32.91456 4.66240 74.55568
#
# Poissons Ratio (x) = -0.14299 0.16717
# Poissons Ratio (y) = -1.00943 -0.83840
# Poissons Ratio (z) = 0.07380 -0.05243
#
# Static dielectric constant tensor:
#      x y z
#    x 1.748710 0.000000 -0.018750 
#    y 0.000000 1.718050 0.000000 
#    z -0.018750 0.000000 1.791710 
# 
# From -- ./inp_files/66568.got.cif
#   From: 2010.05.17/outbox.cif.g08.bks.cpg/sg10_34_cif.got.tgz:66568.got - 2010.06.03 11:33:40.
