data_PCOD9147039
_publ_section_title
;
Structure prediction by ZEFSAII (Michael W. Deem and Ramdas Pophale) SiO2 
 PCOD9147039
Probable space group: P 2/M
;
_chemical_formula_sum "Si O2"
_cell_formula_units_Z 32
_cell_length_a 12.983213
_cell_length_b 7.674223
_cell_length_c 14.486637
_cell_angle_alpha 90.000000
_cell_angle_beta 90.139118
_cell_angle_gamma 90.000000
_cell_volume 1443.387350
_symmetry_space_group_name_H-M "P 2/M"
_symmetry_group_IT_number 10
_symmetry_cell_setting 'monoclinic'
loop_
_space_group_symop_operation_xyz
x,y,z
-x,y,-z
-x,-y,-z
x,-y,z
loop_
_atom_site_type_symbol
_atom_site_label
_atom_site_fract_x
_atom_site_fract_y
_atom_site_fract_z
Si Si1 0.836876 0.802341 0.500279
Si Si2 0.385130 0.709706 0.473145
Si Si3 0.120651 0.709634 0.286862
Si Si4 0.707041 0.711352 0.858362
Si Si5 0.458569 0.711989 0.280541
Si Si6 0.104011 0.298819 0.694900
Si Si7 0.390378 0.795480 0.958762
Si Si8 0.677547 0.702465 0.244000
O O1 0.714565 0.787752 0.480460
O O2 0.851210 0.742804 0.605740
O O3 0.892207 0.704324 0.416811
O O4 0.871354 0.000000 0.494121
O O5 0.500000 0.763485 0.500000
O O6 0.378890 0.500000 0.485254
O O7 0.384527 0.753718 0.364985
O O8 0.119700 0.500000 0.278278
O O9 0.200967 0.771667 0.208928
O O10 0.004529 0.778918 0.273584
O O11 0.708638 0.500000 0.858598
O O12 0.599994 0.770170 0.810453
O O13 0.696667 0.772088 0.962956
O O14 0.465245 0.500000 0.278770
O O15 0.574567 0.778221 0.291026
O O16 0.102861 0.500000 0.725821
O O17 0.211043 0.219631 0.732536
O O18 0.352375 0.709247 0.863993
O O19 0.404288 0.000000 0.939446
O O20 0.500000 0.727031 0.000000
O O21 0.683556 0.500000 0.274476
#
# Coordination Sequence:
#
# PCOD9147039 Si02
#       8
#     4   4   4   4   4   4   4   4
#     4  12  24  36  55  85 121 158 195 236 287 349
#     4  10  19  34  56  81 113 153 196 240 286 339
#     4  10  21  40  63  85 112 149 198 249 287 330
#     4  10  19  35  60  85 109 142 186 235 285 333
#     4   9  16  29  53  82 109 139 180 231 282 332
#     4  10  22  40  62  85 111 149 198 247 289 335
#     4  11  23  37  56  86 120 151 183 224 281 347
#     4  10  20  37  61  87 112 144 188 236 288 341
#
# _framework density 22.170072000000001
#
# number of rings (size 3 to 8) (size 9 to 14) (size 15 to 20)
#    0.000    1.750    2.500    2.625    0.000    5.750 
#    0.000    1.250    0.000    3.750    0.000    0.000 
#    0.000    0.000    0.000    0.000    0.000    0.000 
#
# Total GULP energy -178662.810262 kJ/mol
# GULP energy per Si atom -5583.212821 kJ/mol
# Density = 2.211961 g / cm^3
# Si number density = 22.170072 Si / 1000 Ang^3
#
#
#
# Elastic Constant Matrix: (Units=GPa)
#
#
# Indices 1 2 3 4 5 6 
#
# 1 157.3652 5.1102 36.7001 0.0000 -13.9279 0.0000
# 2 5.1102 46.5193 -9.5564 0.0000 0.0710 0.0000
# 3 36.7001 -9.5564 73.8141 0.0000 -10.5861 0.0000
# 4 0.0000 0.0000 0.0000-2952.8173 0.0000 2590.5990
# 5 -13.9279 0.0710 -10.5861 0.0000 23.3084 0.0000
# 6 0.0000 0.0000 0.0000 2590.5990 0.0000-2331.8250
#
#
#
# Elastic Compliance Matrix: (Units=1/GPa)
#
#
# Indices 1 2 3 4 5 6 
#
# 1 0.007477 -0.001546 -0.003505 0.000000 0.002881 0.000000
# 2 -0.001546 0.022441 0.003778 0.000000 0.000724 0.000000
# 3 -0.003505 0.003778 0.016555 0.000000 0.005413 0.000000
# 4 0.000000 0.000000 0.000000 -0.013382 0.000000 -0.014867
# 5 0.002881 0.000724 0.005413 0.000000 0.047081 0.000000
# 6 0.000000 0.000000 0.000000 -0.014867 0.000000 -0.016946
#
#
# Mechanical properties :
#
#
# Convention : Reuss Voigt Hill
#
# Bulk Modulus (GPa) = 22.76419 38.02293 30.39356
# Shear Modulus (GPa) = 62.17762 -1035.90378 -486.86308
#
# Velocity S-wave (km/s) = 5.30157 -21.63949 -14.83511
# Velocity P-wave (km/s) = 6.91128 24.64080 16.72428
#
# Compressibility (1/GPa) = 0.04392865
#
# Stress axis : x y z
#
# Youngs Moduli (GPa) = 133.74090 44.56089 60.40307
#
# Poissons Ratio (x) = 0.06888 0.21169
# Poissons Ratio (y) = 0.20672 -0.22818
# Poissons Ratio (z) = 0.46870 -0.16834
#
# Static dielectric constant tensor:
#      x y z
#    x 1.855470 0.000000 0.011910 
#    y 0.000000 1.830080 0.000000 
#    z 0.011910 0.000000 1.832850 
# 
# From -- ./inp_files/63766.got.cif
#   From: 2010.05.17/outbox.cif.g08.bks.cpg/sg10_32_cif.got.tgz:63766.got - 2010.06.03 11:33:40.
