data_PCOD9147910
_publ_section_title
;
Structure prediction by ZEFSAII (Michael W. Deem and Ramdas Pophale) SiO2 
 PCOD9147910
Probable space group: P 2/M
;
_chemical_formula_sum "Si O2"
_cell_formula_units_Z 28
_cell_length_a 14.454442
_cell_length_b 21.895268
_cell_length_c 8.712213
_cell_angle_alpha 90.000000
_cell_angle_beta 150.216243
_cell_angle_gamma 90.000000
_cell_volume 1369.615510
_symmetry_space_group_name_H-M "P 2/M"
_symmetry_group_IT_number 10
_symmetry_cell_setting 'monoclinic'
loop_
_space_group_symop_operation_xyz
x,y,z
-x,y,-z
-x,-y,-z
x,-y,z
loop_
_atom_site_type_symbol
_atom_site_label
_atom_site_fract_x
_atom_site_fract_y
_atom_site_fract_z
Si Si1 0.447854 0.930367 0.601496
Si Si2 0.202966 0.631535 0.003905
Si Si3 0.048129 0.500000 0.882206
Si Si4 0.694816 0.167609 0.375767
Si Si5 0.356089 0.500000 0.658523
Si Si6 0.878252 0.701249 0.668276
Si Si7 0.566337 0.370560 0.360829
Si Si8 0.818591 0.065102 0.341387
O O1 0.500000 0.919874 0.500000
O O2 0.342614 0.872329 0.524126
O O3 0.365504 0.000000 0.492574
O O4 0.636970 0.932597 0.973265
O O5 0.330907 0.649324 0.334478
O O6 0.345252 0.637376 0.066032
O O7 0.143192 0.561505 0.956042
O O8 0.018671 0.673537 0.743086
O O9 0.836134 0.500000 0.525835
O O10 0.000000 0.500000 0.000000
O O11 0.809021 0.229516 0.558808
O O12 0.814074 0.121571 0.445614
O O13 0.500000 0.177901 0.000000
O O14 0.388009 0.441230 0.600034
O O15 0.500000 0.500000 0.000000
O O16 0.685321 0.663496 0.402201
O O17 0.000000 0.692920 0.000000
O O18 0.000000 0.066137 0.500000
O O19 0.810822 0.000000 0.415313
#
# Coordination Sequence:
#
# PCOD9147910 Si02
#       8
#     4   4   2   4   2   4   4   4
#     4   9  18  35  59  88 117 149 194 246 296 346
#     4  10  19  36  65  88 106 146 200 241 282 343
#     4  12  17  35  65  86 112 143 190 239 286 344
#     4  10  21  38  58  83 119 162 195 237 302 358
#     4  12  23  35  59  88 123 148 178 242 302 346
#     4  10  21  39  58  84 117 151 197 245 285 345
#     4  10  20  38  60  87 112 149 190 239 294 341
#     4   9  18  35  59  86 117 153 195 240 292 358
#
# _framework density 20.443694000000001
#
# number of rings (size 3 to 8) (size 9 to 14) (size 15 to 20)
#    0.000    2.000    2.857    1.286    0.000    4.571 
#   10.286    1.429    0.000    4.286    0.000    0.000 
#    0.000    0.000    0.000    0.000    0.000    0.000 
#
# Total GULP energy -156008.837672 kJ/mol
# GULP energy per Si atom -5571.744203 kJ/mol
# Density = 2.039716 g / cm^3
# Si number density = 20.443694 Si / 1000 Ang^3
#
#
#
# Elastic Constant Matrix: (Units=GPa)
#
#
# Indices 1 2 3 4 5 6 
#
# 1 119.4178 72.9418 35.7600 0.0000 39.8417 0.0000
# 2 72.9418 151.0319 26.1780 0.0000 33.2422 0.0000
# 3 35.7600 26.1780 42.6015 0.0000 27.9949 0.0000
# 4 0.0000 0.0000 0.0000 32.5551 0.0000 14.1691
# 5 39.8417 33.2422 27.9949 0.0000 39.1642 0.0000
# 6 0.0000 0.0000 0.0000 14.1691 0.0000 -14.5032
#
#
#
# Elastic Compliance Matrix: (Units=1/GPa)
#
#
# Indices 1 2 3 4 5 6 
#
# 1 0.015494 -0.004848 -0.004475 0.000000 -0.008448 0.000000
# 2 -0.004848 0.009676 0.000527 0.000000 -0.003659 0.000000
# 3 -0.004475 0.000527 0.045652 0.000000 -0.028528 0.000000
# 4 0.000000 0.000000 0.000000 0.021553 0.000000 0.021056
# 5 -0.008448 -0.003659 -0.028528 0.000000 0.057625 0.000000
# 6 0.000000 0.000000 0.000000 0.021056 0.000000 -0.048379
#
#
# Mechanical properties :
#
#
# Convention : Reuss Voigt Hill
#
# Bulk Modulus (GPa) = 18.78593 64.75677 41.77135
# Shear Modulus (GPa) = 36.50841 23.32133 29.91487
#
# Velocity S-wave (km/s) = 4.23046 3.38118 3.82944
# Velocity P-wave (km/s) = 5.75078 6.85475 6.32689
#
# Compressibility (1/GPa) = 0.05323134
#
# Stress axis : x y z
#
# Youngs Moduli (GPa) = 64.54268 103.34698 21.90478
#
# Poissons Ratio (x) = 0.50099 0.09803
# Poissons Ratio (y) = 0.31288 -0.01155
# Poissons Ratio (z) = 0.28883 -0.05451
#
# Static dielectric constant tensor:
#      x y z
#    x 1.759360 0.000000 0.010760 
#    y 0.000000 1.727430 0.000000 
#    z 0.010760 0.000000 1.769090 
# 
# From -- ./inp_files/30522.got.cif
#   From: 2010.05.17/outbox.cif.g08.bks.cpg/sg10_16_cif.got.tgz:30522.got - 2010.06.03 11:33:40.
