data_PCOD9147390
_publ_section_title
;
Structure prediction by ZEFSAII (Michael W. Deem and Ramdas Pophale) SiO2 
 PCOD9147390
Probable space group: P 2/M
;
_chemical_formula_sum "Si O2"
_cell_formula_units_Z 32
_cell_length_a 14.134939
_cell_length_b 20.949327
_cell_length_c 5.630490
_cell_angle_alpha 90.000000
_cell_angle_beta 112.326993
_cell_angle_gamma 90.000000
_cell_volume 1542.291345
_symmetry_space_group_name_H-M "P 2/M"
_symmetry_group_IT_number 10
_symmetry_cell_setting 'monoclinic'
loop_
_space_group_symop_operation_xyz
x,y,z
-x,y,-z
-x,-y,-z
x,-y,z
loop_
_atom_site_type_symbol
_atom_site_label
_atom_site_fract_x
_atom_site_fract_y
_atom_site_fract_z
Si Si1 0.260727 0.858671 0.685249
Si Si2 0.390730 0.425101 0.612581
Si Si3 0.595027 0.069386 0.906278
Si Si4 0.393597 0.191005 0.436681
Si Si5 0.250038 0.261744 0.000114
Si Si6 0.051751 0.167884 0.297639
Si Si7 0.622112 0.621407 0.904059
Si Si8 0.975905 0.313690 0.224154
O O1 0.297510 0.921755 0.851879
O O2 0.365869 0.835225 0.664998
O O3 0.230926 0.802249 0.834691
O O4 0.166177 0.860213 0.416560
O O5 0.408051 0.500000 0.585566
O O6 0.338109 0.396947 0.323962
O O7 0.500963 0.390604 0.753663
O O8 0.342409 0.417975 0.829447
O O9 0.592535 0.000000 0.782699
O O10 0.500000 0.070194 0.000000
O O11 0.595946 0.129813 0.729057
O O12 0.500000 0.226776 0.500000
O O13 0.298374 0.236172 0.288447
O O14 0.143590 0.297244 0.903167
O O15 0.339274 0.308041 0.993804
O O16 0.000000 0.148231 0.500000
O O17 0.040095 0.245916 0.285325
O O18 0.000000 0.147907 0.000000
O O19 0.000000 0.344873 0.500000
O O20 0.000000 0.347881 0.000000
#
# Coordination Sequence:
#
# PCOD9147390 Si02
#       8
#     4   4   4   4   4   4   4   4
#     4  11  22  38  59  84 115 158 194 245 300 370
#     4  10  20  39  57  79 115 166 211 242 284 335
#     4  10  22  41  58  82 113 152 209 251 291 351
#     4  11  23  35  55  82 117 160 188 237 301 365
#     4  11  24  34  54  87 126 149 197 236 305 370
#     4  10  19  35  59  84 107 154 195 233 295 358
#     4  10  21  32  56  83 115 158 196 247 286 338
#     4  10  19  35  55  79 110 163 189 238 289 362
#
# _framework density 20.748348
#
# number of rings (size 3 to 8) (size 9 to 14) (size 15 to 20)
#    0.000    1.625    3.750    3.375    5.250    1.750 
#    0.000    0.000    0.000    0.750    0.000    0.000 
#    0.000   17.000    0.000    0.000    0.000    0.000 
#
# Total GULP energy -178154.918624 kJ/mol
# GULP energy per Si atom -5567.341207 kJ/mol
# Density = 2.070112 g / cm^3
# Si number density = 20.748348 Si / 1000 Ang^3
#
#
#
# Elastic Constant Matrix: (Units=GPa)
#
#
# Indices 1 2 3 4 5 6 
#
# 1 44.7447 -4.5682 17.4574 0.0000 6.4353 0.0000
# 2 -4.5682 48.4839 4.0699 0.0000 11.1786 0.0000
# 3 17.4574 4.0699 129.2552 0.0000 -4.9426 0.0000
# 4 0.0000 0.0000 0.0000 3.7094 0.0000 -5.0202
# 5 6.4353 11.1786 -4.9426 0.0000 41.2253 0.0000
# 6 0.0000 0.0000 0.0000 -5.0202 0.0000 4.8888
#
#
#
# Elastic Compliance Matrix: (Units=1/GPa)
#
#
# Indices 1 2 3 4 5 6 
#
# 1 0.024969 0.003909 -0.003702 0.000000 -0.005401 0.000000
# 2 0.003909 0.022723 -0.001509 0.000000 -0.006953 0.000000
# 3 -0.003702 -0.001509 0.008360 0.000000 0.001989 0.000000
# 4 0.000000 0.000000 0.000000 -0.691695 0.000000 -0.710282
# 5 -0.005401 -0.006953 0.001989 0.000000 0.027224 0.000000
# 6 0.000000 0.000000 0.000000 -0.710282 0.000000 -0.524819
#
#
# Mechanical properties :
#
#
# Convention : Reuss Voigt Hill
#
# Bulk Modulus (GPa) = 18.70983 28.48914 23.59949
# Shear Modulus (GPa) = -4.49311 23.66633 9.58661
#
# Velocity S-wave (km/s) = -1.47317 3.38100 2.15185
# Velocity P-wave (km/s) = 2.47860 5.38536 4.19199
#
# Compressibility (1/GPa) = 0.05344784
#
# Stress axis : x y z
#
# Youngs Moduli (GPa) = 40.04921 44.00740 119.61389
#
# Poissons Ratio (x) = -0.17201 0.44281
# Poissons Ratio (y) = -0.15654 0.18053
# Poissons Ratio (z) = 0.14826 0.06642
#
# Static dielectric constant tensor:
#      x y z
#    x 1.805400 0.000000 -0.032860 
#    y 0.000000 1.740360 0.000000 
#    z -0.032860 0.000000 1.887390 
# 
# From -- ./inp_files/10080.got.cif
#   From: 2010.05.17/outbox.cif.g08.bks.cpg/sg10_6_cif.got.tgz:10080.got - 2010.06.03 11:33:40.
