data_PCOD9147917
_publ_section_title
;
Structure prediction by ZEFSAII (Michael W. Deem and Ramdas Pophale) SiO2 
 PCOD9147917
Probable space group: P 2/M
;
_chemical_formula_sum "Si O2"
_cell_formula_units_Z 26
_cell_length_a 8.453688
_cell_length_b 21.080112
_cell_length_c 8.239214
_cell_angle_alpha 90.000000
_cell_angle_beta 53.398734
_cell_angle_gamma 90.000000
_cell_volume 1178.730722
_symmetry_space_group_name_H-M "P 2/M"
_symmetry_group_IT_number 10
_symmetry_cell_setting 'monoclinic'
loop_
_space_group_symop_operation_xyz
x,y,z
-x,y,-z
-x,-y,-z
x,-y,z
loop_
_atom_site_type_symbol
_atom_site_label
_atom_site_fract_x
_atom_site_fract_y
_atom_site_fract_z
Si Si1 0.945244 0.667705 0.366022
Si Si2 0.832210 0.425604 0.962275
Si Si3 0.681369 0.166118 0.307837
Si Si4 0.621355 0.072456 0.075235
Si Si5 0.584933 0.427686 0.628678
Si Si6 0.948182 0.928063 0.341454
Si Si7 0.000000 0.253645 0.000000
O O1 0.745587 0.627749 0.515177
O O2 0.000000 0.702417 0.500000
O O3 0.106894 0.613488 0.231192
O O4 0.960351 0.708966 0.192486
O O5 0.841037 0.500000 0.926726
O O6 0.609917 0.409988 0.150001
O O7 0.000000 0.413653 0.000000
O O8 0.500000 0.202653 0.500000
O O9 0.588469 0.110831 0.256808
O O10 0.819917 0.129776 0.351416
O O11 0.809260 0.209097 0.109956
O O12 0.555943 0.000000 0.136624
O O13 0.500000 0.100328 0.000000
O O14 0.849882 0.072631 0.885401
O O15 0.500000 0.434481 0.500000
O O16 0.653888 0.500000 0.633466
O O17 0.000000 0.921136 0.500000
O O18 0.863388 0.000000 0.371636
#
# Coordination Sequence:
#
# PCOD9147917 Si02
#       7
#     4   4   4   4   4   4   2
#     4  12  26  45  70  95 132 181 231 288 336 397
#     4  10  19  37  68 103 139 173 210 272 346 413
#     4  12  25  44  69  92 128 179 223 278 342 400
#     4  10  20  38  66 104 140 168 207 266 340 418
#     4  10  19  36  69 106 138 175 214 267 348 421
#     4  10  20  37  66 103 140 171 210 269 337 414
#     4  12  28  52  66  90 132 180 248 292 324 384
#
# _framework density 22.057625000000002
#
# number of rings (size 3 to 8) (size 9 to 14) (size 15 to 20)
#    0.000    1.231    3.846    1.846    0.000    8.000 
#    2.769    1.538    0.000    0.000    0.000    0.000 
#    0.000    0.000    0.000    0.000    0.000    0.000 
#
# Total GULP energy -145183.413092 kJ/mol
# GULP energy per Si atom -5583.977427 kJ/mol
# Density = 2.200742 g / cm^3
# Si number density = 22.057625 Si / 1000 Ang^3
#
#
#
# Elastic Constant Matrix: (Units=GPa)
#
#
# Indices 1 2 3 4 5 6 
#
# 1 64.7478 30.0605 27.2740 0.0000 10.6286 0.0000
# 2 30.0605 52.5000 24.8070 0.0000 -0.6940 0.0000
# 3 27.2740 24.8070 96.9123 0.0000 -13.0691 0.0000
# 4 0.0000 0.0000 0.0000 31.4695 0.0000 -23.8175
# 5 10.6286 -0.6940 -13.0691 0.0000 42.0789 0.0000
# 6 0.0000 0.0000 0.0000 -23.8175 0.0000 53.3904
#
#
#
# Elastic Compliance Matrix: (Units=1/GPa)
#
#
# Indices 1 2 3 4 5 6 
#
# 1 0.024192 -0.011649 -0.004881 0.000000 -0.007819 0.000000
# 2 -0.011649 0.027360 -0.003410 0.000000 0.002335 0.000000
# 3 -0.004881 -0.003410 0.013280 0.000000 0.005301 0.000000
# 4 0.000000 0.000000 0.000000 0.047974 0.000000 0.021401
# 5 -0.007819 0.002335 0.005301 0.000000 0.027425 0.000000
# 6 0.000000 0.000000 0.000000 0.021401 0.000000 0.028277
#
#
# Mechanical properties :
#
#
# Convention : Reuss Voigt Hill
#
# Bulk Modulus (GPa) = 40.07732 42.04924 41.06328
# Shear Modulus (GPa) = 23.07267 34.18900 28.63084
#
# Velocity S-wave (km/s) = 3.23773 3.94126 3.60669
# Velocity P-wave (km/s) = 5.67327 6.31000 6.00009
#
# Compressibility (1/GPa) = 0.02495177
#
# Stress axis : x y z
#
# Youngs Moduli (GPa) = 41.33529 36.54983 75.30074
#
# Poissons Ratio (x) = 0.42577 0.36754
# Poissons Ratio (y) = 0.48152 0.25679
# Poissons Ratio (z) = 0.20176 0.12464
#
# Static dielectric constant tensor:
#      x y z
#    x 1.863750 0.000000 0.004490 
#    y 0.000000 1.854660 0.000000 
#    z 0.004490 0.000000 1.920490 
# 
# From -- ./inp_files/20427.got.cif
#   From: 2010.05.17/outbox.cif.g08.bks.cpg/sg10_11_cif.got.tgz:20427.got - 2010.06.03 11:33:40.
