data_PCOD9147342
_publ_section_title
;
Structure prediction by ZEFSAII (Michael W. Deem and Ramdas Pophale) SiO2 
 PCOD9147342
Probable space group: P 2/M
;
_chemical_formula_sum "Si O2"
_cell_formula_units_Z 28
_cell_length_a 19.013736
_cell_length_b 16.307731
_cell_length_c 8.795049
_cell_angle_alpha 90.000000
_cell_angle_beta 28.120639
_cell_angle_gamma 90.000000
_cell_volume 1285.357645
_symmetry_space_group_name_H-M "P 2/M"
_symmetry_group_IT_number 10
_symmetry_cell_setting 'monoclinic'
loop_
_space_group_symop_operation_xyz
x,y,z
-x,y,-z
-x,-y,-z
x,-y,z
loop_
_atom_site_type_symbol
_atom_site_label
_atom_site_fract_x
_atom_site_fract_y
_atom_site_fract_z
Si Si1 0.146640 0.659552 0.308312
Si Si2 0.338137 0.500000 0.606795
Si Si3 0.620879 0.653099 0.658806
Si Si4 0.319951 0.200797 0.806794
Si Si5 0.134353 0.762255 0.628796
Si Si6 0.456732 0.178969 0.260185
Si Si7 0.743085 0.905755 0.801285
Si Si8 0.691811 0.500000 0.984512
O O1 0.097978 0.715415 0.542366
O O2 0.000000 0.631435 0.500000
O O3 0.249580 0.712983 0.996202
O O4 0.234867 0.583355 0.210275
O O5 0.301403 0.583427 0.587828
O O6 0.517444 0.500000 0.283888
O O7 0.278614 0.500000 0.890368
O O8 0.737831 0.709897 0.527274
O O9 0.522488 0.721817 0.755880
O O10 0.500000 0.612187 0.000000
O O11 0.500000 0.202841 0.500000
O O12 0.310440 0.174014 0.647576
O O13 0.234217 0.135888 0.077469
O O14 0.188157 0.850354 0.464004
O O15 0.000000 0.769448 0.000000
O O16 0.500000 0.170393 0.000000
O O17 0.566371 0.110547 0.117755
O O18 0.783523 0.000000 0.717260
#
# Coordination Sequence:
#
# PCOD9147342 Si02
#       8
#     4   2   4   4   4   4   4   2
#     4  11  25  43  64  90 131 178 223 267 319 380
#     4  11  25  36  70  97 130 171 222 272 323 366
#     4  11  21  41  62  95 132 168 214 270 321 387
#     4   9  21  37  65  90 123 170 214 265 321 385
#     4  11  25  43  67  95 127 174 219 263 331 395
#     4  10  19  34  63  93 130 159 208 262 322 382
#     4  10  21  41  64  94 129 164 210 272 331 390
#     4  11  25  40  62  98 131 169 222 274 316 372
#
# _framework density 21.783821
#
# number of rings (size 3 to 8) (size 9 to 14) (size 15 to 20)
#    0.000    1.571    2.857    2.143   10.000    3.714 
#    0.000    0.714    0.000    6.857    0.000    0.000 
#    0.000    0.000    0.000    0.000    0.000    0.000 
#
# Total GULP energy -155948.176856 kJ/mol
# GULP energy per Si atom -5569.577745 kJ/mol
# Density = 2.173424 g / cm^3
# Si number density = 21.783821 Si / 1000 Ang^3
#
#
#
# Elastic Constant Matrix: (Units=GPa)
#
#
# Indices 1 2 3 4 5 6 
#
# 1 55.2777 14.9759 25.0129 0.0000 19.3969 0.0000
# 2 14.9759 115.6781 30.6538 0.0000 10.9508 0.0000
# 3 25.0129 30.6538 129.3796 0.0000 28.3954 0.0000
# 4 0.0000 0.0000 0.0000 9.4548 0.0000 3.3572
# 5 19.3969 10.9508 28.3954 0.0000 41.3618 0.0000
# 6 0.0000 0.0000 0.0000 3.3572 0.0000 16.4557
#
#
#
# Elastic Compliance Matrix: (Units=1/GPa)
#
#
# Indices 1 2 3 4 5 6 
#
# 1 0.022506 -0.001539 -0.002072 0.000000 -0.008725 0.000000
# 2 -0.001539 0.009372 -0.001810 0.000000 -0.000518 0.000000
# 3 -0.002072 -0.001810 0.009702 0.000000 -0.005210 0.000000
# 4 0.000000 0.000000 0.000000 0.114027 0.000000 -0.023263
# 5 -0.008725 -0.000518 -0.005210 0.000000 0.031982 0.000000
# 6 0.000000 0.000000 0.000000 -0.023263 0.000000 0.065515
#
#
# Mechanical properties :
#
#
# Convention : Reuss Voigt Hill
#
# Bulk Modulus (GPa) = 32.53021 49.06896 40.79958
# Shear Modulus (GPa) = 18.23545 28.76731 23.50138
#
# Velocity S-wave (km/s) = 2.89642 3.63792 3.28814
# Velocity P-wave (km/s) = 5.11383 6.34195 5.76071
#
# Compressibility (1/GPa) = 0.03074066
#
# Stress axis : x y z
#
# Youngs Moduli (GPa) = 44.43191 106.69634 103.07294
#
# Poissons Ratio (x) = 0.16418 0.21353
# Poissons Ratio (y) = 0.06837 0.18651
# Poissons Ratio (z) = 0.09205 0.19307
#
# Static dielectric constant tensor:
#      x y z
#    x 1.986780 0.000000 0.008430 
#    y 0.000000 1.775630 0.000000 
#    z 0.008430 0.000000 1.821920 
# 
# From -- ./inp_files/35273.got.cif
#   From: 2010.05.17/outbox.cif.g08.bks.cpg/sg10_18_cif.got.tgz:35273.got - 2010.06.03 11:33:40.
