data_PCOD9147561
_publ_section_title
;
Structure prediction by ZEFSAII (Michael W. Deem and Ramdas Pophale) SiO2 
 PCOD9147561
Probable space group: P 2/M
;
_chemical_formula_sum "Si O2"
_cell_formula_units_Z 24
_cell_length_a 13.288696
_cell_length_b 15.071491
_cell_length_c 10.335676
_cell_angle_alpha 90.000000
_cell_angle_beta 30.429686
_cell_angle_gamma 90.000000
_cell_volume 1048.432005
_symmetry_space_group_name_H-M "P 2/M"
_symmetry_group_IT_number 10
_symmetry_cell_setting 'monoclinic'
loop_
_space_group_symop_operation_xyz
x,y,z
-x,y,-z
-x,-y,-z
x,-y,z
loop_
_atom_site_type_symbol
_atom_site_label
_atom_site_fract_x
_atom_site_fract_y
_atom_site_fract_z
Si Si1 0.671846 0.904271 0.920037
Si Si2 0.597485 0.900207 0.529158
Si Si3 0.265633 0.273789 0.528781
Si Si4 0.974435 0.600642 0.714231
Si Si5 0.263368 0.595246 0.753477
Si Si6 0.344526 0.708443 0.057548
O O1 0.570535 0.906121 0.173613
O O2 0.759199 0.805285 0.813649
O O3 0.776877 0.000000 0.787338
O O4 0.500000 0.903141 0.000000
O O5 0.500000 0.871115 0.500000
O O6 0.752167 0.830039 0.418435
O O7 0.677820 0.000000 0.421203
O O8 0.209905 0.325818 0.719209
O O9 0.499348 0.287059 0.235886
O O10 0.135924 0.322398 0.562778
O O11 0.049426 0.500000 0.610810
O O12 0.841556 0.599057 0.992758
O O13 0.816746 0.632753 0.782431
O O14 0.500000 0.597198 0.500000
O O15 0.213745 0.500000 0.745076
O O16 0.500000 0.694445 0.000000
#
# Coordination Sequence:
#
# PCOD9147561 Si02
#       6
#     4   4   4   4   4   4
#     4   8  15  31  56  82 109 147 192 234 282 343
#     4   9  18  32  55  87 121 155 191 238 295 350
#     4  11  21  36  60  83 115 154 190 235 290 346
#     4  11  24  39  58  86 115 149 196 244 292 349
#     4  10  19  35  59  83 108 144 191 239 289 341
#     4  10  22  39  59  84 115 153 196 241 290 348
#
# _framework density 22.891325999999999
#
# number of rings (size 3 to 8) (size 9 to 14) (size 15 to 20)
#    0.000    2.167    1.667    1.500    2.333    3.000 
#    0.000    1.667    0.000    2.000    0.000   11.667 
#    0.000    0.000    0.000    0.000    0.000    0.000 
#
# Total GULP energy -133853.773227 kJ/mol
# GULP energy per Si atom -5577.240551 kJ/mol
# Density = 2.283922 g / cm^3
# Si number density = 22.891326 Si / 1000 Ang^3
#
#
#
# Elastic Constant Matrix: (Units=GPa)
#
#
# Indices 1 2 3 4 5 6 
#
# 1 98.3411 59.5678 15.7640 0.0000 2.5496 0.0000
# 2 59.5678 168.2400 18.9463 0.0000 -24.9540 0.0000
# 3 15.7640 18.9463 75.1395 0.0000 -5.0327 0.0000
# 4 0.0000 0.0000 0.0000 17.6139 0.0000 1.9080
# 5 2.5496 -24.9540 -5.0327 0.0000 36.5527 0.0000
# 6 0.0000 0.0000 0.0000 1.9080 0.0000 37.1453
#
#
#
# Elastic Compliance Matrix: (Units=1/GPa)
#
#
# Indices 1 2 3 4 5 6 
#
# 1 0.013893 -0.005441 -0.001874 0.000000 -0.004941 0.000000
# 2 -0.005441 0.008889 -0.000674 0.000000 0.006355 0.000000
# 3 -0.001874 -0.000674 0.013979 0.000000 0.001595 0.000000
# 4 0.000000 0.000000 0.000000 0.057091 0.000000 -0.002932
# 5 -0.004941 0.006355 0.001595 0.000000 0.032261 0.000000
# 6 0.000000 0.000000 0.000000 -0.002932 0.000000 0.027072
#
#
# Mechanical properties :
#
#
# Convention : Reuss Voigt Hill
#
# Bulk Modulus (GPa) = 48.11719 58.91964 53.51841
# Shear Modulus (GPa) = 28.39475 34.75852 31.57663
#
# Velocity S-wave (km/s) = 3.52577 3.90091 3.71808
# Velocity P-wave (km/s) = 6.13516 6.78853 6.47010
#
# Compressibility (1/GPa) = 0.02078260
#
# Stress axis : x y z
#
# Youngs Moduli (GPa) = 71.97951 112.50071 71.53840
#
# Poissons Ratio (x) = 0.61210 0.13404
# Poissons Ratio (y) = 0.39163 0.04823
# Poissons Ratio (z) = 0.13487 0.07585
#
# Static dielectric constant tensor:
#      x y z
#    x 1.895870 0.000000 0.027560 
#    y 0.000000 1.906490 0.000000 
#    z 0.027560 0.000000 1.878470 
# 
# From -- ./inp_files/51509.got.cif
#   From: 2010.05.17/outbox.cif.g08.bks.cpg/sg10_26_cif.got.tgz:51509.got - 2010.06.03 11:33:40.
