data_PCOD9147590
_publ_section_title
;
Structure prediction by ZEFSAII (Michael W. Deem and Ramdas Pophale) SiO2 
 PCOD9147590
Probable space group: P 2/M
;
_chemical_formula_sum "Si O2"
_cell_formula_units_Z 28
_cell_length_a 9.195198
_cell_length_b 13.803697
_cell_length_c 13.812771
_cell_angle_alpha 90.000000
_cell_angle_beta 61.212644
_cell_angle_gamma 90.000000
_cell_volume 1536.547929
_symmetry_space_group_name_H-M "P 2/M"
_symmetry_group_IT_number 10
_symmetry_cell_setting 'monoclinic'
loop_
_space_group_symop_operation_xyz
x,y,z
-x,y,-z
-x,-y,-z
x,-y,z
loop_
_atom_site_type_symbol
_atom_site_label
_atom_site_fract_x
_atom_site_fract_y
_atom_site_fract_z
Si Si1 0.804559 0.391901 0.578898
Si Si2 0.909038 0.261850 0.932997
Si Si3 0.679715 0.786196 0.491122
Si Si4 0.462795 0.773529 0.910472
Si Si5 0.150292 0.114831 0.742152
Si Si6 0.478361 0.107477 0.289188
Si Si7 0.725901 0.386354 0.829873
O O1 0.735975 0.500000 0.579159
O O2 0.732693 0.309512 0.532189
O O3 0.780349 0.374238 0.700908
O O4 0.000000 0.393799 0.500000
O O5 0.851259 0.335320 0.866099
O O6 0.018639 0.176663 0.847883
O O7 0.734063 0.226245 0.032352
O O8 0.000000 0.302532 0.000000
O O9 0.500000 0.767460 0.500000
O O10 0.810049 0.827921 0.371039
O O11 0.640250 0.867294 0.583944
O O12 0.544303 0.821293 0.792066
O O13 0.549961 0.668916 0.890264
O O14 0.500000 0.825521 0.000000
O O15 0.331082 0.115225 0.735849
O O16 0.105759 0.000000 0.743685
O O17 0.448416 0.000000 0.264041
O O18 0.713164 0.500000 0.855208
#
# Coordination Sequence:
#
# PCOD9147590 Si02
#       7
#     4   4   4   4   4   4   4
#     4  10  20  36  61  87 118 157 190 233 301 358
#     4  11  22  37  61  87 117 151 201 248 287 340
#     4  10  20  36  61  86 118 150 198 246 286 344
#     4  10  21  37  59  83 117 156 194 239 291 347
#     4  10  21  37  59  87 119 158 195 240 302 349
#     4  10  19  35  59  86 115 153 197 241 292 349
#     4  10  22  41  62  85 118 159 195 235 298 361
#
# _framework density 18.222666
#
# number of rings (size 3 to 8) (size 9 to 14) (size 15 to 20)
#    0.000    1.857    2.857    1.286    0.000    6.000 
#    0.000    2.143    0.000    2.571    0.000    0.000 
#    0.000    0.000    0.000    0.000    0.000    0.000 
#
# Total GULP energy -155947.058056 kJ/mol
# GULP energy per Si atom -5569.537788 kJ/mol
# Density = 1.818119 g / cm^3
# Si number density = 18.222666 Si / 1000 Ang^3
#
#
#
# Elastic Constant Matrix: (Units=GPa)
#
#
# Indices 1 2 3 4 5 6 
#
# 1 40.4358 29.2525 17.5899 0.0000 3.1405 0.0000
# 2 29.2525 128.4675 47.3894 0.0000 8.9107 0.0000
# 3 17.5899 47.3894 115.4624 0.0000 -1.2422 0.0000
# 4 0.0000 0.0000 0.0000 -35.4269 0.0000 -25.3365
# 5 3.1405 8.9107 -1.2422 0.0000 31.4116 0.0000
# 6 0.0000 0.0000 0.0000 -25.3365 0.0000 10.0612
#
#
#
# Elastic Compliance Matrix: (Units=1/GPa)
#
#
# Indices 1 2 3 4 5 6 
#
# 1 0.030087 -0.005960 -0.002153 0.000000 -0.001403 0.000000
# 2 -0.005960 0.010597 -0.003469 0.000000 -0.002548 0.000000
# 3 -0.002153 -0.003469 0.010430 0.000000 0.001612 0.000000
# 4 0.000000 0.000000 0.000000 -0.010078 0.000000 -0.025378
# 5 -0.001403 -0.002548 0.001612 0.000000 0.032762 0.000000
# 6 0.000000 0.000000 0.000000 -0.025378 0.000000 0.035485
#
#
# Mechanical properties :
#
#
# Convention : Reuss Voigt Hill
#
# Bulk Modulus (GPa) = 35.77558 52.53661 44.15610
# Shear Modulus (GPa) = 35.26998 13.88478 24.57738
#
# Velocity S-wave (km/s) = 4.40421 2.76334 3.67648
# Velocity P-wave (km/s) = 6.74817 6.25095 6.50431
#
# Compressibility (1/GPa) = 0.02795202
#
# Stress axis : x y z
#
# Youngs Moduli (GPa) = 33.23664 94.36218 95.87808
#
# Poissons Ratio (x) = 0.56236 0.20639
# Poissons Ratio (y) = 0.19808 0.33260
# Poissons Ratio (z) = 0.07155 0.32735
#
# Static dielectric constant tensor:
#      x y z
#    x 1.646920 0.000000 0.003650 
#    y 0.000000 1.626580 0.000000 
#    z 0.003650 0.000000 1.659560 
# 
# From -- ./inp_files/32851.got.cif
#   From: 2010.05.17/outbox.cif.g08.bks.cpg/sg10_17_cif.got.tgz:32851.got - 2010.06.03 11:33:40.
