data_PCOD9147386
_publ_section_title
;
Structure prediction by ZEFSAII (Michael W. Deem and Ramdas Pophale) SiO2 
 PCOD9147386
Probable space group: P 2/M
;
_chemical_formula_sum "Si O2"
_cell_formula_units_Z 32
_cell_length_a 24.778603
_cell_length_b 7.584603
_cell_length_c 15.984553
_cell_angle_alpha 90.000000
_cell_angle_beta 151.395385
_cell_angle_gamma 90.000000
_cell_volume 1438.236682
_symmetry_space_group_name_H-M "P 2/M"
_symmetry_group_IT_number 10
_symmetry_cell_setting 'monoclinic'
loop_
_space_group_symop_operation_xyz
x,y,z
-x,y,-z
-x,-y,-z
x,-y,z
loop_
_atom_site_type_symbol
_atom_site_label
_atom_site_fract_x
_atom_site_fract_y
_atom_site_fract_z
Si Si1 0.777445 0.216210 0.507604
Si Si2 0.872754 0.212290 0.813980
Si Si3 0.410253 0.284669 0.307608
Si Si4 0.474982 0.212942 0.872103
Si Si5 0.821402 0.293216 0.924020
Si Si6 0.642000 0.290167 0.947605
Si Si7 0.895425 0.298432 0.305965
Si Si8 0.989731 0.201241 0.702956
O O1 0.820866 0.275429 0.656975
O O2 0.650391 0.273454 0.321325
O O3 0.867165 0.273442 0.559525
O O4 0.780443 0.000000 0.510324
O O5 0.803686 0.263942 0.801954
O O6 0.876240 0.000000 0.815451
O O7 0.000000 0.278089 0.000000
O O8 0.500000 0.224423 0.500000
O O9 0.416413 0.500000 0.316730
O O10 0.286458 0.231815 0.171163
O O11 0.415831 0.226050 0.218016
O O12 0.564738 0.262203 0.923288
O O13 0.473775 0.000000 0.872493
O O14 0.500000 0.275423 0.000000
O O15 0.835905 0.500000 0.959066
O O16 0.935214 0.202657 0.110816
O O17 0.656044 0.500000 0.954363
O O18 0.769551 0.219041 0.135356
O O19 0.883856 0.500000 0.321807
O O20 0.000000 0.217284 0.500000
O O21 0.939231 0.299172 0.270517
O O22 0.977646 0.000000 0.657766
#
# Coordination Sequence:
#
# PCOD9147386 Si02
#       8
#     4   4   4   4   4   4   4   4
#     4   9  20  38  57  80 115 155 193 239 294 343
#     4  10  19  35  55  77 112 153 187 228 285 344
#     4   9  19  36  57  80 113 154 188 230 289 346
#     4  10  23  42  62  83 114 155 198 246 292 338
#     4  11  21  35  56  83 117 150 189 237 289 344
#     4  10  21  40  62  86 119 153 191 237 291 351
#     4  10  22  40  61  87 119 151 184 238 301 343
#     4  11  21  37  61  86 115 152 195 237 289 350
#
# _framework density 22.249466000000002
#
# number of rings (size 3 to 8) (size 9 to 14) (size 15 to 20)
#    0.000    2.000    2.500    0.750    3.500    1.250 
#    0.000    1.250    0.000    1.875    0.000    0.000 
#    0.000    0.000    0.000    0.000    0.000    0.000 
#
# Total GULP energy -178731.614441 kJ/mol
# GULP energy per Si atom -5585.362951 kJ/mol
# Density = 2.219883 g / cm^3
# Si number density = 22.249466 Si / 1000 Ang^3
#
#
#
# Elastic Constant Matrix: (Units=GPa)
#
#
# Indices 1 2 3 4 5 6 
#
# 1 159.2941 -3.5552 84.5268 0.0000 11.0611 0.0000
# 2 -3.5552 51.5311 8.3640 0.0000 0.0078 0.0000
# 3 84.5268 8.3640 181.0590 0.0000 1.8731 0.0000
# 4 0.0000 0.0000 0.0000 -1.2034 0.0000 -0.9825
# 5 11.0611 0.0078 1.8731 0.0000 31.1040 0.0000
# 6 0.0000 0.0000 0.0000 -0.9825 0.0000 19.0637
#
#
#
# Elastic Compliance Matrix: (Units=1/GPa)
#
#
# Indices 1 2 3 4 5 6 
#
# 1 0.008664 0.001259 -0.004074 0.000000 -0.002836 0.000000
# 2 0.001259 0.019736 -0.001496 0.000000 -0.000363 0.000000
# 3 -0.004074 -0.001496 0.007484 0.000000 0.000998 0.000000
# 4 0.000000 0.000000 0.000000 -0.797457 0.000000 -0.041097
# 5 -0.002836 -0.000363 0.000998 0.000000 0.033099 0.000000
# 6 0.000000 0.000000 0.000000 -0.041097 0.000000 0.050338
#
#
# Mechanical properties :
#
#
# Convention : Reuss Voigt Hill
#
# Bulk Modulus (GPa) = 36.67963 63.39505 50.03734
# Shear Modulus (GPa) = -7.57084 29.96277 11.19597
#
# Velocity S-wave (km/s) = -1.84664 3.67369 2.24565
# Velocity P-wave (km/s) = 3.46044 6.82271 5.40943
#
# Compressibility (1/GPa) = 0.02726309
#
# Stress axis : x y z
#
# Youngs Moduli (GPa) = 115.41426 50.67008 133.62421
#
# Poissons Ratio (x) = -0.06381 0.54436
# Poissons Ratio (y) = -0.14535 0.19989
# Poissons Ratio (z) = 0.47017 0.07580
#
# Static dielectric constant tensor:
#      x y z
#    x 1.792470 0.000000 -0.020320 
#    y 0.000000 1.836110 0.000000 
#    z -0.020320 0.000000 1.828200 
# 
# From -- ./inp_files/71573.got.cif
#   From: 2010.05.17/outbox.cif.g08.bks.cpg/sg10_36_cif.got.tgz:71573.got - 2010.06.03 11:33:40.
