data_PCOD9147431
_publ_section_title
;
Structure prediction by ZEFSAII (Michael W. Deem and Ramdas Pophale) SiO2 
 PCOD9147431
Probable space group: P 2/M
;
_chemical_formula_sum "Si O2"
_cell_formula_units_Z 28
_cell_length_a 12.041233
_cell_length_b 8.744494
_cell_length_c 15.588683
_cell_angle_alpha 90.000000
_cell_angle_beta 116.261597
_cell_angle_gamma 90.000000
_cell_volume 1471.982119
_symmetry_space_group_name_H-M "P 2/M"
_symmetry_group_IT_number 10
_symmetry_cell_setting 'monoclinic'
loop_
_space_group_symop_operation_xyz
x,y,z
-x,y,-z
-x,-y,-z
x,-y,z
loop_
_atom_site_type_symbol
_atom_site_label
_atom_site_fract_x
_atom_site_fract_y
_atom_site_fract_z
Si Si1 0.992175 0.818133 0.630063
Si Si2 0.286676 0.817871 0.182799
Si Si3 0.382152 0.181745 0.897796
Si Si4 0.444275 0.681457 0.736346
Si Si5 0.061953 0.680735 0.203697
Si Si6 0.188207 0.316922 0.568790
Si Si7 0.168822 0.816774 0.958005
O O1 0.974760 0.763927 0.720820
O O2 0.874223 0.765893 0.533242
O O3 0.108670 0.737895 0.623748
O O4 0.007808 0.000000 0.631034
O O5 0.428176 0.766809 0.239266
O O6 0.195766 0.734914 0.217557
O O7 0.276171 0.000000 0.189746
O O8 0.238340 0.779939 0.070232
O O9 0.400186 0.272558 0.816649
O O10 0.260152 0.221564 0.910281
O O11 0.377772 0.000000 0.876521
O O12 0.500000 0.206127 0.000000
O O13 0.465039 0.500000 0.739933
O O14 0.331266 0.720179 0.634255
O O15 0.058844 0.500000 0.214882
O O16 0.960199 0.732102 0.099005
O O17 0.174736 0.500000 0.555059
O O18 0.147537 0.000000 0.949503
#
# Coordination Sequence:
#
# PCOD9147431 Si02
#       7
#     4   4   4   4   4   4   4
#     4  11  22  39  64  92 118 151 196 242 288 346
#     4  11  23  41  61  82 115 158 201 244 287 343
#     4  10  19  35  56  82 115 155 195 236 285 335
#     4  11  23  37  57  88 122 157 193 236 294 351
#     4  12  25  40  59  85 118 154 195 245 297 347
#     4  10  21  39  63  92 124 154 186 237 299 350
#     4  10  21  38  60  85 115 155 201 244 289 344
#
# _framework density 19.021972000000002
#
# number of rings (size 3 to 8) (size 9 to 14) (size 15 to 20)
#    0.000    1.286    1.429    6.000    0.000    8.286 
#    0.000    0.714    0.000    4.286    0.000    0.000 
#    0.000    0.000    0.000    0.000    0.000    0.000 
#
# Total GULP energy -156608.697478 kJ/mol
# GULP energy per Si atom -5593.167767 kJ/mol
# Density = 1.897868 g / cm^3
# Si number density = 19.021972 Si / 1000 Ang^3
#
#
#
# Elastic Constant Matrix: (Units=GPa)
#
#
# Indices 1 2 3 4 5 6 
#
# 1 57.7561 16.9033 30.2768 0.0000 15.2449 0.0000
# 2 16.9033 46.9797 19.1176 0.0000 8.6374 0.0000
# 3 30.2768 19.1176 55.1538 0.0000 16.6405 0.0000
# 4 0.0000 0.0000 0.0000 31.7251 0.0000 -5.3790
# 5 15.2449 8.6374 16.6405 0.0000 23.0150 0.0000
# 6 0.0000 0.0000 0.0000 -5.3790 0.0000 42.2884
#
#
#
# Elastic Compliance Matrix: (Units=1/GPa)
#
#
# Indices 1 2 3 4 5 6 
#
# 1 0.026096 -0.003555 -0.010591 0.000000 -0.008294 0.000000
# 2 -0.003555 0.025550 -0.006040 0.000000 -0.002867 0.000000
# 3 -0.010591 -0.006040 0.029722 0.000000 -0.012208 0.000000
# 4 0.000000 0.000000 0.000000 0.032216 0.000000 0.004098
# 5 -0.008294 -0.002867 -0.012208 0.000000 0.058846 0.000000
# 6 0.000000 0.000000 0.000000 0.004098 0.000000 0.024168
#
#
# Mechanical properties :
#
#
# Convention : Reuss Voigt Hill
#
# Bulk Modulus (GPa) = 24.39215 32.49833 28.44524
# Shear Modulus (GPa) = 19.94951 25.64516 22.79733
#
# Velocity S-wave (km/s) = 3.24197 3.67575 3.46565
# Velocity P-wave (km/s) = 5.18313 5.92761 5.56783
#
# Compressibility (1/GPa) = 0.04099679
#
# Stress axis : x y z
#
# Youngs Moduli (GPa) = 38.32064 39.13947 33.64563
#
# Poissons Ratio (x) = 0.13913 0.35633
# Poissons Ratio (y) = 0.13622 0.20321
# Poissons Ratio (z) = 0.40584 0.23639
#
# Static dielectric constant tensor:
#      x y z
#    x 1.644880 0.000000 0.011820 
#    y 0.000000 1.634490 0.000000 
#    z 0.011820 0.000000 1.656420 
# 
# From -- ./inp_files/63500.got.cif
#   From: 2010.05.17/outbox.cif.g08.bks.cpg/sg10_32_cif.got.tgz:63500.got - 2010.06.03 11:33:40.
