data_PCOD9147942
_publ_section_title
;
Structure prediction by ZEFSAII (Michael W. Deem and Ramdas Pophale) SiO2 
 PCOD9147942
Probable space group: P 2/M
;
_chemical_formula_sum "Si O2"
_cell_formula_units_Z 32
_cell_length_a 9.863766
_cell_length_b 11.496166
_cell_length_c 31.372958
_cell_angle_alpha 90.000000
_cell_angle_beta 27.399337
_cell_angle_gamma 90.000000
_cell_volume 1637.148110
_symmetry_space_group_name_H-M "P 2/M"
_symmetry_group_IT_number 10
_symmetry_cell_setting 'monoclinic'
loop_
_space_group_symop_operation_xyz
x,y,z
-x,y,-z
-x,-y,-z
x,-y,z
loop_
_atom_site_type_symbol
_atom_site_label
_atom_site_fract_x
_atom_site_fract_y
_atom_site_fract_z
Si Si1 0.180408 0.129551 0.909506
Si Si2 0.736401 0.291248 0.749286
Si Si3 0.111322 0.866575 0.517563
Si Si4 0.868002 0.632847 0.200430
Si Si5 0.200184 0.367686 0.362362
Si Si6 0.731113 0.201277 0.969012
Si Si7 0.308406 0.133024 0.596563
Si Si8 0.663079 0.629869 0.863931
O O1 0.461091 0.205151 0.819387
O O2 0.950400 0.124412 0.935167
O O3 0.277996 0.000000 0.894596
O O4 0.000000 0.180055 0.000000
O O5 0.767632 0.365179 0.697756
O O6 0.669578 0.357454 0.811653
O O7 0.035921 0.219295 0.673045
O O8 0.461240 0.856842 0.428700
O O9 0.000000 0.864466 0.500000
O O10 0.980537 0.749356 0.575470
O O11 0.034197 0.000000 0.555523
O O12 0.919288 0.500000 0.172265
O O13 0.521045 0.651612 0.293823
O O14 0.057013 0.714940 0.117338
O O15 0.010040 0.645457 0.207526
O O16 0.096945 0.500000 0.403486
O O17 0.500000 0.147273 0.000000
O O18 0.541922 0.277208 0.055298
O O19 0.500000 0.151656 0.500000
O O20 0.199402 0.000000 0.625881
O O21 0.563087 0.500000 0.903728
#
# Coordination Sequence:
#
# PCOD9147942 Si02
#       8
#     4   4   4   4   4   4   4   4
#     4  11  23  39  56  83 121 161 204 254 309 363
#     4  12  22  38  61  88 122 160 201 248 303 364
#     4  10  23  44  68  92 121 155 205 256 302 365
#     4   9  19  36  57  84 120 158 198 246 295 358
#     4  11  23  39  62  94 129 160 200 249 310 370
#     4  10  19  37  60  83 113 155 203 249 296 355
#     4  10  21  40  64  88 115 158 204 250 300 361
#     4  10  21  36  57  85 118 158 201 245 298 359
#
# _framework density 19.546185999999999
#
# number of rings (size 3 to 8) (size 9 to 14) (size 15 to 20)
#    0.000    1.625    3.750    1.125    1.750    2.500 
#    0.000    2.500    0.000    0.000    0.000    0.000 
#    0.000    0.000    0.000    0.000    0.000    0.000 
#
# Total GULP energy -178386.426851 kJ/mol
# GULP energy per Si atom -5574.575839 kJ/mol
# Density = 1.950170 g / cm^3
# Si number density = 19.546186 Si / 1000 Ang^3
#
#
#
# Elastic Constant Matrix: (Units=GPa)
#
#
# Indices 1 2 3 4 5 6 
#
# 1 104.1932 20.0383 11.1581 0.0000 -15.4696 0.0000
# 2 20.0383 100.7384 40.1528 0.0000 -10.5311 0.0000
# 3 11.1581 40.1528 39.8442 0.0000 -13.6896 0.0000
# 4 0.0000 0.0000 0.0000 -71.3692 0.0000 29.8672
# 5 -15.4696 -10.5311 -13.6896 0.0000 31.9379 0.0000
# 6 0.0000 0.0000 0.0000 29.8672 0.0000 18.3288
#
#
#
# Elastic Compliance Matrix: (Units=1/GPa)
#
#
# Indices 1 2 3 4 5 6 
#
# 1 0.010597 -0.001803 0.000479 0.000000 0.004744 0.000000
# 2 -0.001803 0.017006 -0.017598 0.000000 -0.002809 0.000000
# 3 0.000479 -0.017598 0.047827 0.000000 0.014930 0.000000
# 4 0.000000 0.000000 0.000000 -0.008331 0.000000 0.013575
# 5 0.004744 -0.002809 0.014930 0.000000 0.039082 0.000000
# 6 0.000000 0.000000 0.000000 0.013575 0.000000 0.032438
#
#
# Mechanical properties :
#
#
# Convention : Reuss Voigt Hill
#
# Bulk Modulus (GPa) = 26.60488 43.05269 34.82879
# Shear Modulus (GPa) = 26.45619 7.34126 16.89872
#
# Velocity S-wave (km/s) = 3.68302 1.94010 2.94352
# Velocity P-wave (km/s) = 5.63267 5.20506 5.42308
#
# Compressibility (1/GPa) = 0.03758708
#
# Stress axis : x y z
#
# Youngs Moduli (GPa) = 94.36353 58.80306 20.90868
#
# Poissons Ratio (x) = 0.10602 -0.01002
# Poissons Ratio (y) = 0.17014 0.36795
# Poissons Ratio (z) = -0.04522 1.03480
#
# Static dielectric constant tensor:
#      x y z
#    x 1.709270 0.000000 0.002120 
#    y 0.000000 1.615880 0.000000 
#    z 0.002120 0.000000 1.661000 
# 
# From -- ./inp_files/94641.got.cif
#   From: 2010.05.17/outbox.cif.g08.bks.cpg/sg10_48_cif.got.tgz:94641.got - 2010.06.03 11:33:40.
