data_PCOD9147324
_publ_section_title
;
Structure prediction by ZEFSAII (Michael W. Deem and Ramdas Pophale) SiO2 
 PCOD9147324
Probable space group: P 2/M
;
_chemical_formula_sum "Si O2"
_cell_formula_units_Z 24
_cell_length_a 11.900290
_cell_length_b 7.833673
_cell_length_c 22.366266
_cell_angle_alpha 90.000000
_cell_angle_beta 31.435311
_cell_angle_gamma 90.000000
_cell_volume 1087.427730
_symmetry_space_group_name_H-M "P 2/M"
_symmetry_group_IT_number 10
_symmetry_cell_setting 'monoclinic'
loop_
_space_group_symop_operation_xyz
x,y,z
-x,y,-z
-x,-y,-z
x,-y,z
loop_
_atom_site_type_symbol
_atom_site_label
_atom_site_fract_x
_atom_site_fract_y
_atom_site_fract_z
Si Si1 0.042513 0.791032 0.332051
Si Si2 0.440341 0.205873 0.460669
Si Si3 0.349704 0.301916 0.754716
Si Si4 0.555494 0.199322 0.776778
Si Si5 0.127243 0.793267 0.036833
Si Si6 0.749235 0.207913 0.887886
O O1 0.220008 0.731377 0.299543
O O2 0.128370 0.739720 0.227524
O O3 0.797465 0.732604 0.450337
O O4 0.035424 0.000000 0.336819
O O5 0.500000 0.268001 0.500000
O O6 0.606944 0.252229 0.333313
O O7 0.435523 0.000000 0.466001
O O8 0.387211 0.500000 0.745113
O O9 0.513938 0.211397 0.725344
O O10 0.103588 0.260489 0.883045
O O11 0.558028 0.000000 0.792627
O O12 0.340498 0.271588 0.906121
O O13 0.145858 0.737880 0.097496
O O14 0.129559 0.000000 0.033637
O O15 0.749549 0.000000 0.887701
O O16 0.500000 0.261932 0.000000
#
# Coordination Sequence:
#
# PCOD9147324 Si02
#       6
#     4   4   4   4   4   4
#     4   9  17  31  56  90 120 145 179 232 291 340
#     4  10  21  40  65  90 114 143 186 237 286 341
#     4  12  26  40  55  78 115 160 199 235 280 336
#     4  10  20  36  59  87 116 148 190 239 289 339
#     4  10  19  34  60  89 117 149 189 239 289 339
#     4   9  14  26  53  91 122 138 167 224 290 343
#
# _framework density 22.070432
#
# number of rings (size 3 to 8) (size 9 to 14) (size 15 to 20)
#    0.000    2.000    1.667    3.000    0.000    6.333 
#    0.000    4.167    0.000    1.500    0.000    0.000 
#    0.000    0.000    0.000    0.000    0.000    0.000 
#
# Total GULP energy -134085.127364 kJ/mol
# GULP energy per Si atom -5586.880307 kJ/mol
# Density = 2.202020 g / cm^3
# Si number density = 22.070432 Si / 1000 Ang^3
#
#
#
# Elastic Constant Matrix: (Units=GPa)
#
#
# Indices 1 2 3 4 5 6 
#
# 1 108.5010 -1.6460 33.2761 0.0000 -19.0046 0.0000
# 2 -1.6460 20.1346 7.3197 0.0000 -9.2035 0.0000
# 3 33.2761 7.3197 100.9703 0.0000 -17.2195 0.0000
# 4 0.0000 0.0000 0.0000 -37.7387 0.0000 7.0526
# 5 -19.0046 -9.2035 -17.2195 0.0000 35.5241 0.0000
# 6 0.0000 0.0000 0.0000 7.0526 0.0000 -24.2059
#
#
#
# Elastic Compliance Matrix: (Units=1/GPa)
#
#
# Indices 1 2 3 4 5 6 
#
# 1 0.011229 0.004649 -0.003061 0.000000 0.005728 0.000000
# 2 0.004649 0.058544 -0.003015 0.000000 0.016193 0.000000
# 3 -0.003061 -0.003015 0.011685 0.000000 0.003245 0.000000
# 4 0.000000 0.000000 0.000000 -0.028024 0.000000 -0.008165
# 5 0.005728 0.016193 0.003245 0.000000 0.036983 0.000000
# 6 0.000000 0.000000 0.000000 -0.008165 0.000000 -0.043691
#
#
# Mechanical properties :
#
#
# Convention : Reuss Voigt Hill
#
# Bulk Modulus (GPa) = 12.72193 34.16726 23.44459
# Shear Modulus (GPa) = 65.98109 7.42631 36.70370
#
# Velocity S-wave (km/s) = 5.47363 1.83634 4.08245
# Velocity P-wave (km/s) = 6.76197 4.47334 5.73302
#
# Compressibility (1/GPa) = 0.07860445
#
# Stress axis : x y z
#
# Youngs Moduli (GPa) = 89.05451 17.08129 85.58237
#
# Poissons Ratio (x) = -0.07941 0.26195
# Poissons Ratio (y) = -0.41402 0.25800
# Poissons Ratio (z) = 0.27258 0.05149
#
# Static dielectric constant tensor:
#      x y z
#    x 1.806980 0.000000 0.000290 
#    y 0.000000 1.808850 0.000000 
#    z 0.000290 0.000000 1.792890 
# 
# From -- ./inp_files/88609.got.cif
#   From: 2010.05.17/outbox.cif.g08.bks.cpg/sg10_45_cif.got.tgz:88609.got - 2010.06.03 11:33:40.
