data_PCOD9147177
_publ_section_title
;
Structure prediction by ZEFSAII (Michael W. Deem and Ramdas Pophale) SiO2 
 PCOD9147177
Probable space group: P 2/M
;
_chemical_formula_sum "Si O2"
_cell_formula_units_Z 26
_cell_length_a 9.545037
_cell_length_b 9.083059
_cell_length_c 18.119465
_cell_angle_alpha 90.000000
_cell_angle_beta 51.980449
_cell_angle_gamma 90.000000
_cell_volume 1237.574760
_symmetry_space_group_name_H-M "P 2/M"
_symmetry_group_IT_number 10
_symmetry_cell_setting 'monoclinic'
loop_
_space_group_symop_operation_xyz
x,y,z
-x,y,-z
-x,-y,-z
x,-y,z
loop_
_atom_site_type_symbol
_atom_site_label
_atom_site_fract_x
_atom_site_fract_y
_atom_site_fract_z
Si Si1 0.000000 0.747142 0.000000
Si Si2 0.907800 0.326875 0.642808
Si Si3 0.998086 0.167105 0.835637
Si Si4 0.687694 0.174886 0.840493
Si Si5 0.612872 0.177119 0.297183
Si Si6 0.276266 0.671562 0.458836
Si Si7 0.395280 0.334732 0.856829
O O1 0.002316 0.834128 0.922583
O O2 0.185549 0.661815 0.939902
O O3 0.900231 0.500000 0.667904
O O4 0.114899 0.285576 0.565173
O O5 0.806487 0.220242 0.731142
O O6 0.812171 0.318033 0.594154
O O7 0.187079 0.232509 0.748601
O O8 0.813304 0.230405 0.866199
O O9 0.996975 0.000000 0.807841
O O10 0.503423 0.258203 0.887261
O O11 0.653266 0.000000 0.856421
O O12 0.455685 0.234893 0.399917
O O13 0.577610 0.240366 0.226444
O O14 0.614408 0.000000 0.293961
O O15 0.318864 0.500000 0.457559
O O16 0.462380 0.500000 0.822581
#
# Coordination Sequence:
#
# PCOD9147177 Si02
#       7
#     2   4   4   4   4   4   4
#     4  10  22  42  64  84 105 146 191 228 277 342
#     4   9  18  33  53  81 117 154 189 230 278 327
#     4   9  21  39  59  83 116 148 184 233 285 335
#     4  11  22  37  57  86 117 150 186 229 282 336
#     4  10  19  34  57  85 112 150 195 233 277 331
#     4   9  17  31  54  82 115 152 192 234 275 323
#     4  11  22  38  59  84 116 146 182 232 282 335
#
# _framework density 21.008832999999999
#
# number of rings (size 3 to 8) (size 9 to 14) (size 15 to 20)
#    0.000    2.154    1.538    2.769    0.000    3.077 
#    0.000   13.846    0.000    4.615    0.000    0.000 
#    0.000    0.000    0.000    0.000    0.000    0.000 
#
# Total GULP energy -145021.299580 kJ/mol
# GULP energy per Si atom -5577.742292 kJ/mol
# Density = 2.096102 g / cm^3
# Si number density = 21.008833 Si / 1000 Ang^3
#
#
#
# Elastic Constant Matrix: (Units=GPa)
#
#
# Indices 1 2 3 4 5 6 
#
# 1 124.2208 30.2222 25.0593 0.0000 -31.1306 0.0000
# 2 30.2222 65.1152 15.5438 0.0000 -16.4659 0.0000
# 3 25.0593 15.5438 83.4067 0.0000 -36.8975 0.0000
# 4 0.0000 0.0000 0.0000 9.8010 0.0000 -9.3687
# 5 -31.1306 -16.4659 -36.8975 0.0000 33.4641 0.0000
# 6 0.0000 0.0000 0.0000 -9.3687 0.0000 4.6376
#
#
#
# Elastic Compliance Matrix: (Units=1/GPa)
#
#
# Indices 1 2 3 4 5 6 
#
# 1 0.011156 -0.002814 0.002247 0.000000 0.011472 0.000000
# 2 -0.002814 0.018299 0.000508 0.000000 0.006947 0.000000
# 3 0.002247 0.000508 0.023925 0.000000 0.028720 0.000000
# 4 0.000000 0.000000 0.000000 -0.109586 0.000000 -0.221380
# 5 0.011472 0.006947 0.028720 0.000000 0.075640 0.000000
# 6 0.000000 0.000000 0.000000 -0.221380 0.000000 -0.231594
#
#
# Mechanical properties :
#
#
# Convention : Reuss Voigt Hill
#
# Bulk Modulus (GPa) = 18.77436 46.04370 32.40903
# Shear Modulus (GPa) = -25.73467 23.04170 -1.34649
#
# Velocity S-wave (km/s) = -3.50372 3.31533 -0.80144
# Velocity P-wave (km/s) = 2.72254 6.05138 3.82145
#
# Compressibility (1/GPa) = 0.05326414
#
# Stress axis : x y z
#
# Youngs Moduli (GPa) = 89.63565 54.64897 41.79774
#
# Poissons Ratio (x) = 0.15376 -0.09394
# Poissons Ratio (y) = 0.25219 -0.02125
# Poissons Ratio (z) = -0.20145 -0.02778
#
# Static dielectric constant tensor:
#      x y z
#    x 1.799630 0.000000 -0.025650 
#    y 0.000000 1.722130 0.000000 
#    z -0.025650 0.000000 1.778140 
# 
# From -- ./inp_files/78771.got.cif
#   From: 2010.05.17/outbox.cif.g08.bks.cpg/sg10_40_cif.got.tgz:78771.got - 2010.06.03 11:33:40.
