data_PCOD9147040
_publ_section_title
;
Structure prediction by ZEFSAII (Michael W. Deem and Ramdas Pophale) SiO2 
 PCOD9147040
Probable space group: P 2/M
;
_chemical_formula_sum "Si O2"
_cell_formula_units_Z 16
_cell_length_a 8.741341
_cell_length_b 12.692419
_cell_length_c 8.337236
_cell_angle_alpha 90.000000
_cell_angle_beta 58.638886
_cell_angle_gamma 90.000000
_cell_volume 789.866527
_symmetry_space_group_name_H-M "P 2/M"
_symmetry_group_IT_number 10
_symmetry_cell_setting 'monoclinic'
loop_
_space_group_symop_operation_xyz
x,y,z
-x,y,-z
-x,-y,-z
x,-y,z
loop_
_atom_site_type_symbol
_atom_site_label
_atom_site_fract_x
_atom_site_fract_y
_atom_site_fract_z
Si Si1 0.332446 0.000000 0.974670
Si Si2 0.842115 0.209637 0.454296
Si Si3 0.457973 0.782409 0.836234
Si Si4 0.697235 0.379957 0.308144
Si Si5 0.954239 0.000000 0.217081
O O1 0.350719 0.108533 0.869879
O O2 0.500000 0.000000 0.000000
O O3 0.155850 0.000000 0.177452
O O4 0.648373 0.206171 0.644793
O O5 0.830458 0.312548 0.347067
O O6 0.865537 0.105347 0.333317
O O7 0.000000 0.215069 0.500000
O O8 0.342005 0.687237 0.829504
O O9 0.500000 0.767595 0.000000
O O10 0.500000 0.382688 0.500000
O O11 0.754682 0.500000 0.251081
O O12 0.000000 0.000000 0.000000
#
# Coordination Sequence:
#
# PCOD9147040 Si02
#       5
#     2   4   4   4   2
#     4  10  19  34  56  81 114 147 183 225 276 344
#     4  11  22  37  60  88 119 151 190 239 291 340
#     4  10  20  37  61  87 117 154 195 236 285 348
#     4   9  20  38  58  82 114 154 198 240 284 340
#     4  12  24  38  59  87 121 151 186 237 293 346
#
# _framework density 20.256585999999999
#
# number of rings (size 3 to 8) (size 9 to 14) (size 15 to 20)
#    0.000    1.750    0.000    5.625    0.000    1.000 
#    0.000    5.000    0.000   17.250    0.000    0.000 
#    0.000    0.000    0.000    0.000    0.000    0.000 
#
# Total GULP energy -89339.443002 kJ/mol
# GULP energy per Si atom -5583.715188 kJ/mol
# Density = 2.021048 g / cm^3
# Si number density = 20.256586 Si / 1000 Ang^3
#
#
#
# Elastic Constant Matrix: (Units=GPa)
#
#
# Indices 1 2 3 4 5 6 
#
# 1 109.5199 75.4511 40.2321 0.0000 28.7053 0.0000
# 2 75.4511 235.0204 62.8365 0.0000 28.0723 0.0000
# 3 40.2321 62.8365 85.0984 0.0000 11.3055 0.0000
# 4 0.0000 0.0000 0.0000 18.9091 0.0000 3.6414
# 5 28.7053 28.0723 11.3055 0.0000 36.9575 0.0000
# 6 0.0000 0.0000 0.0000 3.6414 0.0000 21.7962
#
#
#
# Elastic Compliance Matrix: (Units=1/GPa)
#
#
# Indices 1 2 3 4 5 6 
#
# 1 0.014478 -0.002669 -0.003804 0.000000 -0.008054 0.000000
# 2 -0.002669 0.006121 -0.003039 0.000000 -0.001647 0.000000
# 3 -0.003804 -0.003039 0.015734 0.000000 0.000450 0.000000
# 4 0.000000 0.000000 0.000000 0.054643 0.000000 -0.009129
# 5 -0.008054 -0.001647 0.000450 0.000000 0.034427 0.000000
# 6 0.000000 0.000000 0.000000 -0.009129 0.000000 0.047405
#
#
# Mechanical properties :
#
#
# Convention : Reuss Voigt Hill
#
# Bulk Modulus (GPa) = 57.77482 87.40870 72.59176
# Shear Modulus (GPa) = 25.30350 32.27381 28.78866
#
# Velocity S-wave (km/s) = 3.53817 3.99588 3.77397
# Velocity P-wave (km/s) = 6.72866 8.03330 7.40975
#
# Compressibility (1/GPa) = 0.01730858
#
# Stress axis : x y z
#
# Youngs Moduli (GPa) = 69.07119 163.37059 63.55703
#
# Poissons Ratio (x) = 0.43601 0.24177
# Poissons Ratio (y) = 0.18434 0.19316
# Poissons Ratio (z) = 0.26275 0.49652
#
# Static dielectric constant tensor:
#      x y z
#    x 1.792590 0.000000 0.007970 
#    y 0.000000 1.721140 0.000000 
#    z 0.007970 0.000000 1.722140 
# 
# From -- ./inp_files/17491.got.cif
#   From: 2010.05.17/outbox.cif.g08.bks.cpg/sg10_9_cif.got.tgz:17491.got - 2010.06.03 11:33:40.
