data_PCOD9147103
_publ_section_title
;
Structure prediction by ZEFSAII (Michael W. Deem and Ramdas Pophale) SiO2 
 PCOD9147103
Probable space group: P 2/M
;
_chemical_formula_sum "Si O2"
_cell_formula_units_Z 28
_cell_length_a 9.144366
_cell_length_b 9.126331
_cell_length_c 29.527683
_cell_angle_alpha 90.000000
_cell_angle_beta 141.184200
_cell_angle_gamma 90.000000
_cell_volume 1544.618137
_symmetry_space_group_name_H-M "P 2/M"
_symmetry_group_IT_number 10
_symmetry_cell_setting 'monoclinic'
loop_
_space_group_symop_operation_xyz
x,y,z
-x,y,-z
-x,-y,-z
x,-y,z
loop_
_atom_site_type_symbol
_atom_site_label
_atom_site_fract_x
_atom_site_fract_y
_atom_site_fract_z
Si Si1 0.181033 0.673949 0.643212
Si Si2 0.045857 0.824398 0.784850
Si Si3 0.547906 0.674353 0.650918
Si Si4 0.769589 0.824034 0.070309
Si Si5 0.086334 0.676046 0.070925
Si Si6 0.186090 0.168283 0.503293
Si Si7 0.630868 0.676106 0.211695
O O1 0.131820 0.500000 0.629315
O O2 0.387935 0.701870 0.656852
O O3 0.267687 0.711277 0.714210
O O4 0.953735 0.761096 0.572007
O O5 0.135791 0.787676 0.856961
O O6 0.224571 0.759093 0.791594
O O7 0.793546 0.753610 0.715836
O O8 0.032896 0.000000 0.777763
O O9 0.578301 0.500000 0.653714
O O10 0.403858 0.738560 0.573759
O O11 0.928093 0.750146 0.070624
O O12 0.779971 0.000000 0.067509
O O13 0.500000 0.778710 0.000000
O O14 0.065685 0.500000 0.069955
O O15 0.357733 0.714197 0.142994
O O16 0.000000 0.718205 0.000000
O O17 0.000000 0.170413 0.500000
O O18 0.250672 0.000000 0.510322
O O19 0.651386 0.500000 0.210174
#
# Coordination Sequence:
#
# PCOD9147103 Si02
#       7
#     4   4   4   4   4   4   4
#     4   9  18  33  54  79 106 140 182 223 269 328
#     4  11  23  37  54  79 110 144 185 228 269 319
#     4  10  19  34  57  81 108 143 180 222 274 327
#     4  10  22  39  58  82 113 148 184 222 268 324
#     4  10  21  37  59  87 114 142 182 229 272 318
#     4   9  17  30  51  80 111 140 175 222 271 321
#     4  10  21  37  55  78 110 145 182 225 273 325
#
# _framework density 18.127457
#
# number of rings (size 3 to 8) (size 9 to 14) (size 15 to 20)
#    0.000    2.143    0.000    3.000    0.000    6.286 
#    0.000    0.714    0.000    4.286    0.000    0.000 
#    0.000    0.000    0.000    0.000    0.000    0.000 
#
# Total GULP energy -156378.395200 kJ/mol
# GULP energy per Si atom -5584.942686 kJ/mol
# Density = 1.808620 g / cm^3
# Si number density = 18.127457 Si / 1000 Ang^3
#
#
#
# Elastic Constant Matrix: (Units=GPa)
#
#
# Indices 1 2 3 4 5 6 
#
# 1 129.9419 71.7685 104.1879 0.0000 -2.0021 0.0000
# 2 71.7685 63.6370 85.4800 0.0000 1.0697 0.0000
# 3 104.1879 85.4800 206.1464 0.0000 2.1335 0.0000
# 4 0.0000 0.0000 0.0000 25.3903 0.0000 -0.3598
# 5 -2.0021 1.0697 2.1335 0.0000 28.6214 0.0000
# 6 0.0000 0.0000 0.0000 -0.3598 0.0000 30.3106
#
#
#
# Elastic Compliance Matrix: (Units=1/GPa)
#
#
# Indices 1 2 3 4 5 6 
#
# 1 0.020848 -0.021140 -0.001795 0.000000 0.002382 0.000000
# 2 -0.021140 0.056909 -0.012886 0.000000 -0.002645 0.000000
# 3 -0.001795 -0.012886 0.011106 0.000000 -0.000472 0.000000
# 4 0.000000 0.000000 0.000000 0.039392 0.000000 0.000468
# 5 0.002382 -0.002645 -0.000472 0.000000 0.035240 0.000000
# 6 0.000000 0.000000 0.000000 0.000468 0.000000 0.032997
#
#
# Mechanical properties :
#
#
# Convention : Reuss Voigt Hill
#
# Bulk Modulus (GPa) = 58.07095 102.51090 80.29093
# Shear Modulus (GPa) = 18.25642 26.08373 22.17007
#
# Velocity S-wave (km/s) = 3.17695 3.79741 3.50095
# Velocity P-wave (km/s) = 6.74994 8.71206 7.79300
#
# Compressibility (1/GPa) = 0.01722031
#
# Stress axis : x y z
#
# Youngs Moduli (GPa) = 47.96581 17.57182 90.03771
#
# Poissons Ratio (x) = 0.37148 0.16166
# Poissons Ratio (y) = 1.01402 1.16022
# Poissons Ratio (z) = 0.08612 0.22643
#
# Static dielectric constant tensor:
#      x y z
#    x 1.588260 0.000000 -0.003680 
#    y 0.000000 1.605990 0.000000 
#    z -0.003680 0.000000 1.604350 
# 
# From -- ./inp_files/36828.got.cif
#   From: 2010.05.17/outbox.cif.g08.bks.cpg/sg10_19_cif.got.tgz:36828.got - 2010.06.03 11:33:40.
