data_PCOD9147786
_publ_section_title
;
Structure prediction by ZEFSAII (Michael W. Deem and Ramdas Pophale) SiO2 
 PCOD9147786
Probable space group: P 2/M
;
_chemical_formula_sum "Si O2"
_cell_formula_units_Z 32
_cell_length_a 23.219195
_cell_length_b 8.934045
_cell_length_c 30.013433
_cell_angle_alpha 90.000000
_cell_angle_beta 16.740012
_cell_angle_gamma 90.000000
_cell_volume 1793.278296
_symmetry_space_group_name_H-M "P 2/M"
_symmetry_group_IT_number 10
_symmetry_cell_setting 'monoclinic'
loop_
_space_group_symop_operation_xyz
x,y,z
-x,y,-z
-x,-y,-z
x,-y,z
loop_
_atom_site_type_symbol
_atom_site_label
_atom_site_fract_x
_atom_site_fract_y
_atom_site_fract_z
Si Si1 0.479635 0.325058 0.961752
Si Si2 0.919358 0.682442 0.607605
Si Si3 0.942509 0.323644 0.848943
Si Si4 0.022457 0.179009 0.034806
Si Si5 0.724234 0.677183 0.323038
Si Si6 0.348937 0.319348 0.856839
Si Si7 0.068703 0.177082 0.237936
Si Si8 0.813831 0.681055 0.505324
O O1 0.446919 0.500000 0.973630
O O2 0.690026 0.273202 0.785500
O O3 0.500000 0.319529 0.000000
O O4 0.290740 0.230669 0.086674
O O5 0.920772 0.500000 0.606774
O O6 0.000000 0.732377 0.500000
O O7 0.059187 0.729058 0.545263
O O8 0.920517 0.500000 0.854415
O O9 0.964797 0.232364 0.787481
O O10 0.134618 0.306049 0.738414
O O11 0.754552 0.278183 0.019343
O O12 0.830663 0.234512 0.204601
O O13 0.037687 0.000000 0.025654
O O14 0.214333 0.249600 0.917457
O O15 0.000000 0.224536 0.000000
O O16 0.500000 0.725598 0.500000
O O17 0.721299 0.500000 0.313955
O O18 0.333670 0.500000 0.864895
O O19 0.580996 0.277062 0.682227
O O20 0.916140 0.252796 0.385658
O O21 0.051015 0.000000 0.254201
O O22 0.824491 0.500000 0.495126
#
# Coordination Sequence:
#
# PCOD9147786 Si02
#       8
#     4   4   4   4   4   4   4   4
#     4  10  19  36  60  81 105 141 183 230 280 326
#     4   9  18  32  57  87 107 131 175 229 279 327
#     4   9  19  37  59  84 111 142 183 228 278 333
#     4  10  21  36  55  82 117 154 187 220 269 338
#     4   9  19  37  61  87 112 141 185 240 285 321
#     4   9  20  37  61  86 109 141 185 239 283 322
#     4  12  25  37  53  80 115 153 188 224 271 329
#     4  10  20  38  59  83 111 141 184 231 278 329
#
# _framework density 17.844412999999999
#
# number of rings (size 3 to 8) (size 9 to 14) (size 15 to 20)
#    0.000    2.250    1.250    2.250    1.750    5.000 
#    0.000    3.750    0.000    0.750    0.000    0.000 
#    0.000    0.000    0.000    0.000    0.000    0.000 
#
# Total GULP energy -178611.914017 kJ/mol
# GULP energy per Si atom -5581.622313 kJ/mol
# Density = 1.780380 g / cm^3
# Si number density = 17.844413 Si / 1000 Ang^3
#
#
#
# Elastic Constant Matrix: (Units=GPa)
#
#
# Indices 1 2 3 4 5 6 
#
# 1 97.4487 36.6049 68.1533 0.0000 23.0989 0.0000
# 2 36.6049 32.0472 39.2929 0.0000 3.9367 0.0000
# 3 68.1533 39.2929 176.4618 0.0000 7.8897 0.0000
# 4 0.0000 0.0000 0.0000 16.5409 0.0000 7.0741
# 5 23.0989 3.9367 7.8897 0.0000 21.5634 0.0000
# 6 0.0000 0.0000 0.0000 7.0741 0.0000 19.0794
#
#
#
# Elastic Compliance Matrix: (Units=1/GPa)
#
#
# Indices 1 2 3 4 5 6 
#
# 1 0.027846 -0.023374 -0.004480 0.000000 -0.023922 0.000000
# 2 -0.023374 0.062960 -0.005690 0.000000 0.015626 0.000000
# 3 -0.004480 -0.005690 0.008543 0.000000 0.002712 0.000000
# 4 0.000000 0.000000 0.000000 0.071849 0.000000 -0.026640
# 5 -0.023922 0.015626 0.002712 0.000000 0.068155 0.000000
# 6 0.000000 0.000000 0.000000 -0.026640 0.000000 0.062290
#
#
# Mechanical properties :
#
#
# Convention : Reuss Voigt Hill
#
# Bulk Modulus (GPa) = 30.99903 66.00668 48.50285
# Shear Modulus (GPa) = 13.17575 22.23050 17.70313
#
# Velocity S-wave (km/s) = 2.72024 3.53341 3.15315
# Velocity P-wave (km/s) = 5.22263 7.32919 6.36368
#
# Compressibility (1/GPa) = 0.03225907
#
# Stress axis : x y z
#
# Youngs Moduli (GPa) = 35.91227 15.88320 117.05269
#
# Poissons Ratio (x) = 0.37125 0.52443
# Poissons Ratio (y) = 0.83941 0.66608
# Poissons Ratio (z) = 0.16090 0.09038
#
# Static dielectric constant tensor:
#      x y z
#    x 1.589420 0.000000 -0.002790 
#    y 0.000000 1.595500 0.000000 
#    z -0.002790 0.000000 1.600030 
# 
# From -- ./inp_files/93581.got.cif
#   From: 2010.05.17/outbox.cif.g08.bks.cpg/sg10_47_cif.got.tgz:93581.got - 2010.06.03 11:33:40.
