data_PCOD9147389
_publ_section_title
;
Structure prediction by ZEFSAII (Michael W. Deem and Ramdas Pophale) SiO2 
 PCOD9147389
Probable space group: P 2/M
;
_chemical_formula_sum "Si O2"
_cell_formula_units_Z 20
_cell_length_a 8.618617
_cell_length_b 11.876323
_cell_length_c 15.352972
_cell_angle_alpha 90.000000
_cell_angle_beta 132.332903
_cell_angle_gamma 90.000000
_cell_volume 1161.716435
_symmetry_space_group_name_H-M "P 2/M"
_symmetry_group_IT_number 10
_symmetry_cell_setting 'monoclinic'
loop_
_space_group_symop_operation_xyz
x,y,z
-x,y,-z
-x,-y,-z
x,-y,z
loop_
_atom_site_type_symbol
_atom_site_label
_atom_site_fract_x
_atom_site_fract_y
_atom_site_fract_z
Si Si1 0.266362 0.200287 0.396778
Si Si2 0.938065 0.000000 0.285215
Si Si3 0.619292 0.239967 0.753082
Si Si4 0.526143 0.000000 0.232564
Si Si5 0.000000 0.196684 0.000000
Si Si6 0.178589 0.000000 0.955123
Si Si7 0.773993 0.633202 0.457920
O O1 0.500000 0.150461 0.500000
O O2 0.271817 0.244316 0.300164
O O3 0.240763 0.299646 0.456962
O O4 0.087877 0.108363 0.343775
O O5 0.768962 0.000000 0.298307
O O6 0.817536 0.000000 0.146795
O O7 0.539724 0.112274 0.741008
O O8 0.795045 0.263593 0.892446
O O9 0.416194 0.319082 0.672815
O O10 0.391590 0.000000 0.091772
O O11 0.056203 0.110592 0.942863
O O12 0.750250 0.500000 0.461787
O O13 0.000000 0.654826 0.500000
#
# Coordination Sequence:
#
# PCOD9147389 Si02
#       7
#     4   2   4   2   2   2   4
#     4  10  21  33  53  78 105 138 178 215 256 311
#     4  12  18  31  48  80 114 140 176 209 261 304
#     4  10  19  35  55  79 108 141 176 213 258 308
#     4  10  21  30  50  79 113 143 171 209 257 315
#     4   9  16  32  53  78 108 142 175 211 254 302
#     4   9  17  29  49  73 110 148 175 203 248 311
#     4  10  22  40  58  76 101 135 175 221 271 315
#
# _framework density 17.215906
#
# number of rings (size 3 to 8) (size 9 to 14) (size 15 to 20)
#    0.000    2.000    2.000    3.000    0.000    6.000 
#    0.000    5.500    0.000    0.000    0.000    2.800 
#    0.000    0.000    0.000    0.000    0.000    0.000 
#
# Total GULP energy -111563.736690 kJ/mol
# GULP energy per Si atom -5578.186835 kJ/mol
# Density = 1.717672 g / cm^3
# Si number density = 17.215906 Si / 1000 Ang^3
#
#
#
# Elastic Constant Matrix: (Units=GPa)
#
#
# Indices 1 2 3 4 5 6 
#
# 1 104.6243 49.9782 44.3603 0.0000 14.2700 0.0000
# 2 49.9782 80.6368 48.1572 0.0000 11.1120 0.0000
# 3 44.3603 48.1572 97.8274 0.0000 9.4539 0.0000
# 4 0.0000 0.0000 0.0000 13.9686 0.0000 -10.7296
# 5 14.2700 11.1120 9.4539 0.0000 29.1392 0.0000
# 6 0.0000 0.0000 0.0000 -10.7296 0.0000 61.8235
#
#
#
# Elastic Compliance Matrix: (Units=1/GPa)
#
#
# Indices 1 2 3 4 5 6 
#
# 1 0.014509 -0.006765 -0.002903 0.000000 -0.003584 0.000000
# 2 -0.006765 0.021188 -0.007125 0.000000 -0.002455 0.000000
# 3 -0.002903 -0.007125 0.015120 0.000000 -0.000767 0.000000
# 4 0.000000 0.000000 0.000000 0.082601 0.000000 0.014335
# 5 -0.003584 -0.002455 -0.000767 0.000000 0.037258 0.000000
# 6 0.000000 0.000000 0.000000 0.014335 0.000000 0.018663
#
#
# Mechanical properties :
#
#
# Convention : Reuss Voigt Hill
#
# Bulk Modulus (GPa) = 58.03526 63.11998 60.57762
# Shear Modulus (GPa) = 21.86571 30.35911 26.11241
#
# Velocity S-wave (km/s) = 3.56770 4.20388 3.89879
# Velocity P-wave (km/s) = 7.12423 7.76575 7.45190
#
# Compressibility (1/GPa) = 0.01723090
#
# Stress axis : x y z
#
# Youngs Moduli (GPa) = 68.92134 47.19666 66.13841
#
# Poissons Ratio (x) = 0.31931 0.19197
# Poissons Ratio (y) = 0.46629 0.47124
# Poissons Ratio (z) = 0.20005 0.33628
#
# Static dielectric constant tensor:
#      x y z
#    x 1.589870 0.000000 0.020000 
#    y 0.000000 1.546020 0.000000 
#    z 0.020000 0.000000 1.617660 
# 
# From -- ./inp_files/60853.got.cif
#   From: 2010.05.17/outbox.cif.g08.bks.cpg/sg10_31_cif.got.tgz:60853.got - 2010.06.03 11:33:40.
