data_PCOD9147513
_publ_section_title
;
Structure prediction by ZEFSAII (Michael W. Deem and Ramdas Pophale) SiO2 
 PCOD9147513
Probable space group: P 2/M
;
_chemical_formula_sum "Si O2"
_cell_formula_units_Z 32
_cell_length_a 20.194512
_cell_length_b 7.711023
_cell_length_c 25.899022
_cell_angle_alpha 90.000000
_cell_angle_beta 158.477025
_cell_angle_gamma 90.000000
_cell_volume 1479.605708
_symmetry_space_group_name_H-M "P 2/M"
_symmetry_group_IT_number 10
_symmetry_cell_setting 'monoclinic'
loop_
_space_group_symop_operation_xyz
x,y,z
-x,y,-z
-x,-y,-z
x,-y,z
loop_
_atom_site_type_symbol
_atom_site_label
_atom_site_fract_x
_atom_site_fract_y
_atom_site_fract_z
Si Si1 0.349687 0.798613 0.145721
Si Si2 0.022363 0.709611 0.076158
Si Si3 0.371820 0.701026 0.564768
Si Si4 0.188923 0.700083 0.616018
Si Si5 0.417555 0.800207 0.081761
Si Si6 0.069895 0.200590 0.420516
Si Si7 0.318626 0.787121 0.898418
Si Si8 0.571724 0.287752 0.607572
O O1 0.470166 0.713279 0.277654
O O2 0.374693 0.721198 0.106647
O O3 0.409797 0.000000 0.187733
O O4 0.141899 0.786528 0.010927
O O5 0.010554 0.500000 0.072033
O O6 0.221036 0.766032 0.236561
O O7 0.000000 0.754472 0.000000
O O8 0.326559 0.500000 0.523956
O O9 0.195060 0.787086 0.460832
O O10 0.452067 0.771989 0.569396
O O11 0.203980 0.500000 0.643396
O O12 0.365476 0.794614 0.764576
O O13 0.172084 0.708469 0.541890
O O14 0.000000 0.771399 0.500000
O O15 0.356224 0.000000 0.039823
O O16 0.333595 0.726222 0.968618
O O17 0.868687 0.268831 0.263674
O O18 0.054574 0.000000 0.424557
O O19 0.316825 0.000000 0.897596
O O20 0.500000 0.734566 0.000000
O O21 0.500000 0.234141 0.500000
O O22 0.570251 0.500000 0.608695
#
# Coordination Sequence:
#
# PCOD9147513 Si02
#       8
#     4   4   4   4   4   4   4   4
#     4  11  22  35  56  87 118 149 191 241 292 343
#     4  10  19  35  58  83 109 149 195 233 283 340
#     4  11  21  37  60  84 117 154 192 241 292 345
#     4  11  23  37  56  85 117 149 191 242 290 341
#     4  10  21  38  59  84 114 151 193 238 288 346
#     4  11  22  37  60  88 116 153 197 239 292 356
#     4   9  19  37  60  84 113 152 195 237 286 347
#     4   9  19  36  58  84 114 151 196 239 283 344
#
# _framework density 21.627382999999998
#
# number of rings (size 3 to 8) (size 9 to 14) (size 15 to 20)
#    0.000    1.750    2.500    2.250    0.000    3.750 
#    0.000    1.250    0.000    6.000    0.000    0.000 
#    0.000    0.000    0.000    0.000    0.000    0.000 
#
# Total GULP energy -178836.747799 kJ/mol
# GULP energy per Si atom -5588.648369 kJ/mol
# Density = 2.157816 g / cm^3
# Si number density = 21.627383 Si / 1000 Ang^3
#
#
#
# Elastic Constant Matrix: (Units=GPa)
#
#
# Indices 1 2 3 4 5 6 
#
# 1 85.5347 -3.8231 7.6769 0.0000 0.3559 0.0000
# 2 -3.8231 38.9725 -5.6873 0.0000 -2.9721 0.0000
# 3 7.6769 -5.6873 92.3461 0.0000 -2.6554 0.0000
# 4 0.0000 0.0000 0.0000 -115.2327 0.0000 43.2598
# 5 0.3559 -2.9721 -2.6554 0.0000 41.6714 0.0000
# 6 0.0000 0.0000 0.0000 43.2598 0.0000 4.3721
#
#
#
# Elastic Compliance Matrix: (Units=1/GPa)
#
#
# Indices 1 2 3 4 5 6 
#
# 1 0.011820 0.001018 -0.000922 0.000000 -0.000087 0.000000
# 2 0.001018 0.026139 0.001581 0.000000 0.001956 0.000000
# 3 -0.000922 0.001581 0.011027 0.000000 0.000823 0.000000
# 4 0.000000 0.000000 0.000000 -0.001841 0.000000 0.018213
# 5 -0.000087 0.001956 0.000823 0.000000 0.024190 0.000000
# 6 0.000000 0.000000 0.000000 0.018213 0.000000 0.048515
#
#
# Mechanical properties :
#
#
# Convention : Reuss Voigt Hill
#
# Bulk Modulus (GPa) = 19.10587 23.68737 21.39662
# Shear Modulus (GPa) = 37.32977 0.74127 19.03552
#
# Velocity S-wave (km/s) = 4.15907 0.58608 2.96996
# Velocity P-wave (km/s) = 5.64953 3.38146 4.65572
#
# Compressibility (1/GPa) = 0.05233993
#
# Stress axis : x y z
#
# Youngs Moduli (GPa) = 84.60360 38.25702 90.68998
#
# Poissons Ratio (x) = -0.03896 0.08365
# Poissons Ratio (y) = -0.08615 -0.14342
# Poissons Ratio (z) = 0.07804 -0.06050
#
# Static dielectric constant tensor:
#      x y z
#    x 1.791720 0.000000 0.010220 
#    y 0.000000 1.815910 0.000000 
#    z 0.010220 0.000000 1.641380 
# 
# From -- ./inp_files/93733.got.cif
#   From: 2010.05.17/outbox.cif.g08.bks.cpg/sg10_47_cif.got.tgz:93733.got - 2010.06.03 11:33:40.
