data_PCOD9147552
_publ_section_title
;
Structure prediction by ZEFSAII (Michael W. Deem and Ramdas Pophale) SiO2 
 PCOD9147552
Probable space group: P 2/M
;
_chemical_formula_sum "Si O2"
_cell_formula_units_Z 32
_cell_length_a 5.255519
_cell_length_b 16.357329
_cell_length_c 17.034449
_cell_angle_alpha 90.000000
_cell_angle_beta 103.835890
_cell_angle_gamma 90.000000
_cell_volume 1421.898068
_symmetry_space_group_name_H-M "P 2/M"
_symmetry_group_IT_number 10
_symmetry_cell_setting 'monoclinic'
loop_
_space_group_symop_operation_xyz
x,y,z
-x,y,-z
-x,-y,-z
x,-y,z
loop_
_atom_site_type_symbol
_atom_site_label
_atom_site_fract_x
_atom_site_fract_y
_atom_site_fract_z
Si Si1 0.355549 0.246739 0.071627
Si Si2 0.928682 0.625851 0.238907
Si Si3 0.489705 0.091979 0.704650
Si Si4 0.880870 0.907526 0.882376
Si Si5 0.804582 0.805685 0.209962
Si Si6 0.662870 0.410954 0.859390
Si Si7 0.900325 0.338132 0.409752
Si Si8 0.603549 0.227342 0.590199
O O1 0.215705 0.158878 0.062306
O O2 0.534619 0.234870 0.162059
O O3 0.227379 0.334044 0.082215
O O4 0.500000 0.256324 0.000000
O O5 0.973365 0.724641 0.233813
O O6 0.649936 0.600145 0.179862
O O7 0.906927 0.609148 0.330425
O O8 0.172219 0.590006 0.209378
O O9 0.670715 0.086740 0.795578
O O10 0.231293 0.137370 0.717768
O O11 0.613540 0.154362 0.652717
O O12 0.445985 0.000000 0.672829
O O13 0.119912 0.863785 0.856305
O O14 0.930340 0.000000 0.911846
O O15 0.700448 0.500000 0.899795
O O16 0.614748 0.295083 0.398368
O O17 0.000000 0.376002 0.500000
O O18 0.121940 0.269638 0.409322
O O19 0.500000 0.193411 0.500000
#
# Coordination Sequence:
#
# PCOD9147552 Si02
#       8
#     4   4   4   4   4   4   4   4
#     4  10  23  40  59  87 121 158 199 247 308 371
#     4  11  20  38  67  89 122 159 203 250 297 358
#     4  10  20  32  51  78 113 158 204 257 305 355
#     4  10  20  36  58  86 117 155 207 254 300 358
#     4  10  19  35  59  81 114 156 201 251 302 357
#     4  11  24  42  66  96 123 158 201 250 305 365
#     4  10  20  34  58  88 118 155 202 250 303 359
#     4  10  20  33  50  79 119 160 206 255 303 358
#
# _framework density 22.505130000000001
#
# number of rings (size 3 to 8) (size 9 to 14) (size 15 to 20)
#    0.000    1.750    2.500    2.250    1.750    1.750 
#    0.000    0.625    0.000    6.750    0.000    0.000 
#    0.000    0.000    0.000    0.000    0.000    0.000 
#
# Total GULP energy -178444.717984 kJ/mol
# GULP energy per Si atom -5576.397437 kJ/mol
# Density = 2.245391 g / cm^3
# Si number density = 22.505130 Si / 1000 Ang^3
#
#
#
# Elastic Constant Matrix: (Units=GPa)
#
#
# Indices 1 2 3 4 5 6 
#
# 1 69.7104 11.1567 1.4043 0.0000 -14.5685 0.0000
# 2 11.1567 138.1857 13.4282 0.0000 -10.9746 0.0000
# 3 1.4043 13.4282 72.5682 0.0000 -15.5883 0.0000
# 4 0.0000 0.0000 0.0000 56.3029 0.0000 13.7759
# 5 -14.5685 -10.9746 -15.5883 0.0000 38.4868 0.0000
# 6 0.0000 0.0000 0.0000 13.7759 0.0000 1.4963
#
#
#
# Elastic Compliance Matrix: (Units=1/GPa)
#
#
# Indices 1 2 3 4 5 6 
#
# 1 0.015759 -0.000896 0.001191 0.000000 0.006192 0.000000
# 2 -0.000896 0.007523 -0.001081 0.000000 0.001368 0.000000
# 3 0.001191 -0.001081 0.015321 0.000000 0.006348 0.000000
# 4 0.000000 0.000000 0.000000 -0.014179 0.000000 0.130540
# 5 0.006192 0.001368 0.006348 0.000000 0.031288 0.000000
# 6 0.000000 0.000000 0.000000 0.130540 0.000000 -0.533523
#
#
# Mechanical properties :
#
#
# Convention : Reuss Voigt Hill
#
# Bulk Modulus (GPa) = 27.00533 36.93808 31.97171
# Shear Modulus (GPa) = -10.77826 36.22220 12.72197
#
# Velocity S-wave (km/s) = -2.19081 4.01622 2.38017
# Velocity P-wave (km/s) = 2.37195 6.16081 4.66807
#
# Compressibility (1/GPa) = 0.03702972
#
# Stress axis : x y z
#
# Youngs Moduli (GPa) = 63.45768 132.93137 65.27124
#
# Poissons Ratio (x) = 0.11914 -0.07774
# Poissons Ratio (y) = 0.05688 0.07054
# Poissons Ratio (z) = -0.07558 0.14367
#
# Static dielectric constant tensor:
#      x y z
#    x 1.932720 0.000000 0.017560 
#    y 0.000000 1.857160 0.000000 
#    z 0.017560 0.000000 1.859470 
# 
# From -- ./inp_files/73535.got.cif
#   From: 2010.05.17/outbox.cif.g08.bks.cpg/sg10_37_cif.got.tgz:73535.got - 2010.06.03 11:33:40.
