data_PCOD9147785
_publ_section_title
;
Structure prediction by ZEFSAII (Michael W. Deem and Ramdas Pophale) SiO2 
 PCOD9147785
Probable space group: P 2/M
;
_chemical_formula_sum "Si O2"
_cell_formula_units_Z 32
_cell_length_a 21.504579
_cell_length_b 8.858352
_cell_length_c 27.147143
_cell_angle_alpha 90.000000
_cell_angle_beta 19.556249
_cell_angle_gamma 90.000000
_cell_volume 1731.033188
_symmetry_space_group_name_H-M "P 2/M"
_symmetry_group_IT_number 10
_symmetry_cell_setting 'monoclinic'
loop_
_space_group_symop_operation_xyz
x,y,z
-x,y,-z
-x,-y,-z
x,-y,z
loop_
_atom_site_type_symbol
_atom_site_label
_atom_site_fract_x
_atom_site_fract_y
_atom_site_fract_z
Si Si1 0.117586 0.317394 0.549518
Si Si2 0.910444 0.820544 0.793433
Si Si3 0.902583 0.823220 0.149736
Si Si4 0.872549 0.683933 0.640082
Si Si5 0.533896 0.319850 0.033104
Si Si6 0.467204 0.680786 0.760345
Si Si7 0.903873 0.319212 0.905654
Si Si8 0.706113 0.823894 0.201624
O O1 0.109925 0.500000 0.559169
O O2 0.326164 0.273939 0.378080
O O3 0.061689 0.246036 0.642938
O O4 0.968644 0.270525 0.619467
O O5 0.920143 0.000000 0.787237
O O6 0.711467 0.766267 0.920758
O O7 0.933675 0.754197 0.830584
O O8 0.747389 0.769642 0.226402
O O9 0.868876 0.000000 0.185958
O O10 0.941660 0.731436 0.169924
O O11 0.096406 0.816304 0.974560
O O12 0.872032 0.500000 0.640125
O O13 0.657890 0.728646 0.797840
O O14 0.000000 0.735349 0.500000
O O15 0.563410 0.500000 0.018908
O O16 0.500000 0.299047 0.000000
O O17 0.459546 0.500000 0.766517
O O18 0.296860 0.732438 0.922104
O O19 0.431482 0.735669 0.731265
O O20 0.901091 0.500000 0.903540
O O21 0.653532 0.000000 0.243391
#
# Coordination Sequence:
#
# PCOD9147785 Si02
#       8
#     4   4   4   4   4   4   4   4
#     4  10  20  38  57  78 107 141 180 220 265 319
#     4  12  25  38  54  77 108 146 182 220 265 317
#     4   8  14  27  47  74 107 143 178 215 258 311
#     4   9  18  32  57  85 105 132 171 217 266 314
#     4  10  19  36  60  81 102 135 178 220 261 312
#     4   9  19  32  53  82 110 137 176 227 271 314
#     4  10  20  34  54  82 109 139 178 224 270 315
#     4   8  14  26  47  73 107 146 178 209 258 320
#
# _framework density 18.486070999999999
#
# number of rings (size 3 to 8) (size 9 to 14) (size 15 to 20)
#    0.000    2.500    1.250    2.250    1.750    1.750 
#    0.000    2.500    0.000    1.500    0.000    5.250 
#    0.000    0.000    0.000    0.000    0.000    0.000 
#
# Total GULP energy -178421.207313 kJ/mol
# GULP energy per Si atom -5575.662729 kJ/mol
# Density = 1.844400 g / cm^3
# Si number density = 18.486071 Si / 1000 Ang^3
#
#
#
# Elastic Constant Matrix: (Units=GPa)
#
#
# Indices 1 2 3 4 5 6 
#
# 1 74.6836 20.9489 -2.2410 0.0000 22.0610 0.0000
# 2 20.9489 26.6572 2.6892 0.0000 9.4002 0.0000
# 3 -2.2410 2.6892 30.3678 0.0000 17.7848 0.0000
# 4 0.0000 0.0000 0.0000 6.9345 0.0000 4.3632
# 5 22.0610 9.4002 17.7848 0.0000 23.8088 0.0000
# 6 0.0000 0.0000 0.0000 4.3632 0.0000 0.9296
#
#
#
# Elastic Compliance Matrix: (Units=1/GPa)
#
#
# Indices 1 2 3 4 5 6 
#
# 1 0.032093 -0.011004 0.032379 0.000000 -0.049579 0.000000
# 2 -0.011004 0.049546 0.000507 0.000000 -0.009745 0.000000
# 3 0.032379 0.000507 0.094149 0.000000 -0.100530 0.000000
# 4 0.000000 0.000000 0.000000 -0.073828 0.000000 0.346524
# 5 -0.049579 -0.009745 -0.100530 0.000000 0.166882 0.000000
# 6 0.000000 0.000000 0.000000 0.346524 0.000000 -0.550731
#
#
# Mechanical properties :
#
#
# Convention : Reuss Voigt Hill
#
# Bulk Modulus (GPa) = 4.55473 19.38919 11.97196
# Shear Modulus (GPa) = -19.80449 13.68869 -3.05790
#
# Velocity S-wave (km/s) = -3.27665 2.72414 -1.28754
# Velocity P-wave (km/s) = 3.44181 4.51729 2.06880
#
# Compressibility (1/GPa) = 0.21955214
#
# Stress axis : x y z
#
# Youngs Moduli (GPa) = 31.15916 20.18320 10.62145
#
# Poissons Ratio (x) = 0.22210 -0.34391
# Poissons Ratio (y) = 0.34288 -0.00539
# Poissons Ratio (z) = -1.00889 -0.01024
#
# Static dielectric constant tensor:
#      x y z
#    x 1.641510 0.000000 -0.002900 
#    y 0.000000 1.619670 0.000000 
#    z -0.002900 0.000000 1.644130 
# 
# From -- ./inp_files/93678.got.cif
#   From: 2010.05.17/outbox.cif.g08.bks.cpg/sg10_47_cif.got.tgz:93678.got - 2010.06.03 11:33:40.
