data_PCOD9147231
_publ_section_title
;
Structure prediction by ZEFSAII (Michael W. Deem and Ramdas Pophale) SiO2 
 PCOD9147231
Probable space group: P 2/M
;
_chemical_formula_sum "Si O2"
_cell_formula_units_Z 32
_cell_length_a 20.777181
_cell_length_b 8.313723
_cell_length_c 26.782314
_cell_angle_alpha 90.000000
_cell_angle_beta 21.221187
_cell_angle_gamma 90.000000
_cell_volume 1674.565009
_symmetry_space_group_name_H-M "P 2/M"
_symmetry_group_IT_number 10
_symmetry_cell_setting 'monoclinic'
loop_
_space_group_symop_operation_xyz
x,y,z
-x,y,-z
-x,-y,-z
x,-y,z
loop_
_atom_site_type_symbol
_atom_site_label
_atom_site_fract_x
_atom_site_fract_y
_atom_site_fract_z
Si Si1 0.996020 0.813932 0.578140
Si Si2 0.491965 0.807332 0.703263
Si Si3 0.990393 0.305886 0.216781
Si Si4 0.893097 0.691574 0.397920
Si Si5 0.279717 0.688623 0.296275
Si Si6 0.808199 0.196352 0.158531
Si Si7 0.371655 0.695261 0.899154
Si Si8 0.297393 0.194502 0.654447
O O1 0.810616 0.778443 0.684685
O O2 0.003982 0.769051 0.630099
O O3 0.144856 0.713473 0.440349
O O4 0.042748 0.000000 0.537695
O O5 0.684808 0.731414 0.555088
O O6 0.350233 0.754245 0.763878
O O7 0.418166 0.761729 0.811022
O O8 0.510866 0.000000 0.686605
O O9 0.992669 0.500000 0.216070
O O10 0.958255 0.250224 0.296682
O O11 0.831197 0.251604 0.296278
O O12 0.178734 0.252061 0.057811
O O13 0.916777 0.500000 0.383467
O O14 0.287694 0.500000 0.278540
O O15 0.472245 0.744184 0.175501
O O16 0.772356 0.248898 0.241001
O O17 0.809602 0.000000 0.157375
O O18 0.000000 0.250337 0.000000
O O19 0.375056 0.500000 0.893923
O O20 0.500000 0.248515 0.500000
O O21 0.297222 0.000000 0.654484
#
# Coordination Sequence:
#
# PCOD9147231 Si02
#       8
#     4   4   4   4   4   4   4   4
#     4  11  21  34  56  86 117 144 187 238 278 328
#     4  11  21  34  58  86 111 143 188 237 284 335
#     4  10  23  40  58  82 114 152 193 235 281 337
#     4  11  22  38  57  80 113 151 189 232 282 335
#     4  10  19  34  58  84 115 152 185 224 285 341
#     4   9  18  32  50  76 108 140 176 222 278 337
#     4  10  21  38  58  83 116 151 188 231 282 341
#     4  10  20  36  57  79 107 146 190 234 283 338
#
# _framework density 19.109441
#
# number of rings (size 3 to 8) (size 9 to 14) (size 15 to 20)
#    0.000    1.750    1.250    4.500    0.000    4.250 
#    0.000    1.875    0.000    7.125    0.000    0.000 
#    0.000    0.000    0.000    0.000    0.000    0.000 
#
# Total GULP energy -178796.101500 kJ/mol
# GULP energy per Si atom -5587.378172 kJ/mol
# Density = 1.906595 g / cm^3
# Si number density = 19.109441 Si / 1000 Ang^3
#
#
#
# Elastic Constant Matrix: (Units=GPa)
#
#
# Indices 1 2 3 4 5 6 
#
# 1 136.8962 -0.0186 37.9638 0.0000 0.3416 0.0000
# 2 -0.0186 11.3243 -3.7048 0.0000 -0.9257 0.0000
# 3 37.9638 -3.7048 72.5409 0.0000 10.9056 0.0000
# 4 0.0000 0.0000 0.0000 -6.0878 0.0000 -7.6581
# 5 0.3416 -0.9257 10.9056 0.0000 33.2778 0.0000
# 6 0.0000 0.0000 0.0000 -7.6581 0.0000 28.6704
#
#
#
# Elastic Compliance Matrix: (Units=1/GPa)
#
#
# Indices 1 2 3 4 5 6 
#
# 1 0.008635 -0.001441 -0.004810 0.000000 0.001448 0.000000
# 2 -0.001441 0.090081 0.005234 0.000000 0.000805 0.000000
# 3 -0.004810 0.005234 0.017398 0.000000 -0.005507 0.000000
# 4 0.000000 0.000000 0.000000 -0.122951 0.000000 -0.032841
# 5 0.001448 0.000805 -0.005507 0.000000 0.031862 0.000000
# 6 0.000000 0.000000 0.000000 -0.032841 0.000000 0.026107
#
#
# Mechanical properties :
#
#
# Convention : Reuss Voigt Hill
#
# Bulk Modulus (GPa) = 8.76585 32.13800 20.45192
# Shear Modulus (GPa) = 54.82803 23.60681 39.21742
#
# Velocity S-wave (km/s) = 5.36226 3.51856 4.53510
# Velocity P-wave (km/s) = 6.55253 5.77594 6.17645
#
# Compressibility (1/GPa) = 0.11407908
#
# Stress axis : x y z
#
# Youngs Moduli (GPa) = 115.80804 11.10106 57.47813
#
# Poissons Ratio (x) = 0.01600 0.27649
# Poissons Ratio (y) = 0.16690 -0.30083
# Poissons Ratio (z) = 0.55707 -0.05810
#
# Static dielectric constant tensor:
#      x y z
#    x 1.648100 0.000000 -0.002130 
#    y 0.000000 1.663280 0.000000 
#    z -0.002130 0.000000 1.644210 
# 
# From -- ./inp_files/93665.got.cif
#   From: 2010.05.17/outbox.cif.g08.bks.cpg/sg10_47_cif.got.tgz:93665.got - 2010.06.03 11:33:40.
