data_PCOD9147339
_publ_section_title
;
Structure prediction by ZEFSAII (Michael W. Deem and Ramdas Pophale) SiO2 
 PCOD9147339
Probable space group: P 2/M
;
_chemical_formula_sum "Si O2"
_cell_formula_units_Z 28
_cell_length_a 8.720022
_cell_length_b 15.842761
_cell_length_c 20.232535
_cell_angle_alpha 90.000000
_cell_angle_beta 149.495401
_cell_angle_gamma 90.000000
_cell_volume 1418.818364
_symmetry_space_group_name_H-M "P 2/M"
_symmetry_group_IT_number 10
_symmetry_cell_setting 'monoclinic'
loop_
_space_group_symop_operation_xyz
x,y,z
-x,y,-z
-x,-y,-z
x,-y,z
loop_
_atom_site_type_symbol
_atom_site_label
_atom_site_fract_x
_atom_site_fract_y
_atom_site_fract_z
Si Si1 0.045544 0.356608 0.440687
Si Si2 0.247099 0.403450 0.799696
Si Si3 0.403377 0.252341 0.038820
Si Si4 0.644490 0.692622 0.621598
Si Si5 0.248620 0.817731 0.216987
Si Si6 0.960322 0.000000 0.387444
Si Si7 0.235242 0.185585 0.703677
Si Si8 0.455852 0.000000 0.318455
O O1 0.390362 0.374582 0.549353
O O2 0.000000 0.376794 0.500000
O O3 0.818689 0.397753 0.303696
O O4 0.996305 0.255675 0.409984
O O5 0.253254 0.500000 0.822571
O O6 0.546886 0.352291 0.931195
O O7 0.962156 0.352871 0.725274
O O8 0.629623 0.213766 0.176512
O O9 0.500000 0.232035 0.000000
O O10 0.071950 0.215863 0.927556
O O11 0.500000 0.728447 0.500000
O O12 0.679049 0.760563 0.692349
O O13 0.500152 0.811315 0.253154
O O14 0.258036 0.916007 0.240310
O O15 0.893768 0.907837 0.333659
O O16 0.712132 0.000000 0.355446
O O17 0.315215 0.000000 0.535487
#
# Coordination Sequence:
#
# PCOD9147339 Si02
#       8
#     4   4   4   4   4   2   4   2
#     4  10  19  34  62  93 121 156 186 240 308 359
#     4  10  23  42  62  86 113 151 203 249 295 362
#     4  11  23  41  62  83 116 162 204 245 295 356
#     4  10  20  35  61  86 120 157 194 237 299 363
#     4  11  20  39  60  88 120 160 202 244 283 347
#     4   9  18  35  59  95 122 158 196 245 281 343
#     4  10  21  36  63  89 122 157 206 242 287 341
#     4   9  20  33  60  92 123 151 198 244 290 338
#
# _framework density 19.734732999999999
#
# number of rings (size 3 to 8) (size 9 to 14) (size 15 to 20)
#    0.000    1.857    2.857    1.286    2.000    3.714 
#    0.000    3.929    0.000    6.857    0.000    0.000 
#    0.000    0.000    0.000    0.000    0.000    0.000 
#
# Total GULP energy -156155.790529 kJ/mol
# GULP energy per Si atom -5576.992519 kJ/mol
# Density = 1.968982 g / cm^3
# Si number density = 19.734733 Si / 1000 Ang^3
#
#
#
# Elastic Constant Matrix: (Units=GPa)
#
#
# Indices 1 2 3 4 5 6 
#
# 1 83.5238 21.0537 26.3338 0.0000 -13.1187 0.0000
# 2 21.0537 132.7887 46.6225 0.0000 5.6928 0.0000
# 3 26.3338 46.6225 89.7190 0.0000 8.6670 0.0000
# 4 0.0000 0.0000 0.0000 8.2597 0.0000 5.9506
# 5 -13.1187 5.6928 8.6670 0.0000 36.2128 0.0000
# 6 0.0000 0.0000 0.0000 5.9506 0.0000 -21.4313
#
#
#
# Elastic Compliance Matrix: (Units=1/GPa)
#
#
# Indices 1 2 3 4 5 6 
#
# 1 0.014644 -0.001065 -0.004374 0.000000 0.006520 0.000000
# 2 -0.001065 0.009292 -0.004440 0.000000 -0.000784 0.000000
# 3 -0.004374 -0.004440 0.015174 0.000000 -0.004518 0.000000
# 4 0.000000 0.000000 0.000000 0.100889 0.000000 0.028013
# 5 0.006520 -0.000784 -0.004518 0.000000 0.031181 0.000000
# 6 0.000000 0.000000 0.000000 0.028013 0.000000 -0.038883
#
#
# Mechanical properties :
#
#
# Convention : Reuss Voigt Hill
#
# Bulk Modulus (GPa) = 51.67955 54.89458 53.28706
# Shear Modulus (GPa) = 31.54412 18.74301 25.14356
#
# Velocity S-wave (km/s) = 4.00234 3.08514 3.57329
# Velocity P-wave (km/s) = 6.89944 6.36925 6.63964
#
# Compressibility (1/GPa) = 0.01935001
#
# Stress axis : x y z
#
# Youngs Moduli (GPa) = 68.28530 107.61597 65.90330
#
# Poissons Ratio (x) = 0.11466 0.28829
# Poissons Ratio (y) = 0.07276 0.29263
# Poissons Ratio (z) = 0.29871 0.47784
#
# Static dielectric constant tensor:
#      x y z
#    x 1.733510 0.000000 0.001110 
#    y 0.000000 1.713390 0.000000 
#    z 0.001110 0.000000 1.702460 
# 
# From -- ./inp_files/82950.got.cif
#   From: 2010.05.17/outbox.cif.g08.bks.cpg/sg10_42_cif.got.tgz:82950.got - 2010.06.03 11:33:40.
