data_PCOD9147084
_publ_section_title
;
Structure prediction by ZEFSAII (Michael W. Deem and Ramdas Pophale) SiO2 
 PCOD9147084
Probable space group: P 2/M
;
_chemical_formula_sum "Si O2"
_cell_formula_units_Z 22
_cell_length_a 10.511453
_cell_length_b 10.941968
_cell_length_c 12.377121
_cell_angle_alpha 90.000000
_cell_angle_beta 128.361424
_cell_angle_gamma 90.000000
_cell_volume 1116.235023
_symmetry_space_group_name_H-M "P 2/M"
_symmetry_group_IT_number 10
_symmetry_cell_setting 'monoclinic'
loop_
_space_group_symop_operation_xyz
x,y,z
-x,y,-z
-x,-y,-z
x,-y,z
loop_
_atom_site_type_symbol
_atom_site_label
_atom_site_fract_x
_atom_site_fract_y
_atom_site_fract_z
Si Si1 0.864925 0.500000 0.017589
Si Si2 0.077582 0.765824 0.920131
Si Si3 0.509899 0.500000 0.802417
Si Si4 0.503593 0.137767 0.345771
Si Si5 0.334306 0.500000 0.482061
Si Si6 0.242781 0.762437 0.358192
Si Si7 0.550009 0.772972 0.906617
O O1 0.888754 0.624160 0.093575
O O2 0.697215 0.500000 0.863541
O O3 0.000000 0.500000 0.000000
O O4 0.934150 0.810118 0.766941
O O5 0.261112 0.812664 0.011660
O O6 0.000000 0.772982 0.000000
O O7 0.388544 0.500000 0.636897
O O8 0.508193 0.627473 0.868100
O O9 0.660842 0.161489 0.501277
O O10 0.362680 0.227447 0.316953
O O11 0.539300 0.164159 0.240583
O O12 0.445180 0.000000 0.330305
O O13 0.500000 0.500000 0.500000
O O14 0.241818 0.623313 0.399850
O O15 0.500000 0.808142 0.000000
#
# Coordination Sequence:
#
# PCOD9147084 Si02
#       7
#     2   4   2   4   2   4   4
#     4   8  17  23  48  78 118 147 172 226 288 335
#     4  10  19  34  56  87 121 147 189 244 292 339
#     4  10  19  36  53  86 118 154 193 231 285 353
#     4  11  23  39  58  84 119 157 198 244 291 340
#     4  12  19  27  58  91 121 147 191 235 293 361
#     4  11  20  35  59  90 120 151 190 244 298 347
#     4  11  22  40  63  87 118 158 197 236 290 355
#
# _framework density 19.709109999999999
#
# number of rings (size 3 to 8) (size 9 to 14) (size 15 to 20)
#    0.000    1.455    5.455    1.909    5.091    0.364 
#    0.000    3.636    0.000    2.182    0.000    0.000 
#    0.000    0.000    0.000    0.000    0.000    0.000 
#
# Total GULP energy -122612.390198 kJ/mol
# GULP energy per Si atom -5573.290464 kJ/mol
# Density = 1.966425 g / cm^3
# Si number density = 19.709110 Si / 1000 Ang^3
#
#
#
# Elastic Constant Matrix: (Units=GPa)
#
#
# Indices 1 2 3 4 5 6 
#
# 1 59.1790 7.3858 48.4825 0.0000 -13.4765 0.0000
# 2 7.3858 46.7320 11.1389 0.0000 -3.8857 0.0000
# 3 48.4825 11.1389 134.4048 0.0000 -6.7313 0.0000
# 4 0.0000 0.0000 0.0000 -7.4517 0.0000 -1.0984
# 5 -13.4765 -3.8857 -6.7313 0.0000 32.9066 0.0000
# 6 0.0000 0.0000 0.0000 -1.0984 0.0000 4.8588
#
#
#
# Elastic Compliance Matrix: (Units=1/GPa)
#
#
# Indices 1 2 3 4 5 6 
#
# 1 0.026432 -0.001302 -0.008984 0.000000 0.008834 0.000000
# 2 -0.001302 0.022057 -0.001268 0.000000 0.001812 0.000000
# 3 -0.008984 -0.001268 0.010704 0.000000 -0.001640 0.000000
# 4 0.000000 0.000000 0.000000 -0.129870 0.000000 -0.029360
# 5 0.008834 0.001812 -0.001640 0.000000 0.033885 0.000000
# 6 0.000000 0.000000 0.000000 -0.029360 0.000000 0.199175
#
#
# Mechanical properties :
#
#
# Convention : Reuss Voigt Hill
#
# Bulk Modulus (GPa) = 27.71142 41.59223 34.65182
# Shear Modulus (GPa) = 25.31379 17.61665 21.46522
#
# Velocity S-wave (km/s) = 3.58770 2.99295 3.30373
# Velocity P-wave (km/s) = 5.59042 5.75261 5.67210
#
# Compressibility (1/GPa) = 0.03608621
#
# Stress axis : x y z
#
# Youngs Moduli (GPa) = 37.83222 45.33671 93.42271
#
# Poissons Ratio (x) = 0.05901 0.83935
# Poissons Ratio (y) = 0.04924 0.11844
# Poissons Ratio (z) = 0.33990 0.05748
#
# Static dielectric constant tensor:
#      x y z
#    x 1.681310 0.000000 0.010220 
#    y 0.000000 1.753540 0.000000 
#    z 0.010220 0.000000 1.706340 
# 
# From -- ./inp_files/46281.got.cif
#   From: 2010.05.17/outbox.cif.g08.bks.cpg/sg10_24_cif.got.tgz:46281.got - 2010.06.03 11:33:40.
