data_PCOD9147071
_publ_section_title
;
Structure prediction by ZEFSAII (Michael W. Deem and Ramdas Pophale) SiO2 
 PCOD9147071
Probable space group: P 2/M
;
_chemical_formula_sum "Si O2"
_cell_formula_units_Z 24
_cell_length_a 12.181864
_cell_length_b 7.478378
_cell_length_c 25.342456
_cell_angle_alpha 90.000000
_cell_angle_beta 26.054616
_cell_angle_gamma 90.000000
_cell_volume 1014.050506
_symmetry_space_group_name_H-M "P 2/M"
_symmetry_group_IT_number 10
_symmetry_cell_setting 'monoclinic'
loop_
_space_group_symop_operation_xyz
x,y,z
-x,y,-z
-x,-y,-z
x,-y,z
loop_
_atom_site_type_symbol
_atom_site_label
_atom_site_fract_x
_atom_site_fract_y
_atom_site_fract_z
Si Si1 0.103918 0.716220 0.512734
Si Si2 0.235325 0.701004 0.634723
Si Si3 0.785913 0.789530 0.127977
Si Si4 0.375014 0.714928 0.220684
Si Si5 0.661966 0.281143 0.878994
Si Si6 0.667399 0.204877 0.291776
O O1 0.127637 0.500000 0.501900
O O2 0.371508 0.794607 0.409672
O O3 0.000000 0.768787 0.500000
O O4 0.906451 0.767251 0.642867
O O5 0.500000 0.783287 0.500000
O O6 0.227551 0.500000 0.614207
O O7 0.267933 0.693473 0.683434
O O8 0.954375 0.776993 0.749880
O O9 0.540349 0.775804 0.198492
O O10 0.772756 0.714616 0.192178
O O11 0.836758 0.000000 0.113627
O O12 0.000000 0.707394 0.000000
O O13 0.384976 0.500000 0.216743
O O14 0.451790 0.773108 0.128809
O O15 0.667212 0.500000 0.878991
O O16 0.500000 0.223054 0.000000
O O17 0.751669 0.000000 0.262865
#
# Coordination Sequence:
#
# PCOD9147071 Si02
#       6
#     4   4   4   4   4   4
#     4  10  19  34  56  84 115 145 182 230 286 342
#     4  10  21  39  62  85 115 154 192 237 295 346
#     4  10  23  40  55  78 117 158 189 229 288 342
#     4  10  20  36  60  86 111 142 187 238 285 340
#     4   9  19  35  56  84 113 143 185 239 289 335
#     4  11  23  37  58  86 117 151 192 237 281 341
#
# _framework density 23.667460999999999
#
# number of rings (size 3 to 8) (size 9 to 14) (size 15 to 20)
#    0.000    2.000    1.667    1.500    2.333    5.000 
#    0.000    0.833    0.000    1.000    0.000    0.000 
#    0.000    0.000    0.000    0.000    0.000    0.000 
#
# Total GULP energy -134041.877550 kJ/mol
# GULP energy per Si atom -5585.078231 kJ/mol
# Density = 2.361359 g / cm^3
# Si number density = 23.667461 Si / 1000 Ang^3
#
#
#
# Elastic Constant Matrix: (Units=GPa)
#
#
# Indices 1 2 3 4 5 6 
#
# 1 92.1641 -3.4975 14.4022 0.0000 32.1941 0.0000
# 2 -3.4975 69.0243 3.8455 0.0000 6.4737 0.0000
# 3 14.4022 3.8455 117.3378 0.0000 29.4794 0.0000
# 4 0.0000 0.0000 0.0000 10.8430 0.0000 -1.5711
# 5 32.1941 6.4737 29.4794 0.0000 47.4147 0.0000
# 6 0.0000 0.0000 0.0000 -1.5711 0.0000 -0.9605
#
#
#
# Elastic Compliance Matrix: (Units=1/GPa)
#
#
# Indices 1 2 3 4 5 6 
#
# 1 0.014478 0.001679 0.000824 0.000000 -0.010572 0.000000
# 2 0.001679 0.014870 0.000122 0.000000 -0.003246 0.000000
# 3 0.000824 0.000122 0.010147 0.000000 -0.006885 0.000000
# 4 0.000000 0.000000 0.000000 0.074555 0.000000 -0.121950
# 5 -0.010572 -0.003246 -0.006885 0.000000 0.032993 0.000000
# 6 0.000000 0.000000 0.000000 -0.121950 0.000000 -0.841639
#
#
# Mechanical properties :
#
#
# Convention : Reuss Voigt Hill
#
# Bulk Modulus (GPa) = 22.34817 34.22516 28.28666
# Shear Modulus (GPa) = -7.30001 29.04450 10.87225
#
# Velocity S-wave (km/s) = -1.75815 3.50693 2.14563
# Velocity P-wave (km/s) = 2.31119 5.55791 4.25628
#
# Compressibility (1/GPa) = 0.04474639
#
# Stress axis : x y z
#
# Youngs Moduli (GPa) = 69.06961 67.24758 98.55135
#
# Poissons Ratio (x) = -0.11293 -0.08120
# Poissons Ratio (y) = -0.11599 -0.01204
# Poissons Ratio (z) = -0.05691 -0.00822
#
# Static dielectric constant tensor:
#      x y z
#    x 1.888490 0.000000 -0.005490 
#    y 0.000000 1.957470 0.000000 
#    z -0.005490 0.000000 1.955070 
# 
# From -- ./inp_files/45142.got.cif
#   From: 2010.05.17/outbox.cif.g08.bks.cpg/sg10_23_cif.got.tgz:45142.got - 2010.06.03 11:33:40.
