data_PCOD9147205
_publ_section_title
;
Structure prediction by ZEFSAII (Michael W. Deem and Ramdas Pophale) SiO2 
 PCOD9147205
Probable space group: P 2/M
;
_chemical_formula_sum "Si O2"
_cell_formula_units_Z 32
_cell_length_a 20.717357
_cell_length_b 7.836095
_cell_length_c 12.661564
_cell_angle_alpha 90.000000
_cell_angle_beta 53.579909
_cell_angle_gamma 90.000000
_cell_volume 1654.046294
_symmetry_space_group_name_H-M "P 2/M"
_symmetry_group_IT_number 10
_symmetry_cell_setting 'monoclinic'
loop_
_space_group_symop_operation_xyz
x,y,z
-x,y,-z
-x,-y,-z
x,-y,z
loop_
_atom_site_type_symbol
_atom_site_label
_atom_site_fract_x
_atom_site_fract_y
_atom_site_fract_z
Si Si1 0.736680 0.290286 0.691137
Si Si2 0.529706 0.708916 0.355084
Si Si3 0.119411 0.296917 0.603460
Si Si4 0.963561 0.801308 0.645176
Si Si5 0.714209 0.706962 0.156813
Si Si6 0.616143 0.698618 0.636530
Si Si7 0.785882 0.700307 0.868917
Si Si8 0.243415 0.199054 0.651723
O O1 0.735867 0.500000 0.691043
O O2 0.816609 0.240330 0.548516
O O3 0.660677 0.229599 0.696527
O O4 0.743734 0.229545 0.804146
O O5 0.500000 0.762022 0.500000
O O6 0.527701 0.500000 0.355918
O O7 0.621047 0.760788 0.247904
O O8 0.465984 0.771818 0.330082
O O9 0.110884 0.500000 0.603596
O O10 0.033660 0.216893 0.662991
O O11 0.162004 0.253726 0.672321
O O12 0.000000 0.729899 0.500000
O O13 0.880932 0.716370 0.759420
O O14 0.945247 0.000000 0.645220
O O15 0.716044 0.500000 0.156858
O O16 0.754333 0.765850 0.226564
O O17 0.757270 0.770778 0.008882
O O18 0.600406 0.500000 0.675008
O O19 0.682844 0.707069 0.478642
O O20 0.765355 0.500000 0.891157
O O21 0.256023 0.000000 0.619874
#
# Coordination Sequence:
#
# PCOD9147205 Si02
#       8
#     4   4   4   4   4   4   4   4
#     4   8  15  28  49  77 104 133 171 216 262 308
#     4   9  15  27  51  78 104 136 182 231 269 307
#     4  10  19  34  58  81 106 137 177 221 264 315
#     4  11  22  35  54  83 114 141 176 219 263 314
#     4  10  20  35  54  76 105 145 186 222 268 323
#     4   9  16  30  52  76 104 140 180 220 269 320
#     4  10  20  35  54  77 107 143 184 223 263 320
#     4  11  21  33  51  78 111 139 174 222 273 321
#
# _framework density 19.346495000000001
#
# number of rings (size 3 to 8) (size 9 to 14) (size 15 to 20)
#    0.000    2.250    2.500    2.625    0.000    1.000 
#    0.000    2.500    0.000    7.500    0.000    0.000 
#    0.000    4.250    0.000    0.000    0.000    0.000 
#
# Total GULP energy -178547.821441 kJ/mol
# GULP energy per Si atom -5579.619420 kJ/mol
# Density = 1.930246 g / cm^3
# Si number density = 19.346495 Si / 1000 Ang^3
#
#
#
# Elastic Constant Matrix: (Units=GPa)
#
#
# Indices 1 2 3 4 5 6 
#
# 1 137.8761 -9.0152 61.8267 0.0000 21.6023 0.0000
# 2 -9.0152 27.7212 -6.4130 0.0000 0.8211 0.0000
# 3 61.8267 -6.4130 105.2991 0.0000 16.7509 0.0000
# 4 0.0000 0.0000 0.0000 0.7135 0.0000 7.5120
# 5 21.6023 0.8211 16.7509 0.0000 26.1296 0.0000
# 6 0.0000 0.0000 0.0000 7.5120 0.0000 -11.2077
#
#
#
# Elastic Compliance Matrix: (Units=1/GPa)
#
#
# Indices 1 2 3 4 5 6 
#
# 1 0.010608 0.002409 -0.005205 0.000000 -0.005508 0.000000
# 2 0.002409 0.037330 0.001517 0.000000 -0.004137 0.000000
# 3 -0.005205 0.001517 0.013328 0.000000 -0.004288 0.000000
# 4 0.000000 0.000000 0.000000 0.173959 0.000000 0.116597
# 5 -0.005508 -0.004137 -0.004288 0.000000 0.045704 0.000000
# 6 0.000000 0.000000 0.000000 0.116597 0.000000 -0.011075
#
#
# Mechanical properties :
#
#
# Convention : Reuss Voigt Hill
#
# Bulk Modulus (GPa) = 17.03375 40.41040 28.72208
# Shear Modulus (GPa) = 17.12440 18.09362 17.60901
#
# Velocity S-wave (km/s) = 2.97836 3.06149 3.02021
# Velocity P-wave (km/s) = 4.54436 5.78187 5.20006
#
# Compressibility (1/GPa) = 0.05870697
#
# Stress axis : x y z
#
# Youngs Moduli (GPa) = 94.27192 26.78790 75.03184
#
# Poissons Ratio (x) = -0.06452 0.39057
# Poissons Ratio (y) = -0.22707 -0.11385
# Poissons Ratio (z) = 0.49072 -0.04065
#
# Static dielectric constant tensor:
#      x y z
#    x 1.688030 0.000000 0.020080 
#    y 0.000000 1.697850 0.000000 
#    z 0.020080 0.000000 1.652620 
# 
# From -- ./inp_files/52767.got.cif
#   From: 2010.05.17/outbox.cif.g08.bks.cpg/sg10_27_cif.got.tgz:52767.got - 2010.06.03 11:33:40.
