data_PCOD9147495
_publ_section_title
;
Structure prediction by ZEFSAII (Michael W. Deem and Ramdas Pophale) SiO2 
 PCOD9147495
Probable space group: P 2/M
;
_chemical_formula_sum "Si O2"
_cell_formula_units_Z 32
_cell_length_a 25.031334
_cell_length_b 9.021614
_cell_length_c 20.232688
_cell_angle_alpha 90.000000
_cell_angle_beta 23.688490
_cell_angle_gamma 90.000000
_cell_volume 1835.661712
_symmetry_space_group_name_H-M "P 2/M"
_symmetry_group_IT_number 10
_symmetry_cell_setting 'monoclinic'
loop_
_space_group_symop_operation_xyz
x,y,z
-x,y,-z
-x,-y,-z
x,-y,z
loop_
_atom_site_type_symbol
_atom_site_label
_atom_site_fract_x
_atom_site_fract_y
_atom_site_fract_z
Si Si1 0.001106 0.822829 0.296770
Si Si2 0.535285 0.678613 0.385479
Si Si3 0.684401 0.322865 0.474226
Si Si4 0.041211 0.824431 0.877594
Si Si5 0.187771 0.178219 0.967727
Si Si6 0.700365 0.176562 0.594297
Si Si7 0.073645 0.678438 0.483217
Si Si8 0.630245 0.321337 0.810696
O O1 0.859073 0.793171 0.422271
O O2 0.995983 0.743911 0.372957
O O3 0.008616 0.000000 0.297665
O O4 0.119748 0.776489 0.113956
O O5 0.500000 0.727493 0.500000
O O6 0.545401 0.500000 0.374770
O O7 0.420160 0.719710 0.464182
O O8 0.673637 0.746073 0.204900
O O9 0.683878 0.500000 0.481719
O O10 0.829058 0.266746 0.288386
O O11 0.652059 0.249085 0.581235
O O12 0.070082 0.000000 0.835260
O O13 0.000000 0.801056 0.000000
O O14 0.918712 0.786139 0.968811
O O15 0.203837 0.000000 0.950419
O O16 0.634144 0.245676 0.734555
O O17 0.682286 0.000000 0.613384
O O18 0.066497 0.500000 0.493773
O O19 0.230348 0.718767 0.311070
O O20 0.000000 0.728368 0.500000
O O21 0.629453 0.500000 0.803382
O O22 0.500000 0.279707 0.000000
#
# Coordination Sequence:
#
# PCOD9147495 Si02
#       8
#     4   4   4   4   4   4   4   4
#     4   9  18  34  55  79 109 140 174 223 269 313
#     4  10  23  41  56  76 110 147 183 227 278 330
#     4  11  22  36  56  81 110 144 185 228 275 330
#     4  10  20  35  57  84 111 139 177 226 274 324
#     4  10  20  36  56  81 110 141 182 224 270 327
#     4  10  19  35  58  81 111 144 181 228 271 321
#     4   9  18  33  53  78 106 139 178 215 258 315
#     4   9  18  34  55  79 110 143 177 220 267 318
#
# _framework density 17.432407000000001
#
# number of rings (size 3 to 8) (size 9 to 14) (size 15 to 20)
#    0.000    2.250    1.250    1.500    0.000    3.500 
#    2.250    0.000    0.000    0.000    0.000    0.000 
#    0.000    0.000    0.000    0.000    0.000    0.000 
#
# Total GULP energy -178596.337374 kJ/mol
# GULP energy per Si atom -5581.135543 kJ/mol
# Density = 1.739273 g / cm^3
# Si number density = 17.432407 Si / 1000 Ang^3
#
#
#
# Elastic Constant Matrix: (Units=GPa)
#
#
# Indices 1 2 3 4 5 6 
#
# 1 155.7917 46.5001 62.5598 0.0000 7.9132 0.0000
# 2 46.5001 24.1205 35.7649 0.0000 2.8612 0.0000
# 3 62.5598 35.7649 115.9311 0.0000 9.1047 0.0000
# 4 0.0000 0.0000 0.0000 32.9451 0.0000 4.7747
# 5 7.9132 2.8612 9.1047 0.0000 21.4083 0.0000
# 6 0.0000 0.0000 0.0000 4.7747 0.0000 42.4034
#
#
#
# Elastic Compliance Matrix: (Units=1/GPa)
#
#
# Indices 1 2 3 4 5 6 
#
# 1 0.015362 -0.031921 0.001726 0.000000 -0.002146 0.000000
# 2 -0.031921 0.142741 -0.027145 0.000000 0.004267 0.000000
# 3 0.001726 -0.027145 0.016381 0.000000 -0.003977 0.000000
# 4 0.000000 0.000000 0.000000 0.030857 0.000000 -0.003475
# 5 -0.002146 0.004267 -0.003977 0.000000 0.048625 0.000000
# 6 0.000000 0.000000 0.000000 -0.003475 0.000000 0.023974
#
#
# Mechanical properties :
#
#
# Convention : Reuss Voigt Hill
#
# Bulk Modulus (GPa) = 16.72131 65.05476 40.88804
# Shear Modulus (GPa) = 12.11960 29.41926 20.76943
#
# Velocity S-wave (km/s) = 2.63959 4.11252 3.45545
# Velocity P-wave (km/s) = 4.34774 7.74272 6.27903
#
# Compressibility (1/GPa) = 0.05980392
#
# Stress axis : x y z
#
# Youngs Moduli (GPa) = 65.09452 7.00572 61.04648
#
# Poissons Ratio (x) = 0.22363 -0.10538
# Poissons Ratio (y) = 2.07788 1.65713
# Poissons Ratio (z) = -0.11237 0.19017
#
# Static dielectric constant tensor:
#      x y z
#    x 1.717460 0.000000 -0.103040 
#    y 0.000000 1.583720 0.000000 
#    z -0.103040 0.000000 1.645220 
# 
# From -- ./inp_files/86857.got.cif
#   From: 2010.05.17/outbox.cif.g08.bks.cpg/sg10_44_cif.got.tgz:86857.got - 2010.06.03 11:33:40.
