data_PCOD9147460
_publ_section_title
;
Structure prediction by ZEFSAII (Michael W. Deem and Ramdas Pophale) SiO2 
 PCOD9147460
Probable space group: P 2/M
;
_chemical_formula_sum "Si O2"
_cell_formula_units_Z 28
_cell_length_a 7.657818
_cell_length_b 9.313023
_cell_length_c 27.971321
_cell_angle_alpha 90.000000
_cell_angle_beta 134.092048
_cell_angle_gamma 90.000000
_cell_volume 1432.741784
_symmetry_space_group_name_H-M "P 2/M"
_symmetry_group_IT_number 10
_symmetry_cell_setting 'monoclinic'
loop_
_space_group_symop_operation_xyz
x,y,z
-x,y,-z
-x,-y,-z
x,-y,z
loop_
_atom_site_type_symbol
_atom_site_label
_atom_site_fract_x
_atom_site_fract_y
_atom_site_fract_z
Si Si1 0.782233 0.169663 0.335591
Si Si2 0.352107 0.836738 0.927056
Si Si3 0.646964 0.831380 0.576332
Si Si4 0.232185 0.835980 0.074239
Si Si5 0.442448 0.332857 0.796239
Si Si6 0.022071 0.666666 0.797510
Si Si7 0.525357 0.327591 0.649759
O O1 0.634736 0.240519 0.263915
O O2 0.700400 0.252237 0.367504
O O3 0.067096 0.188473 0.379010
O O4 0.731808 0.000000 0.329750
O O5 0.546588 0.842246 0.921207
O O6 0.123331 0.754177 0.861798
O O7 0.283384 0.000000 0.927172
O O8 0.500000 0.772436 0.000000
O O9 0.500000 0.800513 0.500000
O O10 0.564383 0.733021 0.604310
O O11 0.607713 0.000000 0.581060
O O12 0.321393 0.733703 0.133346
O O13 0.184940 0.000000 0.081678
O O14 0.000000 0.785417 0.000000
O O15 0.474999 0.500000 0.789930
O O16 0.221745 0.323329 0.792832
O O17 0.003280 0.500000 0.807334
O O18 0.765212 0.713070 0.726602
O O19 0.505608 0.500000 0.645995
#
# Coordination Sequence:
#
# PCOD9147460 Si02
#       7
#     4   4   4   4   4   4   4
#     4  11  23  39  63  93 123 159 205 251 302 362
#     4   9  18  31  48  72 103 143 190 241 293 347
#     4  10  23  44  68  93 125 164 204 251 305 362
#     4   9  18  32  49  72 106 147 194 245 299 359
#     4  10  19  35  57  81 113 152 199 250 304 362
#     4   9  19  35  55  79 110 151 194 242 297 355
#     4  11  23  40  63  93 127 161 203 250 303 365
#
# _framework density 19.542950000000001
#
# number of rings (size 3 to 8) (size 9 to 14) (size 15 to 20)
#    0.000    2.143    1.429    1.286    0.000    4.857 
#    0.000    4.286    0.000    0.000    0.000    0.000 
#    0.000    0.000    0.000    0.000    0.000    0.000 
#
# Total GULP energy -156389.806010 kJ/mol
# GULP energy per Si atom -5585.350215 kJ/mol
# Density = 1.949847 g / cm^3
# Si number density = 19.542950 Si / 1000 Ang^3
#
#
#
# Elastic Constant Matrix: (Units=GPa)
#
#
# Indices 1 2 3 4 5 6 
#
# 1 66.4494 49.6042 26.3025 0.0000 -14.6644 0.0000
# 2 49.6042 93.9726 65.3822 0.0000 -16.3547 0.0000
# 3 26.3025 65.3822 112.7073 0.0000 -17.2482 0.0000
# 4 0.0000 0.0000 0.0000 19.0061 0.0000 -4.9581
# 5 -14.6644 -16.3547 -17.2482 0.0000 16.8714 0.0000
# 6 0.0000 0.0000 0.0000 -4.9581 0.0000 -111.0530
#
#
#
# Elastic Compliance Matrix: (Units=1/GPa)
#
#
# Indices 1 2 3 4 5 6 
#
# 1 0.027861 -0.015498 0.004618 0.000000 0.013914 0.000000
# 2 -0.015498 0.027414 -0.012188 0.000000 0.000644 0.000000
# 3 0.004618 -0.012188 0.016207 0.000000 0.008768 0.000000
# 4 0.000000 0.000000 0.000000 0.052009 0.000000 -0.002322
# 5 0.013914 0.000644 0.008768 0.000000 0.080954 0.000000
# 6 0.000000 0.000000 0.000000 -0.002322 0.000000 -0.008901
#
#
# Mechanical properties :
#
#
# Convention : Reuss Voigt Hill
#
# Bulk Modulus (GPa) = 39.45370 61.74523 50.59946
# Shear Modulus (GPa) = 19.98978 -6.24573 6.87202
#
# Velocity S-wave (km/s) = 3.20169 -1.78965 1.87723
# Velocity P-wave (km/s) = 5.82236 5.23381 5.53591
#
# Compressibility (1/GPa) = 0.02534617
#
# Stress axis : x y z
#
# Youngs Moduli (GPa) = 35.89246 36.47790 61.70243
#
# Poissons Ratio (x) = 0.56534 -0.28494
# Poissons Ratio (y) = 0.55626 0.75201
# Poissons Ratio (z) = -0.16575 0.44458
#
# Static dielectric constant tensor:
#      x y z
#    x 1.706080 0.000000 0.007210 
#    y 0.000000 1.661360 0.000000 
#    z 0.007210 0.000000 1.661760 
# 
# From -- ./inp_files/90362.got.cif
#   From: 2010.05.17/outbox.cif.g08.bks.cpg/sg10_46_cif.got.tgz:90362.got - 2010.06.03 11:33:40.
