data_PCOD9147689
_publ_section_title
;
Structure prediction by ZEFSAII (Michael W. Deem and Ramdas Pophale) SiO2 
 PCOD9147689
Probable space group: P 2/M
;
_chemical_formula_sum "Si O2"
_cell_formula_units_Z 28
_cell_length_a 8.864404
_cell_length_b 31.858032
_cell_length_c 5.506985
_cell_angle_alpha 90.000000
_cell_angle_beta 124.623706
_cell_angle_gamma 90.000000
_cell_volume 1279.764785
_symmetry_space_group_name_H-M "P 2/M"
_symmetry_group_IT_number 10
_symmetry_cell_setting 'monoclinic'
loop_
_space_group_symop_operation_xyz
x,y,z
-x,y,-z
-x,-y,-z
x,-y,z
loop_
_atom_site_type_symbol
_atom_site_label
_atom_site_fract_x
_atom_site_fract_y
_atom_site_fract_z
Si Si1 0.172640 0.954084 0.486925
Si Si2 0.188008 0.549234 0.426204
Si Si3 0.881130 0.245407 0.142667
Si Si4 0.648279 0.830583 0.825861
Si Si5 0.000000 0.883327 0.000000
Si Si6 0.618034 0.675724 0.858825
Si Si7 0.500000 0.095338 0.000000
Si Si8 0.225640 0.417525 0.961676
O O1 0.114520 0.916077 0.264451
O O2 0.335496 0.935644 0.793948
O O3 0.000000 0.959425 0.500000
O O4 0.214878 0.000000 0.412830
O O5 0.145378 0.500000 0.402690
O O6 0.289168 0.564032 0.761625
O O7 0.994971 0.574570 0.245020
O O8 0.285343 0.558799 0.261055
O O9 0.000000 0.246578 0.500000
O O10 0.724960 0.209449 0.040963
O O11 0.773198 0.288556 0.002194
O O12 0.000000 0.237482 0.000000
O O13 0.500000 0.812987 0.500000
O O14 0.539376 0.871018 0.827321
O O15 0.842121 0.852668 0.946673
O O16 0.500000 0.678579 0.500000
O O17 0.500000 0.680442 0.000000
O O18 0.714467 0.630342 0.958956
#
# Coordination Sequence:
#
# PCOD9147689 Si02
#       8
#     4   4   4   4   2   4   2   4
#     4  11  24  42  65  99 140 183 235 297 353 419
#     4  10  19  35  64 100 133 177 241 303 347 406
#     4  12  30  49  79 109 143 182 244 304 356 443
#     4  12  27  45  73 102 145 185 237 295 371 433
#     4  12  23  46  66 104 132 190 234 294 353 440
#     4  12  27  48  71 102 150 192 232 288 373 441
#     4  12  25  42  72  98 140 186 240 286 365 436
#     4  10  20  34  64  92 132 176 235 281 344 416
#
# _framework density 21.879021000000002
#
# number of rings (size 3 to 8) (size 9 to 14) (size 15 to 20)
#    0.000    0.714    3.571    4.714    9.000    0.000 
#    0.000    0.714    0.000   14.571    0.000    0.000 
#    0.000    0.000    0.000    0.000    0.000    0.000 
#
# Total GULP energy -156131.666924 kJ/mol
# GULP energy per Si atom -5576.130962 kJ/mol
# Density = 2.182922 g / cm^3
# Si number density = 21.879021 Si / 1000 Ang^3
#
#
#
# Elastic Constant Matrix: (Units=GPa)
#
#
# Indices 1 2 3 4 5 6 
#
# 1 38.2703 30.0579 44.2254 0.0000 -3.4629 0.0000
# 2 30.0579 142.9058 63.7634 0.0000 9.4927 0.0000
# 3 44.2254 63.7634 177.8101 0.0000 0.0164 0.0000
# 4 0.0000 0.0000 0.0000 55.0601 0.0000 23.5610
# 5 -3.4629 9.4927 0.0164 0.0000 42.9979 0.0000
# 6 0.0000 0.0000 0.0000 23.5610 0.0000 181.7475
#
#
#
# Elastic Compliance Matrix: (Units=1/GPa)
#
#
# Indices 1 2 3 4 5 6 
#
# 1 0.039852 -0.005056 -0.008100 0.000000 0.004329 0.000000
# 2 -0.005056 0.009120 -0.002013 0.000000 -0.002420 0.000000
# 3 -0.008100 -0.002013 0.008360 0.000000 -0.000211 0.000000
# 4 0.000000 0.000000 0.000000 0.019229 0.000000 -0.002493
# 5 0.004329 -0.002420 -0.000211 0.000000 0.024140 0.000000
# 6 0.000000 0.000000 0.000000 -0.002493 0.000000 0.005825
#
#
# Mechanical properties :
#
#
# Convention : Reuss Voigt Hill
#
# Bulk Modulus (GPa) = 37.04209 70.56441 53.80325
# Shear Modulus (GPa) = 34.27913 70.69040 52.48476
#
# Velocity S-wave (km/s) = 3.96252 5.69033 4.90313
# Velocity P-wave (km/s) = 6.15651 8.68880 7.52987
#
# Compressibility (1/GPa) = 0.02699631
#
# Stress axis : x y z
#
# Youngs Moduli (GPa) = 25.09257 109.65128 119.61316
#
# Poissons Ratio (x) = 0.55439 0.96881
# Poissons Ratio (y) = 0.12687 0.24074
# Poissons Ratio (z) = 0.20324 0.22069
#
# Static dielectric constant tensor:
#      x y z
#    x 1.843440 0.000000 -0.133350 
#    y 0.000000 1.818220 0.000000 
#    z -0.133350 0.000000 1.449000 
# 
# From -- ./inp_files/5560.got.cif
#   From: 2010.05.17/outbox.cif.g08.bks.cpg/sg10_3_cif.got.tgz:5560.got - 2010.06.03 11:33:40.
