data_PCOD9147690
_publ_section_title
;
Structure prediction by ZEFSAII (Michael W. Deem and Ramdas Pophale) SiO2 
 PCOD9147690
Probable space group: P 2/M
;
_chemical_formula_sum "Si O2"
_cell_formula_units_Z 18
_cell_length_a 7.766994
_cell_length_b 18.977126
_cell_length_c 5.637326
_cell_angle_alpha 90.000000
_cell_angle_beta 120.566078
_cell_angle_gamma 90.000000
_cell_volume 715.453693
_symmetry_space_group_name_H-M "P 2/M"
_symmetry_group_IT_number 10
_symmetry_cell_setting 'monoclinic'
loop_
_space_group_symop_operation_xyz
x,y,z
-x,y,-z
-x,-y,-z
x,-y,z
loop_
_atom_site_type_symbol
_atom_site_label
_atom_site_fract_x
_atom_site_fract_y
_atom_site_fract_z
Si Si1 0.690043 0.208413 0.462591
Si Si2 0.779792 0.581973 0.056581
Si Si3 0.000000 0.861522 0.000000
Si Si4 0.778149 0.076777 0.231063
Si Si5 0.238430 0.367884 0.461919
O O1 0.500000 0.204583 0.500000
O O2 0.674354 0.145677 0.262300
O O3 0.718877 0.289121 0.413700
O O4 0.894168 0.188799 0.740327
O O5 0.795252 0.500000 0.001309
O O6 0.692660 0.585900 0.263901
O O7 0.002254 0.614735 0.254537
O O8 0.687190 0.620635 0.759037
O O9 0.172588 0.909735 0.009005
O O10 0.000000 0.075077 0.500000
O O11 0.691198 0.000000 0.222099
#
# Coordination Sequence:
#
# PCOD9147690 Si02
#       5
#     4   4   2   4   4
#     4  11  25  40  61  95 133 173 221 271 330 402
#     4  10  19  35  64  94 123 170 224 271 331 404
#     4  10  21  40  68  88 123 170 218 276 339 388
#     4   9  20  39  65  94 127 168 221 277 330 394
#     4  10  20  33  58  90 128 165 212 275 325 389
#
# _framework density 25.158859
#
# number of rings (size 3 to 8) (size 9 to 14) (size 15 to 20)
#    0.000    2.000    0.000    5.000   12.444    2.222 
#    0.000    1.111    0.000    7.333    0.000    0.000 
#    0.000    0.000    0.000    0.000    0.000    0.000 
#
# Total GULP energy -100506.537877 kJ/mol
# GULP energy per Si atom -5583.696549 kJ/mol
# Density = 2.510160 g / cm^3
# Si number density = 25.158859 Si / 1000 Ang^3
#
#
#
# Elastic Constant Matrix: (Units=GPa)
#
#
# Indices 1 2 3 4 5 6 
#
# 1 59.6269 20.4012 15.4737 0.0000 2.8058 0.0000
# 2 20.4012 217.9707 27.0600 0.0000 -10.5161 0.0000
# 3 15.4737 27.0600 139.1945 0.0000 2.0679 0.0000
# 4 0.0000 0.0000 0.0000 -94.2973 0.0000 -135.1100
# 5 2.8058 -10.5161 2.0679 0.0000 47.5803 0.0000
# 6 0.0000 0.0000 0.0000 -135.1100 0.0000 -147.2584
#
#
#
# Elastic Compliance Matrix: (Units=1/GPa)
#
#
# Indices 1 2 3 4 5 6 
#
# 1 0.017785 -0.001522 -0.001662 0.000000 -0.001313 0.000000
# 2 -0.001522 0.004887 -0.000799 0.000000 0.001205 0.000000
# 3 -0.001662 -0.000799 0.007530 0.000000 -0.000406 0.000000
# 4 0.000000 0.000000 0.000000 0.033708 0.000000 -0.030927
# 5 -0.001313 0.001205 -0.000406 0.000000 0.021378 0.000000
# 6 0.000000 0.000000 0.000000 -0.030927 0.000000 0.021585
#
#
# Mechanical properties :
#
#
# Convention : Reuss Voigt Hill
#
# Bulk Modulus (GPa) = 44.96837 60.29577 52.63207
# Shear Modulus (GPa) = 40.89946 -15.20459 12.84744
#
# Velocity S-wave (km/s) = 4.03631 -2.46101 2.26221
# Velocity P-wave (km/s) = 6.29563 3.99282 5.27151
#
# Compressibility (1/GPa) = 0.02223785
#
# Stress axis : x y z
#
# Youngs Moduli (GPa) = 56.22848 204.60408 132.79752
#
# Poissons Ratio (x) = 0.31133 0.22067
# Poissons Ratio (y) = 0.08556 0.10609
# Poissons Ratio (z) = 0.09344 0.16346
#
# Static dielectric constant tensor:
#      x y z
#    x 2.228850 0.000000 -0.138050 
#    y 0.000000 1.954080 0.000000 
#    z -0.138050 0.000000 2.065450 
# 
# From -- ./inp_files/4184.got.cif
#   From: 2010.05.17/outbox.cif.g08.bks.cpg/sg10_3_cif.got.tgz:4184.got - 2010.06.03 11:33:40.
