data_PCOD9147326
_publ_section_title
;
Structure prediction by ZEFSAII (Michael W. Deem and Ramdas Pophale) SiO2 
 PCOD9147326
Probable space group: P 2/M
;
_chemical_formula_sum "Si O2"
_cell_formula_units_Z 32
_cell_length_a 12.622169
_cell_length_b 8.213401
_cell_length_c 15.493111
_cell_angle_alpha 90.000000
_cell_angle_beta 77.642474
_cell_angle_gamma 90.000000
_cell_volume 1568.971918
_symmetry_space_group_name_H-M "P 2/M"
_symmetry_group_IT_number 10
_symmetry_cell_setting 'monoclinic'
loop_
_space_group_symop_operation_xyz
x,y,z
-x,y,-z
-x,-y,-z
x,-y,z
loop_
_atom_site_type_symbol
_atom_site_label
_atom_site_fract_x
_atom_site_fract_y
_atom_site_fract_z
Si Si1 0.398833 0.685724 0.580005
Si Si2 0.754508 0.302244 0.681211
Si Si3 0.503192 0.696423 0.732835
Si Si4 0.114224 0.188843 0.175345
Si Si5 0.811168 0.301137 0.479987
Si Si6 0.876783 0.309793 0.010803
Si Si7 0.891269 0.693775 0.285327
Si Si8 0.284992 0.809510 0.817119
O O1 0.500000 0.671176 0.500000
O O2 0.363438 0.500000 0.608540
O O3 0.447548 0.766154 0.655894
O O4 0.301829 0.757553 0.542028
O O5 0.755715 0.500000 0.680532
O O6 0.628163 0.249464 0.714526
O O7 0.821637 0.240719 0.750592
O O8 0.808198 0.248313 0.580276
O O9 0.509456 0.500000 0.725447
O O10 0.405706 0.739436 0.814821
O O11 0.987979 0.221278 0.217539
O O12 0.131547 0.000000 0.153774
O O13 0.149686 0.288769 0.085150
O O14 0.813514 0.500000 0.483396
O O15 0.891789 0.257368 0.387086
O O16 0.877160 0.500000 0.035377
O O17 0.792870 0.223132 0.088134
O O18 0.000000 0.246649 0.000000
O O19 0.908503 0.500000 0.278739
O O20 0.779064 0.732305 0.254409
O O21 0.293781 0.000000 0.799839
#
# Coordination Sequence:
#
# PCOD9147326 Si02
#       8
#     4   4   4   4   4   4   4   4
#     4   9  13  23  49  85 116 146 197 258 301 331
#     4  10  21  39  63  89 119 166 219 258 293 347
#     4  10  19  34  60  89 122 162 208 256 299 349
#     4  12  26  43  62  87 125 164 197 245 311 377
#     4   9  17  30  56  90 121 156 207 262 301 337
#     4  11  23  42  71  97 117 148 198 255 303 358
#     4  11  21  37  62  91 122 158 207 259 300 351
#     4  12  24  37  59  95 133 160 189 242 314 376
#
# _framework density 20.395522
#
# number of rings (size 3 to 8) (size 9 to 14) (size 15 to 20)
#    0.000    1.500    3.750    3.000    0.000    1.500 
#    0.000    4.375    0.000    4.875    0.000    0.000 
#    0.000    0.000    0.000    0.000    0.000    0.000 
#
# Total GULP energy -178448.847979 kJ/mol
# GULP energy per Si atom -5576.526499 kJ/mol
# Density = 2.034910 g / cm^3
# Si number density = 20.395522 Si / 1000 Ang^3
#
#
#
# Elastic Constant Matrix: (Units=GPa)
#
#
# Indices 1 2 3 4 5 6 
#
# 1 43.9574 -0.6736 24.3173 0.0000 -5.7080 0.0000
# 2 -0.6736 29.3408 0.0674 0.0000 -4.3507 0.0000
# 3 24.3173 0.0674 103.3149 0.0000 -8.2401 0.0000
# 4 0.0000 0.0000 0.0000 -13.0986 0.0000 26.2601
# 5 -5.7080 -4.3507 -8.2401 0.0000 31.7315 0.0000
# 6 0.0000 0.0000 0.0000 26.2601 0.0000 -37.2486
#
#
#
# Elastic Compliance Matrix: (Units=1/GPa)
#
#
# Indices 1 2 3 4 5 6 
#
# 1 0.026507 0.001122 -0.005971 0.000000 0.003372 0.000000
# 2 0.001122 0.034851 0.000113 0.000000 0.005009 0.000000
# 3 -0.005971 0.000113 0.011233 0.000000 0.001858 0.000000
# 4 0.000000 0.000000 0.000000 0.184684 0.000000 0.130201
# 5 0.003372 0.005009 0.001858 0.000000 0.033290 0.000000
# 6 0.000000 0.000000 0.000000 0.130201 0.000000 0.064945
#
#
# Mechanical properties :
#
#
# Convention : Reuss Voigt Hill
#
# Bulk Modulus (GPa) = 15.84318 24.89280 20.36799
# Shear Modulus (GPa) = 12.95266 6.47033 9.71149
#
# Velocity S-wave (km/s) = 2.52280 1.78306 2.18447
# Velocity P-wave (km/s) = 4.03372 4.05840 4.04608
#
# Compressibility (1/GPa) = 0.06311865
#
# Stress axis : x y z
#
# Youngs Moduli (GPa) = 37.72529 28.69398 89.02622
#
# Poissons Ratio (x) = -0.03220 0.53156
# Poissons Ratio (y) = -0.04234 -0.01003
# Poissons Ratio (z) = 0.22525 -0.00323
#
# Static dielectric constant tensor:
#      x y z
#    x 1.757640 0.000000 -0.040180 
#    y 0.000000 1.719600 0.000000 
#    z -0.040180 0.000000 1.769780 
# 
# From -- ./inp_files/63758.got.cif
#   From: 2010.05.17/outbox.cif.g08.bks.cpg/sg10_32_cif.got.tgz:63758.got - 2010.06.03 11:33:40.
