data_PCOD9147941
_publ_section_title
;
Structure prediction by ZEFSAII (Michael W. Deem and Ramdas Pophale) SiO2 
 PCOD9147941
Probable space group: P 2/M
;
_chemical_formula_sum "Si O2"
_cell_formula_units_Z 24
_cell_length_a 9.277237
_cell_length_b 16.747904
_cell_length_c 10.586353
_cell_angle_alpha 90.000000
_cell_angle_beta 137.928907
_cell_angle_gamma 90.000000
_cell_volume 1102.133281
_symmetry_space_group_name_H-M "P 2/M"
_symmetry_group_IT_number 10
_symmetry_cell_setting 'monoclinic'
loop_
_space_group_symop_operation_xyz
x,y,z
-x,y,-z
-x,-y,-z
x,-y,z
loop_
_atom_site_type_symbol
_atom_site_label
_atom_site_fract_x
_atom_site_fract_y
_atom_site_fract_z
Si Si1 0.229676 0.660527 0.101017
Si Si2 0.677981 0.180101 0.928467
Si Si3 0.778501 0.175520 0.278340
Si Si4 0.822777 0.000000 0.991854
Si Si5 0.322142 0.596182 0.613632
Si Si6 0.170510 0.000000 0.720896
Si Si7 0.851116 0.596269 0.223310
O O1 0.229796 0.756391 0.109471
O O2 0.456337 0.628248 0.299953
O O3 0.241759 0.633767 0.962635
O O4 0.000000 0.628767 0.000000
O O5 0.430357 0.207526 0.787199
O O6 0.791725 0.196262 0.139021
O O7 0.704197 0.086727 0.908149
O O8 0.710272 0.082011 0.221552
O O9 0.000000 0.185148 0.500000
O O10 0.921084 0.000000 0.197610
O O11 0.000000 0.000000 0.000000
O O12 0.334437 0.500000 0.621672
O O13 0.268977 0.619535 0.725201
O O14 0.102628 0.619078 0.399095
O O15 0.000000 0.000000 0.500000
O O16 0.837624 0.500000 0.205930
#
# Coordination Sequence:
#
# PCOD9147941 Si02
#       7
#     4   4   4   2   4   2   4
#     4  12  25  37  53  86 127 157 189 239 296 356
#     4  10  22  36  56  86 113 153 203 241 290 352
#     4   9  18  34  58  83 106 138 188 252 300 337
#     4  10  19  37  60  78 116 168 199 238 302 364
#     4   9  20  40  65  89 113 149 197 243 287 343
#     4   8  15  31  57  84 107 131 187 256 301 343
#     4   9  20  40  65  89 113 148 197 244 285 343
#
# _framework density 21.775950000000002
#
# number of rings (size 3 to 8) (size 9 to 14) (size 15 to 20)
#    0.000    2.333    0.000    3.000    4.667    6.667 
#    0.000    1.667    0.000   24.000    0.000    0.000 
#    0.000    0.000    0.000    0.000    0.000    0.000 
#
# Total GULP energy -133812.169950 kJ/mol
# GULP energy per Si atom -5575.507081 kJ/mol
# Density = 2.172639 g / cm^3
# Si number density = 21.775950 Si / 1000 Ang^3
#
#
#
# Elastic Constant Matrix: (Units=GPa)
#
#
# Indices 1 2 3 4 5 6 
#
# 1 66.3080 17.5160 33.9824 0.0000 35.0196 0.0000
# 2 17.5160 70.3057 26.8588 0.0000 14.6199 0.0000
# 3 33.9824 26.8588 108.9603 0.0000 30.7350 0.0000
# 4 0.0000 0.0000 0.0000 11.8079 0.0000 11.7701
# 5 35.0196 14.6199 30.7350 0.0000 35.0725 0.0000
# 6 0.0000 0.0000 0.0000 11.7701 0.0000 10.7084
#
#
#
# Elastic Compliance Matrix: (Units=1/GPa)
#
#
# Indices 1 2 3 4 5 6 
#
# 1 0.032134 -0.001224 -0.001081 0.000000 -0.030629 0.000000
# 2 -0.001224 0.016226 -0.002730 0.000000 -0.003150 0.000000
# 3 -0.001081 -0.002730 0.012702 0.000000 -0.008914 0.000000
# 4 0.000000 0.000000 0.000000 -0.885691 0.000000 0.973500
# 5 -0.030629 -0.003150 -0.008914 0.000000 0.068219 0.000000
# 6 0.000000 0.000000 0.000000 0.973500 0.000000 -0.976629
#
#
# Mechanical properties :
#
#
# Convention : Reuss Voigt Hill
#
# Bulk Modulus (GPa) = 19.61010 44.69871 32.15440
# Shear Modulus (GPa) = -2.93088 22.66557 9.86734
#
# Velocity S-wave (km/s) = -1.16140 3.22973 2.13100
# Velocity P-wave (km/s) = 2.68821 5.87191 4.56650
#
# Compressibility (1/GPa) = 0.05099413
#
# Stress axis : x y z
#
# Youngs Moduli (GPa) = 31.11928 61.62836 78.72756
#
# Poissons Ratio (x) = 0.07543 0.08508
# Poissons Ratio (y) = 0.03809 0.21489
# Poissons Ratio (z) = 0.03363 0.16822
#
# Static dielectric constant tensor:
#      x y z
#    x 1.784770 0.000000 0.019240 
#    y 0.000000 1.886130 0.000000 
#    z 0.019240 0.000000 1.771810 
# 
# From -- ./inp_files/43539.got.cif
#   From: 2010.05.17/outbox.cif.g08.bks.cpg/sg10_22_cif.got.tgz:43539.got - 2010.06.03 11:33:40.
