data_PCOD9147953
_publ_section_title
;
Structure prediction by ZEFSAII (Michael W. Deem and Ramdas Pophale) SiO2 
 PCOD9147953
Probable space group: P 2/M
;
_chemical_formula_sum "Si O2"
_cell_formula_units_Z 32
_cell_length_a 13.196959
_cell_length_b 13.834412
_cell_length_c 18.753423
_cell_angle_alpha 90.000000
_cell_angle_beta 151.450008
_cell_angle_gamma 90.000000
_cell_volume 1636.346251
_symmetry_space_group_name_H-M "P 2/M"
_symmetry_group_IT_number 10
_symmetry_cell_setting 'monoclinic'
loop_
_space_group_symop_operation_xyz
x,y,z
-x,y,-z
-x,-y,-z
x,-y,z
loop_
_atom_site_type_symbol
_atom_site_label
_atom_site_fract_x
_atom_site_fract_y
_atom_site_fract_z
Si Si1 0.159513 0.112066 0.919836
Si Si2 0.817806 0.314689 0.539274
Si Si3 0.257245 0.610490 0.751524
Si Si4 0.482979 0.610175 0.230850
Si Si5 0.746472 0.615440 0.650392
Si Si6 0.981699 0.890454 0.647454
Si Si7 0.587074 0.821209 0.129098
Si Si8 0.045152 0.282878 0.944531
O O1 0.062751 0.121728 0.779793
O O2 0.040718 0.180836 0.901279
O O3 0.149989 0.000000 0.932770
O O4 0.403868 0.147956 0.069263
O O5 0.597367 0.353282 0.372606
O O6 0.845244 0.341753 0.638912
O O7 0.012644 0.364754 0.617075
O O8 0.828585 0.199129 0.537721
O O9 0.301874 0.500000 0.805097
O O10 0.336071 0.612248 0.718558
O O11 0.377823 0.705684 0.855473
O O12 0.413708 0.500000 0.197497
O O13 0.279179 0.670805 0.082069
O O14 0.500000 0.645084 0.500000
O O15 0.756164 0.500000 0.651908
O O16 0.875975 0.651082 0.798654
O O17 0.184938 0.870552 0.722267
O O18 0.904521 0.000000 0.591188
O O19 0.500000 0.858194 0.000000
O O20 0.000000 0.275143 0.000000
#
# Coordination Sequence:
#
# PCOD9147953 Si02
#       8
#     4   4   4   4   4   4   4   4
#     4  10  19  37  61  86 120 158 200 251 311 361
#     4  11  21  38  62  90 125 163 208 250 296 359
#     4  10  20  33  55  87 128 167 200 238 296 365
#     4  11  23  39  60  89 128 169 200 239 303 368
#     4  11  24  43  66  91 119 158 207 253 302 360
#     4   9  18  34  61  90 119 158 205 253 300 354
#     4   9  17  31  54  88 123 160 200 243 297 362
#     4  12  25  42  62  90 121 158 205 259 308 362
#
# _framework density 19.555764
#
# number of rings (size 3 to 8) (size 9 to 14) (size 15 to 20)
#    0.000    1.625    2.500    3.000    0.000    5.000 
#    0.000    0.625    0.000    4.500    0.000    0.000 
#    0.000    0.000    0.000    0.000    0.000    0.000 
#
# Total GULP energy -178524.652755 kJ/mol
# GULP energy per Si atom -5578.895399 kJ/mol
# Density = 1.951125 g / cm^3
# Si number density = 19.555764 Si / 1000 Ang^3
#
#
#
# Elastic Constant Matrix: (Units=GPa)
#
#
# Indices 1 2 3 4 5 6 
#
# 1 58.8815 15.0408 4.4077 0.0000 6.7248 0.0000
# 2 15.0408 116.3595 3.6069 0.0000 8.9273 0.0000
# 3 4.4077 3.6069 19.7485 0.0000 -3.2291 0.0000
# 4 0.0000 0.0000 0.0000 16.8808 0.0000 -9.3341
# 5 6.7248 8.9273 -3.2291 0.0000 15.6501 0.0000
# 6 0.0000 0.0000 0.0000 -9.3341 0.0000 15.7490
#
#
#
# Elastic Compliance Matrix: (Units=1/GPa)
#
#
# Indices 1 2 3 4 5 6 
#
# 1 0.018726 -0.001630 -0.005222 0.000000 -0.008194 0.000000
# 2 -0.001630 0.009257 -0.002148 0.000000 -0.005023 0.000000
# 3 -0.005222 -0.002148 0.054604 0.000000 0.014736 0.000000
# 4 0.000000 0.000000 0.000000 0.088116 0.000000 0.052225
# 5 -0.008194 -0.005023 0.014736 0.000000 0.073324 0.000000
# 6 0.000000 0.000000 0.000000 0.052225 0.000000 0.094449
#
#
# Mechanical properties :
#
#
# Convention : Reuss Voigt Hill
#
# Bulk Modulus (GPa) = 15.48296 26.78893 21.13594
# Shear Modulus (GPa) = 13.22732 21.11825 17.17278
#
# Velocity S-wave (km/s) = 2.60357 3.28975 2.96656
# Velocity P-wave (km/s) = 4.11979 5.30645 4.75032
#
# Compressibility (1/GPa) = 0.06458715
#
# Stress axis : x y z
#
# Youngs Moduli (GPa) = 53.40063 108.02949 18.31370
#
# Poissons Ratio (x) = 0.17610 0.09563
# Poissons Ratio (y) = 0.08705 0.03934
# Poissons Ratio (z) = 0.27884 0.23207
#
# Static dielectric constant tensor:
#      x y z
#    x 1.701530 0.000000 0.007930 
#    y 0.000000 1.675130 0.000000 
#    z 0.007930 0.000000 1.677180 
# 
# From -- ./inp_files/77062.got.cif
#   From: 2010.05.17/outbox.cif.g08.bks.cpg/sg10_39_cif.got.tgz:77062.got - 2010.06.03 11:33:40.
