data_PCOD9147069
_publ_section_title
;
Structure prediction by ZEFSAII (Michael W. Deem and Ramdas Pophale) SiO2 
 PCOD9147069
Probable space group: P 2/M
;
_chemical_formula_sum "Si O2"
_cell_formula_units_Z 32
_cell_length_a 12.949197
_cell_length_b 8.628336
_cell_length_c 32.135801
_cell_angle_alpha 90.000000
_cell_angle_beta 27.029441
_cell_angle_gamma 90.000000
_cell_volume 1631.711886
_symmetry_space_group_name_H-M "P 2/M"
_symmetry_group_IT_number 10
_symmetry_cell_setting 'monoclinic'
loop_
_space_group_symop_operation_xyz
x,y,z
-x,y,-z
-x,-y,-z
x,-y,z
loop_
_atom_site_type_symbol
_atom_site_label
_atom_site_fract_x
_atom_site_fract_y
_atom_site_fract_z
Si Si1 0.738329 0.816317 0.101232
Si Si2 0.115328 0.181514 0.636201
Si Si3 0.417213 0.815026 0.377976
Si Si4 0.556025 0.684061 0.723929
Si Si5 0.634422 0.678403 0.824052
Si Si6 0.314772 0.681546 0.098654
Si Si7 0.821321 0.813334 0.294341
Si Si8 0.064820 0.683659 0.566804
O O1 0.645075 0.771291 0.180060
O O2 0.579336 0.724605 0.126372
O O3 0.711067 0.000000 0.104496
O O4 0.000000 0.776107 0.000000
O O5 0.845590 0.209574 0.739043
O O6 0.215021 0.240056 0.644592
O O7 0.168129 0.266025 0.574097
O O8 0.168601 0.000000 0.612326
O O9 0.426508 0.734095 0.330099
O O10 0.625535 0.763968 0.332961
O O11 0.191853 0.770444 0.484070
O O12 0.429317 0.000000 0.368037
O O13 0.521606 0.500000 0.739418
O O14 0.796361 0.721072 0.660205
O O15 0.704720 0.500000 0.789645
O O16 0.585921 0.689579 0.890415
O O17 0.277751 0.500000 0.101736
O O18 0.068065 0.759916 0.189750
O O19 0.500000 0.745971 0.000000
O O20 0.820392 0.000000 0.296556
O O21 0.088936 0.500000 0.552566
#
# Coordination Sequence:
#
# PCOD9147069 Si02
#       8
#     4   4   4   4   4   4   4   4
#     4  11  24  40  60  88 119 154 199 246 297 356
#     4  10  19  35  61  86 114 153 196 242 294 349
#     4  11  24  41  61  87 123 162 201 246 299 359
#     4  11  24  42  63  87 120 157 200 252 301 355
#     4  10  19  34  56  83 115 150 191 242 295 348
#     4   9  19  35  57  85 115 151 196 241 290 354
#     4   9  21  39  57  84 119 155 196 245 297 351
#     4  11  23  39  61  90 120 154 202 251 300 358
#
# _framework density 19.611305000000002
#
# number of rings (size 3 to 8) (size 9 to 14) (size 15 to 20)
#    0.000    1.750    1.250    2.625    0.000    7.750 
#    0.000    5.000    0.000    0.000    0.000    0.000 
#    0.000    0.000    0.000    0.000    0.000    0.000 
#
# Total GULP energy -178765.988682 kJ/mol
# GULP energy per Si atom -5586.437146 kJ/mol
# Density = 1.956667 g / cm^3
# Si number density = 19.611305 Si / 1000 Ang^3
#
#
#
# Elastic Constant Matrix: (Units=GPa)
#
#
# Indices 1 2 3 4 5 6 
#
# 1 78.1505 14.2450 15.6174 0.0000 5.4156 0.0000
# 2 14.2450 17.7783 4.8998 0.0000 -1.6008 0.0000
# 3 15.6174 4.8998 71.0990 0.0000 11.6263 0.0000
# 4 0.0000 0.0000 0.0000 8.7748 0.0000 10.9413
# 5 5.4156 -1.6008 11.6263 0.0000 23.6258 0.0000
# 6 0.0000 0.0000 0.0000 10.9413 0.0000 26.1276
#
#
#
# Elastic Compliance Matrix: (Units=1/GPa)
#
#
# Indices 1 2 3 4 5 6 
#
# 1 0.015685 -0.012315 -0.002036 0.000000 -0.003428 0.000000
# 2 -0.012315 0.067893 -0.003467 0.000000 0.009129 0.000000
# 3 -0.002036 -0.003467 0.016001 0.000000 -0.007642 0.000000
# 4 0.000000 0.000000 0.000000 0.238491 0.000000 -0.099872
# 5 -0.003428 0.009129 -0.007642 0.000000 0.047492 0.000000
# 6 0.000000 0.000000 0.000000 -0.099872 0.000000 0.080096
#
#
# Mechanical properties :
#
#
# Convention : Reuss Voigt Hill
#
# Bulk Modulus (GPa) = 15.63885 26.28358 20.96121
# Shear Modulus (GPa) = 9.56739 20.52335 15.04537
#
# Velocity S-wave (km/s) = 2.21113 3.23848 2.77280
# Velocity P-wave (km/s) = 3.80927 5.23594 4.57851
#
# Compressibility (1/GPa) = 0.06394334
#
# Stress axis : x y z
#
# Youngs Moduli (GPa) = 63.75501 14.72896 62.49732
#
# Poissons Ratio (x) = 0.18139 0.12725
# Poissons Ratio (y) = 0.78516 0.21665
# Poissons Ratio (z) = 0.12981 0.05106
#
# Static dielectric constant tensor:
#      x y z
#    x 1.691430 0.000000 0.007890 
#    y 0.000000 1.662950 0.000000 
#    z 0.007890 0.000000 1.672910 
# 
# From -- ./inp_files/94921.got.cif
#   From: 2010.05.17/outbox.cif.g08.bks.cpg/sg10_48_cif.got.tgz:94921.got - 2010.06.03 11:33:40.
