data_PCOD9147035
_publ_section_title
;
Structure prediction by ZEFSAII (Michael W. Deem and Ramdas Pophale) SiO2 
 PCOD9147035
Probable space group: P 2/M
;
_chemical_formula_sum "Si O2"
_cell_formula_units_Z 28
_cell_length_a 17.922907
_cell_length_b 10.452028
_cell_length_c 10.552753
_cell_angle_alpha 90.000000
_cell_angle_beta 128.965548
_cell_angle_gamma 90.000000
_cell_volume 1537.052571
_symmetry_space_group_name_H-M "P 2/M"
_symmetry_group_IT_number 10
_symmetry_cell_setting 'monoclinic'
loop_
_space_group_symop_operation_xyz
x,y,z
-x,y,-z
-x,-y,-z
x,-y,z
loop_
_atom_site_type_symbol
_atom_site_label
_atom_site_fract_x
_atom_site_fract_y
_atom_site_fract_z
Si Si1 0.222968 0.348536 0.298947
Si Si2 0.362970 0.346451 0.676449
Si Si3 0.096347 0.138170 0.519278
Si Si4 0.522066 0.859348 0.873853
Si Si5 0.957288 0.651124 0.733043
Si Si6 0.822538 0.348037 0.015828
Si Si7 0.723243 0.759673 0.152752
O O1 0.243917 0.500000 0.316792
O O2 0.289499 0.304583 0.486298
O O3 0.111346 0.335514 0.219017
O O4 0.232360 0.294969 0.166991
O O5 0.380352 0.500000 0.689181
O O6 0.457745 0.259552 0.759212
O O7 0.318827 0.314182 0.768496
O O8 0.090389 0.260910 0.423953
O O9 0.192082 0.150863 0.704501
O O10 0.000000 0.141347 0.500000
O O11 0.098198 0.000000 0.453716
O O12 0.498617 0.000000 0.793975
O O13 0.500000 0.866418 0.000000
O O14 0.634812 0.830951 0.991459
O O15 0.956130 0.500000 0.697030
O O16 0.066681 0.695631 0.864515
O O17 0.828357 0.500000 0.003816
O O18 0.772267 0.323377 0.095436
#
# Coordination Sequence:
#
# PCOD9147035 Si02
#       7
#     4   4   4   4   4   4   4
#     4   9  18  34  54  81 115 149 181 223 276 326
#     4  10  20  35  58  84 110 137 179 232 278 323
#     4  11  22  35  53  81 115 149 182 225 278 326
#     4   9  20  37  57  80 107 141 182 224 275 333
#     4  10  19  34  56  81 110 148 190 227 265 321
#     4  10  20  32  53  84 117 148 182 223 275 329
#     4  11  20  34  56  83 109 145 183 228 272 325
#
# _framework density 18.216684999999998
#
# number of rings (size 3 to 8) (size 9 to 14) (size 15 to 20)
#    0.000    2.000    2.857    1.286    0.000    6.286 
#    0.000    0.714    0.000    9.429    0.000    0.000 
#    0.000    0.000    0.000    0.000    0.000    0.000 
#
# Total GULP energy -155873.231935 kJ/mol
# GULP energy per Si atom -5566.901141 kJ/mol
# Density = 1.817522 g / cm^3
# Si number density = 18.216685 Si / 1000 Ang^3
#
#
#
# Elastic Constant Matrix: (Units=GPa)
#
#
# Indices 1 2 3 4 5 6 
#
# 1 51.7408 23.8772 47.2318 0.0000 19.1344 0.0000
# 2 23.8772 68.2962 34.3560 0.0000 10.1488 0.0000
# 3 47.2318 34.3560 98.9959 0.0000 3.4873 0.0000
# 4 0.0000 0.0000 0.0000 -18.6336 0.0000 -1.9303
# 5 19.1344 10.1488 3.4873 0.0000 30.2311 0.0000
# 6 0.0000 0.0000 0.0000 -1.9303 0.0000 -2.1939
#
#
#
# Elastic Compliance Matrix: (Units=1/GPa)
#
#
# Indices 1 2 3 4 5 6 
#
# 1 0.052714 -0.002256 -0.023314 0.000000 -0.029918 0.000000
# 2 -0.002256 0.018712 -0.005268 0.000000 -0.004246 0.000000
# 3 -0.023314 -0.005268 0.022562 0.000000 0.013922 0.000000
# 4 0.000000 0.000000 0.000000 -0.059049 0.000000 0.051955
# 5 -0.029918 -0.004246 0.013922 0.000000 0.051834 0.000000
# 6 0.000000 0.000000 0.000000 0.051955 0.000000 -0.501526
#
#
# Mechanical properties :
#
#
# Convention : Reuss Voigt Hill
#
# Bulk Modulus (GPa) = 30.94694 47.77364 39.36029
# Shear Modulus (GPa) = -14.60677 9.45192 -2.57743
#
# Velocity S-wave (km/s) = -2.83474 2.28032 -1.19077
# Velocity P-wave (km/s) = 2.51213 5.76327 4.44556
#
# Compressibility (1/GPa) = 0.03231337
#
# Stress axis : x y z
#
# Youngs Moduli (GPa) = 18.97029 53.44225 44.32174
#
# Poissons Ratio (x) = 0.12056 1.03329
# Poissons Ratio (y) = 0.04280 0.23348
# Poissons Ratio (z) = 0.44226 0.28153
#
# Static dielectric constant tensor:
#      x y z
#    x 1.647380 0.000000 0.014760 
#    y 0.000000 1.632870 0.000000 
#    z 0.014760 0.000000 1.661530 
# 
# From -- ./inp_files/28694.got.cif
#   From: 2010.05.17/outbox.cif.g08.bks.cpg/sg10_15_cif.got.tgz:28694.got - 2010.06.03 11:33:40.
