data_PCOD9147609
_publ_section_title
;
Structure prediction by ZEFSAII (Michael W. Deem and Ramdas Pophale) SiO2 
 PCOD9147609
Probable space group: P 2/M
;
_chemical_formula_sum "Si O2"
_cell_formula_units_Z 32
_cell_length_a 11.886110
_cell_length_b 7.600029
_cell_length_c 15.773627
_cell_angle_alpha 90.000000
_cell_angle_beta 87.605644
_cell_angle_gamma 90.000000
_cell_volume 1423.663121
_symmetry_space_group_name_H-M "P 2/M"
_symmetry_group_IT_number 10
_symmetry_cell_setting 'monoclinic'
loop_
_space_group_symop_operation_xyz
x,y,z
-x,y,-z
-x,-y,-z
x,-y,z
loop_
_atom_site_type_symbol
_atom_site_label
_atom_site_fract_x
_atom_site_fract_y
_atom_site_fract_z
Si Si1 0.061359 0.712621 0.874125
Si Si2 0.318470 0.215056 0.617735
Si Si3 0.348012 0.799328 0.433221
Si Si4 0.175715 0.712630 0.042417
Si Si5 0.570134 0.792624 0.917646
Si Si6 0.079975 0.795803 0.683013
Si Si7 0.095655 0.298638 0.432892
Si Si8 0.485062 0.214991 0.268654
O O1 0.061792 0.500000 0.873360
O O2 0.097411 0.778778 0.782072
O O3 0.932977 0.768306 0.899110
O O4 0.143199 0.768723 0.947878
O O5 0.369030 0.276965 0.526435
O O6 0.190740 0.276414 0.633156
O O7 0.393944 0.262437 0.695862
O O8 0.315282 0.000000 0.614692
O O9 0.212984 0.799662 0.429618
O O10 0.399660 0.722884 0.345493
O O11 0.390871 0.000000 0.435126
O O12 0.178283 0.500000 0.043579
O O13 0.296762 0.775158 0.069339
O O14 0.539245 0.719977 0.825379
O O15 0.542496 0.000000 0.915004
O O16 0.500000 0.718362 0.000000
O O17 0.966247 0.705762 0.655501
O O18 0.068240 0.000000 0.661492
O O19 0.119435 0.500000 0.455835
O O20 0.000000 0.228680 0.500000
O O21 0.477596 0.000000 0.265384
#
# Coordination Sequence:
#
# PCOD9147609 Si02
#       8
#     4   4   4   4   4   4   4   4
#     4   9  20  39  60  84 113 149 186 231 286 338
#     4   9  18  33  55  83 113 145 185 235 285 328
#     4  10  19  35  60  84 109 144 193 244 278 328
#     4   9  20  40  62  81 111 150 191 233 279 341
#     4  10  22  37  56  83 118 151 185 238 291 336
#     4  11  22  34  57  88 116 146 186 235 280 337
#     4  11  23  38  55  78 116 158 189 226 282 338
#     4   9  19  35  56  83 112 147 188 231 288 340
#
# _framework density 22.477228
#
# number of rings (size 3 to 8) (size 9 to 14) (size 15 to 20)
#    0.000    2.250    1.250    1.875    3.500    3.250 
#    0.000    1.250    0.000    3.750    0.000    0.000 
#    0.000    0.000    0.000    0.000    0.000    0.000 
#
# Total GULP energy -178724.243702 kJ/mol
# GULP energy per Si atom -5585.132616 kJ/mol
# Density = 2.242607 g / cm^3
# Si number density = 22.477228 Si / 1000 Ang^3
#
#
#
# Elastic Constant Matrix: (Units=GPa)
#
#
# Indices 1 2 3 4 5 6 
#
# 1 96.8948 -0.5664 53.1892 0.0000 22.0215 0.0000
# 2 -0.5664 53.4306 11.2703 0.0000 -2.0587 0.0000
# 3 53.1892 11.2703 172.4478 0.0000 13.3851 0.0000
# 4 0.0000 0.0000 0.0000 18.7027 0.0000 11.9032
# 5 22.0215 -2.0587 13.3851 0.0000 28.4627 0.0000
# 6 0.0000 0.0000 0.0000 11.9032 0.0000 25.2011
#
#
#
# Elastic Compliance Matrix: (Units=1/GPa)
#
#
# Indices 1 2 3 4 5 6 
#
# 1 0.014550 0.000591 -0.003794 0.000000 -0.009430 0.000000
# 2 0.000591 0.019115 -0.001560 0.000000 0.001659 0.000000
# 3 -0.003794 -0.001560 0.007112 0.000000 -0.000521 0.000000
# 4 0.000000 0.000000 0.000000 0.076450 0.000000 -0.036110
# 5 -0.009430 0.001659 -0.000521 0.000000 0.042795 0.000000
# 6 0.000000 0.000000 0.000000 -0.036110 0.000000 0.056737
#
#
# Mechanical properties :
#
#
# Convention : Reuss Voigt Hill
#
# Bulk Modulus (GPa) = 32.00029 50.06215 41.03122
# Shear Modulus (GPa) = 21.12357 31.73197 26.42777
#
# Velocity S-wave (km/s) = 3.06890 3.76139 3.43265
# Velocity P-wave (km/s) = 5.17931 6.41754 5.83138
#
# Compressibility (1/GPa) = 0.03124972
#
# Stress axis : x y z
#
# Youngs Moduli (GPa) = 68.72823 52.31445 140.61403
#
# Poissons Ratio (x) = -0.03093 0.53355
# Poissons Ratio (y) = -0.04064 0.21941
# Poissons Ratio (z) = 0.26079 0.08163
#
# Static dielectric constant tensor:
#      x y z
#    x 1.799110 0.000000 -0.003330 
#    y 0.000000 1.863710 0.000000 
#    z -0.003330 0.000000 1.848350 
# 
# From -- ./inp_files/58335.got.cif
#   From: 2010.05.17/outbox.cif.g08.bks.cpg/sg10_30_cif.got.tgz:58335.got - 2010.06.03 11:33:40.
