data_PCOD9147350
_publ_section_title
;
Structure prediction by ZEFSAII (Michael W. Deem and Ramdas Pophale) SiO2 
 PCOD9147350
Probable space group: P 2/M
;
_chemical_formula_sum "Si O2"
_cell_formula_units_Z 32
_cell_length_a 31.745670
_cell_length_b 8.563251
_cell_length_c 15.492148
_cell_angle_alpha 90.000000
_cell_angle_beta 151.335760
_cell_angle_gamma 90.000000
_cell_volume 2020.145981
_symmetry_space_group_name_H-M "P 2/M"
_symmetry_group_IT_number 10
_symmetry_cell_setting 'monoclinic'
loop_
_space_group_symop_operation_xyz
x,y,z
-x,y,-z
-x,-y,-z
x,-y,z
loop_
_atom_site_type_symbol
_atom_site_label
_atom_site_fract_x
_atom_site_fract_y
_atom_site_fract_z
Si Si1 0.608751 0.810409 0.782634
Si Si2 0.413758 0.188861 0.458148
Si Si3 0.756198 0.686511 0.763040
Si Si4 0.201100 0.187188 0.823293
Si Si5 0.881277 0.311259 0.148156
Si Si6 0.880405 0.184570 0.846090
Si Si7 0.078987 0.688548 0.454007
Si Si8 0.931717 0.686729 0.760682
O O1 0.609870 0.766413 0.683340
O O2 0.515041 0.761698 0.653161
O O3 0.608234 0.000000 0.782791
O O4 0.697742 0.757044 0.988073
O O5 0.342299 0.261983 0.392404
O O6 0.409063 0.000000 0.455105
O O7 0.761968 0.500000 0.765774
O O8 0.797088 0.763455 0.751675
O O9 0.817199 0.735152 0.954373
O O10 0.152427 0.243026 0.822604
O O11 0.149883 0.249021 0.648330
O O12 0.201116 0.000000 0.822016
O O13 0.879662 0.500000 0.150898
O O14 0.980890 0.262322 0.306392
O O15 0.878497 0.234918 0.742744
O O16 0.893623 0.000000 0.875760
O O17 0.966290 0.268938 0.040414
O O18 0.079991 0.500000 0.457782
O O19 0.093876 0.736972 0.381666
O O20 0.923661 0.500000 0.752895
#
# Coordination Sequence:
#
# PCOD9147350 Si02
#       8
#     4   4   4   4   4   4   4   4
#     4   8  16  30  48  69  96 128 160 199 250 293
#     4   9  16  31  51  69  94 128 163 200 243 296
#     4  11  20  32  49  73 100 131 164 200 244 291
#     4  11  21  32  48  72  97 128 169 209 243 280
#     4  10  20  34  47  64  96 136 171 199 234 286
#     4  11  21  32  50  75 100 126 160 202 247 292
#     4  10  21  36  50  66  94 136 171 198 240 287
#     4  10  19  35  53  70  96 130 165 201 244 290
#
# _framework density 15.840439999999999
#
# number of rings (size 3 to 8) (size 9 to 14) (size 15 to 20)
#    0.000    2.000    2.500    4.125    0.000    3.500 
#    0.000    2.500    0.000    0.000    0.000    0.875 
#    0.000    7.000    0.000    0.000    0.000    0.000 
#
# Total GULP energy -178564.112336 kJ/mol
# GULP energy per Si atom -5580.128510 kJ/mol
# Density = 1.580439 g / cm^3
# Si number density = 15.840440 Si / 1000 Ang^3
#
#
#
# Elastic Constant Matrix: (Units=GPa)
#
#
# Indices 1 2 3 4 5 6 
#
# 1 123.1059 13.1244 65.1488 0.0000 5.4219 0.0000
# 2 13.1244 12.2343 8.2912 0.0000 -1.9419 0.0000
# 3 65.1488 8.2912 98.4973 0.0000 2.0142 0.0000
# 4 0.0000 0.0000 0.0000 133.1961 0.0000 12.8849
# 5 5.4219 -1.9419 2.0142 0.0000 22.0443 0.0000
# 6 0.0000 0.0000 0.0000 12.8849 0.0000 16.3228
#
#
#
# Elastic Compliance Matrix: (Units=1/GPa)
#
#
# Indices 1 2 3 4 5 6 
#
# 1 0.013594 -0.009635 -0.008110 0.000000 -0.003451 0.000000
# 2 -0.009635 0.095061 -0.001852 0.000000 0.010913 0.000000
# 3 -0.008110 -0.001852 0.015664 0.000000 0.000400 0.000000
# 4 0.000000 0.000000 0.000000 0.008128 0.000000 -0.006416
# 5 -0.003451 0.010913 0.000400 0.000000 0.047137 0.000000
# 6 0.000000 0.000000 0.000000 -0.006416 0.000000 0.066329
#
#
# Mechanical properties :
#
#
# Convention : Reuss Voigt Hill
#
# Bulk Modulus (GPa) = 11.74738 45.21848 28.48293
# Shear Modulus (GPa) = 15.94982 44.13084 30.04033
#
# Velocity S-wave (km/s) = 3.17662 5.28395 4.35953
# Velocity P-wave (km/s) = 4.57020 8.11388 6.58490
#
# Compressibility (1/GPa) = 0.08512539
#
# Stress axis : x y z
#
# Youngs Moduli (GPa) = 73.56121 10.51954 63.83892
#
# Poissons Ratio (x) = 0.10135 0.51773
# Poissons Ratio (y) = 0.70875 0.11825
# Poissons Ratio (z) = 0.59658 0.01949
#
# Static dielectric constant tensor:
#      x y z
#    x 1.519620 0.000000 0.007920 
#    y 0.000000 1.536940 0.000000 
#    z 0.007920 0.000000 1.522510 
# 
# From -- ./inp_files/66103.got.cif
#   From: 2010.05.17/outbox.cif.g08.bks.cpg/sg10_34_cif.got.tgz:66103.got - 2010.06.03 11:33:40.
