data_PCOD9147931
_publ_section_title
;
Structure prediction by ZEFSAII (Michael W. Deem and Ramdas Pophale) SiO2 
 PCOD9147931
Probable space group: P 2/M
;
_chemical_formula_sum "Si O2"
_cell_formula_units_Z 26
_cell_length_a 11.688310
_cell_length_b 20.102117
_cell_length_c 4.861083
_cell_angle_alpha 90.000000
_cell_angle_beta 63.848707
_cell_angle_gamma 90.000000
_cell_volume 1025.240002
_symmetry_space_group_name_H-M "P 2/M"
_symmetry_group_IT_number 10
_symmetry_cell_setting 'monoclinic'
loop_
_space_group_symop_operation_xyz
x,y,z
-x,y,-z
-x,-y,-z
x,-y,z
loop_
_atom_site_type_symbol
_atom_site_label
_atom_site_fract_x
_atom_site_fract_y
_atom_site_fract_z
Si Si1 0.624516 0.706719 0.056923
Si Si2 0.623996 0.569116 0.064216
Si Si3 0.151324 0.074043 0.349388
Si Si4 0.761842 0.150278 0.256661
Si Si5 0.123388 0.278753 0.568686
Si Si6 0.878524 0.572709 0.425321
Si Si7 0.500000 0.822797 0.500000
O O1 0.628026 0.638074 0.223760
O O2 0.596490 0.772885 0.247431
O O3 0.500000 0.701128 0.000000
O O4 0.752452 0.714768 0.754275
O O5 0.626117 0.500000 0.223897
O O6 0.500000 0.568017 0.000000
O O7 0.748809 0.571253 0.740612
O O8 0.174327 0.091683 0.639845
O O9 0.000000 0.077670 0.500000
O O10 0.195976 0.000000 0.229871
O O11 0.215016 0.129356 0.083585
O O12 0.838290 0.218213 0.267805
O O13 0.614153 0.140847 0.526783
O O14 0.115137 0.353256 0.714302
O O15 0.000000 0.268018 0.500000
O O16 0.880207 0.500000 0.273286
O O17 0.000000 0.572165 0.500000
#
# Coordination Sequence:
#
# PCOD9147931 Si02
#       7
#     4   4   4   4   4   4   2
#     4  10  19  37  57  83 130 181 224 284 357 413
#     4   8  14  25  47  75 107 159 225 283 339 408
#     4  11  26  50  79 111 146 182 221 278 351 418
#     4  12  25  44  73 106 144 187 234 284 341 410
#     4  10  20  36  64 101 139 180 240 300 349 416
#     4   8  14  26  48  84 129 176 223 283 356 416
#     4  12  26  40  64  94 138 188 232 278 344 420
#
# _framework density 25.359915999999998
#
# number of rings (size 3 to 8) (size 9 to 14) (size 15 to 20)
#    0.000    2.000    1.538    2.308    0.000    2.462 
#    0.000    2.692    0.000    0.923    0.000    1.077 
#    0.000   30.154    0.000    0.000    0.000    0.000 
#
# Total GULP energy -145083.828584 kJ/mol
# GULP energy per Si atom -5580.147253 kJ/mol
# Density = 2.530220 g / cm^3
# Si number density = 25.359916 Si / 1000 Ang^3
#
#
#
# Elastic Constant Matrix: (Units=GPa)
#
#
# Indices 1 2 3 4 5 6 
#
# 1 152.4810 -9.3105 -1.6007 0.0000 -29.2699 0.0000
# 2 -9.3105 132.7609 2.5657 0.0000 -5.4462 0.0000
# 3 -1.6007 2.5657 89.3685 0.0000 -35.6606 0.0000
# 4 0.0000 0.0000 0.0000 132.1557 0.0000 22.2641
# 5 -29.2699 -5.4462 -35.6606 0.0000 46.0919 0.0000
# 6 0.0000 0.0000 0.0000 22.2641 0.0000 22.7083
#
#
#
# Elastic Compliance Matrix: (Units=1/GPa)
#
#
# Indices 1 2 3 4 5 6 
#
# 1 0.008129 0.000826 0.003212 0.000000 0.007745 0.000000
# 2 0.000826 0.007655 0.000528 0.000000 0.001838 0.000000
# 3 0.003212 0.000528 0.017462 0.000000 0.015612 0.000000
# 4 0.000000 0.000000 0.000000 0.009064 0.000000 -0.008887
# 5 0.007745 0.001838 0.015612 0.000000 0.038910 0.000000
# 6 0.000000 0.000000 0.000000 -0.008887 0.000000 0.052750
#
#
# Mechanical properties :
#
#
# Convention : Reuss Voigt Hill
#
# Bulk Modulus (GPa) = 23.59644 39.76885 31.68265
# Shear Modulus (GPa) = 35.98063 65.72159 50.85111
#
# Velocity S-wave (km/s) = 3.77078 5.09625 4.48278
# Velocity P-wave (km/s) = 5.31820 7.09541 6.27009
#
# Compressibility (1/GPa) = 0.04237928
#
# Stress axis : x y z
#
# Youngs Moduli (GPa) = 123.01489 130.62639 57.26796
#
# Poissons Ratio (x) = -0.10786 -0.18397
# Poissons Ratio (y) = -0.10158 -0.03025
# Poissons Ratio (z) = -0.39518 -0.06901
#
# Static dielectric constant tensor:
#      x y z
#    x 2.916680 0.000000 -0.343270 
#    y 0.000000 2.297080 0.000000 
#    z -0.343270 0.000000 2.146030 
# 
# From -- ./inp_files/7661.got.cif
#   From: 2010.05.17/outbox.cif.g08.bks.cpg/sg10_4_cif.got.tgz:7661.got - 2010.06.03 11:33:40.
