data_PCOD9147359
_publ_section_title
;
Structure prediction by ZEFSAII (Michael W. Deem and Ramdas Pophale) SiO2 
 PCOD9147359
Probable space group: P 2/M
;
_chemical_formula_sum "Si O2"
_cell_formula_units_Z 32
_cell_length_a 9.032207
_cell_length_b 13.659979
_cell_length_c 24.296277
_cell_angle_alpha 90.000000
_cell_angle_beta 140.807869
_cell_angle_gamma 90.000000
_cell_volume 1894.295443
_symmetry_space_group_name_H-M "P 2/M"
_symmetry_group_IT_number 10
_symmetry_cell_setting 'monoclinic'
loop_
_space_group_symop_operation_xyz
x,y,z
-x,y,-z
-x,-y,-z
x,-y,z
loop_
_atom_site_type_symbol
_atom_site_label
_atom_site_fract_x
_atom_site_fract_y
_atom_site_fract_z
Si Si1 0.251406 0.110523 0.452464
Si Si2 0.790160 0.618675 0.979240
Si Si3 0.003845 0.617560 0.157421
Si Si4 0.930890 0.698247 0.363619
Si Si5 0.258251 0.892154 0.580967
Si Si6 0.406424 0.613541 0.534659
Si Si7 0.503590 0.288446 0.680817
Si Si8 0.738578 0.617850 0.194909
O O1 0.500000 0.143932 0.500000
O O2 0.318908 0.098624 0.535307
O O3 0.046006 0.192132 0.390911
O O4 0.190299 0.000000 0.414094
O O5 0.786265 0.500000 0.974981
O O6 0.531791 0.651241 0.886985
O O7 0.000000 0.652652 0.000000
O O8 0.850331 0.642737 0.059681
O O9 0.047203 0.500000 0.168572
O O10 0.249875 0.673394 0.226703
O O11 0.870144 0.639968 0.175641
O O12 0.706477 0.683063 0.338326
O O13 0.866058 0.663786 0.283880
O O14 0.131991 0.632177 0.448425
O O15 0.455865 0.827716 0.665355
O O16 0.000000 0.842964 0.500000
O O17 0.224117 0.000000 0.596455
O O18 0.500000 0.638922 0.500000
O O19 0.467813 0.500000 0.561865
O O20 0.480950 0.672638 0.611007
O O21 0.741467 0.500000 0.202062
#
# Coordination Sequence:
#
# PCOD9147359 Si02
#       8
#     4   4   4   4   4   4   4   4
#     4  10  21  36  55  76 100 134 175 219 263 307
#     4   9  17  33  55  77 100 129 168 216 260 301
#     4  10  21  35  52  74 104 139 175 212 254 306
#     4  12  22  33  50  75 103 135 173 213 258 305
#     4  10  19  35  54  73 100 134 172 216 264 307
#     4  11  23  36  48  65  98 140 176 210 253 303
#     4  12  22  33  50  76 101 136 173 213 258 305
#     4  10  21  35  52  74 104 140 174 211 255 305
#
# _framework density 16.892824000000001
#
# number of rings (size 3 to 8) (size 9 to 14) (size 15 to 20)
#    0.000    1.500    2.500    3.375    1.750    7.000 
#    0.000    0.000    0.000    0.000    0.000    0.875 
#    0.000    5.000    0.000    0.000    0.000    0.000 
#
# Total GULP energy -178248.102128 kJ/mol
# GULP energy per Si atom -5570.253192 kJ/mol
# Density = 1.685438 g / cm^3
# Si number density = 16.892824 Si / 1000 Ang^3
#
#
#
# Elastic Constant Matrix: (Units=GPa)
#
#
# Indices 1 2 3 4 5 6 
#
# 1 65.8029 6.6819 -9.8058 0.0000 1.9351 0.0000
# 2 6.6819 47.0602 1.3205 0.0000 1.8384 0.0000
# 3 -9.8058 1.3205 53.1306 0.0000 -0.8902 0.0000
# 4 0.0000 0.0000 0.0000 7.3250 0.0000 5.2855
# 5 1.9351 1.8384 -0.8902 0.0000 31.4169 0.0000
# 6 0.0000 0.0000 0.0000 5.2855 0.0000 16.6025
#
#
#
# Elastic Compliance Matrix: (Units=1/GPa)
#
#
# Indices 1 2 3 4 5 6 
#
# 1 0.015898 -0.002311 0.002979 0.000000 -0.000760 0.000000
# 2 -0.002311 0.021650 -0.000984 0.000000 -0.001152 0.000000
# 3 0.002979 -0.000984 0.019403 0.000000 0.000424 0.000000
# 4 0.000000 0.000000 0.000000 0.177232 0.000000 -0.056423
# 5 -0.000760 -0.001152 0.000424 0.000000 0.031956 0.000000
# 6 0.000000 0.000000 0.000000 -0.056423 0.000000 0.078194
#
#
# Mechanical properties :
#
#
# Convention : Reuss Voigt Hill
#
# Bulk Modulus (GPa) = 17.75625 18.04300 17.89962
# Shear Modulus (GPa) = 13.74611 22.25536 18.00073
#
# Velocity S-wave (km/s) = 2.85568 3.63360 3.26787
# Velocity P-wave (km/s) = 4.62679 5.32054 4.98574
#
# Compressibility (1/GPa) = 0.05631820
#
# Stress axis : x y z
#
# Youngs Moduli (GPa) = 62.90169 46.18899 51.53873
#
# Poissons Ratio (x) = 0.10675 -0.15352
# Poissons Ratio (y) = 0.14538 0.05071
# Poissons Ratio (z) = -0.18737 0.04545
#
# Static dielectric constant tensor:
#      x y z
#    x 1.682880 0.000000 0.002020 
#    y 0.000000 1.644860 0.000000 
#    z 0.002020 0.000000 1.541220 
# 
# From -- ./inp_files/29138.got.cif
#   From: 2010.05.17/outbox.cif.g08.bks.cpg/sg10_15_cif.got.tgz:29138.got - 2010.06.03 11:33:40.
