data_PCOD9147081
_publ_section_title
;
Structure prediction by ZEFSAII (Michael W. Deem and Ramdas Pophale) SiO2 
 PCOD9147081
Probable space group: P 2/M
;
_chemical_formula_sum "Si O2"
_cell_formula_units_Z 30
_cell_length_a 10.796545
_cell_length_b 14.381896
_cell_length_c 16.799938
_cell_angle_alpha 90.000000
_cell_angle_beta 33.235609
_cell_angle_gamma 90.000000
_cell_volume 1429.733463
_symmetry_space_group_name_H-M "P 2/M"
_symmetry_group_IT_number 10
_symmetry_cell_setting 'monoclinic'
loop_
_space_group_symop_operation_xyz
x,y,z
-x,y,-z
-x,-y,-z
x,-y,z
loop_
_atom_site_type_symbol
_atom_site_label
_atom_site_fract_x
_atom_site_fract_y
_atom_site_fract_z
Si Si1 0.624577 0.721085 0.270027
Si Si2 0.940068 0.606632 0.912653
Si Si3 0.999981 0.891999 0.225841
Si Si4 0.500000 0.819487 0.500000
Si Si5 0.792337 0.394045 0.557007
Si Si6 0.128976 0.399632 0.237613
Si Si7 0.675386 0.796090 0.835815
Si Si8 0.291557 0.205531 0.929928
O O1 0.824876 0.648114 0.180852
O O2 0.526679 0.758555 0.405666
O O3 0.420908 0.671018 0.333585
O O4 0.717331 0.802061 0.160877
O O5 0.902017 0.500000 0.958697
O O6 0.936972 0.608263 0.818640
O O7 0.756996 0.684273 0.033085
O O8 0.101740 0.846479 0.252004
O O9 0.732160 0.877075 0.374262
O O10 0.059349 0.000000 0.190721
O O11 0.111960 0.842537 0.087221
O O12 0.737046 0.500000 0.612171
O O13 0.000000 0.360430 0.500000
O O14 0.901910 0.398031 0.410863
O O15 0.241965 0.500000 0.190534
O O16 0.278870 0.313801 0.184520
O O17 0.540200 0.820707 0.829009
O O18 0.500000 0.819196 0.000000
#
# Coordination Sequence:
#
# PCOD9147081 Si02
#       8
#     4   4   4   2   4   4   4   4
#     4  12  23  39  65  89 131 171 219 265 313 377
#     4  11  22  37  59  91 133 176 215 258 310 367
#     4  11  24  46  72  98 128 162 209 265 332 401
#     4  12  25  44  71  94 126 170 211 268 329 386
#     4  10  21  35  53  84 127 177 225 265 313 370
#     4  10  19  34  56  86 127 170 217 264 310 376
#     4  10  19  37  63  93 128 167 212 256 325 382
#     4  11  24  41  64  97 130 168 215 265 316 379
#
# _framework density 20.982932000000002
#
# number of rings (size 3 to 8) (size 9 to 14) (size 15 to 20)
#    0.000    1.200    4.000    3.400    0.000    4.800 
#    0.000    4.667    0.000    0.800    0.000    0.000 
#    0.000    0.000    0.000    0.000    0.000    0.000 
#
# Total GULP energy -167471.557369 kJ/mol
# GULP energy per Si atom -5582.385246 kJ/mol
# Density = 2.093517 g / cm^3
# Si number density = 20.982932 Si / 1000 Ang^3
#
#
#
# Elastic Constant Matrix: (Units=GPa)
#
#
# Indices 1 2 3 4 5 6 
#
# 1 82.1480 34.3011 47.9627 0.0000 0.3802 0.0000
# 2 34.3011 77.4070 16.5308 0.0000 2.2052 0.0000
# 3 47.9627 16.5308 82.5030 0.0000 9.0829 0.0000
# 4 0.0000 0.0000 0.0000 11.2285 0.0000 8.6963
# 5 0.3802 2.2052 9.0829 0.0000 40.8054 0.0000
# 6 0.0000 0.0000 0.0000 8.6963 0.0000 -21.9992
#
#
#
# Elastic Compliance Matrix: (Units=1/GPa)
#
#
# Indices 1 2 3 4 5 6 
#
# 1 0.022025 -0.007354 -0.011637 0.000000 0.002783 0.000000
# 2 -0.007354 0.015952 0.001196 0.000000 -0.001060 0.000000
# 3 -0.011637 0.001196 0.019110 0.000000 -0.004210 0.000000
# 4 0.000000 0.000000 0.000000 0.068185 0.000000 0.026953
# 5 0.002783 -0.001060 -0.004210 0.000000 0.025475 0.000000
# 6 0.000000 0.000000 0.000000 0.026953 0.000000 -0.034802
#
#
# Mechanical properties :
#
#
# Convention : Reuss Voigt Hill
#
# Bulk Modulus (GPa) = 46.51949 48.84968 47.68459
# Shear Modulus (GPa) = 31.50550 15.55784 23.53167
#
# Velocity S-wave (km/s) = 3.87910 2.72592 3.35246
# Velocity P-wave (km/s) = 6.50242 5.76530 6.14493
#
# Compressibility (1/GPa) = 0.02149636
#
# Stress axis : x y z
#
# Youngs Moduli (GPa) = 45.40204 62.68653 52.32894
#
# Poissons Ratio (x) = 0.46100 0.60896
# Poissons Ratio (y) = 0.33389 -0.06257
# Poissons Ratio (z) = 0.52835 -0.07495
#
# Static dielectric constant tensor:
#      x y z
#    x 1.822880 0.000000 0.022930 
#    y 0.000000 1.757860 0.000000 
#    z 0.022930 0.000000 1.788080 
# 
# From -- ./inp_files/76913.got.cif
#   From: 2010.05.17/outbox.cif.g08.bks.cpg/sg10_39_cif.got.tgz:76913.got - 2010.06.03 11:33:40.
