data_PCOD9147864
_publ_section_title
;
Structure prediction by ZEFSAII (Michael W. Deem and Ramdas Pophale) SiO2 
 PCOD9147864
Probable space group: P 2/M
;
_chemical_formula_sum "Si O2"
_cell_formula_units_Z 32
_cell_length_a 26.283125
_cell_length_b 7.549362
_cell_length_c 19.812061
_cell_angle_alpha 90.000000
_cell_angle_beta 160.936320
_cell_angle_gamma 90.000000
_cell_volume 1283.979596
_symmetry_space_group_name_H-M "P 2/M"
_symmetry_group_IT_number 10
_symmetry_cell_setting 'monoclinic'
loop_
_space_group_symop_operation_xyz
x,y,z
-x,y,-z
-x,-y,-z
x,-y,z
loop_
_atom_site_type_symbol
_atom_site_label
_atom_site_fract_x
_atom_site_fract_y
_atom_site_fract_z
Si Si1 0.162392 0.714547 0.394388
Si Si2 0.635846 0.702422 0.625001
Si Si3 0.819494 0.207796 0.977997
Si Si4 0.161108 0.283466 0.237099
Si Si5 0.660691 0.715610 0.165900
Si Si6 0.495752 0.294276 0.831747
Si Si7 0.684935 0.205331 0.944954
Si Si8 0.001081 0.285009 0.580896
O O1 0.164306 0.500000 0.398388
O O2 0.164503 0.771644 0.318712
O O3 0.324397 0.781825 0.628112
O O4 0.000171 0.770764 0.222724
O O5 0.500000 0.786921 0.500000
O O6 0.588149 0.500000 0.551444
O O7 0.696275 0.780561 0.630852
O O8 0.781628 0.701776 0.859536
O O9 0.714102 0.279841 0.906853
O O10 0.789119 0.000000 0.931497
O O11 0.165495 0.500000 0.241314
O O12 0.000000 0.228728 0.000000
O O13 0.667285 0.500000 0.180483
O O14 0.834394 0.773679 0.402742
O O15 0.500000 0.771577 0.000000
O O16 0.628552 0.772715 0.048181
O O17 0.482011 0.500000 0.832464
O O18 0.552401 0.285106 0.826091
O O19 0.848539 0.220755 0.190178
O O20 0.647038 0.000000 0.889964
O O21 0.009252 0.500000 0.593324
O O22 0.000000 0.236500 0.500000
#
# Coordination Sequence:
#
# PCOD9147864 Si02
#       8
#     4   4   4   4   4   4   4   4
#     4  10  21  37  62  89 115 150 195 245 296 349
#     4  10  21  37  62  90 115 147 193 247 298 343
#     4  11  25  42  57  81 122 163 198 236 284 349
#     4   9  16  32  56  85 116 140 177 240 294 337
#     4   9  18  33  55  87 120 143 178 240 299 342
#     4  10  21  38  61  89 116 149 196 244 293 347
#     4  11  25  41  57  81 120 163 198 236 286 347
#     4  10  19  36  62  87 111 144 191 245 293 341
#
# _framework density 24.922512999999999
#
# number of rings (size 3 to 8) (size 9 to 14) (size 15 to 20)
#    0.000    2.000    2.500    0.750    3.500    3.000 
#    0.000    1.250    0.000    0.750    0.000    0.000 
#    0.000    0.000    0.000    0.000    0.000    0.000 
#
# Total GULP energy -178896.757294 kJ/mol
# GULP energy per Si atom -5590.523665 kJ/mol
# Density = 2.486579 g / cm^3
# Si number density = 24.922513 Si / 1000 Ang^3
#
#
#
# Elastic Constant Matrix: (Units=GPa)
#
#
# Indices 1 2 3 4 5 6 
#
# 1 78.9835 -3.0988 -13.0095 0.0000 21.1061 0.0000
# 2 -3.0988 61.3199 2.6628 0.0000 -2.1400 0.0000
# 3 -13.0095 2.6628 86.1659 0.0000 20.8404 0.0000
# 4 0.0000 0.0000 0.0000 -53.7388 0.0000 49.9475
# 5 21.1061 -2.1400 20.8404 0.0000 44.8530 0.0000
# 6 0.0000 0.0000 0.0000 49.9475 0.0000 13.5543
#
#
#
# Elastic Compliance Matrix: (Units=1/GPa)
#
#
# Indices 1 2 3 4 5 6 
#
# 1 0.016070 0.000263 0.004781 0.000000 -0.009771 0.000000
# 2 0.000263 0.016386 -0.000705 0.000000 0.000985 0.000000
# 3 0.004781 -0.000705 0.014535 0.000000 -0.009037 0.000000
# 4 0.000000 0.000000 0.000000 -0.004205 0.000000 0.015497
# 5 -0.009771 0.000985 -0.009037 0.000000 0.031139 0.000000
# 6 0.000000 0.000000 0.000000 0.015497 0.000000 0.016673
#
#
# Mechanical properties :
#
#
# Convention : Reuss Voigt Hill
#
# Bulk Modulus (GPa) = 17.96281 22.17535 20.06908
# Shear Modulus (GPa) = 49.76401 16.92804 33.34603
#
# Velocity S-wave (km/s) = 4.47335 2.60903 3.66182
# Velocity P-wave (km/s) = 5.82273 4.24182 5.09398
#
# Compressibility (1/GPa) = 0.05567058
#
# Stress axis : x y z
#
# Youngs Moduli (GPa) = 62.22887 61.02687 68.79978
#
# Poissons Ratio (x) = -0.01608 -0.32895
# Poissons Ratio (y) = -0.01640 0.04850
# Poissons Ratio (z) = -0.29754 0.04302
#
# Static dielectric constant tensor:
#      x y z
#    x 1.989340 0.000000 -0.003690 
#    y 0.000000 1.963840 0.000000 
#    z -0.003690 0.000000 1.993450 
# 
# From -- ./inp_files/87057.got.cif
#   From: 2010.05.17/outbox.cif.g08.bks.cpg/sg10_44_cif.got.tgz:87057.got - 2010.06.03 11:33:40.
