data_PCOD9147499
_publ_section_title
;
Structure prediction by ZEFSAII (Michael W. Deem and Ramdas Pophale) SiO2 
 PCOD9147499
Probable space group: P 2/M
;
_chemical_formula_sum "Si O2"
_cell_formula_units_Z 24
_cell_length_a 9.666673
_cell_length_b 7.712386
_cell_length_c 30.872527
_cell_angle_alpha 90.000000
_cell_angle_beta 151.071004
_cell_angle_gamma 90.000000
_cell_volume 1113.363123
_symmetry_space_group_name_H-M "P 2/M"
_symmetry_group_IT_number 10
_symmetry_cell_setting 'monoclinic'
loop_
_space_group_symop_operation_xyz
x,y,z
-x,y,-z
-x,-y,-z
x,-y,z
loop_
_atom_site_type_symbol
_atom_site_label
_atom_site_fract_x
_atom_site_fract_y
_atom_site_fract_z
Si Si1 0.740616 0.210158 0.961038
Si Si2 0.853192 0.201341 0.241104
Si Si3 0.231282 0.301079 0.266001
Si Si4 0.174295 0.206823 0.413065
Si Si5 0.165930 0.800839 0.919116
Si Si6 0.859438 0.290469 0.416127
O O1 0.439173 0.276514 0.859516
O O2 0.705749 0.000000 0.957642
O O3 0.839110 0.278131 0.034585
O O4 0.000000 0.239774 0.000000
O O5 0.095440 0.209443 0.270432
O O6 0.978260 0.277368 0.319955
O O7 0.784321 0.000000 0.231309
O O8 0.279212 0.500000 0.292571
O O9 0.530277 0.231818 0.329412
O O10 0.004966 0.293057 0.165177
O O11 0.500000 0.275602 0.500000
O O12 0.028164 0.232651 0.419642
O O13 0.194889 0.000000 0.411287
O O14 0.056888 0.000000 0.889752
O O15 0.500000 0.806886 0.000000
O O16 0.863074 0.500000 0.415594
O O17 0.000000 0.235327 0.500000
#
# Coordination Sequence:
#
# PCOD9147499 Si02
#       6
#     4   4   4   4   4   4
#     4   9  18  32  53  80 108 144 189 229 268 334
#     4  10  20  37  58  82 114 150 189 231 284 347
#     4  11  23  37  57  85 116 149 193 243 285 329
#     4  10  22  38  60  91 119 143 182 241 295 336
#     4  10  19  35  58  82 110 150 195 231 278 342
#     4  10  23  42  61  83 114 155 197 231 276 348
#
# _framework density 21.556308999999999
#
# number of rings (size 3 to 8) (size 9 to 14) (size 15 to 20)
#    0.000    2.000    1.667    1.500    2.333    3.000 
#    0.000    0.000    0.000    1.000    0.000    0.000 
#    0.000    0.000    0.000    0.000    0.000    0.000 
#
# Total GULP energy -133993.125669 kJ/mol
# GULP energy per Si atom -5583.046903 kJ/mol
# Density = 2.150725 g / cm^3
# Si number density = 21.556309 Si / 1000 Ang^3
#
#
#
# Elastic Constant Matrix: (Units=GPa)
#
#
# Indices 1 2 3 4 5 6 
#
# 1 129.9369 -16.7362 57.8544 0.0000 -21.6393 0.0000
# 2 -16.7362 32.2794 -4.2572 0.0000 -1.1108 0.0000
# 3 57.8544 -4.2572 111.4290 0.0000 -7.2321 0.0000
# 4 0.0000 0.0000 0.0000 50.7112 0.0000 -4.9600
# 5 -21.6393 -1.1108 -7.2321 0.0000 40.6188 0.0000
# 6 0.0000 0.0000 0.0000 -4.9600 0.0000 21.6000
#
#
#
# Elastic Compliance Matrix: (Units=1/GPa)
#
#
# Indices 1 2 3 4 5 6 
#
# 1 0.011795 0.005570 -0.005558 0.000000 0.005446 0.000000
# 2 0.005570 0.033813 -0.001363 0.000000 0.003649 0.000000
# 3 -0.005558 -0.001363 0.011749 0.000000 -0.000906 0.000000
# 4 0.000000 0.000000 0.000000 0.020173 0.000000 0.004632
# 5 0.005446 0.003649 -0.000906 0.000000 0.027459 0.000000
# 6 0.000000 0.000000 0.000000 0.004632 0.000000 0.047360
#
#
# Mechanical properties :
#
#
# Convention : Reuss Voigt Hill
#
# Bulk Modulus (GPa) = 18.29653 38.59637 28.44645
# Shear Modulus (GPa) = 28.85680 38.37164 33.61422
#
# Velocity S-wave (km/s) = 3.66275 4.22366 3.95317
# Velocity P-wave (km/s) = 5.13750 6.45984 5.83624
#
# Compressibility (1/GPa) = 0.05465519
#
# Stress axis : x y z
#
# Youngs Moduli (GPa) = 84.78098 29.57427 85.11339
#
# Poissons Ratio (x) = -0.16473 0.47304
# Poissons Ratio (y) = -0.47223 0.11603
# Poissons Ratio (z) = 0.47119 0.04032
#
# Static dielectric constant tensor:
#      x y z
#    x 1.688040 0.000000 -0.002750 
#    y 0.000000 1.842740 0.000000 
#    z -0.002750 0.000000 1.785100 
# 
# From -- ./inp_files/68801.got.cif
#   From: 2010.05.17/outbox.cif.g08.bks.cpg/sg10_35_cif.got.tgz:68801.got - 2010.06.03 11:33:40.
