data_PCOD9147346
_publ_section_title
;
Structure prediction by ZEFSAII (Michael W. Deem and Ramdas Pophale) SiO2 
 PCOD9147346
Probable space group: P 2/M
;
_chemical_formula_sum "Si O2"
_cell_formula_units_Z 26
_cell_length_a 5.413591
_cell_length_b 16.031317
_cell_length_c 22.683999
_cell_angle_alpha 90.000000
_cell_angle_beta 69.023862
_cell_angle_gamma 90.000000
_cell_volume 1838.211112
_symmetry_space_group_name_H-M "P 2/M"
_symmetry_group_IT_number 10
_symmetry_cell_setting 'monoclinic'
loop_
_space_group_symop_operation_xyz
x,y,z
-x,y,-z
-x,-y,-z
x,-y,z
loop_
_atom_site_type_symbol
_atom_site_label
_atom_site_fract_x
_atom_site_fract_y
_atom_site_fract_z
Si Si1 0.044801 0.651920 0.636799
Si Si2 0.810303 0.500000 0.459798
Si Si3 0.437641 0.601377 0.708239
Si Si4 0.389948 0.398256 0.073368
Si Si5 0.785224 0.601047 0.143184
Si Si6 0.656050 0.902872 0.562633
Si Si7 0.867830 0.164790 0.421446
O O1 0.124427 0.581087 0.583715
O O2 0.234838 0.637337 0.676959
O O3 0.095984 0.741267 0.602677
O O4 0.734284 0.637337 0.676959
O O5 0.500000 0.500000 0.500000
O O6 0.000000 0.500000 0.500000
O O7 0.449734 0.500000 0.700178
O O8 0.325920 0.620637 0.782720
O O9 0.387773 0.500000 0.074818
O O10 0.586566 0.370505 0.108661
O O11 0.087452 0.370505 0.108661
O O12 0.500000 0.373684 0.000000
O O13 0.791458 0.500000 0.139028
O O14 0.352960 0.880122 0.599023
O O15 0.753258 0.848635 0.497828
O O16 0.849971 0.880122 0.599023
O O17 0.683238 0.000000 0.544508
#
# Coordination Sequence:
#
# PCOD9147346 Si02
#       7
#     4   2   4   4   4   4   4
#     4  12  23  36  47  65  85 112 148 190 228 258
#     4  12  26  36  50  60  84 112 143 186 241 286
#     4  11  20  36  47  59  81 117 159 189 216 257
#     4   9  15  24  37  60  84 100 125 174 231 271
#     4   9  17  26  42  57  74 108 144 174 215 264
#     4  10  19  35  52  70  88 106 124 160 222 289
#     4  10  20  30  49  68  86 104 132 167 216 269
#
# _framework density 14.144187000000001
#
# number of rings (size 3 to 8) (size 9 to 14) (size 15 to 20)
#    0.000    1.692    1.538    5.538    4.308    4.308 
#    0.000    0.000    0.000    0.000    0.000    0.000 
#    0.000    0.000    0.000    0.000    0.000    0.000 
#
# Total GULP energy -144915.185773 kJ/mol
# GULP energy per Si atom -5573.660991 kJ/mol
# Density = 1.411199 g / cm^3
# Si number density = 14.144187 Si / 1000 Ang^3
#
#
#
# Elastic Constant Matrix: (Units=GPa)
#
#
# Indices 1 2 3 4 5 6 
#
# 1 185.0476 42.9123 74.1552 0.0000 -2.0394 0.0000
# 2 42.9123 75.0723 42.1680 0.0000 -0.0268 0.0000
# 3 74.1552 42.1680 98.4207 0.0000 -1.0835 0.0000
# 4 0.0000 0.0000 0.0000 10.7046 0.0000 -0.2222
# 5 -2.0394 -0.0268 -1.0835 0.0000 27.1956 0.0000
# 6 0.0000 0.0000 0.0000 -0.2222 0.0000 16.8681
#
#
#
# Elastic Compliance Matrix: (Units=1/GPa)
#
#
# Indices 1 2 3 4 5 6 
#
# 1 0.007878 -0.001543 -0.005271 0.000000 0.000379 0.000000
# 2 -0.001543 0.017846 -0.006488 0.000000 -0.000357 0.000000
# 3 -0.005271 -0.006488 0.016914 0.000000 0.000272 0.000000
# 4 0.000000 0.000000 0.000000 0.093444 0.000000 0.001231
# 5 0.000379 -0.000357 0.000272 0.000000 0.036810 0.000000
# 6 0.000000 0.000000 0.000000 0.001231 0.000000 0.059300
#
#
# Mechanical properties :
#
#
# Convention : Reuss Voigt Hill
#
# Bulk Modulus (GPa) = 62.35748 75.22350 68.79049
# Shear Modulus (GPa) = 18.92941 24.24065 21.58503
#
# Velocity S-wave (km/s) = 3.66227 4.14433 3.91073
# Velocity P-wave (km/s) = 7.87818 8.72923 8.31460
#
# Compressibility (1/GPa) = 0.01603657
#
# Stress axis : x y z
#
# Youngs Moduli (GPa) = 126.93492 56.03387 59.12136
#
# Poissons Ratio (x) = 0.08643 0.31161
# Poissons Ratio (y) = 0.19580 0.38357
# Poissons Ratio (z) = 0.66903 0.36354
#
# Static dielectric constant tensor:
#      x y z
#    x 1.540270 0.000000 -0.003260 
#    y 0.000000 1.438350 0.000000 
#    z -0.003260 0.000000 1.449980 
# 
# From -- ./inp_files/81294.got.cif
#   From: 2010.05.17/outbox.cif.g08.bks.cpg/sg10_41_cif.got.tgz:81294.got - 2010.06.03 11:33:40.
