data_PCOD9147006
_publ_section_title
;
Structure prediction by ZEFSAII (Michael W. Deem and Ramdas Pophale) SiO2 
 PCOD9147006
Probable space group: P 2/M
;
_chemical_formula_sum "Si O2"
_cell_formula_units_Z 28
_cell_length_a 31.454974
_cell_length_b 7.762542
_cell_length_c 31.454685
_cell_angle_alpha 90.000000
_cell_angle_beta 170.477626
_cell_angle_gamma 90.000000
_cell_volume 1270.574371
_symmetry_space_group_name_H-M "P 2/M"
_symmetry_group_IT_number 10
_symmetry_cell_setting 'monoclinic'
loop_
_space_group_symop_operation_xyz
x,y,z
-x,y,-z
-x,-y,-z
x,-y,z
loop_
_atom_site_type_symbol
_atom_site_label
_atom_site_fract_x
_atom_site_fract_y
_atom_site_fract_z
Si Si1 0.558760 0.700807 0.652842
Si Si2 0.096896 0.792912 0.766394
Si Si3 0.082154 0.200200 0.126825
Si Si4 0.738011 0.707761 0.262649
Si Si5 0.804087 0.706976 0.038226
Si Si6 0.327950 0.710975 0.514538
Si Si7 0.379636 0.793098 0.756536
O O1 0.621347 0.500000 0.720817
O O2 0.333086 0.717015 0.395383
O O3 0.436410 0.768187 0.576047
O O4 0.826337 0.786005 0.903217
O O5 0.143034 0.752206 0.860986
O O6 0.831130 0.726282 0.484764
O O7 0.089779 0.000000 0.755525
O O8 0.338096 0.726828 0.976870
O O9 0.149619 0.000000 0.187215
O O10 0.000000 0.274420 0.000000
O O11 0.740196 0.500000 0.262335
O O12 0.704767 0.753590 0.278970
O O13 0.000000 0.772475 0.500000
O O14 0.500000 0.771780 0.000000
O O15 0.800669 0.500000 0.031806
O O16 0.042164 0.769735 0.244302
O O17 0.531141 0.766943 0.750876
O O18 0.320863 0.500000 0.506651
O O19 0.389843 0.000000 0.762551
#
# Coordination Sequence:
#
# PCOD9147006 Si02
#       7
#     4   4   4   4   4   4   4
#     4  11  22  39  64  89 115 152 199 246 288 341
#     4  10  21  36  52  76 108 137 172 219 263 303
#     4  11  24  41  59  84 122 159 190 237 299 352
#     4  10  21  36  54  78 106 133 166 213 261 304
#     4  10  19  34  56  79 105 141 180 216 268 331
#     4   9  19  35  55  81 111 140 177 230 280 321
#     4  10  21  36  54  75 103 139 174 211 257 310
#
# _framework density 22.037279999999999
#
# number of rings (size 3 to 8) (size 9 to 14) (size 15 to 20)
#    0.000    1.857    0.000    3.857    0.000    6.857 
#    0.000    4.286    0.000    0.000    0.000    0.000 
#    0.000    0.000    0.000    0.000    0.000    0.000 
#
# Total GULP energy -156566.194291 kJ/mol
# GULP energy per Si atom -5591.649796 kJ/mol
# Density = 2.198712 g / cm^3
# Si number density = 22.037280 Si / 1000 Ang^3
#
#
#
# Elastic Constant Matrix: (Units=GPa)
#
#
# Indices 1 2 3 4 5 6 
#
# 1 47.6125 -11.1792 -28.8805 0.0000 1.0584 0.0000
# 2 -11.1792 29.7618 2.5054 0.0000 0.9962 0.0000
# 3 -28.8805 2.5054 72.7729 0.0000 2.5958 0.0000
# 4 0.0000 0.0000 0.0000 15.7751 0.0000 -6.7720
# 5 1.0584 0.9962 2.5958 0.0000 43.9624 0.0000
# 6 0.0000 0.0000 0.0000 -6.7720 0.0000 31.6875
#
#
#
# Elastic Compliance Matrix: (Units=1/GPa)
#
#
# Indices 1 2 3 4 5 6 
#
# 1 0.030746 0.010604 0.011897 0.000000 -0.001683 0.000000
# 2 0.010604 0.037376 0.002967 0.000000 -0.001277 0.000000
# 3 0.011897 0.002967 0.018412 0.000000 -0.001441 0.000000
# 4 0.000000 0.000000 0.000000 0.069794 0.000000 0.014916
# 5 -0.001683 -0.001277 -0.001441 0.000000 0.022901 0.000000
# 6 0.000000 0.000000 0.000000 0.014916 0.000000 0.034746
#
#
# Mechanical properties :
#
#
# Convention : Reuss Voigt Hill
#
# Bulk Modulus (GPa) = 7.27433 8.33765 7.80599
# Shear Modulus (GPa) = 23.93904 30.79842 27.36873
#
# Velocity S-wave (km/s) = 3.29948 3.74245 3.52792
# Velocity P-wave (km/s) = 4.22179 4.73986 4.48830
#
# Compressibility (1/GPa) = 0.13746966
#
# Stress axis : x y z
#
# Youngs Moduli (GPa) = 32.52422 26.75507 54.31241
#
# Poissons Ratio (x) = -0.28370 -0.64615
# Poissons Ratio (y) = -0.34488 -0.16114
# Poissons Ratio (z) = -0.38694 -0.07938
#
# Static dielectric constant tensor:
#      x y z
#    x 1.770580 0.000000 -0.000170 
#    y 0.000000 1.797780 0.000000 
#    z -0.000170 0.000000 1.787430 
# 
# From -- ./inp_files/13591.got.cif
#   From: 2010.05.17/outbox.cif.g08.bks.cpg/sg10_7_cif.got.tgz:13591.got - 2010.06.03 11:33:40.
