data_PCOD9147894
_publ_section_title
;
Structure prediction by ZEFSAII (Michael W. Deem and Ramdas Pophale) SiO2 
 PCOD9147894
Probable space group: P 2/M
;
_chemical_formula_sum "Si O2"
_cell_formula_units_Z 26
_cell_length_a 16.377522
_cell_length_b 13.672208
_cell_length_c 6.139949
_cell_angle_alpha 90.000000
_cell_angle_beta 102.102795
_cell_angle_gamma 90.000000
_cell_volume 1344.279752
_symmetry_space_group_name_H-M "P 2/M"
_symmetry_group_IT_number 10
_symmetry_cell_setting 'monoclinic'
loop_
_space_group_symop_operation_xyz
x,y,z
-x,y,-z
-x,-y,-z
x,-y,z
loop_
_atom_site_type_symbol
_atom_site_label
_atom_site_fract_x
_atom_site_fract_y
_atom_site_fract_z
Si Si1 0.740012 0.112619 0.422247
Si Si2 0.000000 0.720368 0.000000
Si Si3 0.709237 0.266700 0.774482
Si Si4 0.412337 0.386163 0.583241
Si Si5 0.087930 0.392193 0.422557
Si Si6 0.152034 0.756092 0.805248
Si Si7 0.592123 0.794261 0.089619
O O1 0.743871 0.183928 0.631629
O O2 0.806817 0.148936 0.280388
O O3 0.650235 0.135222 0.264136
O O4 0.750403 0.000000 0.484092
O O5 0.061251 0.653973 0.179412
O O6 0.937047 0.775118 0.128718
O O7 0.665756 0.352557 0.611492
O O8 0.782961 0.289165 0.985256
O O9 0.636082 0.223133 0.883825
O O10 0.500000 0.375520 0.500000
O O11 0.404942 0.500000 0.643658
O O12 0.412976 0.309373 0.783204
O O13 0.124901 0.500000 0.419557
O O14 0.141094 0.320494 0.602159
O O15 0.000000 0.400422 0.500000
O O16 0.500000 0.832545 0.000000
#
# Coordination Sequence:
#
# PCOD9147894 Si02
#       7
#     4   2   4   4   4   4   4
#     4  10  23  41  60  82 111 150 197 250 307 358
#     4  10  19  36  63  90 122 160 189 236 293 344
#     4  10  21  38  58  82 119 159 194 246 290 342
#     4  10  20  34  57  88 122 163 202 235 279 340
#     4   9  18  33  56  88 121 154 190 227 275 339
#     4  10  21  38  60  87 119 155 196 244 295 350
#     4  10  20  37  59  85 117 150 194 246 292 347
#
# _framework density 19.341211000000001
#
# number of rings (size 3 to 8) (size 9 to 14) (size 15 to 20)
#    0.000    2.154    1.538    1.154    0.000    4.923 
#    0.000   11.923    0.000    8.769    0.000    0.000 
#    0.000    0.000    0.000    0.000    0.000    0.000 
#
# Total GULP energy -145048.345519 kJ/mol
# GULP energy per Si atom -5578.782520 kJ/mol
# Density = 1.929719 g / cm^3
# Si number density = 19.341211 Si / 1000 Ang^3
#
#
#
# Elastic Constant Matrix: (Units=GPa)
#
#
# Indices 1 2 3 4 5 6 
#
# 1 94.8130 35.9418 30.2974 0.0000 -7.1244 0.0000
# 2 35.9418 92.1718 30.5595 0.0000 2.5647 0.0000
# 3 30.2974 30.5595 95.6476 0.0000 7.6707 0.0000
# 4 0.0000 0.0000 0.0000 0.1216 0.0000 -0.6808
# 5 -7.1244 2.5647 7.6707 0.0000 42.4297 0.0000
# 6 0.0000 0.0000 0.0000 -0.6808 0.0000 14.4460
#
#
#
# Elastic Compliance Matrix: (Units=1/GPa)
#
#
# Indices 1 2 3 4 5 6 
#
# 1 0.013396 -0.004273 -0.003125 0.000000 0.003073 0.000000
# 2 -0.004273 0.013498 -0.002878 0.000000 -0.001013 0.000000
# 3 -0.003125 -0.002878 0.012575 0.000000 -0.002624 0.000000
# 4 0.000000 0.000000 0.000000 11.171122 0.000000 0.526458
# 5 0.003073 -0.001013 -0.002624 0.000000 0.024620 0.000000
# 6 0.000000 0.000000 0.000000 0.526458 0.000000 0.094033
#
#
# Mechanical properties :
#
#
# Convention : Reuss Voigt Hill
#
# Bulk Modulus (GPa) = 52.86039 52.91442 52.88740
# Shear Modulus (GPa) = 0.44029 23.78836 12.11433
#
# Velocity S-wave (km/s) = 0.47764 3.51084 2.50541
# Velocity P-wave (km/s) = 5.26251 6.62212 5.98107
#
# Compressibility (1/GPa) = 0.01891776
#
# Stress axis : x y z
#
# Youngs Moduli (GPa) = 74.64721 74.08512 79.52510
#
# Poissons Ratio (x) = 0.31659 0.24848
# Poissons Ratio (y) = 0.31900 0.22885
# Poissons Ratio (z) = 0.23324 0.21320
#
# Static dielectric constant tensor:
#      x y z
#    x 1.702690 0.000000 -0.009080 
#    y 0.000000 1.636540 0.000000 
#    z -0.009080 0.000000 1.689170 
# 
# From -- ./inp_files/11168.got.cif
#   From: 2010.05.17/outbox.cif.g08.bks.cpg/sg10_6_cif.got.tgz:11168.got - 2010.06.03 11:33:40.
