data_PCOD9147620
_publ_section_title
;
Structure prediction by ZEFSAII (Michael W. Deem and Ramdas Pophale) SiO2 
 PCOD9147620
Probable space group: P 2/M
;
_chemical_formula_sum "Si O2"
_cell_formula_units_Z 22
_cell_length_a 12.789004
_cell_length_b 8.600554
_cell_length_c 11.137007
_cell_angle_alpha 90.000000
_cell_angle_beta 59.474283
_cell_angle_gamma 90.000000
_cell_volume 1055.205750
_symmetry_space_group_name_H-M "P 2/M"
_symmetry_group_IT_number 10
_symmetry_cell_setting 'monoclinic'
loop_
_space_group_symop_operation_xyz
x,y,z
-x,y,-z
-x,-y,-z
x,-y,z
loop_
_atom_site_type_symbol
_atom_site_label
_atom_site_fract_x
_atom_site_fract_y
_atom_site_fract_z
Si Si1 0.268592 0.172481 0.477918
Si Si2 0.500000 0.237071 0.500000
Si Si3 0.602263 0.323276 0.803425
Si Si4 0.387667 0.180857 0.797474
Si Si5 0.000647 0.815820 0.358458
Si Si6 0.220559 0.682043 0.078840
O O1 0.381563 0.167328 0.502496
O O2 0.300285 0.298214 0.359234
O O3 0.136888 0.205673 0.608438
O O4 0.259144 0.000000 0.426299
O O5 0.429182 0.292202 0.662437
O O6 0.555264 0.500000 0.830380
O O7 0.495740 0.206142 0.830416
O O8 0.673093 0.295459 0.884392
O O9 0.387360 0.000000 0.757958
O O10 0.263744 0.226034 0.935606
O O11 0.098674 0.734683 0.217026
O O12 0.000000 0.766118 0.500000
O O13 0.028301 0.000000 0.342068
O O14 0.214144 0.500000 0.054279
#
# Coordination Sequence:
#
# PCOD9147620 Si02
#       6
#     4   2   4   4   4   4
#     4  10  19  35  60  86 115 149 191 237 278 336
#     4  10  21  40  63  86 109 146 195 240 287 334
#     4  10  20  34  54  83 118 151 186 231 287 344
#     4  11  22  37  59  83 112 149 194 241 284 335
#     4  10  20  35  58  88 118 149 190 235 283 338
#     4  11  23  37  55  83 120 154 188 232 287 346
#
# _framework density 20.849015999999999
#
# number of rings (size 3 to 8) (size 9 to 14) (size 15 to 20)
#    0.000    1.636    1.818    4.909    0.000    5.455 
#    0.000   12.273    0.000    4.364    0.000    0.000 
#    0.000    0.000    0.000    0.000    0.000    0.000 
#
# Total GULP energy -122513.495171 kJ/mol
# GULP energy per Si atom -5568.795235 kJ/mol
# Density = 2.080156 g / cm^3
# Si number density = 20.849016 Si / 1000 Ang^3
#
#
#
# Elastic Constant Matrix: (Units=GPa)
#
#
# Indices 1 2 3 4 5 6 
#
# 1 56.5718 15.2558 38.2075 0.0000 -6.5768 0.0000
# 2 15.2558 35.4729 39.4564 0.0000 1.3109 0.0000
# 3 38.2075 39.4564 158.6184 0.0000 -25.4192 0.0000
# 4 0.0000 0.0000 0.0000 34.1794 0.0000 10.2971
# 5 -6.5768 1.3109 -25.4192 0.0000 23.9491 0.0000
# 6 0.0000 0.0000 0.0000 10.2971 0.0000 15.6675
#
#
#
# Elastic Compliance Matrix: (Units=1/GPa)
#
#
# Indices 1 2 3 4 5 6 
#
# 1 0.021828 -0.005692 -0.003412 0.000000 0.002685 0.000000
# 2 -0.005692 0.045487 -0.012764 0.000000 -0.017601 0.000000
# 3 -0.003412 -0.012764 0.012367 0.000000 0.012887 0.000000
# 4 0.000000 0.000000 0.000000 0.036481 0.000000 -0.023976
# 5 0.002685 -0.017601 0.012887 0.000000 0.057134 0.000000
# 6 0.000000 0.000000 0.000000 -0.023976 0.000000 0.079584
#
#
# Mechanical properties :
#
#
# Convention : Reuss Voigt Hill
#
# Bulk Modulus (GPa) = 27.82006 48.50028 38.16017
# Shear Modulus (GPa) = 16.20233 25.27544 20.73889
#
# Velocity S-wave (km/s) = 2.79072 3.48560 3.15734
# Velocity P-wave (km/s) = 4.87409 6.28588 5.62446
#
# Compressibility (1/GPa) = 0.03594528
#
# Stress axis : x y z
#
# Youngs Moduli (GPa) = 45.81286 21.98450 80.86267
#
# Poissons Ratio (x) = 0.12513 0.27589
# Poissons Ratio (y) = 0.26076 1.03216
# Poissons Ratio (z) = 0.15630 0.28062
#
# Static dielectric constant tensor:
#      x y z
#    x 1.753100 0.000000 -0.008960 
#    y 0.000000 1.732390 0.000000 
#    z -0.008960 0.000000 1.795320 
# 
# From -- ./inp_files/44995.got.cif
#   From: 2010.05.17/outbox.cif.g08.bks.cpg/sg10_23_cif.got.tgz:44995.got - 2010.06.03 11:33:40.
