data_PCOD9147991
_publ_section_title
;
Structure prediction by ZEFSAII (Michael W. Deem and Ramdas Pophale) SiO2 
 PCOD9147991
Probable space group: P 2/M
;
_chemical_formula_sum "Si O2"
_cell_formula_units_Z 28
_cell_length_a 10.295398
_cell_length_b 8.596631
_cell_length_c 26.024743
_cell_angle_alpha 90.000000
_cell_angle_beta 140.288165
_cell_angle_gamma 90.000000
_cell_volume 1471.664905
_symmetry_space_group_name_H-M "P 2/M"
_symmetry_group_IT_number 10
_symmetry_cell_setting 'monoclinic'
loop_
_space_group_symop_operation_xyz
x,y,z
-x,y,-z
-x,-y,-z
x,-y,z
loop_
_atom_site_type_symbol
_atom_site_label
_atom_site_fract_x
_atom_site_fract_y
_atom_site_fract_z
Si Si1 0.487047 0.312976 0.755907
Si Si2 0.504420 0.687572 0.060701
Si Si3 0.947699 0.312203 0.238435
Si Si4 0.619593 0.688130 0.484385
Si Si5 0.234014 0.186088 0.067086
Si Si6 0.957825 0.184593 0.355336
Si Si7 0.649713 0.689086 0.694949
O O1 0.486211 0.500000 0.756853
O O2 0.626486 0.254457 0.845077
O O3 0.256748 0.255138 0.692324
O O4 0.577278 0.258148 0.728733
O O5 0.483693 0.500000 0.056528
O O6 0.723297 0.728516 0.151102
O O7 0.330845 0.761403 0.042757
O O8 0.500000 0.734958 0.000000
O O9 0.957268 0.500000 0.247713
O O10 0.988918 0.236274 0.305782
O O11 0.121574 0.266268 0.250963
O O12 0.500000 0.736329 0.500000
O O13 0.626767 0.500000 0.487071
O O14 0.496946 0.738128 0.396382
O O15 0.847540 0.751711 0.555005
O O16 0.239555 0.000000 0.072524
O O17 0.000000 0.238363 0.000000
O O18 0.948696 0.000000 0.356211
O O19 0.644594 0.500000 0.694334
#
# Coordination Sequence:
#
# PCOD9147991 Si02
#       7
#     4   4   4   4   4   4   4
#     4  11  23  41  65  90 118 157 206 252 297 354
#     4  10  22  38  64  97 123 154 202 254 296 350
#     4  10  19  38  63  89 120 156 201 249 299 354
#     4  10  19  37  64  89 118 155 202 255 304 353
#     4  11  25  43  61  87 126 166 200 241 302 366
#     4  12  24  38  59  88 125 164 199 241 300 365
#     4   9  20  37  62  93 118 151 201 257 306 352
#
# _framework density 19.026069
#
# number of rings (size 3 to 8) (size 9 to 14) (size 15 to 20)
#    0.000    1.571    2.857    2.143    2.000    2.286 
#    0.000    5.714    0.000    0.000    0.000    0.000 
#    0.000    0.000    0.000    0.000    0.000    0.000 
#
# Total GULP energy -156469.812684 kJ/mol
# GULP energy per Si atom -5588.207596 kJ/mol
# Density = 1.898277 g / cm^3
# Si number density = 19.026069 Si / 1000 Ang^3
#
#
#
# Elastic Constant Matrix: (Units=GPa)
#
#
# Indices 1 2 3 4 5 6 
#
# 1 164.4282 27.2506 58.9685 0.0000 15.6491 0.0000
# 2 27.2506 27.7775 29.3062 0.0000 6.5715 0.0000
# 3 58.9685 29.3062 101.3598 0.0000 22.6649 0.0000
# 4 0.0000 0.0000 0.0000 12.8408 0.0000 12.9300
# 5 15.6491 6.5715 22.6649 0.0000 38.9581 0.0000
# 6 0.0000 0.0000 0.0000 12.9300 0.0000 -6.6331
#
#
#
# Elastic Compliance Matrix: (Units=1/GPa)
#
#
# Indices 1 2 3 4 5 6 
#
# 1 0.008029 -0.004242 -0.003314 0.000000 -0.000581 0.000000
# 2 -0.004242 0.054044 -0.013220 0.000000 0.000279 0.000000
# 3 -0.003314 -0.013220 0.017036 0.000000 -0.006350 0.000000
# 4 0.000000 0.000000 0.000000 0.026284 0.000000 0.051236
# 5 -0.000581 0.000279 -0.006350 0.000000 0.029549 0.000000
# 6 0.000000 0.000000 0.000000 0.051236 0.000000 -0.050883
#
#
# Mechanical properties :
#
#
# Convention : Reuss Voigt Hill
#
# Bulk Modulus (GPa) = 26.62731 58.29068 42.45899
# Shear Modulus (GPa) = 36.19751 20.90251 28.55001
#
# Velocity S-wave (km/s) = 4.36652 3.31815 3.87793
# Velocity P-wave (km/s) = 6.28073 6.73676 6.51274
#
# Compressibility (1/GPa) = 0.03755543
#
# Stress axis : x y z
#
# Youngs Moduli (GPa) = 124.55367 18.50355 58.69803
#
# Poissons Ratio (x) = 0.07849 0.19455
# Poissons Ratio (y) = 0.52837 0.77600
# Poissons Ratio (z) = 0.41282 0.24462
#
# Static dielectric constant tensor:
#      x y z
#    x 1.647780 0.000000 0.002200 
#    y 0.000000 1.647360 0.000000 
#    z 0.002200 0.000000 1.641890 
# 
# From -- ./inp_files/92108.got.cif
#   From: 2010.05.17/outbox.cif.g08.bks.cpg/sg10_47_cif.got.tgz:92108.got - 2010.06.03 11:33:40.
