data_PCOD9147171
_publ_section_title
;
Structure prediction by ZEFSAII (Michael W. Deem and Ramdas Pophale) SiO2 
 PCOD9147171
Probable space group: P 2/M
;
_chemical_formula_sum "Si O2"
_cell_formula_units_Z 28
_cell_length_a 15.378221
_cell_length_b 8.637229
_cell_length_c 22.314879
_cell_angle_alpha 90.000000
_cell_angle_beta 27.755719
_cell_angle_gamma 90.000000
_cell_volume 1380.333306
_symmetry_space_group_name_H-M "P 2/M"
_symmetry_group_IT_number 10
_symmetry_cell_setting 'monoclinic'
loop_
_space_group_symop_operation_xyz
x,y,z
-x,y,-z
-x,-y,-z
x,-y,z
loop_
_atom_site_type_symbol
_atom_site_label
_atom_site_fract_x
_atom_site_fract_y
_atom_site_fract_z
Si Si1 0.794164 0.174777 0.601663
Si Si2 0.473689 0.188278 0.584959
Si Si3 0.585157 0.321566 0.156194
Si Si4 0.242161 0.677594 0.186711
Si Si5 0.421825 0.178859 0.962138
Si Si6 0.788027 0.187332 0.147631
Si Si7 0.845770 0.175596 0.428728
O O1 0.637526 0.299050 0.711462
O O2 0.799597 0.166963 0.526778
O O3 0.000000 0.210160 0.500000
O O4 0.741390 0.000000 0.655526
O O5 0.500000 0.241863 0.500000
O O6 0.299149 0.236885 0.734433
O O7 0.663835 0.229216 0.503988
O O8 0.463050 0.000000 0.589369
O O9 0.637666 0.500000 0.118998
O O10 0.651462 0.224364 0.058333
O O11 0.658364 0.251953 0.173617
O O12 0.272415 0.500000 0.184893
O O13 0.357890 0.785476 0.161993
O O14 0.026235 0.718648 0.314310
O O15 0.325832 0.714862 0.070506
O O16 0.386259 0.000000 0.996930
O O17 0.780526 0.000000 0.151159
O O18 0.000000 0.232984 0.000000
O O19 0.892363 0.000000 0.379557
#
# Coordination Sequence:
#
# PCOD9147171 Si02
#       7
#     4   4   4   4   4   4   4
#     4  10  20  35  58  87 119 158 204 250 297 362
#     4   9  18  35  60  89 119 153 204 266 317 367
#     4  12  24  38  59  88 124 159 199 254 320 376
#     4  11  22  37  57  87 126 159 199 251 310 368
#     4  11  22  39  61  84 117 163 212 249 298 368
#     4  10  21  40  65  91 119 160 215 269 320 381
#     4  10  19  34  57  84 118 158 202 248 303 367
#
# _framework density 20.284956000000001
#
# number of rings (size 3 to 8) (size 9 to 14) (size 15 to 20)
#    0.000    1.571    1.429    5.571    0.000    3.429 
#    0.000    2.857    0.000    1.714    0.000    0.000 
#    0.000    0.000    0.000    0.000    0.000    0.000 
#
# Total GULP energy -156287.889762 kJ/mol
# GULP energy per Si atom -5581.710349 kJ/mol
# Density = 2.023879 g / cm^3
# Si number density = 20.284956 Si / 1000 Ang^3
#
#
#
# Elastic Constant Matrix: (Units=GPa)
#
#
# Indices 1 2 3 4 5 6 
#
# 1 112.3839 -3.2348 35.7498 0.0000 20.4366 0.0000
# 2 -3.2348 35.2133 9.3509 0.0000 -2.6679 0.0000
# 3 35.7498 9.3509 79.4152 0.0000 8.5563 0.0000
# 4 0.0000 0.0000 0.0000 16.4171 0.0000 -0.4043
# 5 20.4366 -2.6679 8.5563 0.0000 26.3202 0.0000
# 6 0.0000 0.0000 0.0000 -0.4043 0.0000 6.6880
#
#
#
# Elastic Compliance Matrix: (Units=1/GPa)
#
#
# Indices 1 2 3 4 5 6 
#
# 1 0.011806 0.001773 -0.004720 0.000000 -0.007453 0.000000
# 2 0.001773 0.030046 -0.004680 0.000000 0.003190 0.000000
# 3 -0.004720 -0.004680 0.015466 0.000000 -0.001837 0.000000
# 4 0.000000 0.000000 0.000000 0.061003 0.000000 0.003687
# 5 -0.007453 0.003190 -0.001837 0.000000 0.044701 0.000000
# 6 0.000000 0.000000 0.000000 0.003687 0.000000 0.149745
#
#
# Mechanical properties :
#
#
# Convention : Reuss Voigt Hill
#
# Bulk Modulus (GPa) = 23.77338 34.52715 29.15026
# Shear Modulus (GPa) = 14.61812 22.22816 18.42314
#
# Velocity S-wave (km/s) = 2.68738 3.31387 3.01693
# Velocity P-wave (km/s) = 4.62326 5.63031 5.15145
#
# Compressibility (1/GPa) = 0.04206386
#
# Stress axis : x y z
#
# Youngs Moduli (GPa) = 84.70319 33.28271 64.65812
#
# Poissons Ratio (x) = -0.05902 0.30522
# Poissons Ratio (y) = -0.15021 0.30259
# Poissons Ratio (z) = 0.39984 0.15576
#
# Static dielectric constant tensor:
#      x y z
#    x 1.702100 0.000000 0.017140 
#    y 0.000000 1.711440 0.000000 
#    z 0.017140 0.000000 1.795420 
# 
# From -- ./inp_files/84918.got.cif
#   From: 2010.05.17/outbox.cif.g08.bks.cpg/sg10_43_cif.got.tgz:84918.got - 2010.06.03 11:33:40.
