data_PCOD9147489
_publ_section_title
;
Structure prediction by ZEFSAII (Michael W. Deem and Ramdas Pophale) SiO2 
 PCOD9147489
Probable space group: P 2/M
;
_chemical_formula_sum "Si O2"
_cell_formula_units_Z 22
_cell_length_a 5.328584
_cell_length_b 13.783659
_cell_length_c 19.488114
_cell_angle_alpha 90.000000
_cell_angle_beta 132.648527
_cell_angle_gamma 90.000000
_cell_volume 1052.792359
_symmetry_space_group_name_H-M "P 2/M"
_symmetry_group_IT_number 10
_symmetry_cell_setting 'monoclinic'
loop_
_space_group_symop_operation_xyz
x,y,z
-x,y,-z
-x,-y,-z
x,-y,z
loop_
_atom_site_type_symbol
_atom_site_label
_atom_site_fract_x
_atom_site_fract_y
_atom_site_fract_z
Si Si1 0.407223 0.286590 0.063318
Si Si2 0.192713 0.805088 0.637042
Si Si3 0.591128 0.500000 0.935947
Si Si4 0.604432 0.108953 0.601444
Si Si5 0.904218 0.391872 0.563022
Si Si6 0.334578 0.890453 0.799066
O O1 0.530822 0.393767 0.112357
O O2 0.559221 0.193309 0.129543
O O3 0.500000 0.281108 0.000000
O O4 0.000000 0.283819 0.000000
O O5 0.354953 0.818115 0.593205
O O6 0.424468 0.854005 0.738528
O O7 0.826246 0.859885 0.576004
O O8 0.111390 0.693831 0.637129
O O9 0.500000 0.500000 0.000000
O O10 0.000000 0.500000 0.000000
O O11 0.926330 0.105568 0.714690
O O12 0.467300 0.000000 0.572877
O O13 0.500000 0.376433 0.500000
O O14 0.986518 0.500000 0.603516
O O15 0.000000 0.388689 0.500000
O O16 0.459716 0.000000 0.836212
#
# Coordination Sequence:
#
# PCOD9147489 Si02
#       6
#     4   4   2   4   4   4
#     4  10  21  35  55  78 106 143 186 231 283 330
#     4  10  19  35  58  80 109 148 184 219 275 336
#     4   8  16  34  52  68  98 134 168 215 274 327
#     4   9  18  33  55  76 106 146 182 222 272 320
#     4  10  21  38  61  86 115 146 179 229 283 328
#     4   9  21  36  55  79 111 147 184 230 278 326
#
# _framework density 20.896808
#
# number of rings (size 3 to 8) (size 9 to 14) (size 15 to 20)
#    1.091    1.455    0.000    2.182    2.545    0.727 
#    1.636    0.000    2.000   18.545    0.000    0.000 
#    0.000    0.000    0.000    0.000    0.000    0.000 
#
# Total GULP energy -122510.250019 kJ/mol
# GULP energy per Si atom -5568.647728 kJ/mol
# Density = 2.084925 g / cm^3
# Si number density = 20.896808 Si / 1000 Ang^3
#
#
#
# Elastic Constant Matrix: (Units=GPa)
#
#
# Indices 1 2 3 4 5 6 
#
# 1 137.9987 29.0989 14.6624 0.0000 -10.6504 0.0000
# 2 29.0989 205.9537 34.0043 0.0000 -9.2239 0.0000
# 3 14.6624 34.0043 26.3266 0.0000 -11.9063 0.0000
# 4 0.0000 0.0000 0.0000 40.1532 0.0000 -3.4121
# 5 -10.6504 -9.2239 -11.9063 0.0000 18.6403 0.0000
# 6 0.0000 0.0000 0.0000 -3.4121 0.0000 25.1258
#
#
#
# Elastic Compliance Matrix: (Units=1/GPa)
#
#
# Indices 1 2 3 4 5 6 
#
# 1 0.007831 -0.000592 -0.002399 0.000000 0.002649 0.000000
# 2 -0.000592 0.006327 -0.009253 0.000000 -0.003117 0.000000
# 3 -0.002399 -0.009253 0.068315 0.000000 0.037687 0.000000
# 4 0.000000 0.000000 0.000000 0.025195 0.000000 0.003422
# 5 0.002649 -0.003117 0.037687 0.000000 0.077690 0.000000
# 6 0.000000 0.000000 0.000000 0.003422 0.000000 0.040264
#
#
# Mechanical properties :
#
#
# Convention : Reuss Voigt Hill
#
# Bulk Modulus (GPa) = 17.24534 58.42337 37.83436
# Shear Modulus (GPa) = 18.55715 36.28477 27.42096
#
# Velocity S-wave (km/s) = 2.98323 4.17151 3.62637
# Velocity P-wave (km/s) = 4.48740 7.15686 5.97317
#
# Compressibility (1/GPa) = 0.05798667
#
# Stress axis : x y z
#
# Youngs Moduli (GPa) = 127.70521 158.05030 14.63802
#
# Poissons Ratio (x) = 0.09351 0.03512
# Poissons Ratio (y) = 0.07556 0.13544
# Poissons Ratio (z) = 0.30636 1.46236
#
# Static dielectric constant tensor:
#      x y z
#    x 1.766440 0.000000 -0.028540 
#    y 0.000000 1.780710 0.000000 
#    z -0.028540 0.000000 1.863610 
# 
# From -- ./inp_files/87420.got.cif
#   From: 2010.05.17/outbox.cif.g08.bks.cpg/sg10_44_cif.got.tgz:87420.got - 2010.06.03 11:33:40.
