data_PCOD9147693
_publ_section_title
;
Structure prediction by ZEFSAII (Michael W. Deem and Ramdas Pophale) SiO2 
 PCOD9147693
Probable space group: P 2/M
;
_chemical_formula_sum "Si O2"
_cell_formula_units_Z 16
_cell_length_a 10.603348
_cell_length_b 12.998790
_cell_length_c 7.962660
_cell_angle_alpha 90.000000
_cell_angle_beta 137.838875
_cell_angle_gamma 90.000000
_cell_volume 736.660834
_symmetry_space_group_name_H-M "P 2/M"
_symmetry_group_IT_number 10
_symmetry_cell_setting 'monoclinic'
loop_
_space_group_symop_operation_xyz
x,y,z
-x,y,-z
-x,-y,-z
x,-y,z
loop_
_atom_site_type_symbol
_atom_site_label
_atom_site_fract_x
_atom_site_fract_y
_atom_site_fract_z
Si Si1 0.353675 0.500000 0.196077
Si Si2 0.725338 0.724313 0.894732
Si Si3 0.061634 0.500000 0.367991
Si Si4 0.437821 0.115666 0.746649
Si Si5 0.848618 0.281611 0.627110
O O1 0.500000 0.500000 0.500000
O O2 0.375300 0.617324 0.150207
O O3 0.117018 0.500000 0.941294
O O4 0.596587 0.821570 0.803324
O O5 0.778660 0.718079 0.750959
O O6 0.928916 0.733638 0.179208
O O7 0.000000 0.500000 0.500000
O O8 0.181851 0.397948 0.461123
O O9 0.257875 0.188779 0.563530
O O10 0.406686 0.000000 0.651039
O O11 0.500000 0.109136 0.000000
#
# Coordination Sequence:
#
# PCOD9147693 Si02
#       5
#     2   4   2   4   4
#     4  10  19  35  66  95 131 171 208 258 326 394
#     4  10  22  41  66  97 129 168 218 267 323 396
#     4  10  23  39  65 105 142 171 214 273 334 406
#     4  11  26  43  62  92 130 172 222 277 328 385
#     4  10  22  41  68  93 130 172 210 267 332 392
#
# _framework density 21.719629999999999
#
# number of rings (size 3 to 8) (size 9 to 14) (size 15 to 20)
#    0.000    1.750    0.000    3.000    7.000    7.000 
#    0.000    6.250    0.000    0.000    0.000    0.000 
#    0.000    0.000    0.000    0.000    0.000    0.000 
#
# Total GULP energy -89230.514187 kJ/mol
# GULP energy per Si atom -5576.907137 kJ/mol
# Density = 2.167020 g / cm^3
# Si number density = 21.719630 Si / 1000 Ang^3
#
#
#
# Elastic Constant Matrix: (Units=GPa)
#
#
# Indices 1 2 3 4 5 6 
#
# 1 77.4073 50.8452 34.4754 0.0000 12.6439 0.0000
# 2 50.8452 252.0413 81.1996 0.0000 25.0576 0.0000
# 3 34.4754 81.1996 99.6968 0.0000 28.0298 0.0000
# 4 0.0000 0.0000 0.0000 85.6955 0.0000 47.6891
# 5 12.6439 25.0576 28.0298 0.0000 27.8209 0.0000
# 6 0.0000 0.0000 0.0000 47.6891 0.0000 82.3602
#
#
#
# Elastic Compliance Matrix: (Units=1/GPa)
#
#
# Indices 1 2 3 4 5 6 
#
# 1 0.016042 -0.001939 -0.003362 0.000000 -0.002158 0.000000
# 2 -0.001939 0.005621 -0.003811 0.000000 -0.000341 0.000000
# 3 -0.003362 -0.003811 0.018002 0.000000 -0.013176 0.000000
# 4 0.000000 0.000000 0.000000 0.017217 0.000000 -0.009969
# 5 -0.002158 -0.000341 -0.013176 0.000000 0.050507 0.000000
# 6 0.000000 0.000000 0.000000 -0.009969 0.000000 0.017914
#
#
# Mechanical properties :
#
#
# Convention : Reuss Voigt Hill
#
# Bulk Modulus (GPa) = 46.64102 84.68732 65.66417
# Shear Modulus (GPa) = 33.18452 56.68367 44.93410
#
# Velocity S-wave (km/s) = 3.91302 5.11415 4.55337
# Velocity P-wave (km/s) = 6.47583 8.59933 7.61200
#
# Compressibility (1/GPa) = 0.02144035
#
# Stress axis : x y z
#
# Youngs Moduli (GPa) = 62.33751 177.91925 55.55040
#
# Poissons Ratio (x) = 0.34492 0.18675
# Poissons Ratio (y) = 0.12085 0.21173
# Poissons Ratio (z) = 0.20956 0.67813
#
# Static dielectric constant tensor:
#      x y z
#    x 1.826530 0.000000 0.003950 
#    y 0.000000 1.788260 0.000000 
#    z 0.003950 0.000000 1.872350 
# 
# From -- ./inp_files/23779.got.cif
#   From: 2010.05.17/outbox.cif.g08.bks.cpg/sg10_12_cif.got.tgz:23779.got - 2010.06.03 11:33:40.
