data_PCOD9147952
_publ_section_title
;
Structure prediction by ZEFSAII (Michael W. Deem and Ramdas Pophale) SiO2 
 PCOD9147952
Probable space group: P 2/M
;
_chemical_formula_sum "Si O2"
_cell_formula_units_Z 24
_cell_length_a 19.247576
_cell_length_b 8.496232
_cell_length_c 15.284843
_cell_angle_alpha 90.000000
_cell_angle_beta 150.525539
_cell_angle_gamma 90.000000
_cell_volume 1229.871898
_symmetry_space_group_name_H-M "P 2/M"
_symmetry_group_IT_number 10
_symmetry_cell_setting 'monoclinic'
loop_
_space_group_symop_operation_xyz
x,y,z
-x,y,-z
-x,-y,-z
x,-y,z
loop_
_atom_site_type_symbol
_atom_site_label
_atom_site_fract_x
_atom_site_fract_y
_atom_site_fract_z
Si Si1 0.930280 0.311579 0.015141
Si Si2 0.146648 0.811897 0.396946
Si Si3 0.613442 0.190402 0.697599
Si Si4 0.113185 0.684265 0.554482
Si Si5 0.376159 0.179803 0.934716
Si Si6 0.531083 0.808088 0.280407
O O1 0.926085 0.500000 0.008946
O O2 0.030472 0.257651 0.204342
O O3 0.770784 0.250477 0.851885
O O4 0.000000 0.255879 0.000000
O O5 0.116226 0.768053 0.464171
O O6 0.305803 0.755816 0.547247
O O7 0.144333 0.000000 0.385675
O O8 0.500000 0.239233 0.500000
O O9 0.549821 0.242062 0.721050
O O10 0.619190 0.000000 0.703812
O O11 0.085541 0.500000 0.508651
O O12 0.259762 0.710617 0.764725
O O13 0.000000 0.746941 0.500000
O O14 0.320926 0.000000 0.886731
O O15 0.500000 0.169345 0.000000
O O16 0.442576 0.238291 0.097989
O O17 0.535290 0.000000 0.284238
#
# Coordination Sequence:
#
# PCOD9147952 Si02
#       6
#     4   4   4   4   4   4
#     4  11  25  43  62  89 128 165 198 242 301 364
#     4  11  22  41  67  91 118 158 206 253 303 355
#     4  10  21  39  64  93 121 153 200 252 299 355
#     4  11  25  41  57  86 128 165 203 249 302 362
#     4  10  19  37  61  86 117 156 206 251 295 352
#     4   9  19  36  60  90 119 150 196 256 305 348
#
# _framework density 19.514226000000001
#
# number of rings (size 3 to 8) (size 9 to 14) (size 15 to 20)
#    0.000    1.667    1.667    2.500    2.333    4.667 
#    0.000    1.667    0.000    0.000    0.000    0.000 
#    0.000    0.000    0.000    0.000    0.000    0.000 
#
# Total GULP energy -134055.484753 kJ/mol
# GULP energy per Si atom -5585.645198 kJ/mol
# Density = 1.946981 g / cm^3
# Si number density = 19.514226 Si / 1000 Ang^3
#
#
#
# Elastic Constant Matrix: (Units=GPa)
#
#
# Indices 1 2 3 4 5 6 
#
# 1 187.6679 22.3871 103.7882 0.0000 -5.5057 0.0000
# 2 22.3871 18.1155 15.9355 0.0000 -0.3940 0.0000
# 3 103.7882 15.9355 156.8984 0.0000 -15.1732 0.0000
# 4 0.0000 0.0000 0.0000 69.6953 0.0000 25.7972
# 5 -5.5057 -0.3940 -15.1732 0.0000 38.2113 0.0000
# 6 0.0000 0.0000 0.0000 25.7972 0.0000 36.1541
#
#
#
# Elastic Compliance Matrix: (Units=1/GPa)
#
#
# Indices 1 2 3 4 5 6 
#
# 1 0.009080 -0.006456 -0.005440 0.000000 -0.000918 0.000000
# 2 -0.006456 0.065339 -0.002486 0.000000 -0.001244 0.000000
# 3 -0.005440 -0.002486 0.010551 0.000000 0.003380 0.000000
# 4 0.000000 0.000000 0.000000 0.019498 0.000000 -0.013912
# 5 -0.000918 -0.001244 0.003380 0.000000 0.027367 0.000000
# 6 0.000000 0.000000 0.000000 -0.013912 0.000000 0.037586
#
#
# Mechanical properties :
#
#
# Convention : Reuss Voigt Hill
#
# Bulk Modulus (GPa) = 17.79116 71.87817 44.83467
# Shear Modulus (GPa) = 23.04989 43.51689 33.28339
#
# Velocity S-wave (km/s) = 3.44056 4.72742 4.13437
# Velocity P-wave (km/s) = 4.99201 8.16772 6.76874
#
# Compressibility (1/GPa) = 0.05620769
#
# Stress axis : x y z
#
# Youngs Moduli (GPa) = 110.13108 15.30472 94.77616
#
# Poissons Ratio (x) = 0.09881 0.51554
# Poissons Ratio (y) = 0.71103 0.23559
# Poissons Ratio (z) = 0.59906 0.03804
#
# Static dielectric constant tensor:
#      x y z
#    x 1.678960 0.000000 0.002030 
#    y 0.000000 1.693600 0.000000 
#    z 0.002030 0.000000 1.634460 
# 
# From -- ./inp_files/68786.got.cif
#   From: 2010.05.17/outbox.cif.g08.bks.cpg/sg10_35_cif.got.tgz:68786.got - 2010.06.03 11:33:40.
