data_PCOD9147134
_publ_section_title
;
Structure prediction by ZEFSAII (Michael W. Deem and Ramdas Pophale) SiO2 
 PCOD9147134
Probable space group: P 2/M
;
_chemical_formula_sum "Si O2"
_cell_formula_units_Z 32
_cell_length_a 27.053680
_cell_length_b 8.678936
_cell_length_c 21.444167
_cell_angle_alpha 90.000000
_cell_angle_beta 158.906399
_cell_angle_gamma 90.000000
_cell_volume 1812.069892
_symmetry_space_group_name_H-M "P 2/M"
_symmetry_group_IT_number 10
_symmetry_cell_setting 'monoclinic'
loop_
_space_group_symop_operation_xyz
x,y,z
-x,y,-z
-x,-y,-z
x,-y,z
loop_
_atom_site_type_symbol
_atom_site_label
_atom_site_fract_x
_atom_site_fract_y
_atom_site_fract_z
Si Si1 0.990950 0.185324 0.668596
Si Si2 0.728762 0.685465 0.051959
Si Si3 0.110116 0.184507 0.941055
Si Si4 0.601115 0.815952 0.561704
Si Si5 0.901402 0.684198 0.940457
Si Si6 0.414210 0.314248 0.987629
Si Si7 0.607129 0.684652 0.776768
Si Si8 0.693714 0.185781 0.268731
O O1 0.118799 0.250021 0.779789
O O2 0.018414 0.228134 0.773162
O O3 0.842526 0.234668 0.469156
O O4 0.996115 0.000000 0.671160
O O5 0.737412 0.500000 0.062109
O O6 0.658974 0.733588 0.034383
O O7 0.638213 0.729989 0.884905
O O8 0.124963 0.000000 0.959889
O O9 0.056361 0.243047 0.943778
O O10 0.259511 0.258114 0.104420
O O11 0.500000 0.774654 0.500000
O O12 0.747429 0.738341 0.744196
O O13 0.525769 0.759939 0.410498
O O14 0.617258 0.000000 0.580560
O O15 0.905019 0.500000 0.950258
O O16 0.000000 0.731784 0.000000
O O17 0.417226 0.500000 0.987830
O O18 0.333628 0.248996 0.832877
O O19 0.568790 0.250732 0.163133
O O20 0.597681 0.500000 0.761789
O O21 0.686449 0.000000 0.259436
#
# Coordination Sequence:
#
# PCOD9147134 Si02
#       8
#     4   4   4   4   4   4   4   4
#     4   9  20  36  56  81 110 141 179 222 267 321
#     4   9  20  36  55  81 112 142 178 223 271 318
#     4  10  19  35  57  80 109 143 180 223 271 324
#     4  11  22  36  58  85 109 141 184 225 269 324
#     4  11  24  40  57  80 110 144 182 225 274 324
#     4  10  20  36  56  80 110 144 180 222 268 316
#     4  10  19  34  57  82 110 142 180 226 271 319
#     4  10  20  36  56  80 109 144 184 221 263 321
#
# _framework density 17.659362999999999
#
# number of rings (size 3 to 8) (size 9 to 14) (size 15 to 20)
#    0.000    2.000    1.250    3.000    0.000    5.000 
#    2.250    2.500    0.000    0.000    0.000    0.000 
#    0.000    0.000    0.000    0.000    0.000    0.000 
#
# Total GULP energy -178646.910660 kJ/mol
# GULP energy per Si atom -5582.715958 kJ/mol
# Density = 1.761917 g / cm^3
# Si number density = 17.659363 Si / 1000 Ang^3
#
#
#
# Elastic Constant Matrix: (Units=GPa)
#
#
# Indices 1 2 3 4 5 6 
#
# 1 157.1198 27.2511 68.4589 0.0000 1.8888 0.0000
# 2 27.2511 25.3273 16.3632 0.0000 -0.2059 0.0000
# 3 68.4589 16.3632 118.9894 0.0000 -4.9383 0.0000
# 4 0.0000 0.0000 0.0000 23.7903 0.0000 -2.2304
# 5 1.8888 -0.2059 -4.9383 0.0000 13.4430 0.0000
# 6 0.0000 0.0000 0.0000 -2.2304 0.0000 40.1067
#
#
#
# Elastic Compliance Matrix: (Units=1/GPa)
#
#
# Indices 1 2 3 4 5 6 
#
# 1 0.009755 -0.007474 -0.004718 0.000000 -0.003218 0.000000
# 2 -0.007474 0.049091 -0.002413 0.000000 0.000916 0.000000
# 3 -0.004718 -0.002413 0.011654 0.000000 0.004907 0.000000
# 4 0.000000 0.000000 0.000000 0.042254 0.000000 0.002350
# 5 -0.003218 0.000916 0.004907 0.000000 0.076657 0.000000
# 6 0.000000 0.000000 0.000000 0.002350 0.000000 0.025064
#
#
# Mechanical properties :
#
#
# Convention : Reuss Voigt Hill
#
# Bulk Modulus (GPa) = 24.21882 58.39810 41.30846
# Shear Modulus (GPa) = 19.42125 28.09225 23.75675
#
# Velocity S-wave (km/s) = 3.31988 3.99279 3.67178
# Velocity P-wave (km/s) = 5.33288 7.37547 6.43573
#
# Compressibility (1/GPa) = 0.04129020
#
# Stress axis : x y z
#
# Youngs Moduli (GPa) = 102.50678 20.37026 85.80579
#
# Poissons Ratio (x) = 0.15225 0.40487
# Poissons Ratio (y) = 0.76616 0.20703
# Poissons Ratio (z) = 0.48367 0.04915
#
# Static dielectric constant tensor:
#      x y z
#    x 1.596530 0.000000 -0.018410 
#    y 0.000000 1.594590 0.000000 
#    z -0.018410 0.000000 1.585360 
# 
# From -- ./inp_files/86950.got.cif
#   From: 2010.05.17/outbox.cif.g08.bks.cpg/sg10_44_cif.got.tgz:86950.got - 2010.06.03 11:33:40.
