data_PCOD9147355
_publ_section_title
;
Structure prediction by ZEFSAII (Michael W. Deem and Ramdas Pophale) SiO2 
 PCOD9147355
Probable space group: P 2/M
;
_chemical_formula_sum "Si O2"
_cell_formula_units_Z 28
_cell_length_a 20.319846
_cell_length_b 8.628761
_cell_length_c 18.749121
_cell_angle_alpha 90.000000
_cell_angle_beta 150.831135
_cell_angle_gamma 90.000000
_cell_volume 1602.219938
_symmetry_space_group_name_H-M "P 2/M"
_symmetry_group_IT_number 10
_symmetry_cell_setting 'monoclinic'
loop_
_space_group_symop_operation_xyz
x,y,z
-x,y,-z
-x,-y,-z
x,-y,z
loop_
_atom_site_type_symbol
_atom_site_label
_atom_site_fract_x
_atom_site_fract_y
_atom_site_fract_z
Si Si1 0.101554 0.320286 0.527902
Si Si2 0.342772 0.689572 0.850193
Si Si3 0.033805 0.813834 0.113414
Si Si4 0.316643 0.683057 0.373211
Si Si5 0.855080 0.312722 0.208434
Si Si6 0.413244 0.814275 0.315240
Si Si7 0.205498 0.813667 0.003956
O O1 0.127985 0.500000 0.534040
O O2 0.245030 0.256555 0.692211
O O3 0.000000 0.320628 0.500000
O O4 0.003679 0.252723 0.374121
O O5 0.343064 0.500000 0.847963
O O6 0.259954 0.734642 0.843169
O O7 0.500000 0.738946 0.000000
O O8 0.171941 0.731978 0.264721
O O9 0.915189 0.774868 0.055637
O O10 0.051984 0.000000 0.131012
O O11 0.000000 0.768707 0.000000
O O12 0.332561 0.500000 0.384705
O O13 0.334961 0.751179 0.310745
O O14 0.435762 0.754545 0.532986
O O15 0.861091 0.500000 0.217255
O O16 0.816945 0.260273 0.093743
O O17 0.409454 0.000000 0.315917
O O18 0.340550 0.765298 0.173824
O O19 0.207845 0.000000 0.998316
#
# Coordination Sequence:
#
# PCOD9147355 Si02
#       7
#     4   4   4   4   4   4   4
#     4   7  11  22  41  65  93 125 158 188 228 287
#     4   8  13  24  46  74  98 125 164 202 234 284
#     4  10  19  36  55  71  93 131 179 213 244 306
#     4  11  21  32  50  79 103 121 157 218 274 303
#     4   9  17  29  47  71 100 130 158 200 254 298
#     4  10  19  35  54  70  94 137 176 202 243 310
#     4  10  21  35  53  73  97 133 175 213 251 301
#
# _framework density 17.475753000000001
#
# number of rings (size 3 to 8) (size 9 to 14) (size 15 to 20)
#    0.000    2.714    1.429    4.286    0.000    2.000 
#    0.000    1.429    0.000    6.000    0.000    0.000 
#    0.000    0.000    0.000    0.000    0.000    0.000 
#
# Total GULP energy -155951.650127 kJ/mol
# GULP energy per Si atom -5569.701790 kJ/mol
# Density = 1.743598 g / cm^3
# Si number density = 17.475753 Si / 1000 Ang^3
#
#
#
# Elastic Constant Matrix: (Units=GPa)
#
#
# Indices 1 2 3 4 5 6 
#
# 1 63.3781 19.9183 70.4539 0.0000 -7.9457 0.0000
# 2 19.9183 21.1680 31.0445 0.0000 -0.7285 0.0000
# 3 70.4539 31.0445 190.5077 0.0000 -6.3174 0.0000
# 4 0.0000 0.0000 0.0000 54.5474 0.0000 72.9145
# 5 -7.9457 -0.7285 -6.3174 0.0000 31.0147 0.0000
# 6 0.0000 0.0000 0.0000 72.9145 0.0000 207.6738
#
#
#
# Elastic Compliance Matrix: (Units=1/GPa)
#
#
# Indices 1 2 3 4 5 6 
#
# 1 0.031423 -0.016568 -0.008726 0.000000 0.005884 0.000000
# 2 -0.016568 0.070824 -0.005537 0.000000 -0.003709 0.000000
# 3 -0.008726 -0.005537 0.009363 0.000000 -0.000458 0.000000
# 4 0.000000 0.000000 0.000000 0.034546 0.000000 -0.012129
# 5 0.005884 -0.003709 -0.000458 0.000000 0.033570 0.000000
# 6 0.000000 0.000000 0.000000 -0.012129 0.000000 0.009074
#
#
# Mechanical properties :
#
#
# Convention : Reuss Voigt Hill
#
# Bulk Modulus (GPa) = 20.02080 57.54301 38.78191
# Shear Modulus (GPa) = 18.71879 68.88965 43.80422
#
# Velocity S-wave (km/s) = 3.27636 6.28536 5.01200
# Velocity P-wave (km/s) = 5.07877 9.25598 7.46549
#
# Compressibility (1/GPa) = 0.04994804
#
# Stress axis : x y z
#
# Youngs Moduli (GPa) = 31.82364 14.11954 106.80054
#
# Poissons Ratio (x) = 0.23394 0.93194
# Poissons Ratio (y) = 0.52726 0.59134
# Poissons Ratio (z) = 0.27769 0.07818
#
# Static dielectric constant tensor:
#      x y z
#    x 1.578830 0.000000 0.008930 
#    y 0.000000 1.591300 0.000000 
#    z 0.008930 0.000000 1.636850 
# 
# From -- ./inp_files/79302.got.cif
#   From: 2010.05.17/outbox.cif.g08.bks.cpg/sg10_40_cif.got.tgz:79302.got - 2010.06.03 11:33:40.
