data_PCOD9147615
_publ_section_title
;
Structure prediction by ZEFSAII (Michael W. Deem and Ramdas Pophale) SiO2 
 PCOD9147615
Probable space group: P 2/M
;
_chemical_formula_sum "Si O2"
_cell_formula_units_Z 32
_cell_length_a 20.833243
_cell_length_b 8.554509
_cell_length_c 26.838000
_cell_angle_alpha 90.000000
_cell_angle_beta 21.132774
_cell_angle_gamma 90.000000
_cell_volume 1724.423848
_symmetry_space_group_name_H-M "P 2/M"
_symmetry_group_IT_number 10
_symmetry_cell_setting 'monoclinic'
loop_
_space_group_symop_operation_xyz
x,y,z
-x,y,-z
-x,-y,-z
x,-y,z
loop_
_atom_site_type_symbol
_atom_site_label
_atom_site_fract_x
_atom_site_fract_y
_atom_site_fract_z
Si Si1 0.504588 0.312540 0.290987
Si Si2 0.528608 0.689848 0.899869
Si Si3 0.986327 0.688930 0.207346
Si Si4 0.795810 0.812793 0.155899
Si Si5 0.606687 0.690872 0.107036
Si Si6 0.791156 0.311008 0.793563
Si Si7 0.130688 0.185359 0.600361
Si Si8 0.307586 0.689032 0.661115
O O1 0.501047 0.500000 0.293714
O O2 0.668614 0.256714 0.205796
O O3 0.531809 0.257843 0.214360
O O4 0.321331 0.251436 0.446541
O O5 0.533515 0.500000 0.895839
O O6 0.504006 0.743853 0.861206
O O7 0.700249 0.739570 0.807434
O O8 0.352859 0.730695 0.059222
O O9 0.985410 0.500000 0.210454
O O10 0.925883 0.750872 0.304580
O O11 0.847303 0.736531 0.265254
O O12 0.187504 0.738495 0.048996
O O13 0.728197 0.758605 0.258830
O O14 0.789366 0.000000 0.157775
O O15 0.000000 0.761601 0.000000
O O16 0.604884 0.500000 0.108132
O O17 0.806835 0.500000 0.782254
O O18 0.979225 0.239211 0.671252
O O19 0.138724 0.000000 0.596455
O O20 0.500000 0.734663 0.500000
O O21 0.305097 0.500000 0.666862
#
# Coordination Sequence:
#
# PCOD9147615 Si02
#       8
#     4   4   4   4   4   4   4   4
#     4  11  23  39  61  84 111 150 193 238 281 329
#     4   8  14  28  56  89 113 138 182 240 288 326
#     4  10  19  35  60  85 111 142 185 240 286 334
#     4  11  24  41  60  84 117 154 187 227 281 345
#     4   9  17  32  57  87 110 136 186 244 288 325
#     4   9  16  31  58  85 112 147 185 232 284 332
#     4  12  24  37  54  82 120 157 189 227 279 342
#     4  10  21  36  57  86 114 144 188 239 285 330
#
# _framework density 18.556923000000001
#
# number of rings (size 3 to 8) (size 9 to 14) (size 15 to 20)
#    0.000    2.000    1.250    4.125    0.000    3.750 
#    0.000    3.125    0.000    3.750    0.000    0.000 
#    0.000    0.000    0.000    0.000    0.000    0.000 
#
# Total GULP energy -178707.751800 kJ/mol
# GULP energy per Si atom -5584.617244 kJ/mol
# Density = 1.851469 g / cm^3
# Si number density = 18.556923 Si / 1000 Ang^3
#
#
#
# Elastic Constant Matrix: (Units=GPa)
#
#
# Indices 1 2 3 4 5 6 
#
# 1 104.9228 11.5683 5.9395 0.0000 1.3925 0.0000
# 2 11.5683 18.6511 5.2266 0.0000 1.1209 0.0000
# 3 5.9395 5.2266 37.1951 0.0000 13.6302 0.0000
# 4 0.0000 0.0000 0.0000 1.1329 0.0000 1.4718
# 5 1.3925 1.1209 13.6302 0.0000 31.8789 0.0000
# 6 0.0000 0.0000 0.0000 1.4718 0.0000 -10.0477
#
#
#
# Elastic Compliance Matrix: (Units=1/GPa)
#
#
# Indices 1 2 3 4 5 6 
#
# 1 0.010252 -0.006137 -0.000818 0.000000 0.000118 0.000000
# 2 -0.006137 0.059560 -0.007969 0.000000 0.001581 0.000000
# 3 -0.000818 -0.007969 0.033226 0.000000 -0.013890 0.000000
# 4 0.000000 0.000000 0.000000 0.741573 0.000000 0.108629
# 5 0.000118 0.001581 -0.013890 0.000000 0.037247 0.000000
# 6 0.000000 0.000000 0.000000 0.108629 0.000000 -0.083613
#
#
# Mechanical properties :
#
#
# Convention : Reuss Voigt Hill
#
# Bulk Modulus (GPa) = 13.66278 22.91531 18.28905
# Shear Modulus (GPa) = 5.86518 13.79513 9.83015
#
# Velocity S-wave (km/s) = 1.77975 2.72949 2.30408
# Velocity P-wave (km/s) = 3.40616 4.72323 4.11770
#
# Compressibility (1/GPa) = 0.07319152
#
# Stress axis : x y z
#
# Youngs Moduli (GPa) = 97.54041 16.78967 30.09727
#
# Poissons Ratio (x) = 0.10303 0.02462
# Poissons Ratio (y) = 0.59858 0.23984
# Poissons Ratio (z) = 0.07978 0.13379
#
# Static dielectric constant tensor:
#      x y z
#    x 1.611180 0.000000 -0.017130 
#    y 0.000000 1.628190 0.000000 
#    z -0.017130 0.000000 1.607540 
# 
# From -- ./inp_files/93600.got.cif
#   From: 2010.05.17/outbox.cif.g08.bks.cpg/sg10_47_cif.got.tgz:93600.got - 2010.06.03 11:33:40.
