data_PCOD9147984
_publ_section_title
;
Structure prediction by ZEFSAII (Michael W. Deem and Ramdas Pophale) SiO2 
 PCOD9147984
Probable space group: P 2/M
;
_chemical_formula_sum "Si O2"
_cell_formula_units_Z 32
_cell_length_a 28.960882
_cell_length_b 8.986574
_cell_length_c 12.172626
_cell_angle_alpha 90.000000
_cell_angle_beta 147.660086
_cell_angle_gamma 90.000000
_cell_volume 1694.712948
_symmetry_space_group_name_H-M "P 2/M"
_symmetry_group_IT_number 10
_symmetry_cell_setting 'monoclinic'
loop_
_space_group_symop_operation_xyz
x,y,z
-x,y,-z
-x,-y,-z
x,-y,z
loop_
_atom_site_type_symbol
_atom_site_label
_atom_site_fract_x
_atom_site_fract_y
_atom_site_fract_z
Si Si1 0.904609 0.328782 0.856999
Si Si2 0.102600 0.325261 0.720269
Si Si3 0.244699 0.822242 0.585958
Si Si4 0.675767 0.326225 0.611182
Si Si5 0.853007 0.173953 0.964232
Si Si6 0.404096 0.324843 0.780646
Si Si7 0.752277 0.320362 0.166665
Si Si8 0.598916 0.319715 0.694135
O O1 0.874475 0.500000 0.800429
O O2 0.837232 0.238047 0.647499
O O3 0.908193 0.263071 0.986297
O O4 0.000000 0.323913 0.000000
O O5 0.119682 0.500000 0.778776
O O6 0.129599 0.228075 0.878061
O O7 0.162625 0.288128 0.736301
O O8 0.000000 0.307873 0.500000
O O9 0.330121 0.763104 0.695879
O O10 0.243358 0.756784 0.706609
O O11 0.243482 0.000000 0.585976
O O12 0.704560 0.500000 0.675571
O O13 0.610185 0.315918 0.378737
O O14 0.637146 0.284778 0.651218
O O15 0.755169 0.221088 0.742761
O O16 0.866758 0.000000 0.979907
O O17 0.396855 0.500000 0.797104
O O18 0.500000 0.272424 0.000000
O O19 0.748633 0.500000 0.174014
O O20 0.667207 0.273286 0.925379
O O21 0.500000 0.265189 0.500000
O O22 0.595682 0.500000 0.695175
#
# Coordination Sequence:
#
# PCOD9147984 Si02
#       8
#     4   4   4   4   4   4   4   4
#     4  11  25  45  69  92 118 160 213 261 306 367
#     4  10  22  41  65  91 119 160 212 257 298 355
#     4  12  26  42  61  90 131 167 200 252 321 383
#     4  10  19  37  63  89 120 159 206 256 302 357
#     4  12  24  39  63  93 128 162 197 251 316 372
#     4  10  22  39  65  95 122 162 216 263 303 362
#     4  10  21  39  62  87 120 162 209 254 300 360
#     4   9  18  33  60  93 118 149 200 258 302 344
#
# _framework density 18.882254
#
# number of rings (size 3 to 8) (size 9 to 14) (size 15 to 20)
#    0.000    1.500    2.500    2.625    3.500    2.000 
#    0.000    0.000    0.000    0.750    0.000    0.000 
#    0.000    0.000    0.000    0.000    0.000    0.000 
#
# Total GULP energy -178756.094322 kJ/mol
# GULP energy per Si atom -5586.127948 kJ/mol
# Density = 1.883928 g / cm^3
# Si number density = 18.882254 Si / 1000 Ang^3
#
#
#
# Elastic Constant Matrix: (Units=GPa)
#
#
# Indices 1 2 3 4 5 6 
#
# 1 91.4818 42.6771 22.8788 0.0000 -13.2255 0.0000
# 2 42.6771 76.3687 37.3882 0.0000 -6.0105 0.0000
# 3 22.8788 37.3882 73.8807 0.0000 -2.3107 0.0000
# 4 0.0000 0.0000 0.0000 64.5144 0.0000 8.0288
# 5 -13.2255 -6.0105 -2.3107 0.0000 31.7185 0.0000
# 6 0.0000 0.0000 0.0000 8.0288 0.0000 -0.9612
#
#
#
# Elastic Compliance Matrix: (Units=1/GPa)
#
#
# Indices 1 2 3 4 5 6 
#
# 1 0.015520 -0.007988 -0.000610 0.000000 0.004913 0.000000
# 2 -0.007988 0.021745 -0.008526 0.000000 0.000169 0.000000
# 3 -0.000610 -0.008526 0.018021 0.000000 -0.000557 0.000000
# 4 0.000000 0.000000 0.000000 0.007600 0.000000 0.063481
# 5 0.004913 0.000169 -0.000557 0.000000 0.033567 0.000000
# 6 0.000000 0.000000 0.000000 0.063481 0.000000 -0.510090
#
#
# Mechanical properties :
#
#
# Convention : Reuss Voigt Hill
#
# Bulk Modulus (GPa) = 47.52884 49.73547 48.63216
# Shear Modulus (GPa) = -13.42736 28.30680 7.43972
#
# Velocity S-wave (km/s) = -2.66956 3.87605 1.98711
# Velocity P-wave (km/s) = 3.96532 6.81386 5.57460
#
# Compressibility (1/GPa) = 0.02103986
#
# Stress axis : x y z
#
# Youngs Moduli (GPa) = 64.43101 45.98657 55.48954
#
# Poissons Ratio (x) = 0.36733 0.03386
# Poissons Ratio (y) = 0.51467 0.47309
# Poissons Ratio (z) = 0.03932 0.39207
#
# Static dielectric constant tensor:
#      x y z
#    x 1.647790 0.000000 0.004930 
#    y 0.000000 1.636480 0.000000 
#    z 0.004930 0.000000 1.665560 
# 
# From -- ./inp_files/58361.got.cif
#   From: 2010.05.17/outbox.cif.g08.bks.cpg/sg10_30_cif.got.tgz:58361.got - 2010.06.03 11:33:40.
