data_PCOD9147241
_publ_section_title
;
Structure prediction by ZEFSAII (Michael W. Deem and Ramdas Pophale) SiO2 
 PCOD9147241
Probable space group: P 2/M
;
_chemical_formula_sum "Si O2"
_cell_formula_units_Z 32
_cell_length_a 12.467849
_cell_length_b 13.780393
_cell_length_c 9.791717
_cell_angle_alpha 90.000000
_cell_angle_beta 120.504567
_cell_angle_gamma 90.000000
_cell_volume 1449.479194
_symmetry_space_group_name_H-M "P 2/M"
_symmetry_group_IT_number 10
_symmetry_cell_setting 'monoclinic'
loop_
_space_group_symop_operation_xyz
x,y,z
-x,y,-z
-x,-y,-z
x,-y,z
loop_
_atom_site_type_symbol
_atom_site_label
_atom_site_fract_x
_atom_site_fract_y
_atom_site_fract_z
Si Si1 0.413707 0.180986 0.645350
Si Si2 0.679948 0.186268 0.721937
Si Si3 0.000575 0.699032 0.841017
Si Si4 0.361304 0.887490 0.888840
Si Si5 0.743442 0.391169 0.693681
Si Si6 0.112928 0.386644 0.664463
Si Si7 0.373382 0.606002 0.672853
Si Si8 0.860867 0.113814 0.057356
O O1 0.552747 0.144523 0.703499
O O2 0.339334 0.179824 0.454079
O O3 0.341016 0.123968 0.714657
O O4 0.435690 0.289385 0.719477
O O5 0.696907 0.302648 0.757399
O O6 0.794510 0.134130 0.868759
O O7 0.871359 0.650858 0.712186
O O8 0.105773 0.656291 0.811108
O O9 0.023060 0.814234 0.849212
O O10 0.000000 0.671504 0.000000
O O11 0.245745 0.852796 0.903369
O O12 0.370260 0.000000 0.933782
O O13 0.500000 0.844967 0.000000
O O14 0.759503 0.500000 0.762312
O O15 0.652952 0.400613 0.506197
O O16 0.085059 0.500000 0.662827
O O17 0.244225 0.380661 0.672404
O O18 0.000000 0.343246 0.500000
O O19 0.427493 0.500000 0.748583
O O20 0.889305 0.000000 0.091132
#
# Coordination Sequence:
#
# PCOD9147241 Si02
#       8
#     4   4   4   4   4   4   4   4
#     4  10  20  35  63  85 118 146 191 236 277 337
#     4  10  21  38  56  91 114 152 190 232 286 333
#     4  12  23  37  58  85 113 153 191 230 294 336
#     4  10  20  37  62  86 110 146 188 236 292 340
#     4  10  20  37  58  85 119 151 192 234 275 335
#     4  10  19  34  58  86 114 150 194 237 279 331
#     4   9  18  34  58  85 113 152 190 226 278 333
#     4  11  24  42  59  82 116 149 189 239 292 349
#
# _framework density 22.076895
#
# number of rings (size 3 to 8) (size 9 to 14) (size 15 to 20)
#    0.000    1.750    3.750    1.125    0.000    2.250 
#    0.000    3.750    0.000    0.750    0.000    0.000 
#    0.000    0.000    0.000    0.000    0.000    0.000 
#
# Total GULP energy -178334.602622 kJ/mol
# GULP energy per Si atom -5572.956332 kJ/mol
# Density = 2.202665 g / cm^3
# Si number density = 22.076895 Si / 1000 Ang^3
#
#
#
# Elastic Constant Matrix: (Units=GPa)
#
#
# Indices 1 2 3 4 5 6 
#
# 1 60.0871 -0.1573 13.9354 0.0000 -22.3064 0.0000
# 2 -0.1573 38.6691 6.5347 0.0000 -1.8463 0.0000
# 3 13.9354 6.5347 42.4304 0.0000 -23.0191 0.0000
# 4 0.0000 0.0000 0.0000 34.2239 0.0000 18.6012
# 5 -22.3064 -1.8463 -23.0191 0.0000 27.0240 0.0000
# 6 0.0000 0.0000 0.0000 18.6012 0.0000 99.3941
#
#
#
# Elastic Compliance Matrix: (Units=1/GPa)
#
#
# Indices 1 2 3 4 5 6 
#
# 1 0.024666 0.000382 0.005391 0.000000 0.024979 0.000000
# 2 0.000382 0.026698 -0.005720 0.000000 -0.002733 0.000000
# 3 0.005391 -0.005720 0.046256 0.000000 0.043461 0.000000
# 4 0.000000 0.000000 0.000000 0.032528 0.000000 -0.006087
# 5 0.024979 -0.002733 0.043461 0.000000 0.094456 0.000000
# 6 0.000000 0.000000 0.000000 -0.006087 0.000000 0.011200
#
#
# Mechanical properties :
#
#
# Convention : Reuss Voigt Hill
#
# Bulk Modulus (GPa) = 10.23252 20.20134 15.21693
# Shear Modulus (GPa) = 18.63770 40.18665 29.41218
#
# Velocity S-wave (km/s) = 2.90869 4.27113 3.65397
# Velocity P-wave (km/s) = 3.99070 5.78738 4.97088
#
# Compressibility (1/GPa) = 0.09772765
#
# Stress axis : x y z
#
# Youngs Moduli (GPa) = 40.54148 37.45582 21.61862
#
# Poissons Ratio (x) = -0.01430 -0.11656
# Poissons Ratio (y) = -0.01548 0.12365
# Poissons Ratio (z) = -0.21858 0.21424
#
# Static dielectric constant tensor:
#      x y z
#    x 1.880540 0.000000 0.008880 
#    y 0.000000 1.857030 0.000000 
#    z 0.008880 0.000000 1.867450 
# 
# From -- ./inp_files/29539.got.cif
#   From: 2010.05.17/outbox.cif.g08.bks.cpg/sg10_15_cif.got.tgz:29539.got - 2010.06.03 11:33:40.
