data_PCOD9147876
_publ_section_title
;
Structure prediction by ZEFSAII (Michael W. Deem and Ramdas Pophale) SiO2 
 PCOD9147876
Probable space group: P 2/M
;
_chemical_formula_sum "Si O2"
_cell_formula_units_Z 24
_cell_length_a 9.830073
_cell_length_b 8.878333
_cell_length_c 14.973254
_cell_angle_alpha 90.000000
_cell_angle_beta 60.548666
_cell_angle_gamma 90.000000
_cell_volume 1137.914515
_symmetry_space_group_name_H-M "P 2/M"
_symmetry_group_IT_number 10
_symmetry_cell_setting 'monoclinic'
loop_
_space_group_symop_operation_xyz
x,y,z
-x,y,-z
-x,-y,-z
x,-y,z
loop_
_atom_site_type_symbol
_atom_site_label
_atom_site_fract_x
_atom_site_fract_y
_atom_site_fract_z
Si Si1 0.327154 0.179460 0.018069
Si Si2 0.112790 0.178761 0.256455
Si Si3 0.477117 0.176772 0.380207
Si Si4 0.822389 0.678503 0.582296
Si Si5 0.339085 0.326490 0.826261
Si Si6 0.210236 0.326093 0.682713
O O1 0.202283 0.212259 0.135542
O O2 0.322359 0.000000 0.000839
O O3 0.500000 0.214615 0.000000
O O4 0.296728 0.269494 0.937154
O O5 0.194314 0.264335 0.311383
O O6 0.934515 0.234117 0.307355
O O7 0.119415 0.000000 0.270076
O O8 0.304927 0.244550 0.439835
O O9 0.532954 0.217448 0.260517
O O10 0.617971 0.255972 0.388882
O O11 0.477608 0.000000 0.395786
O O12 0.802609 0.500000 0.583320
O O13 0.000000 0.717412 0.500000
O O14 0.395441 0.500000 0.809730
O O15 0.204185 0.322431 0.793906
O O16 0.203744 0.500000 0.655546
#
# Coordination Sequence:
#
# PCOD9147876 Si02
#       6
#     4   4   4   4   4   4
#     4  10  21  35  53  83 121 159 198 243 293 345
#     4  11  23  38  60  90 121 155 199 250 298 347
#     4  10  19  36  62  88 118 154 194 242 291 348
#     4  11  24  42  64  89 118 154 194 241 299 358
#     4   9  19  34  56  83 115 158 199 234 285 346
#     4   9  20  38  59  86 121 160 199 241 295 352
#
# _framework density 21.091214000000001
#
# number of rings (size 3 to 8) (size 9 to 14) (size 15 to 20)
#    1.000    1.000    0.000    4.000    0.000    5.000 
#    0.000    4.167    0.000    5.000    0.000    0.000 
#    0.000    0.000    0.000    0.000    0.000    0.000 
#
# Total GULP energy -134024.224603 kJ/mol
# GULP energy per Si atom -5584.342692 kJ/mol
# Density = 2.104321 g / cm^3
# Si number density = 21.091214 Si / 1000 Ang^3
#
#
#
# Elastic Constant Matrix: (Units=GPa)
#
#
# Indices 1 2 3 4 5 6 
#
# 1 99.7967 15.9699 36.2239 0.0000 -4.6415 0.0000
# 2 15.9699 36.9519 25.0613 0.0000 -3.7157 0.0000
# 3 36.2239 25.0613 74.7573 0.0000 3.2273 0.0000
# 4 0.0000 0.0000 0.0000 -50.2620 0.0000 -146.5241
# 5 -4.6415 -3.7157 3.2273 0.0000 39.5298 0.0000
# 6 0.0000 0.0000 0.0000 -146.5241 0.0000 -296.6825
#
#
#
# Elastic Compliance Matrix: (Units=1/GPa)
#
#
# Indices 1 2 3 4 5 6 
#
# 1 0.012356 -0.001357 -0.005609 0.000000 0.001781 0.000000
# 2 -0.001357 0.035906 -0.011559 0.000000 0.004160 0.000000
# 3 -0.005609 -0.011559 0.020116 0.000000 -0.003388 0.000000
# 4 0.000000 0.000000 0.000000 0.045243 0.000000 -0.022345
# 5 0.001781 0.004160 -0.003388 0.000000 0.026174 0.000000
# 6 0.000000 0.000000 0.000000 -0.022345 0.000000 0.007665
#
#
# Mechanical properties :
#
#
# Convention : Reuss Voigt Hill
#
# Bulk Modulus (GPa) = 31.92024 40.66845 36.29435
# Shear Modulus (GPa) = 25.64696 -52.53289 -13.44296
#
# Velocity S-wave (km/s) = 3.49091 -4.99615 -2.52736
# Velocity P-wave (km/s) = 5.60498 3.73604 2.95447
#
# Compressibility (1/GPa) = 0.03132808
#
# Stress axis : x y z
#
# Youngs Moduli (GPa) = 80.92962 27.85012 49.71162
#
# Poissons Ratio (x) = 0.03778 0.27885
# Poissons Ratio (y) = 0.10979 0.57463
# Poissons Ratio (z) = 0.45397 0.32193
#
# Static dielectric constant tensor:
#      x y z
#    x 1.749190 0.000000 0.018730 
#    y 0.000000 1.704350 0.000000 
#    z 0.018730 0.000000 1.815310 
# 
# From -- ./inp_files/75893.got.cif
#   From: 2010.05.17/outbox.cif.g08.bks.cpg/sg10_38_cif.got.tgz:75893.got - 2010.06.03 11:33:40.
