data_PCOD9147429
_publ_section_title
;
Structure prediction by ZEFSAII (Michael W. Deem and Ramdas Pophale) SiO2 
 PCOD9147429
Probable space group: P 2/M
;
_chemical_formula_sum "Si O2"
_cell_formula_units_Z 28
_cell_length_a 11.985142
_cell_length_b 8.631181
_cell_length_c 15.603390
_cell_angle_alpha 90.000000
_cell_angle_beta 64.017600
_cell_angle_gamma 90.000000
_cell_volume 1450.967215
_symmetry_space_group_name_H-M "P 2/M"
_symmetry_group_IT_number 10
_symmetry_cell_setting 'monoclinic'
loop_
_space_group_symop_operation_xyz
x,y,z
-x,y,-z
-x,-y,-z
x,-y,z
loop_
_atom_site_type_symbol
_atom_site_label
_atom_site_fract_x
_atom_site_fract_y
_atom_site_fract_z
Si Si1 0.559550 0.315989 0.294960
Si Si2 0.503543 0.817840 0.129425
Si Si3 0.309068 0.317488 0.065777
Si Si4 0.786148 0.815909 0.316488
Si Si5 0.129494 0.183569 0.405830
Si Si6 0.317663 0.317475 0.474081
Si Si7 0.927490 0.186834 0.771733
O O1 0.552726 0.500000 0.283005
O O2 0.522009 0.230322 0.220784
O O3 0.694686 0.267711 0.281596
O O4 0.458705 0.276928 0.402294
O O5 0.391752 0.726770 0.121069
O O6 0.478447 0.000000 0.130218
O O7 0.625772 0.772932 0.034005
O O8 0.317445 0.500000 0.047160
O O9 0.169984 0.264755 0.132086
O O10 0.738133 0.775768 0.427843
O O11 0.929849 0.768368 0.260961
O O12 0.778960 0.000000 0.305945
O O13 0.234562 0.279519 0.418883
O O14 0.108980 0.226910 0.313974
O O15 0.000000 0.203911 0.500000
O O16 0.161077 0.000000 0.399011
O O17 0.311975 0.500000 0.496312
O O18 0.918532 0.000000 0.781791
#
# Coordination Sequence:
#
# PCOD9147429 Si02
#       7
#     4   4   4   4   4   4   4
#     4  11  24  41  59  85 119 154 196 246 296 346
#     4  11  22  40  65  91 118 152 194 239 289 346
#     4  11  22  38  63  93 123 152 186 237 297 350
#     4  11  23  40  60  83 115 158 203 245 287 343
#     4  10  19  35  56  81 114 152 191 239 288 338
#     4  11  23  37  56  84 118 156 196 243 295 349
#     4  10  21  38  59  85 119 156 197 241 290 349
#
# _framework density 19.297471999999999
#
# number of rings (size 3 to 8) (size 9 to 14) (size 15 to 20)
#    0.000    1.286    1.429    6.000    0.000    8.286 
#    0.000    0.714    0.000    4.286    0.000    0.000 
#    0.000    0.000    0.000    0.000    0.000    0.000 
#
# Total GULP energy -156612.409424 kJ/mol
# GULP energy per Si atom -5593.300337 kJ/mol
# Density = 1.925355 g / cm^3
# Si number density = 19.297472 Si / 1000 Ang^3
#
#
#
# Elastic Constant Matrix: (Units=GPa)
#
#
# Indices 1 2 3 4 5 6 
#
# 1 42.8856 -0.1433 18.7141 0.0000 -12.8744 0.0000
# 2 -0.1433 25.9159 4.9749 0.0000 -5.8625 0.0000
# 3 18.7141 4.9749 53.0385 0.0000 -19.4996 0.0000
# 4 0.0000 0.0000 0.0000 22.5592 0.0000 -4.6732
# 5 -12.8744 -5.8625 -19.4996 0.0000 25.2664 0.0000
# 6 0.0000 0.0000 0.0000 -4.6732 0.0000 31.4047
#
#
#
# Elastic Compliance Matrix: (Units=1/GPa)
#
#
# Indices 1 2 3 4 5 6 
#
# 1 0.029524 0.003890 -0.006868 0.000000 0.010646 0.000000
# 2 0.003890 0.041245 -0.001388 0.000000 0.010481 0.000000
# 3 -0.006868 -0.001388 0.027927 0.000000 0.017731 0.000000
# 4 0.000000 0.000000 0.000000 0.045738 0.000000 0.006806
# 5 0.010646 0.010481 0.017731 0.000000 0.061119 0.000000
# 6 0.000000 0.000000 0.000000 0.006806 0.000000 0.032855
#
#
# Mechanical properties :
#
#
# Convention : Reuss Voigt Hill
#
# Bulk Modulus (GPa) = 11.11561 18.77012 14.94286
# Shear Modulus (GPa) = 18.04226 22.39902 20.22064
#
# Velocity S-wave (km/s) = 3.06102 3.41063 3.24055
# Velocity P-wave (km/s) = 4.27385 5.02571 4.66495
#
# Compressibility (1/GPa) = 0.08996357
#
# Stress axis : x y z
#
# Youngs Moduli (GPa) = 33.87098 24.24522 35.80818
#
# Poissons Ratio (x) = -0.09431 0.24593
# Poissons Ratio (y) = -0.13176 0.04970
# Poissons Ratio (z) = 0.23263 0.03365
#
# Static dielectric constant tensor:
#      x y z
#    x 1.661590 0.000000 -0.010510 
#    y 0.000000 1.647550 0.000000 
#    z -0.010510 0.000000 1.661540 
# 
# From -- ./inp_files/63510.got.cif
#   From: 2010.05.17/outbox.cif.g08.bks.cpg/sg10_32_cif.got.tgz:63510.got - 2010.06.03 11:33:40.
