data_PCOD9147640
_publ_section_title
;
Structure prediction by ZEFSAII (Michael W. Deem and Ramdas Pophale) SiO2 
 PCOD9147640
Probable space group: P 2/M
;
_chemical_formula_sum "Si O2"
_cell_formula_units_Z 26
_cell_length_a 11.102574
_cell_length_b 13.592684
_cell_length_c 7.834643
_cell_angle_alpha 90.000000
_cell_angle_beta 117.047828
_cell_angle_gamma 90.000000
_cell_volume 1053.038099
_symmetry_space_group_name_H-M "P 2/M"
_symmetry_group_IT_number 10
_symmetry_cell_setting 'monoclinic'
loop_
_space_group_symop_operation_xyz
x,y,z
-x,y,-z
-x,-y,-z
x,-y,z
loop_
_atom_site_type_symbol
_atom_site_label
_atom_site_fract_x
_atom_site_fract_y
_atom_site_fract_z
Si Si1 0.797128 0.892208 0.844282
Si Si2 0.848135 0.663305 0.951519
Si Si3 0.849508 0.322589 0.346837
Si Si4 0.801835 0.894166 0.452302
Si Si5 0.495515 0.866114 0.196489
Si Si6 0.360185 0.500000 0.293125
Si Si7 0.447655 0.361657 0.779532
O O1 0.843410 0.887866 0.676380
O O2 0.636503 0.896007 0.784728
O O3 0.846740 0.000000 0.943229
O O4 0.833526 0.782376 0.929093
O O5 0.826514 0.645772 0.137943
O O6 0.752837 0.590045 0.784485
O O7 0.000000 0.639905 0.000000
O O8 0.840918 0.203519 0.372631
O O9 0.714138 0.364481 0.347790
O O10 0.000000 0.353020 0.500000
O O11 0.639365 0.896249 0.361869
O O12 0.844488 0.000000 0.405107
O O13 0.500958 0.748980 0.198267
O O14 0.500000 0.896094 0.000000
O O15 0.478262 0.419493 0.317168
O O16 0.500000 0.395932 0.000000
#
# Coordination Sequence:
#
# PCOD9147640 Si02
#       7
#     4   4   4   4   4   2   4
#     4  11  22  40  65  98 139 183 233 290 347 413
#     4  12  26  44  70 101 139 185 233 284 352 423
#     4  11  24  43  67 101 143 181 224 294 357 417
#     4  10  22  38  63  96 137 187 233 288 352 409
#     4  10  19  35  60  99 139 181 232 286 345 413
#     4  12  22  44  74 105 130 181 237 295 335 419
#     4  10  19  38  70  99 128 175 232 280 333 403
#
# _framework density 24.690465
#
# number of rings (size 3 to 8) (size 9 to 14) (size 15 to 20)
#    0.000    1.231    3.077    4.154    0.000    4.923 
#    0.000    1.538    0.000   14.769    0.000    0.000 
#    0.000    0.000    0.000    0.000    0.000    0.000 
#
# Total GULP energy -144747.303244 kJ/mol
# GULP energy per Si atom -5567.203971 kJ/mol
# Density = 2.463427 g / cm^3
# Si number density = 24.690465 Si / 1000 Ang^3
#
#
#
# Elastic Constant Matrix: (Units=GPa)
#
#
# Indices 1 2 3 4 5 6 
#
# 1 156.6745 30.7397 18.0251 0.0000 31.8918 0.0000
# 2 30.7397 138.8576 12.9481 0.0000 6.8779 0.0000
# 3 18.0251 12.9481 55.1813 0.0000 -9.4451 0.0000
# 4 0.0000 0.0000 0.0000 -16.0158 0.0000 1.6027
# 5 31.8918 6.8779 -9.4451 0.0000 42.1983 0.0000
# 6 0.0000 0.0000 0.0000 1.6027 0.0000 -13.4552
#
#
#
# Elastic Compliance Matrix: (Units=1/GPa)
#
#
# Indices 1 2 3 4 5 6 
#
# 1 0.008472 -0.001182 -0.003694 0.000000 -0.007037 0.000000
# 2 -0.001182 0.007640 -0.001525 0.000000 -0.000693 0.000000
# 3 -0.003694 -0.001525 0.021012 0.000000 0.007744 0.000000
# 4 0.000000 0.000000 0.000000 -0.063192 0.000000 -0.007527
# 5 -0.007037 -0.000693 0.007744 0.000000 0.030862 0.000000
# 6 0.000000 0.000000 0.000000 -0.007527 0.000000 -0.075217
#
#
# Mechanical properties :
#
#
# Convention : Reuss Voigt Hill
#
# Bulk Modulus (GPa) = 41.11791 52.68214 46.90002
# Shear Modulus (GPa) = -100.98618 21.81215 -39.58701
#
# Velocity S-wave (km/s) = -6.40232 2.97547 -4.00851
# Velocity P-wave (km/s) = 6.16144 5.76090 1.54523
#
# Compressibility (1/GPa) = 0.02432030
#
# Stress axis : x y z
#
# Youngs Moduli (GPa) = 118.03403 130.89147 47.59144
#
# Poissons Ratio (x) = 0.15477 0.17583
# Poissons Ratio (y) = 0.13957 0.07258
# Poissons Ratio (z) = 0.43607 0.19961
#
# Static dielectric constant tensor:
#      x y z
#    x 1.907750 0.000000 0.102890 
#    y 0.000000 1.975300 0.000000 
#    z 0.102890 0.000000 1.402520 
# 
# From -- ./inp_files/25107.got.cif
#   From: 2010.05.17/outbox.cif.g08.bks.cpg/sg10_13_cif.got.tgz:25107.got - 2010.06.03 11:33:40.
