data_PCOD9147030
_publ_section_title
;
Structure prediction by ZEFSAII (Michael W. Deem and Ramdas Pophale) SiO2 
 PCOD9147030
Probable space group: P 2/M
;
_chemical_formula_sum "Si O2"
_cell_formula_units_Z 32
_cell_length_a 14.837018
_cell_length_b 7.581420
_cell_length_c 12.009258
_cell_angle_alpha 90.000000
_cell_angle_beta 86.371456
_cell_angle_gamma 90.000000
_cell_volume 1348.161316
_symmetry_space_group_name_H-M "P 2/M"
_symmetry_group_IT_number 10
_symmetry_cell_setting 'monoclinic'
loop_
_space_group_symop_operation_xyz
x,y,z
-x,y,-z
-x,-y,-z
x,-y,z
loop_
_atom_site_type_symbol
_atom_site_label
_atom_site_fract_x
_atom_site_fract_y
_atom_site_fract_z
Si Si1 0.906711 0.703508 0.467394
Si Si2 0.708350 0.716631 0.481890
Si Si3 0.860930 0.201290 0.053878
Si Si4 0.183334 0.786237 0.187614
Si Si5 0.704810 0.297599 0.229209
Si Si6 0.527609 0.798608 0.117313
Si Si7 0.630021 0.703624 0.711096
Si Si8 0.981785 0.213830 0.233702
O O1 0.906737 0.500000 0.505187
O O2 0.809646 0.778786 0.505064
O O3 0.000000 0.789847 0.500000
O O4 0.917360 0.710798 0.333539
O O5 0.708469 0.500000 0.484028
O O6 0.691155 0.770932 0.356133
O O7 0.640802 0.773181 0.584332
O O8 0.779476 0.202048 0.148923
O O9 0.945461 0.275383 0.116604
O O10 0.886177 0.000000 0.023436
O O11 0.825750 0.276212 0.940154
O O12 0.270690 0.712179 0.241577
O O13 0.085901 0.738820 0.247004
O O14 0.192395 0.000000 0.189652
O O15 0.735331 0.500000 0.235900
O O16 0.610613 0.291883 0.171735
O O17 0.441391 0.797133 0.204523
O O18 0.557332 0.000000 0.094023
O O19 0.500000 0.721003 0.000000
O O20 0.600899 0.500000 0.707611
O O21 0.975383 0.000000 0.236726
#
# Coordination Sequence:
#
# PCOD9147030 Si02
#       8
#     4   4   4   4   4   4   4   4
#     4  10  19  34  56  80 114 160 203 243 292 347
#     4   9  20  38  58  85 121 157 192 240 299 347
#     4  10  20  36  57  83 118 159 199 243 298 354
#     4  10  21  37  56  82 120 160 197 244 302 353
#     4  11  22  39  64  90 119 155 198 246 295 352
#     4  11  25  45  66  90 122 155 188 235 299 361
#     4  11  23  41  64  89 117 152 198 243 290 350
#     4  10  20  34  54  82 115 155 202 245 291 349
#
# _framework density 23.736032000000002
#
# number of rings (size 3 to 8) (size 9 to 14) (size 15 to 20)
#    0.000    1.750    1.250    3.000    0.000    8.250 
#    0.000    6.250    0.000    2.250    0.000    0.000 
#    0.000    0.000    0.000    0.000    0.000    0.000 
#
# Total GULP energy -178925.675308 kJ/mol
# GULP energy per Si atom -5591.427353 kJ/mol
# Density = 2.368201 g / cm^3
# Si number density = 23.736032 Si / 1000 Ang^3
#
#
#
# Elastic Constant Matrix: (Units=GPa)
#
#
# Indices 1 2 3 4 5 6 
#
# 1 86.7215 -3.7963 18.6032 0.0000 0.7081 0.0000
# 2 -3.7963 65.2182 0.0139 0.0000 0.2023 0.0000
# 3 18.6032 0.0139 105.9746 0.0000 -6.2824 0.0000
# 4 0.0000 0.0000 0.0000 8.6356 0.0000 13.5635
# 5 0.7081 0.2023 -6.2824 0.0000 39.0688 0.0000
# 6 0.0000 0.0000 0.0000 13.5635 0.0000 10.6815
#
#
#
# Elastic Compliance Matrix: (Units=1/GPa)
#
#
# Indices 1 2 3 4 5 6 
#
# 1 0.012027 0.000702 -0.002145 0.000000 -0.000567 0.000000
# 2 0.000702 0.015374 -0.000132 0.000000 -0.000114 0.000000
# 3 -0.002145 -0.000132 0.009910 0.000000 0.001633 0.000000
# 4 0.000000 0.000000 0.000000 -0.116447 0.000000 0.147867
# 5 -0.000567 -0.000114 0.001633 0.000000 0.025869 0.000000
# 6 0.000000 0.000000 0.000000 0.147867 0.000000 -0.094143
#
#
# Mechanical properties :
#
#
# Convention : Reuss Voigt Hill
#
# Bulk Modulus (GPa) = 29.27285 31.95066 30.61176
# Shear Modulus (GPa) = -37.62961 27.88340 -4.87311
#
# Velocity S-wave (km/s) = -3.98595 3.43115 -1.43440
# Velocity P-wave (km/s) = 2.97057 5.40251 3.19083
#
# Compressibility (1/GPa) = 0.03416134
#
# Stress axis : x y z
#
# Youngs Moduli (GPa) = 83.14868 65.04317 100.91249
#
# Poissons Ratio (x) = -0.04568 0.21645
# Poissons Ratio (y) = -0.05839 0.01332
# Poissons Ratio (z) = 0.17834 0.00859
#
# Static dielectric constant tensor:
#      x y z
#    x 1.863620 0.000000 0.018750 
#    y 0.000000 1.896970 0.000000 
#    z 0.018750 0.000000 1.932950 
# 
# From -- ./inp_files/49845.got.cif
#   From: 2010.05.17/outbox.cif.g08.bks.cpg/sg10_25_cif.got.tgz:49845.got - 2010.06.03 11:33:40.
