data_PCOD9147849
_publ_section_title
;
Structure prediction by ZEFSAII (Michael W. Deem and Ramdas Pophale) SiO2 
 PCOD9147849
Probable space group: P 2/M
;
_chemical_formula_sum "Si O2"
_cell_formula_units_Z 32
_cell_length_a 22.597909
_cell_length_b 16.686398
_cell_length_c 11.612264
_cell_angle_alpha 90.000000
_cell_angle_beta 23.388738
_cell_angle_gamma 90.000000
_cell_volume 1738.211807
_symmetry_space_group_name_H-M "P 2/M"
_symmetry_group_IT_number 10
_symmetry_cell_setting 'monoclinic'
loop_
_space_group_symop_operation_xyz
x,y,z
-x,y,-z
-x,-y,-z
x,-y,z
loop_
_atom_site_type_symbol
_atom_site_label
_atom_site_fract_x
_atom_site_fract_y
_atom_site_fract_z
Si Si1 0.468393 0.906814 0.419794
Si Si2 0.059370 0.585431 0.264696
Si Si3 0.766654 0.795498 0.246443
Si Si4 0.169372 0.409280 0.648479
Si Si5 0.674094 0.681652 0.200528
Si Si6 0.671248 0.234833 0.969269
Si Si7 0.421803 0.306911 0.265045
Si Si8 0.922403 0.273304 0.358519
O O1 0.500000 0.894688 0.500000
O O2 0.303412 0.878502 0.673789
O O3 0.492111 0.000000 0.352064
O O4 0.580761 0.846195 0.155653
O O5 0.021744 0.500000 0.276131
O O6 0.000000 0.584969 0.500000
O O7 0.995023 0.661497 0.314596
O O8 0.235024 0.600171 0.953961
O O9 0.707809 0.734380 0.252671
O O10 0.685717 0.767953 0.508597
O O11 0.943535 0.779090 0.934704
O O12 0.198015 0.500000 0.554924
O O13 0.309614 0.382827 0.477503
O O14 0.162537 0.333259 0.575762
O O15 0.000000 0.410046 0.000000
O O16 0.500000 0.670411 0.500000
O O17 0.724956 0.729477 0.995102
O O18 0.805969 0.222845 0.640493
O O19 0.557512 0.298277 0.113179
O O20 0.500000 0.305184 0.000000
#
# Coordination Sequence:
#
# PCOD9147849 Si02
#       8
#     4   4   4   4   4   4   4   4
#     4  10  19  36  61  89 121 150 180 230 290 345
#     4  10  21  33  47  74 108 144 186 229 276 332
#     4  10  20  35  59  85 110 148 190 227 284 354
#     4  11  23  39  55  80 115 154 204 256 294 321
#     4  11  18  34  55  77 109 144 189 231 279 341
#     4  11  20  36  57  86 111 150 190 232 280 348
#     4  11  21  36  56  83 111 147 199 239 284 338
#     4  11  21  36  58  77 110 156 192 234 282 339
#
# _framework density 18.409725000000002
#
# number of rings (size 3 to 8) (size 9 to 14) (size 15 to 20)
#    0.000    1.375    7.500    0.375    0.000    0.500 
#    0.000    1.250    0.000    7.500    0.000    3.500 
#    0.000    0.000    0.000    0.000    0.000    0.000 
#
# Total GULP energy -178223.087903 kJ/mol
# GULP energy per Si atom -5569.471497 kJ/mol
# Density = 1.836782 g / cm^3
# Si number density = 18.409725 Si / 1000 Ang^3
#
#
#
# Elastic Constant Matrix: (Units=GPa)
#
#
# Indices 1 2 3 4 5 6 
#
# 1 48.0513 24.3296 11.2771 0.0000 -0.2686 0.0000
# 2 24.3296 91.6079 27.6844 0.0000 -2.9654 0.0000
# 3 11.2771 27.6844 99.3905 0.0000 -2.2547 0.0000
# 4 0.0000 0.0000 0.0000 22.4273 0.0000 -3.0889
# 5 -0.2686 -2.9654 -2.2547 0.0000 26.0017 0.0000
# 6 0.0000 0.0000 0.0000 -3.0889 0.0000 16.3340
#
#
#
# Elastic Compliance Matrix: (Units=1/GPa)
#
#
# Indices 1 2 3 4 5 6 
#
# 1 0.024150 -0.006114 -0.001049 0.000000 -0.000539 0.000000
# 2 -0.006114 0.013497 -0.003038 0.000000 0.001213 0.000000
# 3 -0.001049 -0.003038 0.011040 0.000000 0.000600 0.000000
# 4 0.000000 0.000000 0.000000 0.045781 0.000000 0.008658
# 5 -0.000539 0.001213 0.000600 0.000000 0.038644 0.000000
# 6 0.000000 0.000000 0.000000 0.008658 0.000000 0.062859
#
#
# Mechanical properties :
#
#
# Convention : Reuss Voigt Hill
#
# Bulk Modulus (GPa) = 35.35556 40.62576 37.99066
# Shear Modulus (GPa) = 22.14313 24.66983 23.40648
#
# Velocity S-wave (km/s) = 3.47190 3.66463 3.56957
# Velocity P-wave (km/s) = 5.94295 6.32625 6.13759
#
# Compressibility (1/GPa) = 0.02828409
#
# Stress axis : x y z
#
# Youngs Moduli (GPa) = 41.40765 74.08841 90.57727
#
# Poissons Ratio (x) = 0.45299 0.09504
# Poissons Ratio (y) = 0.25318 0.27520
# Poissons Ratio (z) = 0.04345 0.22511
#
# Static dielectric constant tensor:
#      x y z
#    x 1.715940 0.000000 -0.026750 
#    y 0.000000 1.601710 0.000000 
#    z -0.026750 0.000000 1.689220 
# 
# From -- ./inp_files/57090.got.cif
#   From: 2010.05.17/outbox.cif.g08.bks.cpg/sg10_29_cif.got.tgz:57090.got - 2010.06.03 11:33:40.
