data_PCOD9147796
_publ_section_title
;
Structure prediction by ZEFSAII (Michael W. Deem and Ramdas Pophale) SiO2 
 PCOD9147796
Probable space group: P 2/M
;
_chemical_formula_sum "Si O2"
_cell_formula_units_Z 24
_cell_length_a 14.157511
_cell_length_b 7.508658
_cell_length_c 17.344723
_cell_angle_alpha 90.000000
_cell_angle_beta 144.390714
_cell_angle_gamma 90.000000
_cell_volume 1073.568190
_symmetry_space_group_name_H-M "P 2/M"
_symmetry_group_IT_number 10
_symmetry_cell_setting 'monoclinic'
loop_
_space_group_symop_operation_xyz
x,y,z
-x,y,-z
-x,-y,-z
x,-y,z
loop_
_atom_site_type_symbol
_atom_site_label
_atom_site_fract_x
_atom_site_fract_y
_atom_site_fract_z
Si Si1 0.816929 0.215717 0.895044
Si Si2 0.916655 0.216057 0.279271
Si Si3 0.511055 0.708484 0.593083
Si Si4 0.369661 0.203679 0.802034
Si Si5 0.277040 0.293268 0.570506
Si Si6 0.274780 0.217560 0.994198
O O1 0.690384 0.276193 0.746682
O O2 0.757902 0.276056 0.940325
O O3 0.815356 0.000000 0.893988
O O4 0.000000 0.273938 0.000000
O O5 0.771741 0.281094 0.238772
O O6 0.090675 0.281807 0.421879
O O7 0.923383 0.000000 0.288073
O O8 0.865812 0.266391 0.158920
O O9 0.500000 0.785945 0.500000
O O10 0.465937 0.500000 0.556504
O O11 0.389253 0.783742 0.576847
O O12 0.309292 0.203697 0.673819
O O13 0.550583 0.281305 0.920830
O O14 0.388443 0.000000 0.841770
O O15 0.321852 0.500000 0.611775
O O16 0.281633 0.000000 0.000537
#
# Coordination Sequence:
#
# PCOD9147796 Si02
#       6
#     4   4   4   4   4   4
#     4  10  21  37  60  90 115 138 178 234 289 333
#     4  10  21  35  57  86 113 148 190 227 272 333
#     4  10  23  42  60  80 110 150 191 228 273 334
#     4  10  19  36  60  83 110 149 191 228 275 332
#     4  11  23  38  56  81 114 149 187 232 280 326
#     4   9  18  35  57  83 115 144 179 229 277 329
#
# _framework density 22.355354999999999
#
# number of rings (size 3 to 8) (size 9 to 14) (size 15 to 20)
#    0.000    2.000    1.667    1.500    2.333    6.000 
#    0.000    1.667    0.000    2.000    0.000    0.000 
#    0.000    0.000    0.000    0.000    0.000    0.000 
#
# Total GULP energy -134164.685582 kJ/mol
# GULP energy per Si atom -5590.195233 kJ/mol
# Density = 2.230447 g / cm^3
# Si number density = 22.355355 Si / 1000 Ang^3
#
#
#
# Elastic Constant Matrix: (Units=GPa)
#
#
# Indices 1 2 3 4 5 6 
#
# 1 99.6762 -2.1093 26.1647 0.0000 -5.6348 0.0000
# 2 -2.1093 62.3678 -16.7642 0.0000 -2.9012 0.0000
# 3 26.1647 -16.7642 100.4989 0.0000 -3.6965 0.0000
# 4 0.0000 0.0000 0.0000 22.8139 0.0000 2.8895
# 5 -5.6348 -2.9012 -3.6965 0.0000 44.5781 0.0000
# 6 0.0000 0.0000 0.0000 2.8895 0.0000 1.9823
#
#
#
# Elastic Compliance Matrix: (Units=1/GPa)
#
#
# Indices 1 2 3 4 5 6 
#
# 1 0.010833 -0.000344 -0.002837 0.000000 0.001112 0.000000
# 2 -0.000344 0.016876 0.002953 0.000000 0.001300 0.000000
# 3 -0.002837 0.002953 0.011210 0.000000 0.000763 0.000000
# 4 0.000000 0.000000 0.000000 0.053758 0.000000 -0.078361
# 5 0.001112 0.001300 0.000763 0.000000 0.022721 0.000000
# 6 0.000000 0.000000 0.000000 -0.078361 0.000000 0.618682
#
#
# Mechanical properties :
#
#
# Convention : Reuss Voigt Hill
#
# Bulk Modulus (GPa) = 26.00020 30.79171 28.39595
# Shear Modulus (GPa) = 6.69024 30.89166 18.79095
#
# Velocity S-wave (km/s) = 1.73181 3.72135 2.90238
# Velocity P-wave (km/s) = 3.95658 5.68052 4.89504
#
# Compressibility (1/GPa) = 0.03846124
#
# Stress axis : x y z
#
# Youngs Moduli (GPa) = 92.31309 59.25442 89.20992
#
# Poissons Ratio (x) = 0.02041 0.25307
# Poissons Ratio (y) = 0.03180 -0.26340
# Poissons Ratio (z) = 0.26188 -0.17496
#
# Static dielectric constant tensor:
#      x y z
#    x 1.817710 0.000000 -0.001720 
#    y 0.000000 1.915250 0.000000 
#    z -0.001720 0.000000 1.756870 
# 
# From -- ./inp_files/27068.got.cif
#   From: 2010.05.17/outbox.cif.g08.bks.cpg/sg10_14_cif.got.tgz:27068.got - 2010.06.03 11:33:40.
