data_PCOD9147222
_publ_section_title
;
Structure prediction by ZEFSAII (Michael W. Deem and Ramdas Pophale) SiO2 
 PCOD9147222
Probable space group: P 2/M
;
_chemical_formula_sum "Si O2"
_cell_formula_units_Z 32
_cell_length_a 15.380853
_cell_length_b 16.524134
_cell_length_c 9.722592
_cell_angle_alpha 90.000000
_cell_angle_beta 139.675803
_cell_angle_gamma 90.000000
_cell_volume 1599.044378
_symmetry_space_group_name_H-M "P 2/M"
_symmetry_group_IT_number 10
_symmetry_cell_setting 'monoclinic'
loop_
_space_group_symop_operation_xyz
x,y,z
-x,y,-z
-x,-y,-z
x,-y,z
loop_
_atom_site_type_symbol
_atom_site_label
_atom_site_fract_x
_atom_site_fract_y
_atom_site_fract_z
Si Si1 0.732864 0.096790 0.036665
Si Si2 0.552388 0.091900 0.220963
Si Si3 0.927205 0.650878 0.050849
Si Si4 0.612402 0.594293 0.035876
Si Si5 0.626998 0.598110 0.744480
Si Si6 0.188192 0.831932 0.571899
Si Si7 0.889834 0.647974 0.484565
Si Si8 0.947753 0.153657 0.089957
O O1 0.794397 0.137057 0.250045
O O2 0.811709 0.118908 0.992846
O O3 0.736345 0.000000 0.061781
O O4 0.575239 0.120741 0.845440
O O5 0.683468 0.145896 0.366082
O O6 0.588278 0.000000 0.305327
O O7 0.500000 0.088192 0.000000
O O8 0.932233 0.748715 0.069833
O O9 0.021011 0.614882 0.283604
O O10 0.773045 0.624835 0.869308
O O11 0.000000 0.627284 0.000000
O O12 0.576340 0.500000 0.974971
O O13 0.760676 0.599096 0.278687
O O14 0.500000 0.631770 0.000000
O O15 0.612979 0.629858 0.883766
O O16 0.500000 0.624220 0.500000
O O17 0.627137 0.500000 0.745782
O O18 0.168341 0.736091 0.550618
O O19 0.060254 0.868337 0.339137
O O20 0.000000 0.658926 0.500000
O O21 0.000000 0.129688 0.000000
#
# Coordination Sequence:
#
# PCOD9147222 Si02
#       8
#     4   4   4   4   4   4   4   4
#     4  10  20  35  58  85 111 145 190 239 286 340
#     4   8  16  32  53  80 111 139 176 231 285 333
#     4  10  22  40  59  83 118 157 196 243 294 349
#     4  10  23  40  58  86 124 157 190 242 295 343
#     4  10  22  41  63  88 119 155 197 243 288 346
#     4  10  19  34  58  84 110 143 186 238 285 340
#     4  11  21  37  59  87 117 154 198 243 293 347
#     4  10  22  39  54  77 117 152 187 236 286 340
#
# _framework density 20.011951
#
# number of rings (size 3 to 8) (size 9 to 14) (size 15 to 20)
#    0.000    2.125    1.250    3.000    1.750    4.250 
#    0.000    0.625    0.000    1.500    0.000    0.000 
#    0.000    0.000    0.000    0.000    0.000    0.000 
#
# Total GULP energy -178484.971296 kJ/mol
# GULP energy per Si atom -5577.655353 kJ/mol
# Density = 1.996640 g / cm^3
# Si number density = 20.011951 Si / 1000 Ang^3
#
#
#
# Elastic Constant Matrix: (Units=GPa)
#
#
# Indices 1 2 3 4 5 6 
#
# 1 193.4413 22.6951 74.8151 0.0000 22.7681 0.0000
# 2 22.6951 13.0608 8.9392 0.0000 -1.2487 0.0000
# 3 74.8151 8.9392 110.7797 0.0000 9.2418 0.0000
# 4 0.0000 0.0000 0.0000 7.8803 0.0000 -29.9437
# 5 22.7681 -1.2487 9.2418 0.0000 26.2507 0.0000
# 6 0.0000 0.0000 0.0000 -29.9437 0.0000 -60.0499
#
#
#
# Elastic Compliance Matrix: (Units=1/GPa)
#
#
# Indices 1 2 3 4 5 6 
#
# 1 0.009457 -0.013934 -0.004660 0.000000 -0.007225 0.000000
# 2 -0.013934 0.102610 -0.000294 0.000000 0.017070 0.000000
# 3 -0.004660 -0.000294 0.012220 0.000000 -0.000275 0.000000
# 4 0.000000 0.000000 0.000000 0.043837 0.000000 -0.021859
# 5 -0.007225 0.017070 -0.000275 0.000000 0.045269 0.000000
# 6 0.000000 0.000000 0.000000 -0.021859 0.000000 -0.005753
#
#
# Mechanical properties :
#
#
# Convention : Reuss Voigt Hill
#
# Bulk Modulus (GPa) = 11.55896 58.90895 35.23395
# Shear Modulus (GPa) = 18.23131 8.87169 13.55150
#
# Velocity S-wave (km/s) = 3.02159 2.10780 2.60507
# Velocity P-wave (km/s) = 4.23815 5.95185 5.16655
#
# Compressibility (1/GPa) = 0.08651301
#
# Stress axis : x y z
#
# Youngs Moduli (GPa) = 105.74452 9.74560 81.83065
#
# Poissons Ratio (x) = 0.13580 0.38129
# Poissons Ratio (y) = 1.47345 0.02403
# Poissons Ratio (z) = 0.49272 0.00286
#
# Static dielectric constant tensor:
#      x y z
#    x 1.726200 0.000000 0.006690 
#    y 0.000000 1.712520 0.000000 
#    z 0.006690 0.000000 1.701830 
# 
# From -- ./inp_files/30324.got.cif
#   From: 2010.05.17/outbox.cif.g08.bks.cpg/sg10_16_cif.got.tgz:30324.got - 2010.06.03 11:33:40.
