data_PCOD9147277
_publ_section_title
;
Structure prediction by ZEFSAII (Michael W. Deem and Ramdas Pophale) SiO2 
 PCOD9147277
Probable space group: P 2/M
;
_chemical_formula_sum "Si O2"
_cell_formula_units_Z 32
_cell_length_a 28.712227
_cell_length_b 8.557782
_cell_length_c 22.229491
_cell_angle_alpha 90.000000
_cell_angle_beta 161.387971
_cell_angle_gamma 90.000000
_cell_volume 1743.266303
_symmetry_space_group_name_H-M "P 2/M"
_symmetry_group_IT_number 10
_symmetry_cell_setting 'monoclinic'
loop_
_space_group_symop_operation_xyz
x,y,z
-x,y,-z
-x,-y,-z
x,-y,z
loop_
_atom_site_type_symbol
_atom_site_label
_atom_site_fract_x
_atom_site_fract_y
_atom_site_fract_z
Si Si1 0.171582 0.313930 0.595951
Si Si2 0.152343 0.814105 0.802351
Si Si3 0.331977 0.685490 0.669809
Si Si4 0.839331 0.310852 0.781617
Si Si5 0.654816 0.185773 0.078204
Si Si6 0.546784 0.309880 0.491393
Si Si7 0.611589 0.686566 0.823036
Si Si8 0.321971 0.184445 0.528649
O O1 0.191162 0.500000 0.627045
O O2 0.240131 0.267133 0.615814
O O3 0.256061 0.229240 0.753201
O O4 0.001890 0.271046 0.389213
O O5 0.249078 0.771449 0.862418
O O6 0.128676 0.000000 0.772133
O O7 0.246724 0.766889 0.975941
O O8 0.316937 0.500000 0.643159
O O9 0.283979 0.769261 0.549888
O O10 0.500625 0.727617 0.887749
O O11 0.835148 0.500000 0.771520
O O12 0.709155 0.264241 0.668172
O O13 0.796485 0.239735 0.664930
O O14 0.000000 0.265146 0.000000
O O15 0.627759 0.000000 0.042656
O O16 0.500000 0.253819 0.500000
O O17 0.545873 0.500000 0.491684
O O18 0.435648 0.263768 0.302054
O O19 0.630742 0.500000 0.847217
O O20 0.472723 0.730675 0.694446
O O21 0.345557 0.000000 0.552989
#
# Coordination Sequence:
#
# PCOD9147277 Si02
#       8
#     4   4   4   4   4   4   4   4
#     4  11  25  41  58  85 117 151 192 241 291 338
#     4  11  23  39  59  85 118 153 192 236 288 346
#     4  11  23  40  61  85 114 150 197 243 285 339
#     4   9  18  34  56  82 111 146 187 230 278 332
#     4  11  23  39  62  88 114 150 191 234 290 349
#     4   8  15  30  53  81 110 140 180 228 274 322
#     4  10  19  34  59  85 112 149 195 238 279 331
#     4  11  21  35  58  85 114 150 192 235 286 341
#
# _framework density 18.356345999999998
#
# number of rings (size 3 to 8) (size 9 to 14) (size 15 to 20)
#    0.000    1.750    1.250    4.500    0.000    6.750 
#    2.250    0.000    0.000    9.375    0.000    0.000 
#    0.000    0.000    0.000    0.000    0.000    0.000 
#
# Total GULP energy -178765.202522 kJ/mol
# GULP energy per Si atom -5586.412579 kJ/mol
# Density = 1.831457 g / cm^3
# Si number density = 18.356346 Si / 1000 Ang^3
#
#
#
# Elastic Constant Matrix: (Units=GPa)
#
#
# Indices 1 2 3 4 5 6 
#
# 1 82.3338 13.5928 4.9753 0.0000 -16.6623 0.0000
# 2 13.5928 8.8583 -3.7412 0.0000 1.6186 0.0000
# 3 4.9753 -3.7412 48.7781 0.0000 -16.1165 0.0000
# 4 0.0000 0.0000 0.0000 105.1987 0.0000 -21.0023
# 5 -16.6623 1.6186 -16.1165 0.0000 24.3014 0.0000
# 6 0.0000 0.0000 0.0000 -21.0023 0.0000 6.8710
#
#
#
# Elastic Compliance Matrix: (Units=1/GPa)
#
#
# Indices 1 2 3 4 5 6 
#
# 1 0.021674 -0.036135 0.000926 0.000000 0.017882 0.000000
# 2 -0.036135 0.177016 0.006635 0.000000 -0.032166 0.000000
# 3 0.000926 0.006635 0.026866 0.000000 0.018010 0.000000
# 4 0.000000 0.000000 0.000000 0.024389 0.000000 0.074548
# 5 0.017882 -0.032166 0.018010 0.000000 0.067497 0.000000
# 6 0.000000 0.000000 0.000000 0.074548 0.000000 0.373405
#
#
# Mechanical properties :
#
#
# Convention : Reuss Voigt Hill
#
# Bulk Modulus (GPa) = 5.93795 18.84712 12.39253
# Shear Modulus (GPa) = 6.21788 35.61712 20.91750
#
# Velocity S-wave (km/s) = 1.84246 4.40968 3.37935
# Velocity P-wave (km/s) = 2.78713 6.01803 4.68960
#
# Compressibility (1/GPa) = 0.16840823
#
# Stress axis : x y z
#
# Youngs Moduli (GPa) = 46.13781 5.64920 37.22158
#
# Poissons Ratio (x) = 0.20413 -0.03447
# Poissons Ratio (y) = 1.66718 -0.24695
# Poissons Ratio (z) = -0.04272 -0.03748
#
# Static dielectric constant tensor:
#      x y z
#    x 1.625780 0.000000 -0.006160 
#    y 0.000000 1.611480 0.000000 
#    z -0.006160 0.000000 1.602850 
# 
# From -- ./inp_files/86926.got.cif
#   From: 2010.05.17/outbox.cif.g08.bks.cpg/sg10_44_cif.got.tgz:86926.got - 2010.06.03 11:33:40.
