data_PCOD9147108
_publ_section_title
;
Structure prediction by ZEFSAII (Michael W. Deem and Ramdas Pophale) SiO2 
 PCOD9147108
Probable space group: P 2/M
;
_chemical_formula_sum "Si O2"
_cell_formula_units_Z 32
_cell_length_a 14.819349
_cell_length_b 7.509056
_cell_length_c 12.713567
_cell_angle_alpha 90.000000
_cell_angle_beta 82.546030
_cell_angle_gamma 90.000000
_cell_volume 1402.801568
_symmetry_space_group_name_H-M "P 2/M"
_symmetry_group_IT_number 10
_symmetry_cell_setting 'monoclinic'
loop_
_space_group_symop_operation_xyz
x,y,z
-x,y,-z
-x,-y,-z
x,-y,z
loop_
_atom_site_type_symbol
_atom_site_label
_atom_site_fract_x
_atom_site_fract_y
_atom_site_fract_z
Si Si1 0.683643 0.787592 0.240604
Si Si2 0.603011 0.285122 0.481525
Si Si3 0.880733 0.792760 0.249662
Si Si4 0.747289 0.282862 0.883943
Si Si5 0.949544 0.706520 0.906501
Si Si6 0.899409 0.284526 0.488099
Si Si7 0.730959 0.717174 0.649392
Si Si8 0.581290 0.794104 0.058706
O O1 0.650921 0.760651 0.364579
O O2 0.787353 0.717671 0.213645
O O3 0.610920 0.715532 0.167160
O O4 0.689536 0.000000 0.221843
O O5 0.500000 0.219940 0.500000
O O6 0.602019 0.500000 0.486745
O O7 0.657204 0.221781 0.575769
O O8 0.871320 0.774765 0.376311
O O9 0.975686 0.711346 0.197140
O O10 0.886524 0.000000 0.221449
O O11 0.745286 0.500000 0.886733
O O12 0.850381 0.221225 0.892600
O O13 0.719973 0.225348 0.770542
O O14 0.673629 0.214799 0.977317
O O15 0.931620 0.500000 0.935135
O O16 0.000000 0.787901 0.000000
O O17 0.899749 0.500000 0.486110
O O18 0.828001 0.228386 0.587025
O O19 0.000000 0.221727 0.500000
O O20 0.729357 0.500000 0.650627
O O21 0.554492 0.000000 0.082142
O O22 0.500000 0.714307 0.000000
#
# Coordination Sequence:
#
# PCOD9147108 Si02
#       8
#     4   4   4   4   4   4   4   4
#     4  10  22  40  59  83 117 152 190 237 287 342
#     4  10  21  36  58  86 112 144 188 237 287 340
#     4  11  22  35  55  84 116 149 187 235 286 339
#     4  10  21  38  60  87 116 147 190 239 287 338
#     4  10  21  37  58  84 114 151 195 239 284 341
#     4  10  19  34  57  81 110 152 191 226 277 335
#     4   9  18  34  54  81 116 146 178 229 283 333
#     4  10  23  42  61  83 114 153 194 236 287 344
#
# _framework density 22.811494
#
# number of rings (size 3 to 8) (size 9 to 14) (size 15 to 20)
#    0.000    2.000    1.250    1.875    1.750    4.500 
#    0.000    1.250    0.000    0.000    0.000    0.000 
#    0.000    0.000    0.000    0.000    0.000    0.000 
#
# Total GULP energy -178836.563942 kJ/mol
# GULP energy per Si atom -5588.642623 kJ/mol
# Density = 2.275957 g / cm^3
# Si number density = 22.811494 Si / 1000 Ang^3
#
#
#
# Elastic Constant Matrix: (Units=GPa)
#
#
# Indices 1 2 3 4 5 6 
#
# 1 132.8728 0.5054 21.0971 0.0000 26.8094 0.0000
# 2 0.5054 62.8081 -8.2222 0.0000 9.2914 0.0000
# 3 21.0971 -8.2222 100.5660 0.0000 23.0150 0.0000
# 4 0.0000 0.0000 0.0000 17.0563 0.0000 -11.8527
# 5 26.8094 9.2914 23.0150 0.0000 44.1192 0.0000
# 6 0.0000 0.0000 0.0000 -11.8527 0.0000 36.5666
#
#
#
# Elastic Compliance Matrix: (Units=1/GPa)
#
#
# Indices 1 2 3 4 5 6 
#
# 1 0.008641 0.000600 -0.000605 0.000000 -0.005061 0.000000
# 2 0.000600 0.017013 0.002462 0.000000 -0.005232 0.000000
# 3 -0.000605 0.002462 0.011704 0.000000 -0.006256 0.000000
# 4 0.000000 0.000000 0.000000 0.075675 0.000000 0.024529
# 5 -0.005061 -0.005232 -0.006256 0.000000 0.030107 0.000000
# 6 0.000000 0.000000 0.000000 0.024529 0.000000 0.035298
#
#
# Mechanical properties :
#
#
# Convention : Reuss Voigt Hill
#
# Bulk Modulus (GPa) = 23.65630 35.88971 29.77301
# Shear Modulus (GPa) = 26.65035 38.40620 32.52827
#
# Velocity S-wave (km/s) = 3.42173 4.10766 3.78029
# Velocity P-wave (km/s) = 5.09939 6.18583 5.66870
#
# Compressibility (1/GPa) = 0.04227204
#
# Stress axis : x y z
#
# Youngs Moduli (GPa) = 115.72665 58.77840 85.44248
#
# Poissons Ratio (x) = -0.03527 0.05173
# Poissons Ratio (y) = -0.06943 -0.21040
# Poissons Ratio (z) = 0.07006 -0.14474
#
# Static dielectric constant tensor:
#      x y z
#    x 1.840350 0.000000 0.036430 
#    y 0.000000 1.870740 0.000000 
#    z 0.036430 0.000000 1.818890 
# 
# From -- ./inp_files/49818.got.cif
#   From: 2010.05.17/outbox.cif.g08.bks.cpg/sg10_25_cif.got.tgz:49818.got - 2010.06.03 11:33:40.
