data_PCOD9147163
_publ_section_title
;
Structure prediction by ZEFSAII (Michael W. Deem and Ramdas Pophale) SiO2 
 PCOD9147163
Probable space group: P 2/M
;
_chemical_formula_sum "Si O2"
_cell_formula_units_Z 28
_cell_length_a 19.662418
_cell_length_b 7.648541
_cell_length_c 14.070771
_cell_angle_alpha 90.000000
_cell_angle_beta 143.860471
_cell_angle_gamma 90.000000
_cell_volume 1247.969761
_symmetry_space_group_name_H-M "P 2/M"
_symmetry_group_IT_number 10
_symmetry_cell_setting 'monoclinic'
loop_
_space_group_symop_operation_xyz
x,y,z
-x,y,-z
-x,-y,-z
x,-y,z
loop_
_atom_site_type_symbol
_atom_site_label
_atom_site_fract_x
_atom_site_fract_y
_atom_site_fract_z
Si Si1 0.114384 0.786148 0.069627
Si Si2 0.559473 0.787996 0.165291
Si Si3 0.824930 0.294451 0.449336
Si Si4 0.394798 0.799371 0.135694
Si Si5 0.814827 0.299758 0.227632
Si Si6 0.959248 0.801179 0.220657
Si Si7 0.369790 0.213346 0.321023
O O1 0.249504 0.732326 0.238410
O O2 0.113638 0.000000 0.073387
O O3 0.000000 0.729684 0.000000
O O4 0.087008 0.731776 0.930399
O O5 0.691261 0.736655 0.314279
O O6 0.497218 0.718803 0.189602
O O7 0.550116 0.000000 0.155172
O O8 0.500000 0.727692 0.000000
O O9 0.850078 0.500000 0.482258
O O10 0.847656 0.227409 0.367412
O O11 0.903546 0.203509 0.616408
O O12 0.361393 0.727665 0.200909
O O13 0.426804 0.000000 0.191752
O O14 0.289095 0.794722 0.942906
O O15 0.778021 0.500000 0.201959
O O16 0.916280 0.295512 0.265926
O O17 0.916947 0.000000 0.180511
O O18 0.500000 0.266244 0.500000
O O19 0.367770 0.000000 0.323755
#
# Coordination Sequence:
#
# PCOD9147163 Si02
#       7
#     4   4   4   4   4   4   4
#     4   9  18  33  56  87 117 145 184 238 297 351
#     4  10  20  34  55  82 112 146 190 240 283 330
#     4  11  24  38  54  81 118 156 195 234 282 346
#     4  10  19  34  57  84 111 145 191 234 280 337
#     4  11  22  36  56  81 112 152 194 233 280 340
#     4  11  22  37  59  85 114 148 191 241 288 336
#     4   9  17  31  54  84 114 143 181 235 293 344
#
# _framework density 22.436442
#
# number of rings (size 3 to 8) (size 9 to 14) (size 15 to 20)
#    0.000    1.857    2.857    1.714    0.000    5.429 
#    0.000    4.286    0.000    2.143    0.000    0.000 
#    0.000    0.000    0.000    0.000    0.000    0.000 
#
# Total GULP energy -156194.510124 kJ/mol
# GULP energy per Si atom -5578.375362 kJ/mol
# Density = 2.238538 g / cm^3
# Si number density = 22.436442 Si / 1000 Ang^3
#
#
#
# Elastic Constant Matrix: (Units=GPa)
#
#
# Indices 1 2 3 4 5 6 
#
# 1 124.7575 8.1047 53.5244 0.0000 33.3168 0.0000
# 2 8.1047 41.7695 -6.1002 0.0000 -1.9109 0.0000
# 3 53.5244 -6.1002 125.1572 0.0000 24.6760 0.0000
# 4 0.0000 0.0000 0.0000 -296.4696 0.0000 -217.9775
# 5 33.3168 -1.9109 24.6760 0.0000 34.5386 0.0000
# 6 0.0000 0.0000 0.0000 -217.9775 0.0000 -142.0152
#
#
#
# Elastic Compliance Matrix: (Units=1/GPa)
#
#
# Indices 1 2 3 4 5 6 
#
# 1 0.012293 -0.003338 -0.003545 0.000000 -0.009510 0.000000
# 2 -0.003338 0.025029 0.002025 0.000000 0.003158 0.000000
# 3 -0.003545 0.002025 0.010369 0.000000 -0.003877 0.000000
# 4 0.000000 0.000000 0.000000 0.026246 0.000000 -0.040284
# 5 -0.009510 0.003158 -0.003877 0.000000 0.041071 0.000000
# 6 0.000000 0.000000 0.000000 -0.040284 0.000000 0.054790
#
#
# Mechanical properties :
#
#
# Convention : Reuss Voigt Hill
#
# Bulk Modulus (GPa) = 26.33345 44.74911 35.54128
# Shear Modulus (GPa) = 26.01831 -65.04556 -19.51362
#
# Velocity S-wave (km/s) = 3.40905 -5.39017 -2.95232
# Velocity P-wave (km/s) = 5.22091 4.33018 2.06245
#
# Compressibility (1/GPa) = 0.03797452
#
# Stress axis : x y z
#
# Youngs Moduli (GPa) = 81.34742 39.95393 96.44196
#
# Poissons Ratio (x) = 0.13337 0.34187
# Poissons Ratio (y) = 0.27154 -0.19528
# Poissons Ratio (z) = 0.28836 -0.08090
#
# Static dielectric constant tensor:
#      x y z
#    x 1.872120 0.000000 0.055530 
#    y 0.000000 1.828590 0.000000 
#    z 0.055530 0.000000 1.849130 
# 
# From -- ./inp_files/68676.got.cif
#   From: 2010.05.17/outbox.cif.g08.bks.cpg/sg10_35_cif.got.tgz:68676.got - 2010.06.03 11:33:40.
