data_PCOD9147306
_publ_section_title
;
Structure prediction by ZEFSAII (Michael W. Deem and Ramdas Pophale) SiO2 
 PCOD9147306
Probable space group: P 2/M
;
_chemical_formula_sum "Si O2"
_cell_formula_units_Z 28
_cell_length_a 9.609569
_cell_length_b 14.632312
_cell_length_c 21.071867
_cell_angle_alpha 90.000000
_cell_angle_beta 29.618450
_cell_angle_gamma 90.000000
_cell_volume 1464.339587
_symmetry_space_group_name_H-M "P 2/M"
_symmetry_group_IT_number 10
_symmetry_cell_setting 'monoclinic'
loop_
_space_group_symop_operation_xyz
x,y,z
-x,y,-z
-x,-y,-z
x,-y,z
loop_
_atom_site_type_symbol
_atom_site_label
_atom_site_fract_x
_atom_site_fract_y
_atom_site_fract_z
Si Si1 0.759715 0.895037 0.042858
Si Si2 0.652770 0.732583 0.765704
Si Si3 0.172670 0.762300 0.643378
Si Si4 0.823709 0.391016 0.005638
Si Si5 0.167552 0.891289 0.127108
Si Si6 0.196614 0.605807 0.734557
Si Si7 0.328834 0.601854 0.358455
O O1 0.511247 0.827697 0.161411
O O2 0.657973 0.000000 0.076567
O O3 0.896010 0.869122 0.921130
O O4 0.000000 0.891376 0.000000
O O5 0.625433 0.684062 0.708398
O O6 0.971378 0.746494 0.662515
O O7 0.470402 0.661993 0.880450
O O8 0.500000 0.784073 0.500000
O O9 0.162165 0.670038 0.688735
O O10 0.019654 0.837461 0.748417
O O11 0.784941 0.500000 0.023183
O O12 0.999152 0.369760 0.872783
O O13 0.000000 0.365015 0.000000
O O14 0.136123 0.000000 0.149447
O O15 0.500000 0.868602 0.000000
O O16 0.147515 0.500000 0.737948
O O17 0.507212 0.615748 0.641227
O O18 0.426865 0.500000 0.295531
O O19 0.000000 0.596384 0.500000
#
# Coordination Sequence:
#
# PCOD9147306 Si02
#       7
#     4   4   4   4   4   4   4
#     4  10  22  39  64  98 124 150 193 249 311 367
#     4  12  22  36  61  87 120 164 198 254 305 361
#     4  12  27  41  58  91 128 164 210 254 301 358
#     4  10  19  34  59  91 116 144 200 262 310 358
#     4  10  21  43  70  91 120 161 203 247 303 371
#     4  10  22  39  59  85 123 162 203 256 307 362
#     4  10  21  38  59  82 114 164 214 248 297 368
#
# _framework density 19.121247
#
# number of rings (size 3 to 8) (size 9 to 14) (size 15 to 20)
#    0.000    1.429    2.857    2.571    2.000    1.714 
#    0.000    1.429    0.000    0.429    0.000    0.000 
#    0.000    0.000    0.000    0.000    0.000    0.000 
#
# Total GULP energy -156350.957415 kJ/mol
# GULP energy per Si atom -5583.962765 kJ/mol
# Density = 1.907773 g / cm^3
# Si number density = 19.121247 Si / 1000 Ang^3
#
#
#
# Elastic Constant Matrix: (Units=GPa)
#
#
# Indices 1 2 3 4 5 6 
#
# 1 56.5553 25.5486 0.9861 0.0000 -2.8275 0.0000
# 2 25.5486 93.1458 32.7490 0.0000 3.3008 0.0000
# 3 0.9861 32.7490 77.0155 0.0000 -12.6304 0.0000
# 4 0.0000 0.0000 0.0000 16.7011 0.0000 5.3242
# 5 -2.8275 3.3008 -12.6304 0.0000 28.2028 0.0000
# 6 0.0000 0.0000 0.0000 5.3242 0.0000 26.6089
#
#
#
# Elastic Compliance Matrix: (Units=1/GPa)
#
#
# Indices 1 2 3 4 5 6 
#
# 1 0.021094 -0.007188 0.003530 0.000000 0.004537 0.000000
# 2 -0.007188 0.015548 -0.007486 0.000000 -0.005893 0.000000
# 3 0.003530 -0.007486 0.017618 0.000000 0.009120 0.000000
# 4 0.000000 0.000000 0.000000 0.063956 0.000000 -0.012797
# 5 0.004537 -0.005893 0.009120 0.000000 0.040686 0.000000
# 6 0.000000 0.000000 0.000000 -0.012797 0.000000 0.040142
#
#
# Mechanical properties :
#
#
# Convention : Reuss Voigt Hill
#
# Bulk Modulus (GPa) = 31.27557 38.36490 34.82023
# Shear Modulus (GPa) = 21.55272 25.46476 23.50874
#
# Velocity S-wave (km/s) = 3.36096 3.65328 3.51016
# Velocity P-wave (km/s) = 5.60833 6.15653 5.88881
#
# Compressibility (1/GPa) = 0.03197384
#
# Stress axis : x y z
#
# Youngs Moduli (GPa) = 47.40641 64.31625 56.75987
#
# Poissons Ratio (x) = 0.46230 -0.20039
# Poissons Ratio (y) = 0.34075 0.42490
# Poissons Ratio (z) = -0.16737 0.48146
#
# Static dielectric constant tensor:
#      x y z
#    x 1.686670 0.000000 -0.002750 
#    y 0.000000 1.676840 0.000000 
#    z -0.002750 0.000000 1.677150 
# 
# From -- ./inp_files/35251.got.cif
#   From: 2010.05.17/outbox.cif.g08.bks.cpg/sg10_18_cif.got.tgz:35251.got - 2010.06.03 11:33:40.
