data_PCOD9147963
_publ_section_title
;
Structure prediction by ZEFSAII (Michael W. Deem and Ramdas Pophale) SiO2 
 PCOD9147963
Probable space group: P 2/M
;
_chemical_formula_sum "Si O2"
_cell_formula_units_Z 32
_cell_length_a 12.469747
_cell_length_b 8.765668
_cell_length_c 16.708933
_cell_angle_alpha 90.000000
_cell_angle_beta 88.822531
_cell_angle_gamma 90.000000
_cell_volume 1825.995331
_symmetry_space_group_name_H-M "P 2/M"
_symmetry_group_IT_number 10
_symmetry_cell_setting 'monoclinic'
loop_
_space_group_symop_operation_xyz
x,y,z
-x,y,-z
-x,-y,-z
x,-y,z
loop_
_atom_site_type_symbol
_atom_site_label
_atom_site_fract_x
_atom_site_fract_y
_atom_site_fract_z
Si Si1 0.382826 0.683538 0.966236
Si Si2 0.116265 0.314582 0.530946
Si Si3 0.742669 0.317535 0.874988
Si Si4 0.082740 0.181332 0.237393
Si Si5 0.140823 0.316660 0.713974
Si Si6 0.648628 0.180673 0.208523
Si Si7 0.428097 0.317658 0.262502
Si Si8 0.766030 0.315670 0.626949
O O1 0.381000 0.500000 0.953965
O O2 0.362960 0.764272 0.882860
O O3 0.500000 0.721216 0.000000
O O4 0.295981 0.722459 0.035695
O O5 0.114380 0.500000 0.532675
O O6 0.136378 0.264338 0.621082
O O7 0.204312 0.269971 0.463506
O O8 0.000000 0.264798 0.500000
O O9 0.760540 0.500000 0.870698
O O10 0.846694 0.233862 0.839537
O O11 0.644650 0.285326 0.814975
O O12 0.147576 0.245321 0.313414
O O13 0.964728 0.252101 0.241343
O O14 0.077356 0.000000 0.241351
O O15 0.136991 0.500000 0.715460
O O16 0.248590 0.259200 0.753489
O O17 0.539829 0.232426 0.254544
O O18 0.660193 0.000000 0.211622
O O19 0.447604 0.500000 0.263545
O O20 0.351669 0.276146 0.338294
O O21 0.775928 0.500000 0.633224
#
# Coordination Sequence:
#
# PCOD9147963 Si02
#       8
#     4   4   4   4   4   4   4   4
#     4  10  19  37  62  86 110 142 190 237 274 323
#     4   9  16  31  59  89 108 133 188 246 280 314
#     4   9  18  34  59  85 110 142 186 234 273 321
#     4  11  21  33  52  83 120 149 180 223 279 337
#     4  11  22  39  61  80 109 151 192 232 278 333
#     4  12  25  38  54  81 119 152 184 227 282 341
#     4   9  17  33  56  81 110 147 188 227 272 329
#     4   9  17  33  57  84 111 142 186 236 278 323
#
# _framework density 17.52469
#
# number of rings (size 3 to 8) (size 9 to 14) (size 15 to 20)
#    0.000    2.000    2.500    3.375    0.000    2.750 
#    0.000    3.125    0.000    7.500    0.000    0.000 
#    0.000    0.000    0.000    0.000    0.000    0.000 
#
# Total GULP energy -178615.197309 kJ/mol
# GULP energy per Si atom -5581.724916 kJ/mol
# Density = 1.748480 g / cm^3
# Si number density = 17.524690 Si / 1000 Ang^3
#
#
#
# Elastic Constant Matrix: (Units=GPa)
#
#
# Indices 1 2 3 4 5 6 
#
# 1 146.8893 57.9015 74.2473 0.0000 -16.5791 0.0000
# 2 57.9015 54.9414 37.2080 0.0000 -8.5502 0.0000
# 3 74.2473 37.2080 95.9218 0.0000 -15.3467 0.0000
# 4 0.0000 0.0000 0.0000 1.5735 0.0000 8.2096
# 5 -16.5791 -8.5502 -15.3467 0.0000 28.2959 0.0000
# 6 0.0000 0.0000 0.0000 8.2096 0.0000 -21.8384
#
#
#
# Elastic Compliance Matrix: (Units=1/GPa)
#
#
# Indices 1 2 3 4 5 6 
#
# 1 0.014663 -0.010430 -0.007045 0.000000 0.001619 0.000000
# 2 -0.010430 0.032265 -0.004227 0.000000 0.001346 0.000000
# 3 -0.007045 -0.004227 0.018235 0.000000 0.004485 0.000000
# 4 0.000000 0.000000 0.000000 0.214607 0.000000 0.080676
# 5 0.001619 0.001346 0.004485 0.000000 0.039129 0.000000
# 6 0.000000 0.000000 0.000000 0.080676 0.000000 -0.015463
#
#
# Mechanical properties :
#
#
# Convention : Reuss Voigt Hill
#
# Bulk Modulus (GPa) = 45.95662 70.71845 58.33753
# Shear Modulus (GPa) = 14.12055 10.16591 12.14323
#
# Velocity S-wave (km/s) = 2.84166 2.41112 2.63520
# Velocity P-wave (km/s) = 6.08667 6.94208 6.52840
#
# Compressibility (1/GPa) = 0.02175965
#
# Stress axis : x y z
#
# Youngs Moduli (GPa) = 68.20008 30.99317 54.83815
#
# Poissons Ratio (x) = 0.32325 0.38633
# Poissons Ratio (y) = 0.71132 0.23181
# Poissons Ratio (z) = 0.48046 0.13101
#
# Static dielectric constant tensor:
#      x y z
#    x 1.579330 0.000000 -0.025530 
#    y 0.000000 1.581550 0.000000 
#    z -0.025530 0.000000 1.595730 
# 
# From -- ./inp_files/63762.got.cif
#   From: 2010.05.17/outbox.cif.g08.bks.cpg/sg10_32_cif.got.tgz:63762.got - 2010.06.03 11:33:40.
