data_PCOD9147599
_publ_section_title
;
Structure prediction by ZEFSAII (Michael W. Deem and Ramdas Pophale) SiO2 
 PCOD9147599
Probable space group: P 2/M
;
_chemical_formula_sum "Si O2"
_cell_formula_units_Z 32
_cell_length_a 9.328933
_cell_length_b 14.845486
_cell_length_c 23.614360
_cell_angle_alpha 90.000000
_cell_angle_beta 29.664197
_cell_angle_gamma 90.000000
_cell_volume 1618.578904
_symmetry_space_group_name_H-M "P 2/M"
_symmetry_group_IT_number 10
_symmetry_cell_setting 'monoclinic'
loop_
_space_group_symop_operation_xyz
x,y,z
-x,y,-z
-x,-y,-z
x,-y,z
loop_
_atom_site_type_symbol
_atom_site_label
_atom_site_fract_x
_atom_site_fract_y
_atom_site_fract_z
Si Si1 0.690809 0.098383 0.638273
Si Si2 0.814431 0.097800 0.005539
Si Si3 0.252375 0.608099 0.191219
Si Si4 0.878296 0.701831 0.977559
Si Si5 0.173686 0.900302 0.274642
Si Si6 0.699125 0.276011 0.575482
Si Si7 0.851041 0.393463 0.221017
Si Si8 0.172010 0.729188 0.596877
O O1 0.736353 0.107968 0.689879
O O2 0.567527 0.189969 0.654298
O O3 0.000000 0.094351 0.500000
O O4 0.548916 0.000000 0.677368
O O5 0.475655 0.103546 0.137680
O O6 0.865293 0.000000 0.959712
O O7 0.886849 0.194013 0.953986
O O8 0.000000 0.095381 0.000000
O O9 0.291968 0.500000 0.183158
O O10 0.091912 0.626548 0.186409
O O11 0.041677 0.649012 0.311730
O O12 0.555310 0.660717 0.089483
O O13 0.058013 0.644276 0.871085
O O14 0.000000 0.698538 0.000000
O O15 0.961057 0.820044 0.330511
O O16 0.043739 0.000000 0.312018
O O17 0.452076 0.349955 0.657334
O O18 0.803381 0.249707 0.477587
O O19 0.000000 0.307372 0.500000
O O20 0.824603 0.500000 0.227138
O O21 0.500000 0.707924 0.500000
#
# Coordination Sequence:
#
# PCOD9147599 Si02
#       8
#     4   4   4   4   4   4   4   4
#     4   9  17  31  55  84 118 160 201 241 297 366
#     4   9  19  34  58  93 128 161 197 243 308 371
#     4  11  25  46  68  87 120 169 211 257 322 389
#     4  11  24  41  70 100 126 154 209 268 312 361
#     4  10  19  35  59  88 126 167 206 251 306 373
#     4  11  23  38  63  91 128 164 208 261 319 366
#     4  11  26  46  64  88 123 169 213 256 320 386
#     4  12  23  40  62  93 126 164 213 259 312 379
#
# _framework density 19.770430000000001
#
# number of rings (size 3 to 8) (size 9 to 14) (size 15 to 20)
#    0.000    1.500    5.000    0.750    5.250    3.250 
#    0.000    0.000    0.000    3.000    0.000    0.000 
#    0.000    0.000    0.000    0.000    0.000    0.000 
#
# Total GULP energy -178496.764308 kJ/mol
# GULP energy per Si atom -5578.023885 kJ/mol
# Density = 1.972543 g / cm^3
# Si number density = 19.770430 Si / 1000 Ang^3
#
#
#
# Elastic Constant Matrix: (Units=GPa)
#
#
# Indices 1 2 3 4 5 6 
#
# 1 34.9585 34.1839 13.5388 0.0000 -10.4050 0.0000
# 2 34.1839 137.3619 34.6417 0.0000 -13.0573 0.0000
# 3 13.5388 34.6417 78.4930 0.0000 -15.7080 0.0000
# 4 0.0000 0.0000 0.0000 25.4467 0.0000 -8.6771
# 5 -10.4050 -13.0573 -15.7080 0.0000 23.8881 0.0000
# 6 0.0000 0.0000 0.0000 -8.6771 0.0000 29.6304
#
#
#
# Elastic Compliance Matrix: (Units=1/GPa)
#
#
# Indices 1 2 3 4 5 6 
#
# 1 0.041365 -0.008921 -0.000654 0.000000 0.012711 0.000000
# 2 -0.008921 0.010239 -0.003037 0.000000 -0.000286 0.000000
# 3 -0.000654 -0.003037 0.015896 0.000000 0.008507 0.000000
# 4 0.000000 0.000000 0.000000 0.043657 0.000000 0.012785
# 5 0.012711 -0.000286 0.008507 0.000000 0.052836 0.000000
# 6 0.000000 0.000000 0.000000 0.012785 0.000000 0.037493
#
#
# Mechanical properties :
#
#
# Convention : Reuss Voigt Hill
#
# Bulk Modulus (GPa) = 23.65439 46.17136 34.91287
# Shear Modulus (GPa) = 20.76385 27.02296 23.89340
#
# Velocity S-wave (km/s) = 3.24427 3.70109 3.48018
# Velocity P-wave (km/s) = 5.10139 6.45511 5.81776
#
# Compressibility (1/GPa) = 0.04227546
#
# Stress axis : x y z
#
# Youngs Moduli (GPa) = 24.17485 97.66683 62.90970
#
# Poissons Ratio (x) = 0.87128 0.04114
# Poissons Ratio (y) = 0.21566 0.19108
# Poissons Ratio (z) = 0.01581 0.29665
#
# Static dielectric constant tensor:
#      x y z
#    x 1.673630 0.000000 0.007030 
#    y 0.000000 1.734440 0.000000 
#    z 0.007030 0.000000 1.679490 
# 
# From -- ./inp_files/88234.got.cif
#   From: 2010.05.17/outbox.cif.g08.bks.cpg/sg10_45_cif.got.tgz:88234.got - 2010.06.03 11:33:40.
