data_PCOD9147885
_publ_section_title
;
Structure prediction by ZEFSAII (Michael W. Deem and Ramdas Pophale) SiO2 
 PCOD9147885
Probable space group: P 2/M
;
_chemical_formula_sum "Si O2"
_cell_formula_units_Z 32
_cell_length_a 22.999822
_cell_length_b 8.743244
_cell_length_c 15.461864
_cell_angle_alpha 90.000000
_cell_angle_beta 148.247367
_cell_angle_gamma 90.000000
_cell_volume 1636.264498
_symmetry_space_group_name_H-M "P 2/M"
_symmetry_group_IT_number 10
_symmetry_cell_setting 'monoclinic'
loop_
_space_group_symop_operation_xyz
x,y,z
-x,y,-z
-x,-y,-z
x,-y,z
loop_
_atom_site_type_symbol
_atom_site_label
_atom_site_fract_x
_atom_site_fract_y
_atom_site_fract_z
Si Si1 0.370326 0.817070 0.329993
Si Si2 0.221744 0.813603 0.621883
Si Si3 0.697000 0.317997 0.573862
Si Si4 0.658891 0.184367 0.053786
Si Si5 0.748178 0.318223 0.988850
Si Si6 0.408801 0.816028 0.722740
Si Si7 0.984324 0.817754 0.250631
Si Si8 0.053613 0.681929 0.160493
O O1 0.500000 0.775932 0.500000
O O2 0.314507 0.757115 0.347092
O O3 0.361412 0.000000 0.314395
O O4 0.313936 0.747411 0.173957
O O5 0.263314 0.765512 0.768840
O O6 0.311863 0.763420 0.664640
O O7 0.098009 0.766016 0.440688
O O8 0.222732 0.000000 0.621728
O O9 0.687028 0.500000 0.570344
O O10 0.608724 0.254672 0.393991
O O11 0.816821 0.283417 0.684712
O O12 0.692722 0.256814 0.006012
O O13 0.667436 0.000000 0.057071
O O14 0.530792 0.220032 0.911511
O O15 0.743536 0.500000 0.980122
O O16 0.874749 0.262140 0.146419
O O17 0.400658 0.000000 0.704860
O O18 0.999581 0.775609 0.169316
O O19 0.973420 0.000000 0.247205
O O20 0.039973 0.500000 0.160493
O O21 0.000000 0.714362 0.000000
#
# Coordination Sequence:
#
# PCOD9147885 Si02
#       8
#     4   4   4   4   4   4   4   4
#     4  11  24  42  64  90 120 158 207 257 302 354
#     4   9  19  37  63  94 122 155 202 258 312 358
#     4  11  22  35  57  89 125 162 195 239 301 366
#     4  10  21  39  64  90 119 159 208 258 307 361
#     4  12  26  43  61  86 125 165 206 251 304 369
#     4  10  19  36  62  92 125 159 202 254 305 363
#     4  11  22  39  64  90 120 157 204 256 304 358
#     4  10  21  37  56  82 117 156 196 239 295 359
#
# _framework density 19.556742
#
# number of rings (size 3 to 8) (size 9 to 14) (size 15 to 20)
#    0.000    1.500    1.250    4.125    0.000    8.250 
#    0.000    4.375    0.000    1.500    0.000    0.000 
#    0.000    0.000    0.000    0.000    0.000    0.000 
#
# Total GULP energy -178909.776537 kJ/mol
# GULP energy per Si atom -5590.930517 kJ/mol
# Density = 1.951223 g / cm^3
# Si number density = 19.556742 Si / 1000 Ang^3
#
#
#
# Elastic Constant Matrix: (Units=GPa)
#
#
# Indices 1 2 3 4 5 6 
#
# 1 88.5060 30.0497 45.2959 0.0000 -2.2929 0.0000
# 2 30.0497 29.8296 27.6157 0.0000 8.6035 0.0000
# 3 45.2959 27.6157 119.1366 0.0000 1.5922 0.0000
# 4 0.0000 0.0000 0.0000 1417.3169 0.0000-2026.1763
# 5 -2.2929 8.6035 1.5922 0.0000 35.0199 0.0000
# 6 0.0000 0.0000 0.0000-2026.1763 0.0000 2947.7170
#
#
#
# Elastic Compliance Matrix: (Units=1/GPa)
#
#
# Indices 1 2 3 4 5 6 
#
# 1 0.019232 -0.018105 -0.003193 0.000000 0.005852 0.000000
# 2 -0.018105 0.063576 -0.007633 0.000000 -0.016457 0.000000
# 3 -0.003193 -0.007633 0.011362 0.000000 0.001150 0.000000
# 4 0.000000 0.000000 0.000000 0.040681 0.000000 0.027963
# 5 0.005852 -0.016457 0.001150 0.000000 0.032929 0.000000
# 6 0.000000 0.000000 0.000000 0.027963 0.000000 0.019560
#
#
# Mechanical properties :
#
#
# Convention : Reuss Voigt Hill
#
# Bulk Modulus (GPa) = 27.54377 49.26610 38.40493
# Shear Modulus (GPa) = 19.43214 888.97817 454.20516
#
# Velocity S-wave (km/s) = 3.15561 21.34363 15.25628
# Velocity P-wave (km/s) = 5.23371 25.15247 18.16643
#
# Compressibility (1/GPa) = 0.03630585
#
# Stress axis : x y z
#
# Youngs Moduli (GPa) = 51.99750 15.72926 88.01377
#
# Poissons Ratio (x) = 0.28478 0.28106
# Poissons Ratio (y) = 0.94142 0.67183
# Poissons Ratio (z) = 0.16605 0.12006
#
# Static dielectric constant tensor:
#      x y z
#    x 1.657680 0.000000 0.018160 
#    y 0.000000 1.652730 0.000000 
#    z 0.018160 0.000000 1.694180 
# 
# From -- ./inp_files/71642.got.cif
#   From: 2010.05.17/outbox.cif.g08.bks.cpg/sg10_36_cif.got.tgz:71642.got - 2010.06.03 11:33:40.
