data_PCOD9147911
_publ_section_title
;
Structure prediction by ZEFSAII (Michael W. Deem and Ramdas Pophale) SiO2 
 PCOD9147911
Probable space group: P 2/M
;
_chemical_formula_sum "Si O2"
_cell_formula_units_Z 28
_cell_length_a 8.210745
_cell_length_b 33.166221
_cell_length_c 5.351538
_cell_angle_alpha 90.000000
_cell_angle_beta 60.428070
_cell_angle_gamma 90.000000
_cell_volume 1267.491401
_symmetry_space_group_name_H-M "P 2/M"
_symmetry_group_IT_number 10
_symmetry_cell_setting 'monoclinic'
loop_
_space_group_symop_operation_xyz
x,y,z
-x,y,-z
-x,-y,-z
x,-y,z
loop_
_atom_site_type_symbol
_atom_site_label
_atom_site_fract_x
_atom_site_fract_y
_atom_site_fract_z
Si Si1 0.124232 0.954823 0.657088
Si Si2 0.215201 0.452635 0.566759
Si Si3 0.620908 0.662941 0.162698
Si Si4 0.614593 0.119983 0.661022
Si Si5 0.776398 0.794233 0.662296
Si Si6 0.211538 0.580565 0.069486
Si Si7 0.226824 0.248711 0.836195
O O1 0.268735 0.918929 0.511044
O O2 0.000000 0.954700 0.500000
O O3 0.207725 0.000000 0.617485
O O4 0.000000 0.948132 0.000000
O O5 0.209101 0.500000 0.520397
O O6 0.300742 0.429213 0.268931
O O7 0.002166 0.435326 0.748719
O O8 0.299509 0.443814 0.773175
O O9 0.500000 0.652117 0.500000
O O10 0.711150 0.706076 0.152554
O O11 0.500000 0.665721 0.000000
O O12 0.770892 0.627540 0.004010
O O13 0.500000 0.131529 0.500000
O O14 0.733304 0.159272 0.644114
O O15 0.500000 0.109914 0.000000
O O16 0.706345 0.767094 0.484013
O O17 0.000000 0.789340 0.500000
O O18 0.707259 0.779633 0.985150
O O19 0.000000 0.247395 0.000000
#
# Coordination Sequence:
#
# PCOD9147911 Si02
#       7
#     4   4   4   4   4   4   4
#     4  10  22  42  66  91 124 174 223 269 324 384
#     4  10  19  36  65  93 114 147 202 255 290 333
#     4  12  26  42  60  88 129 166 193 241 311 371
#     4  12  25  38  62  98 131 169 210 264 326 389
#     4  10  22  42  63  90 122 162 207 263 311 368
#     4  10  20  35  58  88 117 151 192 240 290 347
#     4  10  23  42  66  90 117 158 216 261 298 355
#
# _framework density 22.090881
#
# number of rings (size 3 to 8) (size 9 to 14) (size 15 to 20)
#    0.000    1.429    0.000    6.000    2.000    5.714 
#    5.143    0.000    0.000   14.571    0.000    0.000 
#    0.000    0.000    0.000    0.000    0.000    0.000 
#
# Total GULP energy -156613.841849 kJ/mol
# GULP energy per Si atom -5593.351495 kJ/mol
# Density = 2.204060 g / cm^3
# Si number density = 22.090881 Si / 1000 Ang^3
#
#
#
# Elastic Constant Matrix: (Units=GPa)
#
#
# Indices 1 2 3 4 5 6 
#
# 1 61.4009 25.5311 48.5388 0.0000 25.8594 0.0000
# 2 25.5311 164.3113 54.3541 0.0000 13.7962 0.0000
# 3 48.5388 54.3541 167.5548 0.0000 42.9689 0.0000
# 4 0.0000 0.0000 0.0000 32.5068 0.0000 17.6603
# 5 25.8594 13.7962 42.9689 0.0000 35.7206 0.0000
# 6 0.0000 0.0000 0.0000 17.6603 0.0000 11.7716
#
#
#
# Elastic Compliance Matrix: (Units=1/GPa)
#
#
# Indices 1 2 3 4 5 6 
#
# 1 0.025384 -0.001707 -0.003263 0.000000 -0.013792 0.000000
# 2 -0.001707 0.006932 -0.002002 0.000000 0.000967 0.000000
# 3 -0.003263 -0.002002 0.009774 0.000000 -0.008622 0.000000
# 4 0.000000 0.000000 0.000000 0.166332 0.000000 -0.249539
# 5 -0.013792 0.000967 -0.008622 0.000000 0.047978 0.000000
# 6 0.000000 0.000000 0.000000 -0.249539 0.000000 0.459321
#
#
# Mechanical properties :
#
#
# Convention : Reuss Voigt Hill
#
# Bulk Modulus (GPa) = 35.52825 72.23500 53.88162
# Shear Modulus (GPa) = 6.76546 33.65600 20.21073
#
# Velocity S-wave (km/s) = 1.75192 3.90747 3.02800
# Velocity P-wave (km/s) = 4.49555 7.28888 6.05548
#
# Compressibility (1/GPa) = 0.02814661
#
# Stress axis : x y z
#
# Youngs Moduli (GPa) = 39.39460 144.24987 102.31214
#
# Poissons Ratio (x) = 0.24622 0.33382
# Poissons Ratio (y) = 0.06724 0.20486
# Poissons Ratio (z) = 0.12854 0.28884
#
# Static dielectric constant tensor:
#      x y z
#    x 1.793420 0.000000 0.005020 
#    y 0.000000 1.750660 0.000000 
#    z 0.005020 0.000000 1.827890 
# 
# From -- ./inp_files/5496.got.cif
#   From: 2010.05.17/outbox.cif.g08.bks.cpg/sg10_3_cif.got.tgz:5496.got - 2010.06.03 11:33:40.
