data_PCOD9147752
_publ_section_title
;
Structure prediction by ZEFSAII (Michael W. Deem and Ramdas Pophale) SiO2 
 PCOD9147752
Probable space group: P 2/M
;
_chemical_formula_sum "Si O2"
_cell_formula_units_Z 32
_cell_length_a 8.555815
_cell_length_b 21.016659
_cell_length_c 14.380263
_cell_angle_alpha 90.000000
_cell_angle_beta 42.822391
_cell_angle_gamma 90.000000
_cell_volume 1757.628341
_symmetry_space_group_name_H-M "P 2/M"
_symmetry_group_IT_number 10
_symmetry_cell_setting 'monoclinic'
loop_
_space_group_symop_operation_xyz
x,y,z
-x,y,-z
-x,-y,-z
x,-y,z
loop_
_atom_site_type_symbol
_atom_site_label
_atom_site_fract_x
_atom_site_fract_y
_atom_site_fract_z
Si Si1 0.763866 0.322946 0.638976
Si Si2 0.131592 0.799628 0.735276
Si Si3 0.656672 0.797851 0.562731
Si Si4 0.422679 0.930966 0.425212
Si Si5 0.759088 0.697970 0.859242
Si Si6 0.627632 0.427808 0.207859
Si Si7 0.903688 0.428765 0.892754
Si Si8 0.933854 0.928378 0.136020
O O1 0.734867 0.257829 0.594641
O O2 0.777227 0.303441 0.740449
O O3 0.558583 0.372339 0.709893
O O4 0.000000 0.353355 0.500000
O O5 0.376797 0.792963 0.680911
O O6 0.220122 0.792129 0.590831
O O7 0.022385 0.867617 0.815354
O O8 0.941625 0.744947 0.828534
O O9 0.708948 0.871768 0.560872
O O10 0.500000 0.917457 0.500000
O O11 0.659451 0.934742 0.265744
O O12 0.307717 0.000000 0.476321
O O13 0.813126 0.626541 0.867874
O O14 0.500000 0.715481 0.000000
O O15 0.534984 0.500000 0.259630
O O16 0.830146 0.418711 0.195040
O O17 0.757584 0.426066 0.051836
O O18 0.878246 0.500000 0.864873
O O19 0.973677 0.000000 0.880031
O O20 0.000000 0.914773 0.000000
#
# Coordination Sequence:
#
# PCOD9147752 Si02
#       8
#     4   4   4   4   4   4   4   4
#     4  12  24  38  56  81 123 159 185 232 288 344
#     4  10  20  36  58  82 113 152 195 236 287 341
#     4  10  19  36  58  82 113 153 193 237 287 338
#     4   9  15  28  54  84 108 139 189 242 287 331
#     4  12  24  38  56  86 118 153 194 233 283 344
#     4   9  19  39  64  89 114 146 188 238 288 337
#     4   9  19  39  65  88 113 145 190 241 285 336
#     4   9  17  30  52  86 118 140 180 245 299 333
#
# _framework density 18.206351999999999
#
# number of rings (size 3 to 8) (size 9 to 14) (size 15 to 20)
#    0.000    2.000    5.000    1.500    0.000    3.000 
#    2.250    0.000    0.000    3.000    0.000    0.000 
#    0.000    0.000    0.000    0.000    0.000    0.000 
#
# Total GULP energy -178143.985034 kJ/mol
# GULP energy per Si atom -5566.999532 kJ/mol
# Density = 1.816491 g / cm^3
# Si number density = 18.206352 Si / 1000 Ang^3
#
#
#
# Elastic Constant Matrix: (Units=GPa)
#
#
# Indices 1 2 3 4 5 6 
#
# 1 38.2473 44.5167 27.6044 0.0000 -0.1948 0.0000
# 2 44.5167 136.3721 29.8904 0.0000 -12.0480 0.0000
# 3 27.6044 29.8904 86.0235 0.0000 -2.2984 0.0000
# 4 0.0000 0.0000 0.0000 32.7709 0.0000 22.0660
# 5 -0.1948 -12.0480 -2.2984 0.0000 27.1512 0.0000
# 6 0.0000 0.0000 0.0000 22.0660 0.0000 2.9990
#
#
#
# Elastic Compliance Matrix: (Units=1/GPa)
#
#
# Indices 1 2 3 4 5 6 
#
# 1 0.052101 -0.015096 -0.011669 0.000000 -0.007313 0.000000
# 2 -0.015096 0.012617 0.000608 0.000000 0.005542 0.000000
# 3 -0.011669 0.000608 0.015197 0.000000 0.001473 0.000000
# 4 0.000000 0.000000 0.000000 -0.007717 0.000000 0.056779
# 5 -0.007313 0.005542 0.001473 0.000000 0.039362 0.000000
# 6 0.000000 0.000000 0.000000 0.056779 0.000000 -0.084325
#
#
# Mechanical properties :
#
#
# Convention : Reuss Voigt Hill
#
# Bulk Modulus (GPa) = 36.22945 51.62954 43.92949
# Shear Modulus (GPa) = 56.33863 23.15965 39.74914
#
# Velocity S-wave (km/s) = 5.56881 3.57047 4.67760
# Velocity P-wave (km/s) = 7.82888 6.73923 7.30441
#
# Compressibility (1/GPa) = 0.02760185
#
# Stress axis : x y z
#
# Youngs Moduli (GPa) = 19.19362 79.25812 65.80168
#
# Poissons Ratio (x) = 1.19647 0.76783
# Poissons Ratio (y) = 0.28975 -0.04002
# Poissons Ratio (z) = 0.22397 -0.04821
#
# Static dielectric constant tensor:
#      x y z
#    x 1.626460 0.000000 0.002900 
#    y 0.000000 1.676680 0.000000 
#    z 0.002900 0.000000 1.623210 
# 
# From -- ./inp_files/62483.got.cif
#   From: 2010.05.17/outbox.cif.g08.bks.cpg/sg10_32_cif.got.tgz:62483.got - 2010.06.03 11:33:40.
