data_PCOD9147337
_publ_section_title
;
Structure prediction by ZEFSAII (Michael W. Deem and Ramdas Pophale) SiO2 
 PCOD9147337
Probable space group: P 2/M
;
_chemical_formula_sum "Si O2"
_cell_formula_units_Z 21
_cell_length_a 8.052287
_cell_length_b 9.909597
_cell_length_c 19.086948
_cell_angle_alpha 90.000000
_cell_angle_beta 37.945280
_cell_angle_gamma 90.000000
_cell_volume 936.531314
_symmetry_space_group_name_H-M "P 2/M"
_symmetry_group_IT_number 10
_symmetry_cell_setting 'monoclinic'
loop_
_space_group_symop_operation_xyz
x,y,z
-x,y,-z
-x,-y,-z
x,-y,z
loop_
_atom_site_type_symbol
_atom_site_label
_atom_site_fract_x
_atom_site_fract_y
_atom_site_fract_z
Si Si1 0.044651 0.844097 0.882493
Si Si2 0.200289 0.757619 0.536679
Si Si3 0.352072 0.157430 0.337658
Si Si4 0.920083 0.148660 0.759032
Si Si5 0.556010 0.654225 0.065610
Si Si6 0.500000 0.500000 0.500000
O O1 0.356953 0.810187 0.791212
O O2 0.011436 0.838992 0.808945
O O3 0.826695 0.741381 0.985505
O O4 0.992229 0.000000 0.920351
O O5 0.356077 0.826028 0.420378
O O6 0.336152 0.617832 0.510899
O O7 0.892192 0.753690 0.609992
O O8 0.158618 0.836091 0.623731
O O9 0.289548 0.000000 0.343696
O O10 0.793984 0.000000 0.793663
O O11 0.699432 0.264441 0.820164
O O12 0.576304 0.500000 0.083601
O O13 0.500000 0.649925 0.000000
#
# Coordination Sequence:
#
# PCOD9147337 Si02
#       6
#     4   4   4   4   4   1
#     4   9  18  34  57  90 122 159 209 257 308 365
#     4  11  23  41  60  90 123 163 204 255 310 380
#     4  10  21  41  67  92 124 164 210 263 312 368
#     4  10  19  34  62  91 121 162 212 268 306 354
#     4   9  18  33  54  86 123 165 205 253 310 370
#     4  12  28  42  58  88 128 170 202 252 318 378
#
# _framework density 22.423169999999999
#
# number of rings (size 3 to 8) (size 9 to 14) (size 15 to 20)
#    0.000    2.095    0.000    4.000    1.333    3.810 
#   10.286    7.143    0.000    4.571    0.000    0.000 
#    0.000    0.000    0.000    0.000    0.000    0.000 
#
# Total GULP energy -117081.121009 kJ/mol
# GULP energy per Si atom -5575.291477 kJ/mol
# Density = 2.237213 g / cm^3
# Si number density = 22.423170 Si / 1000 Ang^3
#
#
#
# Elastic Constant Matrix: (Units=GPa)
#
#
# Indices 1 2 3 4 5 6 
#
# 1 107.1967 43.6490 30.2915 0.0000 -5.9864 0.0000
# 2 43.6490 118.4032 34.4384 0.0000 -26.8315 0.0000
# 3 30.2915 34.4384 85.4266 0.0000 1.3262 0.0000
# 4 0.0000 0.0000 0.0000 -16.6705 0.0000 -48.2059
# 5 -5.9864 -26.8315 1.3262 0.0000 48.3552 0.0000
# 6 0.0000 0.0000 0.0000 -48.2059 0.0000 -816.8230
#
#
#
# Elastic Compliance Matrix: (Units=1/GPa)
#
#
# Indices 1 2 3 4 5 6 
#
# 1 0.011504 -0.003590 -0.002624 0.000000 -0.000496 0.000000
# 2 -0.003590 0.012353 -0.003808 0.000000 0.006515 0.000000
# 3 -0.002624 -0.003808 0.014216 0.000000 -0.002828 0.000000
# 4 0.000000 0.000000 0.000000 -0.072330 0.000000 0.004269
# 5 -0.000496 0.006515 -0.002828 0.000000 0.024311 0.000000
# 6 0.000000 0.000000 0.000000 0.004269 0.000000 -0.001476
#
#
# Mechanical properties :
#
#
# Convention : Reuss Voigt Hill
#
# Bulk Modulus (GPa) = 55.46932 58.64269 57.05601
# Shear Modulus (GPa) = 341.70220 -143.51782 99.09219
#
# Velocity S-wave (km/s) = 12.35795 -8.00894 6.65491
# Velocity P-wave (km/s) = 15.11345 7.70161 9.19515
#
# Compressibility (1/GPa) = 0.01802798
#
# Stress axis : x y z
#
# Youngs Moduli (GPa) = 86.92332 80.95157 70.34532
#
# Poissons Ratio (x) = 0.29063 0.18461
# Poissons Ratio (y) = 0.31207 0.26788
# Poissons Ratio (z) = 0.22812 0.30827
#
# Static dielectric constant tensor:
#      x y z
#    x 1.895470 0.000000 0.021090 
#    y 0.000000 1.754600 0.000000 
#    z 0.021090 0.000000 1.826190 
# 
# From -- ./inp_files/81904.got.cif
#   From: 2010.05.17/outbox.cif.g08.bks.cpg/sg10_41_cif.got.tgz:81904.got - 2010.06.03 11:33:40.
