data_PCOD9147153
_publ_section_title
;
Structure prediction by ZEFSAII (Michael W. Deem and Ramdas Pophale) SiO2 
 PCOD9147153
Probable space group: P 2/M
;
_chemical_formula_sum "Si O2"
_cell_formula_units_Z 30
_cell_length_a 14.539695
_cell_length_b 13.485318
_cell_length_c 17.974956
_cell_angle_alpha 90.000000
_cell_angle_beta 24.586609
_cell_angle_gamma 90.000000
_cell_volume 1466.388104
_symmetry_space_group_name_H-M "P 2/M"
_symmetry_group_IT_number 10
_symmetry_cell_setting 'monoclinic'
loop_
_space_group_symop_operation_xyz
x,y,z
-x,y,-z
-x,-y,-z
x,-y,z
loop_
_atom_site_type_symbol
_atom_site_label
_atom_site_fract_x
_atom_site_fract_y
_atom_site_fract_z
Si Si1 0.161184 0.317764 0.180896
Si Si2 0.651170 0.390823 0.640710
Si Si3 0.000000 0.242497 0.000000
Si Si4 0.318192 0.319897 0.220143
Si Si5 0.742119 0.892849 0.675192
Si Si6 0.881751 0.387907 0.952239
Si Si7 0.203500 0.188581 0.529100
Si Si8 0.426472 0.116809 0.636236
O O1 0.155015 0.349614 0.273113
O O2 0.071363 0.361902 0.169009
O O3 0.055673 0.206144 0.261902
O O4 0.422793 0.338959 0.981145
O O5 0.717677 0.500000 0.566429
O O6 0.737658 0.368532 0.660148
O O7 0.725053 0.303677 0.531996
O O8 0.384731 0.386558 0.842395
O O9 0.219629 0.176500 0.823269
O O10 0.971030 0.310729 0.947629
O O11 0.322508 0.200715 0.227827
O O12 0.733885 0.861112 0.595160
O O13 0.000000 0.902993 0.500000
O O14 0.633079 0.000000 0.768441
O O15 0.959641 0.500000 0.910275
O O16 0.352398 0.134143 0.478820
O O17 0.500000 0.150436 0.500000
O O18 0.370603 0.000000 0.674853
#
# Coordination Sequence:
#
# PCOD9147153 Si02
#       8
#     4   4   2   4   4   4   4   4
#     4  10  20  35  57  83 121 162 194 243 301 347
#     4   9  19  35  58  85 116 157 200 240 289 356
#     4  12  22  44  70  92 120 166 196 254 320 366
#     4   9  19  36  55  82 121 159 200 244 292 349
#     4  10  19  34  57  83 114 157 200 241 295 357
#     4  10  21  38  61  90 120 155 199 243 303 368
#     4  11  20  38  59  84 120 156 195 252 302 358
#     4  11  25  44  66  94 122 156 207 258 309 369
#
# _framework density 20.458431000000001
#
# number of rings (size 3 to 8) (size 9 to 14) (size 15 to 20)
#    0.000    1.867    2.667    1.600    0.000    1.067 
#    0.000    6.000    0.000    2.800    0.000    0.000 
#    0.000    0.000    0.000    0.000    0.000    0.000 
#
# Total GULP energy -167008.660527 kJ/mol
# GULP energy per Si atom -5566.955351 kJ/mol
# Density = 2.041187 g / cm^3
# Si number density = 20.458431 Si / 1000 Ang^3
#
#
#
# Elastic Constant Matrix: (Units=GPa)
#
#
# Indices 1 2 3 4 5 6 
#
# 1 104.4779 12.8906 17.4637 0.0000 8.3190 0.0000
# 2 12.8906 76.7748 -2.1785 0.0000 11.2918 0.0000
# 3 17.4637 -2.1785 65.6067 0.0000 6.6842 0.0000
# 4 0.0000 0.0000 0.0000 16.8426 0.0000 -6.4988
# 5 8.3190 11.2918 6.6842 0.0000 23.6037 0.0000
# 6 0.0000 0.0000 0.0000 -6.4988 0.0000 2.6924
#
#
#
# Elastic Compliance Matrix: (Units=1/GPa)
#
#
# Indices 1 2 3 4 5 6 
#
# 1 0.010363 -0.001488 -0.002583 0.000000 -0.002209 0.000000
# 2 -0.001488 0.014314 0.001561 0.000000 -0.006765 0.000000
# 3 -0.002583 0.001561 0.016439 0.000000 -0.004492 0.000000
# 4 0.000000 0.000000 0.000000 0.865333 0.000000 2.088746
# 5 -0.002209 -0.006765 -0.004492 0.000000 0.047653 0.000000
# 6 0.000000 0.000000 0.000000 2.088746 0.000000 5.413250
#
#
# Mechanical properties :
#
#
# Convention : Reuss Voigt Hill
#
# Bulk Modulus (GPa) = 27.70424 33.69011 30.69718
# Shear Modulus (GPa) = 0.78316 23.20664 11.99490
#
# Velocity S-wave (km/s) = 0.61938 3.37164 2.42400
# Velocity P-wave (km/s) = 3.75268 5.62678 4.78243
#
# Compressibility (1/GPa) = 0.03609556
#
# Stress axis : x y z
#
# Youngs Moduli (GPa) = 96.50063 69.86019 60.82985
#
# Poissons Ratio (x) = 0.10397 0.15711
# Poissons Ratio (y) = 0.14362 -0.09494
# Poissons Ratio (z) = 0.24924 -0.10903
#
# Static dielectric constant tensor:
#      x y z
#    x 1.740350 0.000000 0.007080 
#    y 0.000000 1.822160 0.000000 
#    z 0.007080 0.000000 1.865570 
# 
# From -- ./inp_files/78098.got.cif
#   From: 2010.05.17/outbox.cif.g08.bks.cpg/sg10_40_cif.got.tgz:78098.got - 2010.06.03 11:33:40.
