data_PCOD9147993
_publ_section_title
;
Structure prediction by ZEFSAII (Michael W. Deem and Ramdas Pophale) SiO2 
 PCOD9147993
Probable space group: P 2/M
;
_chemical_formula_sum "Si O2"
_cell_formula_units_Z 28
_cell_length_a 25.807589
_cell_length_b 8.733955
_cell_length_c 10.234231
_cell_angle_alpha 90.000000
_cell_angle_beta 39.872920
_cell_angle_gamma 90.000000
_cell_volume 1478.871875
_symmetry_space_group_name_H-M "P 2/M"
_symmetry_group_IT_number 10
_symmetry_cell_setting 'monoclinic'
loop_
_space_group_symop_operation_xyz
x,y,z
-x,y,-z
-x,-y,-z
x,-y,z
loop_
_atom_site_type_symbol
_atom_site_label
_atom_site_fract_x
_atom_site_fract_y
_atom_site_fract_z
Si Si1 0.255396 0.184005 0.007173
Si Si2 0.568981 0.317056 0.264036
Si Si3 0.736421 0.816746 0.541187
Si Si4 0.974827 0.184499 0.898814
Si Si5 0.198246 0.681426 0.843358
Si Si6 0.142883 0.813887 0.463922
Si Si7 0.559952 0.183089 0.000092
O O1 0.344393 0.243925 0.870237
O O2 0.227907 0.242018 0.919448
O O3 0.256988 0.000000 0.005964
O O4 0.191061 0.236362 0.242235
O O5 0.500000 0.268272 0.500000
O O6 0.576657 0.500000 0.256019
O O7 0.544879 0.266733 0.165106
O O8 0.746123 0.734066 0.385088
O O9 0.806638 0.767723 0.505447
O O10 0.744159 0.000000 0.505104
O O11 0.651163 0.788409 0.775523
O O12 0.050060 0.232189 0.661849
O O13 0.964345 0.000000 0.910498
O O14 0.891814 0.262454 0.018612
O O15 0.000000 0.217837 0.000000
O O16 0.200187 0.500000 0.853438
O O17 0.143379 0.000000 0.462300
O O18 0.551225 0.000000 0.037583
O O19 0.500000 0.228938 0.000000
#
# Coordination Sequence:
#
# PCOD9147993 Si02
#       7
#     4   4   4   4   4   4   4
#     4  11  23  43  67  90 119 162 212 257 301 358
#     4  11  25  43  62  91 131 168 200 245 310 373
#     4  10  19  39  64  90 121 159 208 255 302 359
#     4  10  19  37  64  90 119 157 205 258 307 358
#     4  12  26  40  57  91 131 164 202 249 310 373
#     4   9  18  36  65  92 115 151 205 260 306 355
#     4  10  22  40  65  97 124 156 210 260 296 353
#
# _framework density 18.933349
#
# number of rings (size 3 to 8) (size 9 to 14) (size 15 to 20)
#    0.000    1.571    2.857    2.143    2.000    2.857 
#    0.000    4.286    0.000    0.000    0.000    0.000 
#    0.000    0.000    0.000    0.000    0.000    0.000 
#
# Total GULP energy -156477.067443 kJ/mol
# GULP energy per Si atom -5588.466694 kJ/mol
# Density = 1.889026 g / cm^3
# Si number density = 18.933349 Si / 1000 Ang^3
#
#
#
# Elastic Constant Matrix: (Units=GPa)
#
#
# Indices 1 2 3 4 5 6 
#
# 1 90.4815 32.0529 44.5105 0.0000 17.4944 0.0000
# 2 32.0529 45.9053 50.5930 0.0000 2.4587 0.0000
# 3 44.5105 50.5930 136.0178 0.0000 19.8855 0.0000
# 4 0.0000 0.0000 0.0000 4.2139 0.0000 1.0709
# 5 17.4944 2.4587 19.8855 0.0000 31.4924 0.0000
# 6 0.0000 0.0000 0.0000 1.0709 0.0000 -27.0028
#
#
#
# Elastic Compliance Matrix: (Units=1/GPa)
#
#
# Indices 1 2 3 4 5 6 
#
# 1 0.016623 -0.011022 -0.000127 0.000000 -0.008293 0.000000
# 2 -0.011022 0.045427 -0.015057 0.000000 0.012084 0.000000
# 3 -0.000127 -0.015057 0.014115 0.000000 -0.007666 0.000000
# 4 0.000000 0.000000 0.000000 0.234942 0.000000 0.009317
# 5 -0.008293 0.012084 -0.007666 0.000000 0.040258 0.000000
# 6 0.000000 0.000000 0.000000 0.009317 0.000000 -0.036664
#
#
# Mechanical properties :
#
#
# Convention : Reuss Voigt Hill
#
# Bulk Modulus (GPa) = 42.10105 58.52416 50.31260
# Shear Modulus (GPa) = 13.33223 11.42391 12.37807
#
# Velocity S-wave (km/s) = 2.65649 2.45903 2.55967
# Velocity P-wave (km/s) = 5.62974 6.24822 5.94702
#
# Compressibility (1/GPa) = 0.02375238
#
# Stress axis : x y z
#
# Youngs Moduli (GPa) = 60.15889 22.01331 70.84675
#
# Poissons Ratio (x) = 0.24263 0.00903
# Poissons Ratio (y) = 0.66307 1.06672
# Poissons Ratio (z) = 0.00767 0.33145
#
# Static dielectric constant tensor:
#      x y z
#    x 1.625650 0.000000 -0.007030 
#    y 0.000000 1.641080 0.000000 
#    z -0.007030 0.000000 1.654710 
# 
# From -- ./inp_files/37006.got.cif
#   From: 2010.05.17/outbox.cif.g08.bks.cpg/sg10_19_cif.got.tgz:37006.got - 2010.06.03 11:33:40.
