data_PCOD9147641
_publ_section_title
;
Structure prediction by ZEFSAII (Michael W. Deem and Ramdas Pophale) SiO2 
 PCOD9147641
Probable space group: P 2/M
;
_chemical_formula_sum "Si O2"
_cell_formula_units_Z 32
_cell_length_a 32.466212
_cell_length_b 7.672067
_cell_length_c 12.924965
_cell_angle_alpha 90.000000
_cell_angle_beta 153.563475
_cell_angle_gamma 90.000000
_cell_volume 1433.291343
_symmetry_space_group_name_H-M "P 2/M"
_symmetry_group_IT_number 10
_symmetry_cell_setting 'monoclinic'
loop_
_space_group_symop_operation_xyz
x,y,z
-x,y,-z
-x,-y,-z
x,-y,z
loop_
_atom_site_type_symbol
_atom_site_label
_atom_site_fract_x
_atom_site_fract_y
_atom_site_fract_z
Si Si1 0.413857 0.798955 0.586182
Si Si2 0.801290 0.299564 0.128816
Si Si3 0.881109 0.285766 0.519438
Si Si4 0.569812 0.300503 0.073148
Si Si5 0.228014 0.714011 0.527153
Si Si6 0.210959 0.204569 0.137427
Si Si7 0.402355 0.201105 0.313900
Si Si8 0.082196 0.298637 0.029729
O O1 0.505281 0.702090 0.827260
O O2 0.406642 0.801309 0.447119
O O3 0.421321 0.000000 0.636998
O O4 0.314112 0.726102 0.397105
O O5 0.827428 0.500000 0.172982
O O6 0.861297 0.224556 0.358023
O O7 0.805630 0.220610 0.023360
O O8 0.695056 0.288878 0.929762
O O9 0.882147 0.500000 0.517397
O O10 0.803421 0.236067 0.428310
O O11 0.980134 0.224042 0.784726
O O12 0.586320 0.500000 0.144456
O O13 0.500000 0.219066 0.000000
O O14 0.670133 0.223341 0.276749
O O15 0.230347 0.500000 0.530674
O O16 0.150731 0.774228 0.271116
O O17 0.211316 0.000000 0.162383
O O18 0.134998 0.290648 0.038927
O O19 0.500000 0.279919 0.500000
O O20 0.398405 0.000000 0.266788
O O21 0.067878 0.500000 0.027615
#
# Coordination Sequence:
#
# PCOD9147641 Si02
#       8
#     4   4   4   4   4   4   4   4
#     4   9  19  34  51  73 101 139 178 213 258 315
#     4  10  20  34  54  82 113 142 184 231 273 323
#     4   9  19  34  54  83 114 143 179 230 280 326
#     4  10  20  32  50  79 111 140 174 221 268 314
#     4   9  18  33  54  81 114 146 179 223 278 330
#     4  10  21  38  57  78 111 147 182 228 281 332
#     4   9  19  35  53  74 107 146 181 217 263 322
#     4  10  19  35  61  83 103 140 189 231 274 329
#
# _framework density 22.326236000000002
#
# number of rings (size 3 to 8) (size 9 to 14) (size 15 to 20)
#    0.000    2.500    0.000    2.625    1.750    6.000 
#    0.000    4.375    0.000    3.750    0.000    0.000 
#    0.000    0.000    0.000    0.000    0.000    0.000 
#
# Total GULP energy -178530.672723 kJ/mol
# GULP energy per Si atom -5579.083523 kJ/mol
# Density = 2.227542 g / cm^3
# Si number density = 22.326236 Si / 1000 Ang^3
#
#
#
# Elastic Constant Matrix: (Units=GPa)
#
#
# Indices 1 2 3 4 5 6 
#
# 1 59.1740 -7.1375 16.7122 0.0000 4.3683 0.0000
# 2 -7.1375 40.5137 -2.7544 0.0000 -3.3008 0.0000
# 3 16.7122 -2.7544 106.0932 0.0000 -8.6539 0.0000
# 4 0.0000 0.0000 0.0000 80.0773 0.0000 -36.4322
# 5 4.3683 -3.3008 -8.6539 0.0000 32.9660 0.0000
# 6 0.0000 0.0000 0.0000 -36.4322 0.0000 19.0829
#
#
#
# Elastic Compliance Matrix: (Units=1/GPa)
#
#
# Indices 1 2 3 4 5 6 
#
# 1 0.018315 0.002779 -0.003053 0.000000 -0.002950 0.000000
# 2 0.002779 0.025386 0.000407 0.000000 0.002281 0.000000
# 3 -0.003053 0.000407 0.010171 0.000000 0.003115 0.000000
# 4 0.000000 0.000000 0.000000 0.095031 0.000000 0.181428
# 5 -0.002950 0.002281 0.003115 0.000000 0.031771 0.000000
# 6 0.000000 0.000000 0.000000 0.181428 0.000000 0.398776
#
#
# Mechanical properties :
#
#
# Convention : Reuss Voigt Hill
#
# Bulk Modulus (GPa) = 18.47160 24.38015 21.42587
# Shear Modulus (GPa) = 8.37198 39.68929 24.03063
#
# Velocity S-wave (km/s) = 1.93855 4.22085 3.28432
# Velocity P-wave (km/s) = 3.64720 5.89048 4.89897
#
# Compressibility (1/GPa) = 0.05413717
#
# Stress axis : x y z
#
# Youngs Moduli (GPa) = 54.60115 39.39171 98.31510
#
# Poissons Ratio (x) = -0.10946 0.30020
# Poissons Ratio (y) = -0.15172 -0.04005
# Poissons Ratio (z) = 0.16672 -0.01605
#
# Static dielectric constant tensor:
#      x y z
#    x 1.847520 0.000000 -0.015190 
#    y 0.000000 1.867640 0.000000 
#    z -0.015190 0.000000 1.855910 
# 
# From -- ./inp_files/58371.got.cif
#   From: 2010.05.17/outbox.cif.g08.bks.cpg/sg10_30_cif.got.tgz:58371.got - 2010.06.03 11:33:40.
