data_PCOD9147621
_publ_section_title
;
Structure prediction by ZEFSAII (Michael W. Deem and Ramdas Pophale) SiO2 
 PCOD9147621
Probable space group: P 2/M
;
_chemical_formula_sum "Si O2"
_cell_formula_units_Z 32
_cell_length_a 29.568330
_cell_length_b 8.193061
_cell_length_c 11.811507
_cell_angle_alpha 90.000000
_cell_angle_beta 31.578374
_cell_angle_gamma 90.000000
_cell_volume 1498.412329
_symmetry_space_group_name_H-M "P 2/M"
_symmetry_group_IT_number 10
_symmetry_cell_setting 'monoclinic'
loop_
_space_group_symop_operation_xyz
x,y,z
-x,y,-z
-x,-y,-z
x,-y,z
loop_
_atom_site_type_symbol
_atom_site_label
_atom_site_fract_x
_atom_site_fract_y
_atom_site_fract_z
Si Si1 0.148597 0.302212 0.511235
Si Si2 0.581003 0.300235 0.252074
Si Si3 0.452030 0.689681 0.933206
Si Si4 0.616333 0.814444 0.683011
Si Si5 0.227760 0.300962 0.102565
Si Si6 0.046054 0.186777 0.071773
Si Si7 0.917938 0.694658 0.757724
Si Si8 0.786294 0.311455 0.395016
O O1 0.146134 0.500000 0.517185
O O2 0.183578 0.249019 0.314815
O O3 0.210271 0.250971 0.482769
O O4 0.052216 0.239753 0.737463
O O5 0.500000 0.246295 0.500000
O O6 0.579872 0.500000 0.253091
O O7 0.572482 0.249201 0.138999
O O8 0.672829 0.249053 0.107953
O O9 0.426492 0.500000 0.995259
O O10 0.554884 0.705039 0.735896
O O11 0.410146 0.779349 0.129898
O O12 0.717887 0.780735 0.463154
O O13 0.596683 0.000000 0.696456
O O14 0.226370 0.500000 0.105658
O O15 0.167647 0.251154 0.126514
O O16 0.065209 0.210370 0.163517
O O17 0.057826 0.000000 0.011754
O O18 0.116784 0.293437 0.856464
O O19 0.911395 0.500000 0.797919
O O20 0.000000 0.713205 0.500000
O O21 0.760050 0.500000 0.450776
#
# Coordination Sequence:
#
# PCOD9147621 Si02
#       8
#     4   4   4   4   4   4   4   4
#     4  10  20  38  61  83 109 148 199 245 289 347
#     4   9  18  32  53  86 120 147 187 247 300 337
#     4  10  19  35  60  86 115 153 201 242 284 349
#     4  11  22  37  58  85 119 153 190 241 300 352
#     4   9  17  32  57  84 111 146 193 248 299 341
#     4  12  25  38  55  83 122 157 189 237 297 354
#     4  10  19  36  61  83 109 150 202 247 285 341
#     4  11  23  39  61  86 115 151 196 242 289 352
#
# _framework density 21.355938999999999
#
# number of rings (size 3 to 8) (size 9 to 14) (size 15 to 20)
#    0.000    1.750    1.250    4.875    0.000    5.750 
#    0.000    2.500    0.000    3.000    0.000    0.000 
#    0.000    0.000    0.000    0.000    0.000    0.000 
#
# Total GULP energy -178865.204912 kJ/mol
# GULP energy per Si atom -5589.537654 kJ/mol
# Density = 2.130733 g / cm^3
# Si number density = 21.355939 Si / 1000 Ang^3
#
#
#
# Elastic Constant Matrix: (Units=GPa)
#
#
# Indices 1 2 3 4 5 6 
#
# 1 98.0562 1.6119 12.8719 0.0000 -24.0227 0.0000
# 2 1.6119 23.7899 -0.0793 0.0000 0.8632 0.0000
# 3 12.8719 -0.0793 59.5136 0.0000 -27.4276 0.0000
# 4 0.0000 0.0000 0.0000 12.4341 0.0000 -5.5103
# 5 -24.0227 0.8632 -27.4276 0.0000 36.1605 0.0000
# 6 0.0000 0.0000 0.0000 -5.5103 0.0000 -14.5462
#
#
#
# Elastic Compliance Matrix: (Units=1/GPa)
#
#
# Indices 1 2 3 4 5 6 
#
# 1 0.012324 -0.001175 0.001721 0.000000 0.009520 0.000000
# 2 -0.001175 0.042198 -0.000790 0.000000 -0.002387 0.000000
# 3 0.001721 -0.000790 0.026083 0.000000 0.020945 0.000000
# 4 0.000000 0.000000 0.000000 0.068864 0.000000 -0.026086
# 5 0.009520 -0.002387 0.020945 0.000000 0.049923 0.000000
# 6 0.000000 0.000000 0.000000 -0.026086 0.000000 -0.058865
#
#
# Mechanical properties :
#
#
# Convention : Reuss Voigt Hill
#
# Bulk Modulus (GPa) = 12.48169 23.35209 17.91689
# Shear Modulus (GPa) = 29.81142 17.94001 23.87571
#
# Velocity S-wave (km/s) = 3.74027 2.90150 3.34726
# Velocity P-wave (km/s) = 4.95077 4.70993 4.83185
#
# Compressibility (1/GPa) = 0.08011736
#
# Stress axis : x y z
#
# Youngs Moduli (GPa) = 81.14195 23.69765 38.33964
#
# Poissons Ratio (x) = 0.02784 -0.06596
# Poissons Ratio (y) = 0.09532 0.03027
# Poissons Ratio (z) = -0.13961 0.01871
#
# Static dielectric constant tensor:
#      x y z
#    x 1.756750 0.000000 -0.013250 
#    y 0.000000 1.760590 0.000000 
#    z -0.013250 0.000000 1.773240 
# 
# From -- ./inp_files/58162.got.cif
#   From: 2010.05.17/outbox.cif.g08.bks.cpg/sg10_30_cif.got.tgz:58162.got - 2010.06.03 11:33:40.
