data_PCOD9148655
_publ_section_title
;
Structure prediction by ZEFSAII (Michael W. Deem and Ramdas Pophale) SiO2 
 PCOD9148655
Probable space group: P 2/M
;
_chemical_formula_sum "Si O2"
_cell_formula_units_Z 24
_cell_length_a 13.126131
_cell_length_b 21.476409
_cell_length_c 4.936064
_cell_angle_alpha 90.000000
_cell_angle_beta 67.910920
_cell_angle_gamma 90.000000
_cell_volume 1289.352384
_symmetry_space_group_name_H-M "P 2/M"
_symmetry_group_IT_number 10
_symmetry_cell_setting 'monoclinic'
loop_
_space_group_symop_operation_xyz
x,y,z
-x,y,-z
-x,-y,-z
x,-y,z
loop_
_atom_site_type_symbol
_atom_site_label
_atom_site_fract_x
_atom_site_fract_y
_atom_site_fract_z
Si Si1 0.235634 0.332269 0.276357
Si Si2 0.372306 0.299429 0.649672
Si Si3 0.922014 0.430045 0.836136
Si Si4 0.264366 0.832269 0.747626
Si Si5 0.872306 0.799429 0.605716
Si Si6 0.422014 0.930044 0.319837
O O1 0.287854 0.333880 0.525340
O O2 0.177363 0.389972 0.186920
O O3 0.151117 0.274366 0.336535
O O4 0.337577 0.314574 0.987548
O O5 0.500000 0.314250 0.500000
O O6 0.348883 0.225634 0.638771
O O7 0.887501 0.500000 0.958884
O O8 0.000000 0.435475 0.500000
O O9 0.000000 0.403374 0.000000
O O10 0.162423 0.814574 0.662704
O O11 0.322637 0.889972 0.541646
O O12 0.212146 0.833880 0.101049
O O13 0.000000 0.814251 0.500000
O O14 0.500000 0.935475 0.500000
O O15 0.387501 0.000000 0.266115
O O16 0.500000 0.903373 0.000000
#
# Coordination Sequence:
#
# PCOD9148655 Si02
#       6
#     4   4   4   4   4   4
#     4  10  20  33  52  76 102 134 169 210 257 305
#     4  10  20  33  51  75 103 135 169 208 255 306
#     4  10  20  34  54  78 103 132 167 211 259 304
#     4  10  20  33  52  76 102 134 169 210 257 305
#     4  10  20  33  51  75 103 135 169 208 255 306
#     4  10  20  34  54  78 103 132 167 211 259 304
#
# _framework density 18.613997000000001
#
# number of rings (size 3 to 8) (size 9 to 14) (size 15 to 20)
#    0.000    2.000    0.000    4.000    0.000    5.333 
#    0.000    0.000    0.000    6.000    0.000    0.000 
#    0.000    0.000    0.000    0.000    0.000    0.000 
#
# Total GULP energy -133615.085157 kJ/mol
# GULP energy per Si atom -5567.295215 kJ/mol
# Density = 1.857163 g / cm^3
# Si number density = 18.613997 Si / 1000 Ang^3
#
#
#
# Elastic Constant Matrix: (Units=GPa)
#
#
# Indices 1 2 3 4 5 6 
#
# 1 54.8534 9.6502 6.5877 0.0000 -4.8388 0.0000
# 2 9.6502 45.2039 -3.7894 0.0000 -11.6382 0.0000
# 3 6.5877 -3.7894 63.0621 0.0000 11.9495 0.0000
# 4 0.0000 0.0000 0.0000 22.9242 0.0000 4.4536
# 5 -4.8388 -11.6382 11.9495 0.0000 35.8776 0.0000
# 6 0.0000 0.0000 0.0000 4.4536 0.0000 17.7832
#
#
#
# Elastic Compliance Matrix: (Units=1/GPa)
#
#
# Indices 1 2 3 4 5 6 
#
# 1 0.019421 -0.003782 -0.002690 0.000000 0.002288 0.000000
# 2 -0.003782 0.024875 0.000488 0.000000 0.007396 0.000000
# 3 -0.002690 0.000488 0.017298 0.000000 -0.005966 0.000000
# 4 0.000000 0.000000 0.000000 0.045853 0.000000 -0.011483
# 5 0.002288 0.007396 -0.005966 0.000000 0.032567 0.000000
# 6 0.000000 0.000000 0.000000 -0.011483 0.000000 0.059109
#
#
# Mechanical properties :
#
#
# Convention : Reuss Voigt Hill
#
# Bulk Modulus (GPa) = 20.15064 20.89072 20.52068
# Shear Modulus (GPa) = 21.96530 25.36174 23.66352
#
# Velocity S-wave (km/s) = 3.43890 3.69522 3.56936
# Velocity P-wave (km/s) = 5.15918 5.42713 5.29485
#
# Compressibility (1/GPa) = 0.04962621
#
# Stress axis : x y z
#
# Youngs Moduli (GPa) = 51.49155 40.20163 57.80974
#
# Poissons Ratio (x) = 0.15205 0.15549
# Poissons Ratio (y) = 0.19476 -0.02823
# Poissons Ratio (z) = 0.13849 -0.01963
#
# Static dielectric constant tensor:
#      x y z
#    x 1.545170 0.000000 -0.223640 
#    y 0.000000 1.707210 0.000000 
#    z -0.223640 0.000000 1.287120 
# 
# From -- ./inp_files/7472.got.cif
#   From: 2010.05.17/outbox.cif.g08.bks.cpg/sg10_4_cif.got.tgz:7472.got - 2010.06.03 11:33:40.
