data_PCOD9148493
_publ_section_title
;
Structure prediction by ZEFSAII (Michael W. Deem and Ramdas Pophale) SiO2 
 PCOD9148493
Probable space group: P 2/M
;
_chemical_formula_sum "Si O2"
_cell_formula_units_Z 28
_cell_length_a 13.826449
_cell_length_b 8.254993
_cell_length_c 19.461381
_cell_angle_alpha 90.000000
_cell_angle_beta 38.789675
_cell_angle_gamma 90.000000
_cell_volume 1391.543209
_symmetry_space_group_name_H-M "P 2/M"
_symmetry_group_IT_number 10
_symmetry_cell_setting 'monoclinic'
loop_
_space_group_symop_operation_xyz
x,y,z
-x,y,-z
-x,-y,-z
x,-y,z
loop_
_atom_site_type_symbol
_atom_site_label
_atom_site_fract_x
_atom_site_fract_y
_atom_site_fract_z
Si Si1 0.135345 0.309459 0.334104
Si Si2 0.942064 0.693469 0.247702
Si Si3 0.355230 0.810185 0.323599
Si Si4 0.373677 0.801942 0.923719
Si Si5 0.196736 0.693773 0.539071
Si Si6 0.732748 0.810345 0.874991
Si Si7 0.965843 0.195599 0.941613
O O1 0.124265 0.500000 0.354026
O O2 0.202181 0.225471 0.364080
O O3 0.251549 0.278664 0.206056
O O4 0.967763 0.249834 0.401872
O O5 0.971115 0.500000 0.238393
O O6 0.096593 0.787309 0.186056
O O7 0.921331 0.736067 0.179685
O O8 0.811511 0.738593 0.375835
O O9 0.493495 0.740305 0.200391
O O10 0.330576 0.749793 0.414396
O O11 0.380938 0.000000 0.313187
O O12 0.379726 0.000000 0.922594
O O13 0.377469 0.751976 0.001983
O O14 0.207900 0.756674 0.983845
O O15 0.195288 0.500000 0.537052
O O16 0.703020 0.000000 0.877834
O O17 0.974721 0.000000 0.934637
O O18 0.000000 0.249039 0.000000
#
# Coordination Sequence:
#
# PCOD9148493 Si02
#       7
#     4   4   4   4   4   4   4
#     4  10  20  33  47  66  94 125 162 207 245 273
#     4   9  17  30  49  73 100 125 151 191 240 280
#     4  11  21  31  46  67  93 127 164 199 235 279
#     4   8  17  32  47  69  99 124 149 191 243 283
#     4   9  19  34  48  64  92 128 162 199 237 270
#     4   9  16  30  50  68  92 125 161 198 236 281
#     4   9  17  32  56  80  99 121 151 188 231 283
#
# _framework density 20.121545000000001
#
# number of rings (size 3 to 8) (size 9 to 14) (size 15 to 20)
#    0.000    2.714    0.000    3.857    0.000    6.000 
#    0.000   10.000    0.000    0.857    0.000    6.000 
#    0.000    0.000    0.000    0.000    0.000    0.000 
#
# Total GULP energy -156100.051316 kJ/mol
# GULP energy per Si atom -5575.001833 kJ/mol
# Density = 2.007575 g / cm^3
# Si number density = 20.121545 Si / 1000 Ang^3
#
#
#
# Elastic Constant Matrix: (Units=GPa)
#
#
# Indices 1 2 3 4 5 6 
#
# 1 40.7461 1.6356 32.7935 0.0000 27.2896 0.0000
# 2 1.6356 9.1804 17.7566 0.0000 3.6563 0.0000
# 3 32.7935 17.7566 174.5678 0.0000 42.5873 0.0000
# 4 0.0000 0.0000 0.0000 30.4674 0.0000 -4.3033
# 5 27.2896 3.6563 42.5873 0.0000 32.4452 0.0000
# 6 0.0000 0.0000 0.0000 -4.3033 0.0000 22.6477
#
#
#
# Elastic Compliance Matrix: (Units=1/GPa)
#
#
# Indices 1 2 3 4 5 6 
#
# 1 0.056986 0.008596 0.000515 0.000000 -0.049575 0.000000
# 2 0.008596 0.137284 -0.014771 0.000000 -0.003313 0.000000
# 3 0.000515 -0.014771 0.010053 0.000000 -0.011964 0.000000
# 4 0.000000 0.000000 0.000000 0.033727 0.000000 0.006408
# 5 -0.049575 -0.003313 -0.011964 0.000000 0.088595 0.000000
# 6 0.000000 0.000000 0.000000 0.006408 0.000000 0.045372
#
#
# Mechanical properties :
#
#
# Convention : Reuss Voigt Hill
#
# Bulk Modulus (GPa) = 5.18125 36.54064 20.86095
# Shear Modulus (GPa) = 11.16891 28.59932 19.88412
#
# Velocity S-wave (km/s) = 2.35855 3.77414 3.14698
# Velocity P-wave (km/s) = 3.16190 6.09849 4.85743
#
# Compressibility (1/GPa) = 0.19300343
#
# Stress axis : x y z
#
# Youngs Moduli (GPa) = 17.54831 7.28415 99.47486
#
# Poissons Ratio (x) = -0.06262 -0.05121
# Poissons Ratio (y) = -0.15085 1.46932
# Poissons Ratio (z) = -0.00903 0.10759
#
# Static dielectric constant tensor:
#      x y z
#    x 1.718490 0.000000 0.006560 
#    y 0.000000 1.695360 0.000000 
#    z 0.006560 0.000000 1.798250 
# 
# From -- ./inp_files/54667.got.cif
#   From: 2010.05.17/outbox.cif.g08.bks.cpg/sg10_28_cif.got.tgz:54667.got - 2010.06.03 11:33:40.
