data_PCOD9148820
_publ_section_title
;
Structure prediction by ZEFSAII (Michael W. Deem and Ramdas Pophale) SiO2 
 PCOD9148820
Probable space group: P 2/M
;
_chemical_formula_sum "Si O2"
_cell_formula_units_Z 28
_cell_length_a 15.059707
_cell_length_b 9.165877
_cell_length_c 20.304566
_cell_angle_alpha 90.000000
_cell_angle_beta 147.854592
_cell_angle_gamma 90.000000
_cell_volume 1491.258203
_symmetry_space_group_name_H-M "P 2/M"
_symmetry_group_IT_number 10
_symmetry_cell_setting 'monoclinic'
loop_
_space_group_symop_operation_xyz
x,y,z
-x,y,-z
-x,-y,-z
x,-y,z
loop_
_atom_site_type_symbol
_atom_site_label
_atom_site_fract_x
_atom_site_fract_y
_atom_site_fract_z
Si Si1 0.604739 0.173981 0.715189
Si Si2 0.188503 0.669671 0.929019
Si Si3 0.121457 0.173853 0.221055
Si Si4 0.690903 0.677846 0.134435
Si Si5 0.481245 0.669831 0.210349
Si Si6 0.357406 0.665268 0.466847
Si Si7 0.821123 0.322101 0.359595
O O1 0.766546 0.212967 0.772427
O O2 0.608103 0.235764 0.790380
O O3 0.444474 0.248389 0.580343
O O4 0.589051 0.000000 0.704073
O O5 0.134977 0.500000 0.897387
O O6 0.199778 0.719466 0.860558
O O7 0.063524 0.763249 0.894445
O O8 0.373022 0.675598 0.075810
O O9 0.209297 0.247322 0.339442
O O10 0.123149 0.000000 0.227883
O O11 0.686676 0.500000 0.132935
O O12 0.770353 0.725657 0.253708
O O13 0.500000 0.725391 0.000000
O O14 0.484572 0.500000 0.233725
O O15 0.668473 0.719001 0.311666
O O16 0.500000 0.657386 0.500000
O O17 0.310190 0.500000 0.455447
O O18 0.823458 0.500000 0.359524
O O19 0.000000 0.273616 0.500000
#
# Coordination Sequence:
#
# PCOD9148820 Si02
#       7
#     4   4   4   4   4   4   4
#     4  10  21  36  54  76 109 153 187 221 279 340
#     4  10  20  33  54  81 107 143 191 236 280 332
#     4  10  21  36  53  77 111 148 187 228 274 335
#     4   9  15  29  52  75 104 142 180 227 289 346
#     4  10  20  34  53  79 109 143 186 236 283 329
#     4   9  17  32  55  79 103 135 179 229 275 322
#     4   9  17  30  51  81 112 139 177 233 289 342
#
# _framework density 18.77609
#
# number of rings (size 3 to 8) (size 9 to 14) (size 15 to 20)
#    0.000    2.429    1.429    1.286    0.000    5.714 
#    0.000    5.714    0.000    1.714    0.000    0.000 
#    0.000    0.000    0.000    0.000    0.000    0.000 
#
# Total GULP energy -156120.878317 kJ/mol
# GULP energy per Si atom -5575.745654 kJ/mol
# Density = 1.873335 g / cm^3
# Si number density = 18.776090 Si / 1000 Ang^3
#
#
#
# Elastic Constant Matrix: (Units=GPa)
#
#
# Indices 1 2 3 4 5 6 
#
# 1 104.5347 37.9806 43.8815 0.0000 -1.5206 0.0000
# 2 37.9806 44.1772 19.5938 0.0000 5.2485 0.0000
# 3 43.8815 19.5938 93.3435 0.0000 8.7679 0.0000
# 4 0.0000 0.0000 0.0000 13.3057 0.0000 -1.3624
# 5 -1.5206 5.2485 8.7679 0.0000 31.8597 0.0000
# 6 0.0000 0.0000 0.0000 -1.3624 0.0000 9.1059
#
#
#
# Elastic Compliance Matrix: (Units=1/GPa)
#
#
# Indices 1 2 3 4 5 6 
#
# 1 0.016362 -0.012115 -0.005553 0.000000 0.004305 0.000000
# 2 -0.012115 0.034166 -0.000917 0.000000 -0.005954 0.000000
# 3 -0.005553 -0.000917 0.013886 0.000000 -0.003935 0.000000
# 4 0.000000 0.000000 0.000000 0.076325 0.000000 0.011420
# 5 0.004305 -0.005954 -0.003935 0.000000 0.033657 0.000000
# 6 0.000000 0.000000 0.000000 0.011420 0.000000 0.111527
#
#
# Mechanical properties :
#
#
# Convention : Reuss Voigt Hill
#
# Bulk Modulus (GPa) = 36.70670 49.44081 43.07376
# Shear Modulus (GPa) = 15.05234 20.22758 17.63996
#
# Velocity S-wave (km/s) = 2.83446 3.28579 3.06844
# Velocity P-wave (km/s) = 5.50494 6.38625 5.96190
#
# Compressibility (1/GPa) = 0.02724298
#
# Stress axis : x y z
#
# Youngs Moduli (GPa) = 61.11838 29.26875 72.01606
#
# Poissons Ratio (x) = 0.35460 0.39991
# Poissons Ratio (y) = 0.74046 0.06604
# Poissons Ratio (z) = 0.33939 0.02684
#
# Static dielectric constant tensor:
#      x y z
#    x 1.652610 0.000000 -0.004140 
#    y 0.000000 1.622340 0.000000 
#    z -0.004140 0.000000 1.678730 
# 
# From -- ./inp_files/70169.got.cif
#   From: 2010.05.17/outbox.cif.g08.bks.cpg/sg10_36_cif.got.tgz:70169.got - 2010.06.03 11:33:40.
