data_PCOD9148156
_publ_section_title
;
Structure prediction by ZEFSAII (Michael W. Deem and Ramdas Pophale) SiO2 
 PCOD9148156
Probable space group: P 2/M
;
_chemical_formula_sum "Si O2"
_cell_formula_units_Z 28
_cell_length_a 19.777651
_cell_length_b 15.548440
_cell_length_c 16.293406
_cell_angle_alpha 90.000000
_cell_angle_beta 20.700497
_cell_angle_gamma 90.000000
_cell_volume 1771.095139
_symmetry_space_group_name_H-M "P 2/M"
_symmetry_group_IT_number 10
_symmetry_cell_setting 'monoclinic'
loop_
_space_group_symop_operation_xyz
x,y,z
-x,y,-z
-x,-y,-z
x,-y,z
loop_
_atom_site_type_symbol
_atom_site_label
_atom_site_fract_x
_atom_site_fract_y
_atom_site_fract_z
Si Si1 0.366840 0.500000 0.529470
Si Si2 0.817311 0.168214 0.306939
Si Si3 0.284910 0.104436 0.229697
Si Si4 0.925167 0.640218 0.179160
Si Si5 0.787131 0.099080 0.162210
Si Si6 0.589907 0.896326 0.219897
Si Si7 0.102895 0.104219 0.259652
Si Si8 0.217473 0.500000 0.888073
O O1 0.267391 0.583527 0.603577
O O2 0.295377 0.500000 0.705587
O O3 0.594661 0.500000 0.269871
O O4 0.882137 0.263724 0.255893
O O5 0.785138 0.158391 0.244644
O O6 0.614664 0.140849 0.573613
O O7 0.997893 0.106501 0.118186
O O8 0.209064 0.124849 0.224679
O O9 0.117241 0.133554 0.482400
O O10 0.290562 0.000000 0.228439
O O11 0.500000 0.135922 0.000000
O O12 0.000000 0.645370 0.000000
O O13 0.084363 0.584389 0.046044
O O14 0.642107 0.123461 0.255130
O O15 0.752603 0.000000 0.226843
O O16 0.578871 0.000000 0.226940
O O17 0.764605 0.865531 0.964990
O O18 0.096696 0.000000 0.261315
#
# Coordination Sequence:
#
# PCOD9148156 Si02
#       8
#     2   4   4   4   4   4   4   2
#     4   8  15  27  44  61  75  94 113 149 210 261
#     4  11  19  30  43  57  75 104 141 182 213 237
#     4   8  13  23  41  60  74  92 116 149 198 251
#     4   9  16  28  41  59  78  93 123 166 207 247
#     4  10  20  32  42  52  70 104 148 186 215 238
#     4  10  20  31  41  55  77 106 140 178 214 243
#     4   8  15  26  38  56  78  94 120 162 202 244
#     4   8  15  27  42  59  79  92 111 153 204 256
#
# _framework density 15.809428
#
# number of rings (size 3 to 8) (size 9 to 14) (size 15 to 20)
#    0.000    2.857    1.429    3.857    0.000    3.429 
#    5.143    4.286    0.000    0.000    0.000    0.000 
#    0.000    0.000    0.000    0.000    0.000   11.429 
#
# Total GULP energy -155895.341867 kJ/mol
# GULP energy per Si atom -5567.690781 kJ/mol
# Density = 1.577345 g / cm^3
# Si number density = 15.809428 Si / 1000 Ang^3
#
#
#
# Elastic Constant Matrix: (Units=GPa)
#
#
# Indices 1 2 3 4 5 6 
#
# 1 12.0700 8.5642 27.0005 0.0000 -8.1432 0.0000
# 2 8.5642 46.3038 16.9526 0.0000 -5.9442 0.0000
# 3 27.0005 16.9526 120.2613 0.0000 -21.1027 0.0000
# 4 0.0000 0.0000 0.0000 4.9705 0.0000 -0.1953
# 5 -8.1432 -5.9442 -21.1027 0.0000 27.6125 0.0000
# 6 0.0000 0.0000 0.0000 -0.1953 0.0000 -0.6760
#
#
#
# Elastic Compliance Matrix: (Units=1/GPa)
#
#
# Indices 1 2 3 4 5 6 
#
# 1 0.196408 -0.019554 -0.036858 0.000000 0.025545 0.000000
# 2 -0.019554 0.024911 0.000933 0.000000 0.000309 0.000000
# 3 -0.036858 0.000933 0.016846 0.000000 0.002205 0.000000
# 4 0.000000 0.000000 0.000000 0.198930 0.000000 -0.057461
# 5 0.025545 0.000309 0.002205 0.000000 0.045501 0.000000
# 6 0.000000 0.000000 0.000000 -0.057461 0.000000 -1.462717
#
#
# Mechanical properties :
#
#
# Convention : Reuss Voigt Hill
#
# Bulk Modulus (GPa) = 7.86114 31.51885 19.69000
# Shear Modulus (GPa) = -6.04770 14.78925 4.37077
#
# Velocity S-wave (km/s) = -1.95798 3.06186 1.66453
# Velocity P-wave (km/s) = 0.35825 5.69913 4.02192
#
# Compressibility (1/GPa) = 0.12720795
#
# Stress axis : x y z
#
# Youngs Moduli (GPa) = 5.09144 40.14246 59.36159
#
# Poissons Ratio (x) = 0.78493 2.18794
# Poissons Ratio (y) = 0.09956 -0.05537
# Poissons Ratio (z) = 0.18766 -0.03744
#
# Static dielectric constant tensor:
#      x y z
#    x 1.540170 0.000000 -0.001530 
#    y 0.000000 1.512830 0.000000 
#    z -0.001530 0.000000 1.590450 
# 
# From -- ./inp_files/79652.got.cif
#   From: 2010.05.17/outbox.cif.g08.bks.cpg/sg10_40_cif.got.tgz:79652.got - 2010.06.03 11:33:40.
