data_PCOD9148958
_publ_section_title
;
Structure prediction by ZEFSAII (Michael W. Deem and Ramdas Pophale) SiO2 
 PCOD9148958
Probable space group: P 2/M
;
_chemical_formula_sum "Si O2"
_cell_formula_units_Z 32
_cell_length_a 12.364957
_cell_length_b 7.539661
_cell_length_c 32.440382
_cell_angle_alpha 90.000000
_cell_angle_beta 150.209874
_cell_angle_gamma 90.000000
_cell_volume 1502.565156
_symmetry_space_group_name_H-M "P 2/M"
_symmetry_group_IT_number 10
_symmetry_cell_setting 'monoclinic'
loop_
_space_group_symop_operation_xyz
x,y,z
-x,y,-z
-x,-y,-z
x,-y,z
loop_
_atom_site_type_symbol
_atom_site_label
_atom_site_fract_x
_atom_site_fract_y
_atom_site_fract_z
Si Si1 0.092089 0.208736 0.986687
Si Si2 0.714587 0.201683 0.092557
Si Si3 0.323222 0.284983 0.205093
Si Si4 0.298872 0.283003 0.731266
Si Si5 0.205589 0.294687 0.253511
Si Si6 0.580437 0.702323 0.137235
Si Si7 0.817230 0.284195 0.577969
Si Si8 0.354786 0.716779 0.391009
O O1 0.903309 0.234515 0.891193
O O2 0.138407 0.000000 0.006771
O O3 0.318779 0.295759 0.049381
O O4 0.000000 0.276510 0.000000
O O5 0.672268 0.203123 0.127468
O O6 0.946300 0.288548 0.160960
O O7 0.732956 0.000000 0.083111
O O8 0.500000 0.281727 0.000000
O O9 0.331243 0.500000 0.208634
O O10 0.520670 0.222736 0.241557
O O11 0.320884 0.218161 0.251199
O O12 0.307279 0.500000 0.734349
O O13 0.355381 0.226370 0.796597
O O14 0.052754 0.227733 0.640175
O O15 0.272805 0.500000 0.277825
O O16 0.263945 0.217667 0.317472
O O17 0.662640 0.500000 0.161849
O O18 0.816458 0.500000 0.577645
O O19 0.780435 0.228136 0.613303
O O20 0.604806 0.230038 0.482061
O O21 0.346725 0.500000 0.388502
#
# Coordination Sequence:
#
# PCOD9148958 Si02
#       8
#     4   4   4   4   4   4   4   4
#     4  11  22  35  51  73 103 138 176 215 255 303
#     4  11  24  39  53  73 104 136 171 215 262 311
#     4  10  20  34  51  73 104 139 176 219 258 304
#     4   9  17  29  47  75 105 133 167 209 260 308
#     4  10  20  34  53  76 103 137 178 215 255 308
#     4  11  21  34  56  79 103 133 172 217 259 308
#     4   8  13  24  45  72 104 134 162 208 264 312
#     4   8  14  26  46  74 103 132 169 211 257 309
#
# _framework density 21.296914000000001
#
# number of rings (size 3 to 8) (size 9 to 14) (size 15 to 20)
#    0.000    2.250    1.250    3.375    0.000    6.000 
#    0.000    0.625    0.000    3.750    0.000    8.750 
#    0.000    2.000    0.000    0.000    0.000    0.000 
#
# Total GULP energy -178763.344610 kJ/mol
# GULP energy per Si atom -5586.354519 kJ/mol
# Density = 2.124844 g / cm^3
# Si number density = 21.296914 Si / 1000 Ang^3
#
#
#
# Elastic Constant Matrix: (Units=GPa)
#
#
# Indices 1 2 3 4 5 6 
#
# 1 101.7644 -5.9895 45.5237 0.0000 -4.1286 0.0000
# 2 -5.9895 53.5576 -8.4234 0.0000 -4.1022 0.0000
# 3 45.5237 -8.4234 101.0016 0.0000 -3.5407 0.0000
# 4 0.0000 0.0000 0.0000 4.6242 0.0000 11.4281
# 5 -4.1286 -4.1022 -3.5407 0.0000 37.1328 0.0000
# 6 0.0000 0.0000 0.0000 11.4281 0.0000 3.3256
#
#
#
# Elastic Compliance Matrix: (Units=1/GPa)
#
#
# Indices 1 2 3 4 5 6 
#
# 1 0.012353 0.000589 -0.005486 0.000000 0.000915 0.000000
# 2 0.000589 0.019137 0.001412 0.000000 0.002314 0.000000
# 3 -0.005486 0.001412 0.012517 0.000000 0.000740 0.000000
# 4 0.000000 0.000000 0.000000 -0.028862 0.000000 0.099183
# 5 0.000915 0.002314 0.000740 0.000000 0.027358 0.000000
# 6 0.000000 0.000000 0.000000 0.099183 0.000000 -0.040133
#
#
# Mechanical properties :
#
#
# Convention : Reuss Voigt Hill
#
# Bulk Modulus (GPa) = 27.00176 35.39391 31.19784
# Shear Modulus (GPa) = 230.55761 24.03070 127.29416
#
# Velocity S-wave (km/s) = 10.41603 3.36276 7.73957
# Velocity P-wave (km/s) = 12.54450 5.63319 9.72362
#
# Compressibility (1/GPa) = 0.03703462
#
# Stress axis : x y z
#
# Youngs Moduli (GPa) = 80.95363 52.25585 79.88888
#
# Poissons Ratio (x) = -0.03076 0.43831
# Poissons Ratio (y) = -0.04765 -0.11278
# Poissons Ratio (z) = 0.44415 -0.07377
#
# Static dielectric constant tensor:
#      x y z
#    x 1.754060 0.000000 -0.013200 
#    y 0.000000 1.808960 0.000000 
#    z -0.013200 0.000000 1.744960 
# 
# From -- ./inp_files/95060.got.cif
#   From: 2010.05.17/outbox.cif.g08.bks.cpg/sg10_48_cif.got.tgz:95060.got - 2010.06.03 11:33:40.
