data_PCOD9148071
_publ_section_title
;
Structure prediction by ZEFSAII (Michael W. Deem and Ramdas Pophale) SiO2 
 PCOD9148071
Probable space group: P 2/M
;
_chemical_formula_sum "Si O2"
_cell_formula_units_Z 17
_cell_length_a 8.619841
_cell_length_b 13.475159
_cell_length_c 7.776709
_cell_angle_alpha 90.000000
_cell_angle_beta 55.144607
_cell_angle_gamma 90.000000
_cell_volume 741.240194
_symmetry_space_group_name_H-M "P 2/M"
_symmetry_group_IT_number 10
_symmetry_cell_setting 'monoclinic'
loop_
_space_group_symop_operation_xyz
x,y,z
-x,y,-z
-x,-y,-z
x,-y,z
loop_
_atom_site_type_symbol
_atom_site_label
_atom_site_fract_x
_atom_site_fract_y
_atom_site_fract_z
Si Si1 0.708477 0.197534 0.749571
Si Si2 0.945446 0.272527 0.273297
Si Si3 0.125005 0.500000 0.592053
Si Si4 0.626201 0.706764 0.244315
Si Si5 0.500000 0.000000 0.000000
Si Si6 0.454444 0.500000 0.827360
O O1 0.834712 0.216265 0.498500
O O2 0.512144 0.245793 0.809014
O O3 0.838505 0.247303 0.815170
O O4 0.649461 0.087331 0.839749
O O5 0.919733 0.392425 0.298650
O O6 0.820887 0.243932 0.185034
O O7 0.345214 0.500000 0.399034
O O8 0.000000 0.500000 0.500000
O O9 0.500000 0.702259 0.500000
O O10 0.658038 0.596013 0.158415
O O11 0.500000 0.500000 0.000000
#
# Coordination Sequence:
#
# PCOD9148071 Si02
#       6
#     4   4   2   4   1   2
#     4  10  22  41  65  94 118 171 216 279 334 383
#     4  10  20  38  70  98 128 170 229 254 302 395
#     4  12  17  35  64 103 134 178 213 250 293 394
#     4  10  19  38  65  97 130 177 220 258 303 394
#     4  12  28  46  68  86 138 162 208 302 374 374
#     4  12  22  32  63 105 149 180 204 254 332 387
#
# _framework density 22.934536999999999
#
# number of rings (size 3 to 8) (size 9 to 14) (size 15 to 20)
#    0.000    1.412    7.059    1.059    1.647    1.882 
#    0.000    8.824    0.000    2.824    0.000    0.000 
#    0.000    0.000    0.000    0.000    0.000    0.000 
#
# Total GULP energy -94663.262965 kJ/mol
# GULP energy per Si atom -5568.427233 kJ/mol
# Density = 2.288234 g / cm^3
# Si number density = 22.934537 Si / 1000 Ang^3
#
#
#
# Elastic Constant Matrix: (Units=GPa)
#
#
# Indices 1 2 3 4 5 6 
#
# 1 268.1045 70.9241 82.7525 0.0000 14.4955 0.0000
# 2 70.9241 184.9026 43.8575 0.0000 -1.0281 0.0000
# 3 82.7525 43.8575 89.9533 0.0000 -14.2949 0.0000
# 4 0.0000 0.0000 0.0000 -63.7850 0.0000 -59.9512
# 5 14.4955 -1.0281 -14.2949 0.0000 69.6717 0.0000
# 6 0.0000 0.0000 0.0000 -59.9512 0.0000 -14.6660
#
#
#
# Elastic Compliance Matrix: (Units=1/GPa)
#
#
# Indices 1 2 3 4 5 6 
#
# 1 0.005689 -0.000982 -0.005112 0.000000 -0.002247 0.000000
# 2 -0.000982 0.006305 -0.002195 0.000000 -0.000153 0.000000
# 3 -0.005112 -0.002195 0.017628 0.000000 0.004648 0.000000
# 4 0.000000 0.000000 0.000000 0.005516 0.000000 -0.022549
# 5 -0.002247 -0.000153 0.004648 0.000000 0.015772 0.000000
# 6 0.000000 0.000000 0.000000 -0.022549 0.000000 0.023991
#
#
# Mechanical properties :
#
#
# Convention : Reuss Voigt Hill
#
# Bulk Modulus (GPa) = 76.66020 104.22540 90.44280
# Shear Modulus (GPa) = 52.17755 21.27257 36.72506
#
# Velocity S-wave (km/s) = 4.77494 3.04885 4.00597
# Velocity P-wave (km/s) = 7.99364 7.61166 7.80499
#
# Compressibility (1/GPa) = 0.01304458
#
# Stress axis : x y z
#
# Youngs Moduli (GPa) = 175.77819 158.61197 56.72748
#
# Poissons Ratio (x) = 0.15578 0.28998
# Poissons Ratio (y) = 0.17264 0.12450
# Poissons Ratio (z) = 0.89854 0.34810
#
# Static dielectric constant tensor:
#      x y z
#    x 1.922470 0.000000 0.028160 
#    y 0.000000 1.787670 0.000000 
#    z 0.028160 0.000000 2.133790 
# 
# From -- ./inp_files/17689.got.cif
#   From: 2010.05.17/outbox.cif.g08.bks.cpg/sg10_9_cif.got.tgz:17689.got - 2010.06.03 11:33:40.
