data_PCOD9148892
_publ_section_title
;
Structure prediction by ZEFSAII (Michael W. Deem and Ramdas Pophale) SiO2 
 PCOD9148892
Probable space group: P 2/M
;
_chemical_formula_sum "Si O2"
_cell_formula_units_Z 28
_cell_length_a 10.997806
_cell_length_b 15.723846
_cell_length_c 7.912406
_cell_angle_alpha 90.000000
_cell_angle_beta 109.831257
_cell_angle_gamma 90.000000
_cell_volume 1287.130616
_symmetry_space_group_name_H-M "P 2/M"
_symmetry_group_IT_number 10
_symmetry_cell_setting 'monoclinic'
loop_
_space_group_symop_operation_xyz
x,y,z
-x,y,-z
-x,-y,-z
x,-y,z
loop_
_atom_site_type_symbol
_atom_site_label
_atom_site_fract_x
_atom_site_fract_y
_atom_site_fract_z
Si Si1 0.886086 0.401842 0.134619
Si Si2 0.858461 0.135033 0.741559
Si Si3 0.614527 0.087308 0.422247
Si Si4 0.176493 0.665436 0.236814
Si Si5 0.285310 0.402920 0.630898
Si Si6 0.844686 0.900893 0.130490
Si Si7 0.373961 0.229064 0.828356
O O1 0.885350 0.500000 0.081562
O O2 0.841271 0.399907 0.307642
O O3 0.029076 0.365018 0.192079
O O4 0.798286 0.354701 0.950358
O O5 0.754537 0.091238 0.573573
O O6 0.823596 0.234551 0.730865
O O7 0.006351 0.121468 0.753428
O O8 0.842750 0.102501 0.925528
O O9 0.500000 0.083783 0.500000
O O10 0.595218 0.173439 0.318358
O O11 0.603488 0.000000 0.312167
O O12 0.258048 0.619230 0.422045
O O13 0.336440 0.500000 0.668294
O O14 0.358580 0.325429 0.756039
O O15 0.748283 0.826004 0.152254
O O16 0.818847 0.000000 0.167332
O O17 0.500000 0.224239 0.000000
#
# Coordination Sequence:
#
# PCOD9148892 Si02
#       7
#     4   4   4   4   4   4   4
#     4  10  20  33  57  94 131 173 222 270 328 397
#     4  11  21  39  64  99 138 173 216 266 330 405
#     4  11  24  43  67  95 129 172 220 270 327 399
#     4  11  19  35  60  92 135 177 220 268 328 399
#     4  11  23  41  64  92 130 175 223 281 339 397
#     4  11  23  40  67 100 137 177 217 273 340 402
#     4  12  26  45  66  93 127 173 230 283 337 406
#
# _framework density 21.753814999999999
#
# number of rings (size 3 to 8) (size 9 to 14) (size 15 to 20)
#    0.000    1.000    1.429    8.571    0.000    4.286 
#    0.000    1.429    0.000    0.429    0.000    0.000 
#    0.000    0.000    0.000    0.000    0.000    0.000 
#
# Total GULP energy -156221.230304 kJ/mol
# GULP energy per Si atom -5579.329654 kJ/mol
# Density = 2.170430 g / cm^3
# Si number density = 21.753815 Si / 1000 Ang^3
#
#
#
# Elastic Constant Matrix: (Units=GPa)
#
#
# Indices 1 2 3 4 5 6 
#
# 1 53.7332 37.7496 28.1128 0.0000 8.6027 0.0000
# 2 37.7496 185.9155 29.2838 0.0000 11.0773 0.0000
# 3 28.1128 29.2838 83.5845 0.0000 17.0882 0.0000
# 4 0.0000 0.0000 0.0000 68.2283 0.0000 29.4350
# 5 8.6027 11.0773 17.0882 0.0000 32.4691 0.0000
# 6 0.0000 0.0000 0.0000 29.4350 0.0000 40.7574
#
#
#
# Elastic Compliance Matrix: (Units=1/GPa)
#
#
# Indices 1 2 3 4 5 6 
#
# 1 0.025188 -0.003949 -0.006723 0.000000 -0.001788 0.000000
# 2 -0.003949 0.006341 -0.000745 0.000000 -0.000725 0.000000
# 3 -0.006723 -0.000745 0.015766 0.000000 -0.006262 0.000000
# 4 0.000000 0.000000 0.000000 0.021290 0.000000 -0.015376
# 5 -0.001788 -0.000725 -0.006262 0.000000 0.034815 0.000000
# 6 0.000000 0.000000 0.000000 -0.015376 0.000000 0.035640
#
#
# Mechanical properties :
#
#
# Convention : Reuss Voigt Hill
#
# Bulk Modulus (GPa) = 40.87952 57.05839 48.96895
# Shear Modulus (GPa) = 29.40675 43.49677 36.45176
#
# Velocity S-wave (km/s) = 3.68067 4.47643 4.09791
# Velocity P-wave (km/s) = 6.07419 7.28038 6.70447
#
# Compressibility (1/GPa) = 0.02446213
#
# Stress axis : x y z
#
# Youngs Moduli (GPa) = 39.70091 157.69920 63.42587
#
# Poissons Ratio (x) = 0.62275 0.42639
# Poissons Ratio (y) = 0.15678 0.04727
# Poissons Ratio (z) = 0.26690 0.11752
#
# Static dielectric constant tensor:
#      x y z
#    x 1.827400 0.000000 -0.000760 
#    y 0.000000 1.904510 0.000000 
#    z -0.000760 0.000000 1.834550 
# 
# From -- ./inp_files/25023.got.cif
#   From: 2010.05.17/outbox.cif.g08.bks.cpg/sg10_13_cif.got.tgz:25023.got - 2010.06.03 11:33:40.
