data_PCOD9148155
_publ_section_title
;
Structure prediction by ZEFSAII (Michael W. Deem and Ramdas Pophale) SiO2 
 PCOD9148155
Probable space group: P 2/M
;
_chemical_formula_sum "Si O2"
_cell_formula_units_Z 24
_cell_length_a 15.865052
_cell_length_b 14.123093
_cell_length_c 10.150818
_cell_angle_alpha 90.000000
_cell_angle_beta 37.179870
_cell_angle_gamma 90.000000
_cell_volume 1374.481103
_symmetry_space_group_name_H-M "P 2/M"
_symmetry_group_IT_number 10
_symmetry_cell_setting 'monoclinic'
loop_
_space_group_symop_operation_xyz
x,y,z
-x,y,-z
-x,-y,-z
x,-y,z
loop_
_atom_site_type_symbol
_atom_site_label
_atom_site_fract_x
_atom_site_fract_y
_atom_site_fract_z
Si Si1 0.944540 0.500000 0.845626
Si Si2 0.218955 0.500000 0.673998
Si Si3 0.079457 0.803668 0.760358
Si Si4 0.923299 0.693187 0.733869
Si Si5 0.635341 0.000000 0.236281
Si Si6 0.036836 0.000000 0.106995
Si Si7 0.645175 0.217831 0.165994
Si Si8 0.656973 0.288674 0.456271
O O1 0.900755 0.587481 0.810731
O O2 0.106684 0.500000 0.693397
O O3 0.863012 0.500000 0.085240
O O4 0.301622 0.399178 0.574365
O O5 0.238102 0.778860 0.594056
O O6 0.020718 0.731490 0.728931
O O7 0.036688 0.904901 0.753268
O O8 0.000000 0.792840 0.000000
O O9 0.000000 0.699170 0.500000
O O10 0.778645 0.749899 0.917899
O O11 0.500000 0.000000 0.500000
O O12 0.627291 0.895932 0.180400
O O13 0.795634 0.000000 0.090855
O O14 0.000000 0.000000 0.000000
O O15 0.670950 0.252906 0.286058
O O16 0.501552 0.268362 0.306286
#
# Coordination Sequence:
#
# PCOD9148155 Si02
#       8
#     2   2   4   4   2   2   4   4
#     4  11  21  37  63  90 119 156 206 250 293 362
#     4  11  20  34  64  95 118 151 198 259 310 348
#     4  11  19  37  59  88 120 154 204 248 297 350
#     4  12  24  41  61  88 123 165 205 243 295 366
#     4  12  20  34  56  90 129 154 192 257 314 348
#     4  10  20  30  58  90 121 148 202 245 295 359
#     4  11  23  37  57  93 125 158 196 252 307 354
#     4  11  21  35  61  88 126 153 195 252 310 350
#
# _framework density 17.461134999999999
#
# number of rings (size 3 to 8) (size 9 to 14) (size 15 to 20)
#    0.000    0.833    8.333    1.250    0.000    2.000 
#    0.000    2.500    0.000    1.000    0.000    2.333 
#    0.000    0.000    0.000    0.000    0.000    0.000 
#
# Total GULP energy -133734.437014 kJ/mol
# GULP energy per Si atom -5572.268209 kJ/mol
# Density = 1.742139 g / cm^3
# Si number density = 17.461135 Si / 1000 Ang^3
#
#
#
# Elastic Constant Matrix: (Units=GPa)
#
#
# Indices 1 2 3 4 5 6 
#
# 1 68.0146 28.9274 42.5568 0.0000 -31.0466 0.0000
# 2 28.9274 133.0617 37.2070 0.0000 -12.3657 0.0000
# 3 42.5568 37.2070 101.6998 0.0000 -17.2799 0.0000
# 4 0.0000 0.0000 0.0000 -13.3492 0.0000 -60.6930
# 5 -31.0466 -12.3657 -17.2799 0.0000 35.3279 0.0000
# 6 0.0000 0.0000 0.0000 -60.6930 0.0000 -51.8835
#
#
#
# Elastic Compliance Matrix: (Units=1/GPa)
#
#
# Indices 1 2 3 4 5 6 
#
# 1 0.031226 -0.002353 -0.008380 0.000000 0.022520 0.000000
# 2 -0.002353 0.008629 -0.002193 0.000000 -0.000120 0.000000
# 3 -0.008380 -0.002193 0.013916 0.000000 -0.001325 0.000000
# 4 0.000000 0.000000 0.000000 0.017346 0.000000 -0.020292
# 5 0.022520 -0.000120 -0.001325 0.000000 0.047407 0.000000
# 6 0.000000 0.000000 0.000000 -0.020292 0.000000 0.004463
#
#
# Mechanical properties :
#
#
# Convention : Reuss Voigt Hill
#
# Bulk Modulus (GPa) = 35.81485 57.79537 46.80511
# Shear Modulus (GPa) = 31.61663 6.95804 19.28734
#
# Velocity S-wave (km/s) = 4.25983 1.99838 3.32714
# Velocity P-wave (km/s) = 6.68959 6.20451 6.45161
#
# Compressibility (1/GPa) = 0.02792138
#
# Stress axis : x y z
#
# Youngs Moduli (GPa) = 32.02461 115.89138 71.85718
#
# Poissons Ratio (x) = 0.27264 0.60214
# Poissons Ratio (y) = 0.07534 0.15756
# Poissons Ratio (z) = 0.26835 0.25412
#
# Static dielectric constant tensor:
#      x y z
#    x 1.585400 0.000000 -0.016540 
#    y 0.000000 1.248100 0.000000 
#    z -0.016540 0.000000 1.571920 
# 
# From -- ./inp_files/29377.got.cif
#   From: 2010.05.17/outbox.cif.g08.bks.cpg/sg10_15_cif.got.tgz:29377.got - 2010.06.03 11:33:40.
