data_PCOD9148389
_publ_section_title
;
Structure prediction by ZEFSAII (Michael W. Deem and Ramdas Pophale) SiO2 
 PCOD9148389
Probable space group: P 2/M
;
_chemical_formula_sum "Si O2"
_cell_formula_units_Z 32
_cell_length_a 15.266284
_cell_length_b 20.125365
_cell_length_c 15.821853
_cell_angle_alpha 90.000000
_cell_angle_beta 18.147284
_cell_angle_gamma 90.000000
_cell_volume 1514.041468
_symmetry_space_group_name_H-M "P 2/M"
_symmetry_group_IT_number 10
_symmetry_cell_setting 'monoclinic'
loop_
_space_group_symop_operation_xyz
x,y,z
-x,y,-z
-x,-y,-z
x,-y,z
loop_
_atom_site_type_symbol
_atom_site_label
_atom_site_fract_x
_atom_site_fract_y
_atom_site_fract_z
Si Si1 0.006213 0.901780 0.091168
Si Si2 0.861204 0.243923 0.979973
Si Si3 0.677230 0.579881 0.984516
Si Si4 0.736331 0.577848 0.496951
Si Si5 0.736695 0.780555 0.536982
Si Si6 0.389898 0.927667 0.395697
Si Si7 0.187761 0.366112 0.756101
Si Si8 0.686937 0.697179 0.754384
O O1 0.739040 0.921033 0.391833
O O2 0.039208 0.822476 0.064597
O O3 0.000000 0.923780 0.000000
O O4 0.276713 0.925938 0.895577
O O5 0.986931 0.238624 0.769561
O O6 0.994881 0.304478 0.906301
O O7 0.526063 0.244702 0.278998
O O8 0.652555 0.500000 0.987307
O O9 0.559025 0.591452 0.187980
O O10 0.479124 0.628570 0.113485
O O11 0.999156 0.604253 0.691014
O O12 0.778542 0.500000 0.464856
O O13 0.759666 0.595833 0.378977
O O14 0.705920 0.861066 0.565844
O O15 0.711094 0.744201 0.649906
O O16 0.307244 0.000000 0.436244
O O17 0.500000 0.347081 0.500000
O O18 0.000000 0.402213 0.000000
O O19 0.000000 0.683591 0.500000
O O20 0.500000 0.730102 0.000000
#
# Coordination Sequence:
#
# PCOD9148389 Si02
#       8
#     4   4   4   4   4   4   4   4
#     4  10  20  32  50  78 112 144 180 231 278 313
#     4  10  20  36  55  75 105 148 190 220 267 328
#     4  10  21  39  61  83 111 147 181 213 261 334
#     4  10  21  38  57  76 105 148 190 223 266 324
#     4  10  21  39  59  78 108 145 181 222 266 333
#     4  10  21  35  54  78 105 147 190 223 266 319
#     4  12  23  33  51  78 108 142 188 243 280 306
#     4  12  24  38  61  90 116 138 169 220 278 330
#
# _framework density 21.135484000000002
#
# number of rings (size 3 to 8) (size 9 to 14) (size 15 to 20)
#    0.000    1.500    0.000    5.625    0.000    4.500 
#    0.000    0.000    0.000    0.750    0.000    0.000 
#    0.000    0.000    0.000    0.000    0.000    0.000 
#
# Total GULP energy -178840.451906 kJ/mol
# GULP energy per Si atom -5588.764122 kJ/mol
# Density = 2.108738 g / cm^3
# Si number density = 21.135484 Si / 1000 Ang^3
#
#
#
# Elastic Constant Matrix: (Units=GPa)
#
#
# Indices 1 2 3 4 5 6 
#
# 1 70.5491 19.8385 7.1683 0.0000 11.1699 0.0000
# 2 19.8385 49.5009 4.2963 0.0000 9.8722 0.0000
# 3 7.1683 4.2963 54.6806 0.0000 -1.4115 0.0000
# 4 0.0000 0.0000 0.0000 -55.0406 0.0000 -32.4122
# 5 11.1699 9.8722 -1.4115 0.0000 38.5919 0.0000
# 6 0.0000 0.0000 0.0000 -32.4122 0.0000 -38.9021
#
#
#
# Elastic Compliance Matrix: (Units=1/GPa)
#
#
# Indices 1 2 3 4 5 6 
#
# 1 0.016519 -0.005793 -0.001797 0.000000 -0.003365 0.000000
# 2 -0.005793 0.023501 -0.001200 0.000000 -0.004379 0.000000
# 3 -0.001797 -0.001200 0.018657 0.000000 0.001510 0.000000
# 4 0.000000 0.000000 0.000000 -0.035669 0.000000 0.029718
# 5 -0.003365 -0.004379 0.001510 0.000000 0.028061 0.000000
# 6 0.000000 0.000000 0.000000 0.029718 0.000000 -0.050466
#
#
# Mechanical properties :
#
#
# Convention : Reuss Voigt Hill
#
# Bulk Modulus (GPa) = 24.33345 26.37075 25.35210
# Shear Modulus (GPa) = 156.82413 -1.50834 77.65790
#
# Velocity S-wave (km/s) = 8.62326 -0.84570 6.06817
# Velocity P-wave (km/s) = 10.52072 3.39860 7.81780
#
# Compressibility (1/GPa) = 0.04109570
#
# Stress axis : x y z
#
# Youngs Moduli (GPa) = 60.53644 42.55158 53.59949
#
# Poissons Ratio (x) = 0.24651 0.09633
# Poissons Ratio (y) = 0.35070 0.06432
# Poissons Ratio (z) = 0.10880 0.05107
#
# Static dielectric constant tensor:
#      x y z
#    x 1.765030 0.000000 0.020100 
#    y 0.000000 1.805340 0.000000 
#    z 0.020100 0.000000 1.798710 
# 
# From -- ./inp_files/67950.got.cif
#   From: 2010.05.17/outbox.cif.g08.bks.cpg/sg10_34_cif.got.tgz:67950.got - 2010.06.03 11:33:40.
