data_PCOD9148955
_publ_section_title
;
Structure prediction by ZEFSAII (Michael W. Deem and Ramdas Pophale) SiO2 
 PCOD9148955
Probable space group: P 2/M
;
_chemical_formula_sum "Si O2"
_cell_formula_units_Z 32
_cell_length_a 16.126295
_cell_length_b 8.393658
_cell_length_c 25.920575
_cell_angle_alpha 90.000000
_cell_angle_beta 30.667383
_cell_angle_gamma 90.000000
_cell_volume 1789.559326
_symmetry_space_group_name_H-M "P 2/M"
_symmetry_group_IT_number 10
_symmetry_cell_setting 'monoclinic'
loop_
_space_group_symop_operation_xyz
x,y,z
-x,y,-z
-x,-y,-z
x,-y,z
loop_
_atom_site_type_symbol
_atom_site_label
_atom_site_fract_x
_atom_site_fract_y
_atom_site_fract_z
Si Si1 0.486152 0.307563 0.768142
Si Si2 0.905401 0.305839 0.197723
Si Si3 0.341876 0.809192 0.053403
Si Si4 0.734374 0.307468 0.019193
Si Si5 0.009532 0.690722 0.732743
Si Si6 0.837405 0.807502 0.558399
Si Si7 0.416194 0.692758 0.689040
Si Si8 0.232185 0.809307 0.520990
O O1 0.484589 0.500000 0.769347
O O2 0.372154 0.250562 0.875623
O O3 0.671745 0.251167 0.673430
O O4 0.423840 0.255474 0.744889
O O5 0.902668 0.500000 0.198200
O O6 0.745475 0.250500 0.253485
O O7 0.913922 0.257399 0.253165
O O8 0.076737 0.255578 0.080777
O O9 0.174055 0.755551 0.169856
O O10 0.345147 0.000000 0.049878
O O11 0.500000 0.752699 0.000000
O O12 0.336814 0.745463 0.997673
O O13 0.734521 0.500000 0.019983
O O14 0.001601 0.500000 0.737483
O O15 0.118009 0.746429 0.627241
O O16 0.829223 0.755718 0.502894
O O17 0.000000 0.751959 0.500000
O O18 0.836676 0.000000 0.559461
O O19 0.416154 0.500000 0.688494
O O20 0.582398 0.750388 0.573801
O O21 0.230639 0.000000 0.522605
#
# Coordination Sequence:
#
# PCOD9148955 Si02
#       8
#     4   4   4   4   4   4   4   4
#     4   9  18  31  50  76 102 127 160 204 246 289
#     4   8  16  31  51  73  98 130 166 203 241 289
#     4  10  21  36  53  74 100 131 167 204 243 291
#     4   9  18  33  51  75 104 131 163 202 247 293
#     4  10  20  35  54  75 100 130 165 205 248 292
#     4   9  19  35  52  69  94 130 167 202 243 293
#     4   9  17  32  52  73  99 132 168 203 243 289
#     4  10  20  34  51  73 101 130 164 206 249 295
#
# _framework density 17.881495999999999
#
# number of rings (size 3 to 8) (size 9 to 14) (size 15 to 20)
#    0.000    2.750    0.000    1.875    0.000    4.250 
#    0.000   11.875    0.000    0.000    0.000    7.000 
#    0.000    0.000    0.000    0.000    0.000    0.000 
#
# Total GULP energy -178452.296724 kJ/mol
# GULP energy per Si atom -5576.634273 kJ/mol
# Density = 1.784080 g / cm^3
# Si number density = 17.881496 Si / 1000 Ang^3
#
#
#
# Elastic Constant Matrix: (Units=GPa)
#
#
# Indices 1 2 3 4 5 6 
#
# 1 128.4423 13.2746 111.7762 0.0000 -30.8303 0.0000
# 2 13.2746 9.8975 15.8228 0.0000 -1.9595 0.0000
# 3 111.7762 15.8228 185.8319 0.0000 3.8564 0.0000
# 4 0.0000 0.0000 0.0000 57.6566 0.0000 -14.0206
# 5 -30.8303 -1.9595 3.8564 0.0000 31.9346 0.0000
# 6 0.0000 0.0000 0.0000 -14.0206 0.0000 22.7975
#
#
#
# Elastic Compliance Matrix: (Units=1/GPa)
#
#
# Indices 1 2 3 4 5 6 
#
# 1 0.037756 -0.006197 -0.022988 0.000000 0.038846 0.000000
# 2 -0.006197 0.120265 -0.006558 0.000000 0.002189 0.000000
# 3 -0.022988 -0.006558 0.020286 0.000000 -0.025045 0.000000
# 4 0.000000 0.000000 0.000000 0.020394 0.000000 0.012543
# 5 0.038846 0.002189 -0.025045 0.000000 0.071975 0.000000
# 6 0.000000 0.000000 0.000000 0.012543 0.000000 0.051578
#
#
# Mechanical properties :
#
#
# Convention : Reuss Voigt Hill
#
# Bulk Modulus (GPa) = 9.36150 67.32433 38.34292
# Shear Modulus (GPa) = 11.64556 34.69760 23.17158
#
# Velocity S-wave (km/s) = 2.55475 4.40980 3.60368
# Velocity P-wave (km/s) = 3.73484 7.97875 6.22934
#
# Compressibility (1/GPa) = 0.10682043
#
# Stress axis : x y z
#
# Youngs Moduli (GPa) = 26.48609 8.31499 49.29389
#
# Poissons Ratio (x) = 0.05153 1.13318
# Poissons Ratio (y) = 0.16414 0.32327
# Poissons Ratio (z) = 0.60887 0.05453
#
# Static dielectric constant tensor:
#      x y z
#    x 1.608300 0.000000 0.000870 
#    y 0.000000 1.617800 0.000000 
#    z 0.000870 0.000000 1.586610 
# 
# From -- ./inp_files/66595.got.cif
#   From: 2010.05.17/outbox.cif.g08.bks.cpg/sg10_34_cif.got.tgz:66595.got - 2010.06.03 11:33:40.
