data_PCOD9148357
_publ_section_title
;
Structure prediction by ZEFSAII (Michael W. Deem and Ramdas Pophale) SiO2 
 PCOD9148357
Probable space group: P 2/M
;
_chemical_formula_sum "Si O2"
_cell_formula_units_Z 20
_cell_length_a 12.790598
_cell_length_b 16.991257
_cell_length_c 14.652436
_cell_angle_alpha 90.000000
_cell_angle_beta 19.216488
_cell_angle_gamma 90.000000
_cell_volume 1048.104873
_symmetry_space_group_name_H-M "P 2/M"
_symmetry_group_IT_number 10
_symmetry_cell_setting 'monoclinic'
loop_
_space_group_symop_operation_xyz
x,y,z
-x,y,-z
-x,-y,-z
x,-y,z
loop_
_atom_site_type_symbol
_atom_site_label
_atom_site_fract_x
_atom_site_fract_y
_atom_site_fract_z
Si Si1 0.361206 0.910073 0.715373
Si Si2 0.796666 0.412393 0.573708
Si Si3 0.483266 0.909656 0.120187
Si Si4 0.122255 0.158610 0.585556
Si Si5 0.705877 0.315123 0.923322
O O1 0.500000 0.913145 0.500000
O O2 0.571717 0.853454 0.603989
O O3 0.367077 0.000000 0.749301
O O4 0.000000 0.884830 0.000000
O O5 0.665424 0.500000 0.668255
O O6 0.000000 0.413849 0.500000
O O7 0.055919 0.387967 0.286394
O O8 0.540922 0.342948 0.796623
O O9 0.254625 0.859680 0.374414
O O10 0.376835 0.000000 0.212337
O O11 0.500000 0.884733 0.000000
O O12 0.854204 0.903227 0.840602
O O13 0.925242 0.239239 0.755766
O O14 0.500000 0.304251 0.000000
#
# Coordination Sequence:
#
# PCOD9148357 Si02
#       5
#     4   4   4   4   4
#     4  10  21  37  56  76  98 131 179 230 277 321
#     4   9  17  31  50  72 104 143 177 208 244 299
#     4  11  23  36  51  73 103 143 183 212 250 314
#     4  12  22  36  55  76 107 138 174 225 277 313
#     4  10  20  32  49  77 108 140 174 210 258 314
#
# _framework density 19.082059999999998
#
# number of rings (size 3 to 8) (size 9 to 14) (size 15 to 20)
#    0.000    1.600    0.000    6.000    0.000    8.800 
#    0.000    0.000    0.000    0.000    0.000    0.000 
#    0.000   16.000    0.000    0.000    0.000    0.000 
#
# Total GULP energy -111629.896574 kJ/mol
# GULP energy per Si atom -5581.494829 kJ/mol
# Density = 1.903863 g / cm^3
# Si number density = 19.082060 Si / 1000 Ang^3
#
#
#
# Elastic Constant Matrix: (Units=GPa)
#
#
# Indices 1 2 3 4 5 6 
#
# 1 50.2905 25.1385 30.5303 0.0000 -8.8689 0.0000
# 2 25.1385 104.8617 40.3187 0.0000 -11.0254 0.0000
# 3 30.5303 40.3187 137.3925 0.0000 -9.6278 0.0000
# 4 0.0000 0.0000 0.0000 40.0563 0.0000 -2.1969
# 5 -8.8689 -11.0254 -9.6278 0.0000 30.7934 0.0000
# 6 0.0000 0.0000 0.0000 -2.1969 0.0000 5.7584
#
#
#
# Elastic Compliance Matrix: (Units=1/GPa)
#
#
# Indices 1 2 3 4 5 6 
#
# 1 0.025166 -0.003977 -0.004107 0.000000 0.004540 0.000000
# 2 -0.003977 0.011642 -0.002373 0.000000 0.002281 0.000000
# 3 -0.004107 -0.002373 0.008941 0.000000 0.000763 0.000000
# 4 0.000000 0.000000 0.000000 0.025498 0.000000 0.009728
# 5 0.004540 0.002281 0.000763 0.000000 0.034837 0.000000
# 6 0.000000 0.000000 0.000000 0.009728 0.000000 0.177371
#
#
# Mechanical properties :
#
#
# Convention : Reuss Voigt Hill
#
# Bulk Modulus (GPa) = 40.26441 53.83551 47.04996
# Shear Modulus (GPa) = 15.99247 28.42544 22.20896
#
# Velocity S-wave (km/s) = 2.89812 3.86378 3.41525
# Velocity P-wave (km/s) = 5.68729 6.94110 6.34524
#
# Compressibility (1/GPa) = 0.02483583
#
# Stress axis : x y z
#
# Youngs Moduli (GPa) = 39.73577 85.89690 111.84588
#
# Poissons Ratio (x) = 0.34157 0.45937
# Poissons Ratio (y) = 0.15801 0.26540
# Poissons Ratio (z) = 0.16320 0.20382
#
# Static dielectric constant tensor:
#      x y z
#    x 1.672560 0.000000 -0.006450 
#    y 0.000000 1.705940 0.000000 
#    z -0.006450 0.000000 1.683010 
# 
# From -- ./inp_files/51847.got.cif
#   From: 2010.05.17/outbox.cif.g08.bks.cpg/sg10_26_cif.got.tgz:51847.got - 2010.06.03 11:33:40.
