data_PCOD9148206
_publ_section_title
;
Structure prediction by ZEFSAII (Michael W. Deem and Ramdas Pophale) SiO2 
 PCOD9148206
Probable space group: P 2/M
;
_chemical_formula_sum "Si O2"
_cell_formula_units_Z 24
_cell_length_a 12.207590
_cell_length_b 7.493402
_cell_length_c 23.122683
_cell_angle_alpha 90.000000
_cell_angle_beta 30.192375
_cell_angle_gamma 90.000000
_cell_volume 1063.734094
_symmetry_space_group_name_H-M "P 2/M"
_symmetry_group_IT_number 10
_symmetry_cell_setting 'monoclinic'
loop_
_space_group_symop_operation_xyz
x,y,z
-x,y,-z
-x,-y,-z
x,-y,z
loop_
_atom_site_type_symbol
_atom_site_label
_atom_site_fract_x
_atom_site_fract_y
_atom_site_fract_z
Si Si1 0.936322 0.500000 0.617523
Si Si2 0.315556 0.712448 0.628807
Si Si3 0.181414 0.217643 0.019200
Si Si4 0.170763 0.788103 0.155372
Si Si5 0.640352 0.500000 0.639519
Si Si6 0.345154 0.214643 0.194767
Si Si7 0.298075 0.796944 0.771682
O O1 0.800316 0.500000 0.620379
O O2 0.849962 0.323504 0.688381
O O3 0.194068 0.500000 0.490409
O O4 0.500000 0.775125 0.500000
O O5 0.341612 0.500000 0.624703
O O6 0.316637 0.794015 0.692855
O O7 0.076382 0.749898 0.712547
O O8 0.185073 0.283793 0.084019
O O9 0.946682 0.270095 0.101526
O O10 0.175305 0.000000 0.022027
O O11 0.418742 0.266601 0.887028
O O12 0.333043 0.735053 0.132176
O O13 0.199976 0.000000 0.136064
O O14 0.485100 0.670487 0.709299
O O15 0.320386 0.000000 0.210680
O O16 0.321187 0.000000 0.781656
#
# Coordination Sequence:
#
# PCOD9148206 Si02
#       7
#     2   4   4   4   2   4   4
#     4  11  28  45  63  87 114 150 205 261 308 357
#     4  10  20  31  50  84 127 161 196 244 282 340
#     4   8  16  35  60  93 129 159 194 236 285 358
#     4   9  18  31  52  84 125 168 196 227 285 349
#     4  11  26  49  63  82 118 151 199 265 312 358
#     4  10  21  39  63  89 124 162 201 245 293 352
#     4  10  21  39  66  90 116 159 200 239 303 361
#
# _framework density 22.562028999999999
#
# number of rings (size 3 to 8) (size 9 to 14) (size 15 to 20)
#    0.000    2.333    0.833    2.000    3.500    5.333 
#    1.500    4.167    0.000    3.000    0.000    0.000 
#    0.000    0.000    0.000    0.000    0.000    0.000 
#
# Total GULP energy -134033.660468 kJ/mol
# GULP energy per Si atom -5584.735853 kJ/mol
# Density = 2.251068 g / cm^3
# Si number density = 22.562029 Si / 1000 Ang^3
#
#
#
# Elastic Constant Matrix: (Units=GPa)
#
#
# Indices 1 2 3 4 5 6 
#
# 1 49.7913 23.0499 24.9288 0.0000 -22.5434 0.0000
# 2 23.0499 83.9840 8.9492 0.0000 -13.2526 0.0000
# 3 24.9288 8.9492 70.9379 0.0000 -25.3592 0.0000
# 4 0.0000 0.0000 0.0000 46.6246 0.0000 -2.4179
# 5 -22.5434 -13.2526 -25.3592 0.0000 36.2662 0.0000
# 6 0.0000 0.0000 0.0000 -2.4179 0.0000 17.2358
#
#
#
# Elastic Compliance Matrix: (Units=1/GPa)
#
#
# Indices 1 2 3 4 5 6 
#
# 1 0.031841 -0.005981 -0.005521 0.000000 0.013746 0.000000
# 2 -0.005981 0.013760 0.001113 0.000000 0.002088 0.000000
# 3 -0.005521 0.001113 0.019753 0.000000 0.010787 0.000000
# 4 0.000000 0.000000 0.000000 0.021605 0.000000 0.003031
# 5 0.013746 0.002088 0.010787 0.000000 0.044424 0.000000
# 6 0.000000 0.000000 0.000000 0.003031 0.000000 0.058444
#
#
# Mechanical properties :
#
#
# Convention : Reuss Voigt Hill
#
# Bulk Modulus (GPa) = 22.43472 35.39656 28.91564
# Shear Modulus (GPa) = 22.17654 29.87766 26.02710
#
# Velocity S-wave (km/s) = 3.13855 3.64297 3.40012
# Velocity P-wave (km/s) = 4.80616 5.78079 5.31586
#
# Compressibility (1/GPa) = 0.04457378
#
# Stress axis : x y z
#
# Youngs Moduli (GPa) = 31.40647 72.67653 50.62590
#
# Poissons Ratio (x) = 0.43471 0.27949
# Poissons Ratio (y) = 0.18786 -0.05632
# Poissons Ratio (z) = 0.17339 -0.08086
#
# Static dielectric constant tensor:
#      x y z
#    x 1.869640 0.000000 0.040280 
#    y 0.000000 1.813330 0.000000 
#    z 0.040280 0.000000 1.870700 
# 
# From -- ./inp_files/88634.got.cif
#   From: 2010.05.17/outbox.cif.g08.bks.cpg/sg10_45_cif.got.tgz:88634.got - 2010.06.03 11:33:40.
