data_PCOD9148599
_publ_section_title
;
Structure prediction by ZEFSAII (Michael W. Deem and Ramdas Pophale) SiO2 
 PCOD9148599
Probable space group: P 2/M
;
_chemical_formula_sum "Si O2"
_cell_formula_units_Z 28
_cell_length_a 11.884034
_cell_length_b 8.561065
_cell_length_c 19.064173
_cell_angle_alpha 90.000000
_cell_angle_beta 127.205772
_cell_angle_gamma 90.000000
_cell_volume 1544.822303
_symmetry_space_group_name_H-M "P 2/M"
_symmetry_group_IT_number 10
_symmetry_cell_setting 'monoclinic'
loop_
_space_group_symop_operation_xyz
x,y,z
-x,y,-z
-x,-y,-z
x,-y,z
loop_
_atom_site_type_symbol
_atom_site_label
_atom_site_fract_x
_atom_site_fract_y
_atom_site_fract_z
Si Si1 0.494546 0.314764 0.828570
Si Si2 0.636146 0.314120 0.596002
Si Si3 0.925860 0.682681 0.872866
Si Si4 0.072832 0.184406 0.281390
Si Si5 0.761540 0.184604 0.180700
Si Si6 0.235300 0.689040 0.976611
Si Si7 0.369837 0.817411 0.250813
O O1 0.504478 0.500000 0.821366
O O2 0.351981 0.272717 0.815245
O O3 0.513802 0.230670 0.761732
O O4 0.627932 0.267254 0.927271
O O5 0.500000 0.265924 0.500000
O O6 0.654377 0.500000 0.596069
O O7 0.780751 0.229408 0.627189
O O8 0.614556 0.271905 0.669691
O O9 0.907181 0.500000 0.882558
O O10 0.931446 0.711431 0.790745
O O11 0.783618 0.771862 0.839283
O O12 0.083896 0.733070 0.954366
O O13 0.924764 0.212494 0.264111
O O14 0.075416 0.000000 0.262645
O O15 0.752083 0.238102 0.095993
O O16 0.733694 0.000000 0.173960
O O17 0.231982 0.500000 0.968384
O O18 0.372135 0.000000 0.266234
#
# Coordination Sequence:
#
# PCOD9148599 Si02
#       7
#     4   4   4   4   4   4   4
#     4  11  22  35  50  69  99 139 179 215 253 297
#     4  10  20  35  58  85 107 127 157 198 244 299
#     4   9  16  30  50  70  97 131 169 211 252 296
#     4   9  17  30  50  76 104 132 163 201 247 296
#     4  10  20  33  50  74 103 135 174 216 253 291
#     4   9  19  33  50  72  97 133 179 220 255 293
#     4  11  22  35  51  74 104 134 166 204 254 308
#
# _framework density 18.125060000000001
#
# number of rings (size 3 to 8) (size 9 to 14) (size 15 to 20)
#    0.000    2.143    0.000    5.571    0.000    6.857 
#    0.000    2.857    0.000    0.857    0.000    6.000 
#    0.000    0.000    0.000    0.000    0.000    0.000 
#
# Total GULP energy -156238.375257 kJ/mol
# GULP energy per Si atom -5579.941973 kJ/mol
# Density = 1.808381 g / cm^3
# Si number density = 18.125060 Si / 1000 Ang^3
#
#
#
# Elastic Constant Matrix: (Units=GPa)
#
#
# Indices 1 2 3 4 5 6 
#
# 1 82.2101 2.0786 25.9916 0.0000 10.0080 0.0000
# 2 2.0786 24.4708 9.5720 0.0000 5.3145 0.0000
# 3 25.9916 9.5720 86.0501 0.0000 21.3600 0.0000
# 4 0.0000 0.0000 0.0000 7.8844 0.0000 7.5833
# 5 10.0080 5.3145 21.3600 0.0000 19.9787 0.0000
# 6 0.0000 0.0000 0.0000 7.5833 0.0000 33.7647
#
#
#
# Elastic Compliance Matrix: (Units=1/GPa)
#
#
# Indices 1 2 3 4 5 6 
#
# 1 0.013625 0.000910 -0.003352 0.000000 -0.003484 0.000000
# 2 0.000910 0.043886 -0.002921 0.000000 -0.009007 0.000000
# 3 -0.003352 -0.002921 0.016810 0.000000 -0.015516 0.000000
# 4 0.000000 0.000000 0.000000 0.161780 0.000000 -0.036335
# 5 -0.003484 -0.009007 -0.015516 0.000000 0.070783 0.000000
# 6 0.000000 0.000000 0.000000 -0.036335 0.000000 0.037777
#
#
# Mechanical properties :
#
#
# Convention : Reuss Voigt Hill
#
# Bulk Modulus (GPa) = 15.72421 29.77950 22.75186
# Shear Modulus (GPa) = 13.27722 22.66482 17.97102
#
# Velocity S-wave (km/s) = 2.70947 3.54003 3.15223
# Velocity P-wave (km/s) = 4.29913 5.75976 5.08219
#
# Compressibility (1/GPa) = 0.06359619
#
# Stress axis : x y z
#
# Youngs Moduli (GPa) = 73.39568 22.78609 59.48828
#
# Poissons Ratio (x) = -0.02074 0.19940
# Poissons Ratio (y) = -0.06682 0.17376
# Poissons Ratio (z) = 0.24602 0.06656
#
# Static dielectric constant tensor:
#      x y z
#    x 1.632140 0.000000 0.027040 
#    y 0.000000 1.612800 0.000000 
#    z 0.027040 0.000000 1.633620 
# 
# From -- ./inp_files/83409.got.cif
#   From: 2010.05.17/outbox.cif.g08.bks.cpg/sg10_42_cif.got.tgz:83409.got - 2010.06.03 11:33:40.
