data_PCOD9148250
_publ_section_title
;
Structure prediction by ZEFSAII (Michael W. Deem and Ramdas Pophale) SiO2 
 PCOD9148250
Probable space group: P 2/M
;
_chemical_formula_sum "Si O2"
_cell_formula_units_Z 24
_cell_length_a 14.031064
_cell_length_b 13.240805
_cell_length_c 19.490466
_cell_angle_alpha 90.000000
_cell_angle_beta 21.037202
_cell_angle_gamma 90.000000
_cell_volume 1299.841107
_symmetry_space_group_name_H-M "P 2/M"
_symmetry_group_IT_number 10
_symmetry_cell_setting 'monoclinic'
loop_
_space_group_symop_operation_xyz
x,y,z
-x,y,-z
-x,-y,-z
x,-y,z
loop_
_atom_site_type_symbol
_atom_site_label
_atom_site_fract_x
_atom_site_fract_y
_atom_site_fract_z
Si Si1 0.810197 0.617914 0.913279
Si Si2 0.074258 0.378419 0.873985
Si Si3 0.779010 0.779989 0.549281
Si Si4 0.234647 0.000000 0.439751
Si Si5 0.391090 0.000000 0.180005
Si Si6 0.617969 0.779520 0.818640
Si Si7 0.363560 0.615955 0.460837
O O1 0.724603 0.500000 0.973887
O O2 0.892678 0.657353 0.933673
O O3 0.083775 0.621196 0.687268
O O4 0.586752 0.689720 0.032200
O O5 0.042366 0.500000 0.893962
O O6 0.388409 0.358972 0.656705
O O7 0.000000 0.342545 0.000000
O O8 0.689618 0.780035 0.688933
O O9 0.646108 0.691428 0.596099
O O10 0.098384 0.765996 0.335274
O O11 0.715361 0.890970 0.561127
O O12 0.391249 0.000000 0.262469
O O13 0.920949 0.000000 0.631085
O O14 0.497319 0.109088 0.085902
O O15 0.404655 0.500000 0.409864
#
# Coordination Sequence:
#
# PCOD9148250 Si02
#       7
#     4   4   4   2   2   4   4
#     4  10  20  32  46  67  97 128 154 185 230 279
#     4   9  17  31  51  70  87 114 157 199 229 267
#     4   9  17  30  49  71  94 122 157 194 230 271
#     4   7  12  26  47  68  89 116 153 195 233 267
#     4   7  12  26  47  68  89 116 153 195 233 267
#     4   9  17  30  49  71  94 122 157 194 230 271
#     4  10  20  32  46  67  97 128 154 185 230 279
#
# _framework density 18.463794
#
# number of rings (size 3 to 8) (size 9 to 14) (size 15 to 20)
#    0.000    3.000    0.000    3.500    0.000    5.333 
#    0.000    4.167    0.000    4.000    0.000    7.000 
#    0.000    0.000    0.000    0.000    0.000    0.000 
#
# Total GULP energy -133709.260697 kJ/mol
# GULP energy per Si atom -5571.219196 kJ/mol
# Density = 1.842177 g / cm^3
# Si number density = 18.463794 Si / 1000 Ang^3
#
#
#
# Elastic Constant Matrix: (Units=GPa)
#
#
# Indices 1 2 3 4 5 6 
#
# 1 43.4805 24.8362 1.1131 0.0000 3.1481 0.0000
# 2 24.8362 98.6293 33.7384 0.0000 -9.5656 0.0000
# 3 1.1131 33.7384 59.6069 0.0000 -10.0902 0.0000
# 4 0.0000 0.0000 0.0000 -22.0709 0.0000 -9.5245
# 5 3.1481 -9.5656 -10.0902 0.0000 18.3109 0.0000
# 6 0.0000 0.0000 0.0000 -9.5245 0.0000 0.4231
#
#
#
# Elastic Compliance Matrix: (Units=1/GPa)
#
#
# Indices 1 2 3 4 5 6 
#
# 1 0.028691 -0.009114 0.003289 0.000000 -0.007882 0.000000
# 2 -0.009114 0.015612 -0.007743 0.000000 0.005456 0.000000
# 3 0.003289 -0.007743 0.022407 0.000000 0.007737 0.000000
# 4 0.000000 0.000000 0.000000 -0.004229 0.000000 -0.095193
# 5 -0.007882 0.005456 0.007737 0.000000 0.063081 0.000000
# 6 0.000000 0.000000 0.000000 -0.095193 0.000000 0.220589
#
#
# Mechanical properties :
#
#
# Convention : Reuss Voigt Hill
#
# Bulk Modulus (GPa) = 25.26896 35.67689 30.47293
# Shear Modulus (GPa) = 12.93728 8.80122 10.86925
#
# Velocity S-wave (km/s) = 2.64991 2.18566 2.42890
# Velocity P-wave (km/s) = 4.80397 5.07287 4.94025
#
# Compressibility (1/GPa) = 0.03957424
#
# Stress axis : x y z
#
# Youngs Moduli (GPa) = 34.85362 64.05404 44.62803
#
# Poissons Ratio (x) = 0.58381 -0.14678
# Poissons Ratio (y) = 0.31767 0.34554
# Poissons Ratio (z) = -0.11463 0.49595
#
# Static dielectric constant tensor:
#      x y z
#    x 1.632580 0.000000 0.039840 
#    y 0.000000 1.654640 0.000000 
#    z 0.039840 0.000000 1.669610 
# 
# From -- ./inp_files/32109.got.cif
#   From: 2010.05.17/outbox.cif.g08.bks.cpg/sg10_17_cif.got.tgz:32109.got - 2010.06.03 11:33:40.
