data_PCOD9148291
_publ_section_title
;
Structure prediction by ZEFSAII (Michael W. Deem and Ramdas Pophale) SiO2 
 PCOD9148291
Probable space group: P 2/M
;
_chemical_formula_sum "Si O2"
_cell_formula_units_Z 28
_cell_length_a 9.393362
_cell_length_b 7.459595
_cell_length_c 30.120257
_cell_angle_alpha 90.000000
_cell_angle_beta 38.762953
_cell_angle_gamma 90.000000
_cell_volume 1321.412844
_symmetry_space_group_name_H-M "P 2/M"
_symmetry_group_IT_number 10
_symmetry_cell_setting 'monoclinic'
loop_
_space_group_symop_operation_xyz
x,y,z
-x,y,-z
-x,-y,-z
x,-y,z
loop_
_atom_site_type_symbol
_atom_site_label
_atom_site_fract_x
_atom_site_fract_y
_atom_site_fract_z
Si Si1 0.052058 0.280351 0.845136
Si Si2 0.112401 0.714876 0.290924
Si Si3 0.256394 0.213961 0.433239
Si Si4 0.673415 0.291506 0.999910
Si Si5 0.580835 0.214652 0.432481
Si Si6 0.567082 0.715473 0.708306
Si Si7 0.721202 0.280266 0.845273
O O1 0.049199 0.500000 0.846869
O O2 0.311226 0.220217 0.779804
O O3 0.907116 0.217194 0.923099
O O4 0.913045 0.228764 0.834637
O O5 0.137576 0.500000 0.284110
O O6 0.253879 0.782919 0.298751
O O7 0.212067 0.780565 0.219869
O O8 0.845880 0.751664 0.360056
O O9 0.425284 0.284742 0.430132
O O10 0.354015 0.243797 0.360574
O O11 0.000000 0.285348 0.500000
O O12 0.243194 0.000000 0.442875
O O13 0.717589 0.500000 0.999883
O O14 0.500000 0.287916 0.000000
O O15 0.523514 0.217281 0.076677
O O16 0.500000 0.284293 0.500000
O O17 0.552078 0.000000 0.440441
O O18 0.560051 0.500000 0.713618
O O19 0.715690 0.500000 0.846926
#
# Coordination Sequence:
#
# PCOD9148291 Si02
#       7
#     4   4   4   4   4   4   4
#     4   8  13  23  40  62  90 124 160 197 235 275
#     4  10  20  32  47  71 102 132 161 194 234 280
#     4  10  21  37  56  75  94 120 156 196 238 285
#     4   7  10  18  35  59  86 119 158 195 232 274
#     4  10  21  37  56  75  94 120 156 196 238 285
#     4  10  20  32  47  71 102 132 161 194 234 280
#     4   8  13  23  40  62  90 124 160 197 235 275
#
# _framework density 21.189442
#
# number of rings (size 3 to 8) (size 9 to 14) (size 15 to 20)
#    0.000    3.000    0.000    3.429    0.000    4.000 
#    0.000    0.714    0.000    4.286    0.000    1.000 
#    0.000    8.000    0.000    0.000    0.000    0.000 
#
# Total GULP energy -156239.443543 kJ/mol
# GULP energy per Si atom -5579.980127 kJ/mol
# Density = 2.114121 g / cm^3
# Si number density = 21.189442 Si / 1000 Ang^3
#
#
#
# Elastic Constant Matrix: (Units=GPa)
#
#
# Indices 1 2 3 4 5 6 
#
# 1 166.3891 -0.4789 114.0434 0.0000 6.5818 0.0000
# 2 -0.4789 57.6385 -12.0434 0.0000 3.9705 0.0000
# 3 114.0434 -12.0434 210.9594 0.0000 11.6400 0.0000
# 4 0.0000 0.0000 0.0000 40.9601 0.0000 0.4339
# 5 6.5818 3.9705 11.6400 0.0000 34.6846 0.0000
# 6 0.0000 0.0000 0.0000 0.4339 0.0000 7.1391
#
#
#
# Elastic Compliance Matrix: (Units=1/GPa)
#
#
# Indices 1 2 3 4 5 6 
#
# 1 0.009606 -0.001022 -0.005255 0.000000 0.000058 0.000000
# 2 -0.001022 0.017864 0.001706 0.000000 -0.002424 0.000000
# 3 -0.005255 0.001706 0.007778 0.000000 -0.001808 0.000000
# 4 0.000000 0.000000 0.000000 0.024430 0.000000 -0.001485
# 5 0.000058 -0.002424 -0.001808 0.000000 0.029705 0.000000
# 6 0.000000 0.000000 0.000000 -0.001485 0.000000 0.140165
#
#
# Mechanical properties :
#
#
# Convention : Reuss Voigt Hill
#
# Bulk Modulus (GPa) = 38.30295 70.89212 54.59753
# Shear Modulus (GPa) = 20.21086 38.78782 29.49934
#
# Velocity S-wave (km/s) = 3.09174 4.28311 3.73523
# Velocity P-wave (km/s) = 5.55525 7.61505 6.66520
#
# Compressibility (1/GPa) = 0.02610765
#
# Stress axis : x y z
#
# Youngs Moduli (GPa) = 104.09788 55.97701 128.56661
#
# Poissons Ratio (x) = 0.05721 0.67557
# Poissons Ratio (y) = 0.10640 -0.21935
# Poissons Ratio (z) = 0.54700 -0.09550
#
# Static dielectric constant tensor:
#      x y z
#    x 1.736790 0.000000 -0.000200 
#    y 0.000000 1.833600 0.000000 
#    z -0.000200 0.000000 1.749730 
# 
# From -- ./inp_files/94492.got.cif
#   From: 2010.05.17/outbox.cif.g08.bks.cpg/sg10_48_cif.got.tgz:94492.got - 2010.06.03 11:33:40.
