data_PCOD9148205
_publ_section_title
;
Structure prediction by ZEFSAII (Michael W. Deem and Ramdas Pophale) SiO2 
 PCOD9148205
Probable space group: P 2/M
;
_chemical_formula_sum "Si O2"
_cell_formula_units_Z 32
_cell_length_a 24.415001
_cell_length_b 7.468034
_cell_length_c 15.854667
_cell_angle_alpha 90.000000
_cell_angle_beta 152.142554
_cell_angle_gamma 90.000000
_cell_volume 1350.800241
_symmetry_space_group_name_H-M "P 2/M"
_symmetry_group_IT_number 10
_symmetry_cell_setting 'monoclinic'
loop_
_space_group_symop_operation_xyz
x,y,z
-x,y,-z
-x,-y,-z
x,-y,z
loop_
_atom_site_type_symbol
_atom_site_label
_atom_site_fract_x
_atom_site_fract_y
_atom_site_fract_z
Si Si1 0.714267 0.292713 0.893092
Si Si2 0.134895 0.782969 0.190463
Si Si3 0.168481 0.281338 0.672283
Si Si4 0.929245 0.718592 0.278780
Si Si5 0.482038 0.200833 0.252078
Si Si6 0.651192 0.293155 0.630400
Si Si7 0.626313 0.708453 0.153811
Si Si8 0.689855 0.783003 0.423297
O O1 0.731551 0.500000 0.893958
O O2 0.633733 0.287748 0.866766
O O3 0.651030 0.216933 0.724535
O O4 0.841539 0.215739 0.087609
O O5 0.216596 0.717007 0.225264
O O6 0.204834 0.727854 0.370923
O O7 0.136042 0.000000 0.189907
O O8 0.000000 0.724572 0.000000
O O9 0.170999 0.500000 0.675646
O O10 0.128290 0.227882 0.710319
O O11 0.293340 0.215311 0.810633
O O12 0.064058 0.226377 0.466625
O O13 0.927901 0.500000 0.274719
O O14 0.571226 0.197123 0.453014
O O15 0.564655 0.281491 0.291820
O O16 0.450419 0.000000 0.184698
O O17 0.609693 0.500000 0.573299
O O18 0.607110 0.500000 0.106573
O O19 0.697641 0.719999 0.338373
O O20 0.500000 0.791834 0.000000
O O21 0.686224 0.000000 0.419545
#
# Coordination Sequence:
#
# PCOD9148205 Si02
#       8
#     4   4   4   4   4   4   4   4
#     4  10  20  31  50  79 104 130 170 219 266 311
#     4   9  19  37  58  77 103 143 186 221 260 320
#     4   8  15  30  49  72 103 135 170 207 252 313
#     4   8  15  29  50  72  99 138 171 204 254 309
#     4  10  21  36  53  72 101 141 179 211 256 320
#     4  10  20  33  49  77 110 136 171 217 267 315
#     4  10  21  33  52  83 110 134 174 224 269 315
#     4   9  20  37  53  74 103 138 178 214 262 320
#
# _framework density 23.689662999999999
#
# number of rings (size 3 to 8) (size 9 to 14) (size 15 to 20)
#    0.000    2.750    0.000    2.625    1.750    6.500 
#    0.000    1.250    0.000    0.750    0.000    1.750 
#    0.000    0.000    0.000    0.000    0.000    0.000 
#
# Total GULP energy -178703.480440 kJ/mol
# GULP energy per Si atom -5584.483764 kJ/mol
# Density = 2.363574 g / cm^3
# Si number density = 23.689663 Si / 1000 Ang^3
#
#
#
# Elastic Constant Matrix: (Units=GPa)
#
#
# Indices 1 2 3 4 5 6 
#
# 1 68.9288 -2.3014 11.0380 0.0000 19.3546 0.0000
# 2 -2.3014 75.5392 2.4407 0.0000 0.4237 0.0000
# 3 11.0380 2.4407 76.7727 0.0000 15.7142 0.0000
# 4 0.0000 0.0000 0.0000 3.8026 0.0000 2.8527
# 5 19.3546 0.4237 15.7142 0.0000 36.2607 0.0000
# 6 0.0000 0.0000 0.0000 2.8527 0.0000 17.2525
#
#
#
# Elastic Compliance Matrix: (Units=1/GPa)
#
#
# Indices 1 2 3 4 5 6 
#
# 1 0.017121 0.000593 -0.000668 0.000000 -0.008856 0.000000
# 2 0.000593 0.013272 -0.000451 0.000000 -0.000276 0.000000
# 3 -0.000668 -0.000451 0.014333 0.000000 -0.005850 0.000000
# 4 0.000000 0.000000 0.000000 0.300219 0.000000 -0.049640
# 5 -0.008856 -0.000276 -0.005850 0.000000 0.034843 0.000000
# 6 0.000000 0.000000 0.000000 -0.049640 0.000000 0.066171
#
#
# Mechanical properties :
#
#
# Convention : Reuss Voigt Hill
#
# Bulk Modulus (GPa) = 22.89604 27.06615 24.98110
# Shear Modulus (GPa) = 10.83262 25.46738 18.15000
#
# Velocity S-wave (km/s) = 2.14071 3.28234 2.77096
# Velocity P-wave (km/s) = 3.97444 5.08086 4.56132
#
# Compressibility (1/GPa) = 0.04367567
#
# Stress axis : x y z
#
# Youngs Moduli (GPa) = 58.40713 75.34468 69.76824
#
# Poissons Ratio (x) = -0.04467 0.04659
# Poissons Ratio (y) = -0.03463 0.03144
# Poissons Ratio (z) = 0.03900 0.03395
#
# Static dielectric constant tensor:
#      x y z
#    x 1.900000 0.000000 0.004670 
#    y 0.000000 1.870450 0.000000 
#    z 0.004670 0.000000 1.929790 
# 
# From -- ./inp_files/71668.got.cif
#   From: 2010.05.17/outbox.cif.g08.bks.cpg/sg10_36_cif.got.tgz:71668.got - 2010.06.03 11:33:40.
