data_PCOD9148994
_publ_section_title
;
Structure prediction by ZEFSAII (Michael W. Deem and Ramdas Pophale) SiO2 
 PCOD9148994
Probable space group: P 2/M
;
_chemical_formula_sum "Si O2"
_cell_formula_units_Z 12
_cell_length_a 10.744060
_cell_length_b 9.213905
_cell_length_c 7.597220
_cell_angle_alpha 90.000000
_cell_angle_beta 135.000187
_cell_angle_gamma 90.000000
_cell_volume 531.802583
_symmetry_space_group_name_H-M "P 2/M"
_symmetry_group_IT_number 10
_symmetry_cell_setting 'monoclinic'
loop_
_space_group_symop_operation_xyz
x,y,z
-x,y,-z
-x,-y,-z
x,-y,z
loop_
_atom_site_type_symbol
_atom_site_label
_atom_site_fract_x
_atom_site_fract_y
_atom_site_fract_z
Si Si1 0.608381 0.000000 0.333290
Si Si2 0.500000 0.250000 0.000000
Si Si3 0.775093 0.000000 0.883474
Si Si4 0.000000 0.750000 0.000000
Si Si5 0.108382 0.500000 0.333289
Si Si6 0.275092 0.500000 0.883473
O O1 0.628782 0.856574 0.236141
O O2 0.718924 0.000000 0.621060
O O3 0.402135 0.000000 0.183212
O O4 0.392642 0.356573 0.021423
O O5 0.892643 0.143426 0.021425
O O6 0.128782 0.643426 0.236140
O O7 0.218925 0.500000 0.621059
O O8 0.902136 0.500000 0.183212
#
# Coordination Sequence:
#
# PCOD9148994 Si02
#       6
#     2   2   2   2   2   2
#     4  10  20  34  52  74 100 130 164 202 244 290
#     4  10  20  34  52  74 100 130 164 202 244 290
#     4  10  20  34  52  74 100 130 164 202 244 290
#     4  10  20  34  52  74 100 130 164 202 244 290
#     4  10  20  34  52  74 100 130 164 202 244 290
#     4  10  20  34  52  74 100 130 164 202 244 290
#
# _framework density 22.564765999999999
#
# number of rings (size 3 to 8) (size 9 to 14) (size 15 to 20)
#    0.000    2.000    0.000    4.000    0.000    0.000 
#    0.000    0.000    0.000   32.000    0.000    0.000 
#    0.000    0.000    0.000    0.000    0.000    0.000 
#
# Total GULP energy -67075.608064 kJ/mol
# GULP energy per Si atom -5589.634005 kJ/mol
# Density = 2.251341 g / cm^3
# Si number density = 22.564766 Si / 1000 Ang^3
#
#
#
# Elastic Constant Matrix: (Units=GPa)
#
#
# Indices 1 2 3 4 5 6 
#
# 1 41.9755 10.9883 -13.4053 0.0000 11.6920 0.0000
# 2 10.9883 155.0747 10.9883 0.0000 0.0003 0.0000
# 3 -13.4053 10.9883 41.9730 0.0000 -11.6913 0.0000
# 4 0.0000 0.0000 0.0000 16.3179 0.0000 0.0008
# 5 11.6920 0.0003 -11.6913 0.0000 39.1061 0.0000
# 6 0.0000 0.0000 0.0000 0.0008 0.0000 16.3176
#
#
#
# Elastic Compliance Matrix: (Units=1/GPa)
#
#
# Indices 1 2 3 4 5 6 
#
# 1 0.028843 -0.002623 0.008177 0.000000 -0.006179 0.000000
# 2 -0.002623 0.006820 -0.002623 0.000000 0.000000 0.000000
# 3 0.008177 -0.002623 0.028844 0.000000 0.006179 0.000000
# 4 0.000000 0.000000 0.000000 0.061282 0.000000 -0.000003
# 5 -0.006179 0.000000 0.006179 0.000000 0.029266 0.000000
# 6 0.000000 0.000000 0.000000 -0.000003 0.000000 0.061283
#
#
# Mechanical properties :
#
#
# Convention : Reuss Voigt Hill
#
# Bulk Modulus (GPa) = 14.21074 28.46286 21.33680
# Shear Modulus (GPa) = 21.37361 29.71178 25.54270
#
# Velocity S-wave (km/s) = 3.08102 3.63262 3.36813
# Velocity P-wave (km/s) = 4.35527 5.49871 4.96005
#
# Compressibility (1/GPa) = 0.07036930
#
# Stress axis : x y z
#
# Youngs Moduli (GPa) = 34.67086 146.62192 34.66884
#
# Poissons Ratio (x) = 0.38461 -0.28350
# Poissons Ratio (y) = 0.09095 0.09095
# Poissons Ratio (z) = -0.28352 0.38463
#
# Static dielectric constant tensor:
#      x y z
#    x 1.800540 0.000000 0.000000 
#    y 0.000000 1.839230 0.000000 
#    z 0.000000 0.000000 1.800540 
# 
# From -- ./inp_files/2820.got.cif
#   From: 2010.05.17/outbox.cif.g08.bks.cpg/sg10_2_cif.got.tgz:2820.got - 2010.06.03 11:33:40.
