data_PCOD9148449
_publ_section_title
;
Structure prediction by ZEFSAII (Michael W. Deem and Ramdas Pophale) SiO2 
 PCOD9148449
Probable space group: P 2/M
;
_chemical_formula_sum "Si O2"
_cell_formula_units_Z 24
_cell_length_a 15.817631
_cell_length_b 11.159931
_cell_length_c 20.862112
_cell_angle_alpha 90.000000
_cell_angle_beta 163.350266
_cell_angle_gamma 90.000000
_cell_volume 1055.155151
_symmetry_space_group_name_H-M "P 2/M"
_symmetry_group_IT_number 10
_symmetry_cell_setting 'monoclinic'
loop_
_space_group_symop_operation_xyz
x,y,z
-x,y,-z
-x,-y,-z
x,-y,z
loop_
_atom_site_type_symbol
_atom_site_label
_atom_site_fract_x
_atom_site_fract_y
_atom_site_fract_z
Si Si1 0.289645 0.268004 0.784746
Si Si2 0.094075 0.000000 0.140841
Si Si3 0.429473 0.000000 0.698178
Si Si4 0.933105 0.000000 0.702009
Si Si5 0.406607 0.000000 0.859217
Si Si6 0.688858 0.641861 0.809232
Si Si7 0.622954 0.730170 0.294476
Si Si8 0.566007 0.210633 0.483734
O O1 0.424599 0.308845 0.814187
O O2 0.956870 0.315080 0.553734
O O3 0.500000 0.283071 0.000000
O O4 0.249007 0.126284 0.739487
O O5 0.298138 0.115447 0.296577
O O6 0.000000 0.000000 0.000000
O O7 0.781724 0.000000 0.947095
O O8 0.249067 0.000000 0.498587
O O9 0.367606 0.874000 0.687529
O O10 0.836801 0.879564 0.668797
O O11 0.280230 0.000000 0.947737
O O12 0.500000 0.000000 0.000000
O O13 0.657044 0.500000 0.783876
O O14 0.622408 0.684245 0.833343
O O15 0.457077 0.710093 0.595902
O O16 0.000000 0.671951 0.000000
O O17 0.500000 0.286333 0.500000
#
# Coordination Sequence:
#
# PCOD9148449 Si02
#       8
#     4   2   2   2   2   4   4   4
#     4  10  22  39  62  95 133 171 215 258 314 382
#     4  11  18  34  55  88 131 171 207 247 308 382
#     4  12  18  30  60  89 128 166 207 249 319 386
#     4  11  20  33  56  93 132 170 200 254 312 377
#     4  10  20  32  53  93 136 166 197 245 312 380
#     4  11  25  46  68  91 122 165 217 272 331 391
#     4  11  22  40  66  95 129 174 214 261 322 387
#     4  11  23  37  58  90 130 167 212 257 313 385
#
# _framework density 22.745470999999998
#
# number of rings (size 3 to 8) (size 9 to 14) (size 15 to 20)
#    0.000    1.167    3.333    5.500    0.000    5.667 
#    0.000    1.667    0.000    1.000    0.000    0.000 
#    0.000    0.000    0.000    0.000    0.000    0.000 
#
# Total GULP energy -133925.141580 kJ/mol
# GULP energy per Si atom -5580.214233 kJ/mol
# Density = 2.269370 g / cm^3
# Si number density = 22.745471 Si / 1000 Ang^3
#
#
#
# Elastic Constant Matrix: (Units=GPa)
#
#
# Indices 1 2 3 4 5 6 
#
# 1 190.6621 22.4473 52.2582 0.0000 7.7078 0.0000
# 2 22.4473 52.2569 12.6876 0.0000 8.3666 0.0000
# 3 52.2582 12.6876 109.1742 0.0000 23.8839 0.0000
# 4 0.0000 0.0000 0.0000 -6.0751 0.0000 9.4072
# 5 7.7078 8.3666 23.8839 0.0000 49.2302 0.0000
# 6 0.0000 0.0000 0.0000 9.4072 0.0000 2.8670
#
#
#
# Elastic Compliance Matrix: (Units=1/GPa)
#
#
# Indices 1 2 3 4 5 6 
#
# 1 0.006263 -0.002107 -0.002928 0.000000 0.000798 0.000000
# 2 -0.002107 0.020680 -0.000781 0.000000 -0.002806 0.000000
# 3 -0.002928 -0.000781 0.011772 0.000000 -0.005120 0.000000
# 4 0.000000 0.000000 0.000000 -0.027069 0.000000 0.088820
# 5 0.000798 -0.002806 -0.005120 0.000000 0.023149 0.000000
# 6 0.000000 0.000000 0.000000 0.088820 0.000000 0.057359
#
#
# Mechanical properties :
#
#
# Convention : Reuss Voigt Hill
#
# Bulk Modulus (GPa) = 36.92245 58.54215 47.73230
# Shear Modulus (GPa) = 44.32115 26.85110 35.58613
#
# Velocity S-wave (km/s) = 4.41905 3.43957 3.95971
# Velocity P-wave (km/s) = 6.50427 6.44733 6.47586
#
# Compressibility (1/GPa) = 0.02708379
#
# Stress axis : x y z
#
# Youngs Moduli (GPa) = 159.66406 48.35534 84.94831
#
# Poissons Ratio (x) = 0.10190 0.24870
# Poissons Ratio (y) = 0.33646 0.06633
# Poissons Ratio (z) = 0.46743 0.03776
#
# Static dielectric constant tensor:
#      x y z
#    x 1.997280 0.000000 -0.159850 
#    y 0.000000 1.826630 0.000000 
#    z -0.159850 0.000000 2.132950 
# 
# From -- ./inp_files/85256.got.cif
#   From: 2010.05.17/outbox.cif.g08.bks.cpg/sg10_43_cif.got.tgz:85256.got - 2010.06.03 11:33:40.
