data_PCOD9148733
_publ_section_title
;
Structure prediction by ZEFSAII (Michael W. Deem and Ramdas Pophale) SiO2 
 PCOD9148733
Probable space group: P 2/M
;
_chemical_formula_sum "Si O2"
_cell_formula_units_Z 28
_cell_length_a 30.783872
_cell_length_b 7.637919
_cell_length_c 9.734053
_cell_angle_alpha 90.000000
_cell_angle_beta 144.173208
_cell_angle_gamma 90.000000
_cell_volume 1339.670152
_symmetry_space_group_name_H-M "P 2/M"
_symmetry_group_IT_number 10
_symmetry_cell_setting 'monoclinic'
loop_
_space_group_symop_operation_xyz
x,y,z
-x,y,-z
-x,-y,-z
x,-y,z
loop_
_atom_site_type_symbol
_atom_site_label
_atom_site_fract_x
_atom_site_fract_y
_atom_site_fract_z
Si Si1 0.011521 0.202711 0.379746
Si Si2 0.872430 0.705531 0.847683
Si Si3 0.697939 0.793125 0.083281
Si Si4 0.427455 0.285755 0.727542
Si Si5 0.439433 0.297267 0.448140
Si Si6 0.132527 0.787237 0.478117
Si Si7 0.296274 0.711661 0.587562
O O1 0.000000 0.283724 0.500000
O O2 0.075819 0.278326 0.447689
O O3 0.033535 0.000000 0.458246
O O4 0.934786 0.207901 0.100138
O O5 0.872836 0.500000 0.881548
O O6 0.890329 0.728911 0.732731
O O7 0.788315 0.773890 0.651117
O O8 0.782542 0.730008 0.280362
O O9 0.679327 0.762260 0.195892
O O10 0.696355 0.000000 0.053105
O O11 0.638652 0.708592 0.830538
O O12 0.424671 0.500000 0.718447
O O13 0.432966 0.222803 0.584786
O O14 0.354196 0.227603 0.621675
O O15 0.500000 0.235992 0.000000
O O16 0.500000 0.216311 0.500000
O O17 0.462318 0.500000 0.527260
O O18 0.131840 0.000000 0.474354
O O19 0.294305 0.500000 0.579991
#
# Coordination Sequence:
#
# PCOD9148733 Si02
#       7
#     4   4   4   4   4   4   4
#     4  10  21  36  53  73 100 136 174 209 249 301
#     4  10  20  33  52  78 104 131 166 210 257 301
#     4  10  20  34  53  77 104 133 167 208 252 298
#     4   9  17  31  53  77  99 129 170 209 244 291
#     4  10  20  34  54  78 103 134 170 207 250 300
#     4   9  19  36  55  74  99 134 172 207 247 300
#     4   9  18  34  54  76 103 133 167 208 253 302
#
# _framework density 20.900669000000001
#
# number of rings (size 3 to 8) (size 9 to 14) (size 15 to 20)
#    0.000    2.429    0.000    2.143    0.000    7.429 
#    0.000    0.714    0.000    1.714    0.000    0.000 
#    0.000    0.000    0.000    0.000    0.000    0.000 
#
# Total GULP energy -156352.449290 kJ/mol
# GULP energy per Si atom -5584.016046 kJ/mol
# Density = 2.085310 g / cm^3
# Si number density = 20.900669 Si / 1000 Ang^3
#
#
#
# Elastic Constant Matrix: (Units=GPa)
#
#
# Indices 1 2 3 4 5 6 
#
# 1 212.4727 0.3713 89.1038 0.0000 -8.2501 0.0000
# 2 0.3713 42.1466 -13.5290 0.0000 2.3297 0.0000
# 3 89.1038 -13.5290 114.5380 0.0000 -15.3766 0.0000
# 4 0.0000 0.0000 0.0000 19.4354 0.0000 1.8379
# 5 -8.2501 2.3297 -15.3766 0.0000 18.2590 0.0000
# 6 0.0000 0.0000 0.0000 1.8379 0.0000 10.6396
#
#
#
# Elastic Compliance Matrix: (Units=1/GPa)
#
#
# Indices 1 2 3 4 5 6 
#
# 1 0.007172 -0.001907 -0.006017 0.000000 -0.001583 0.000000
# 2 -0.001907 0.025179 0.004409 0.000000 -0.000361 0.000000
# 3 -0.006017 0.004409 0.015212 0.000000 0.009529 0.000000
# 4 0.000000 0.000000 0.000000 0.052307 0.000000 -0.009035
# 5 -0.001583 -0.000361 0.009529 0.000000 0.062123 0.000000
# 6 0.000000 0.000000 0.000000 -0.009035 0.000000 0.095549
#
#
# Mechanical properties :
#
#
# Convention : Reuss Voigt Hill
#
# Bulk Modulus (GPa) = 24.67163 57.89440 41.28302
# Shear Modulus (GPa) = 17.98030 29.21419 23.59725
#
# Velocity S-wave (km/s) = 2.93622 3.74272 3.36373
# Velocity P-wave (km/s) = 4.82960 6.81449 5.90603
#
# Compressibility (1/GPa) = 0.04053238
#
# Stress axis : x y z
#
# Youngs Moduli (GPa) = 139.43810 39.71597 65.73923
#
# Poissons Ratio (x) = 0.07574 0.39555
# Poissons Ratio (y) = 0.26592 -0.28986
# Poissons Ratio (z) = 0.83899 -0.17512
#
# Static dielectric constant tensor:
#      x y z
#    x 1.756700 0.000000 0.018610 
#    y 0.000000 1.788700 0.000000 
#    z 0.018610 0.000000 1.699150 
# 
# From -- ./inp_files/37032.got.cif
#   From: 2010.05.17/outbox.cif.g08.bks.cpg/sg10_19_cif.got.tgz:37032.got - 2010.06.03 11:33:40.
