data_PCOD9148009
_publ_section_title
;
Structure prediction by ZEFSAII (Michael W. Deem and Ramdas Pophale) SiO2 
 PCOD9148009
Probable space group: P 2/M
;
_chemical_formula_sum "Si O2"
_cell_formula_units_Z 24
_cell_length_a 8.309961
_cell_length_b 16.228973
_cell_length_c 13.977298
_cell_angle_alpha 90.000000
_cell_angle_beta 37.631342
_cell_angle_gamma 90.000000
_cell_volume 1150.945437
_symmetry_space_group_name_H-M "P 2/M"
_symmetry_group_IT_number 10
_symmetry_cell_setting 'monoclinic'
loop_
_space_group_symop_operation_xyz
x,y,z
-x,y,-z
-x,-y,-z
x,-y,z
loop_
_atom_site_type_symbol
_atom_site_label
_atom_site_fract_x
_atom_site_fract_y
_atom_site_fract_z
Si Si1 0.960450 0.727140 0.905371
Si Si2 0.658076 0.404370 0.324922
Si Si3 0.549929 0.175594 0.837581
Si Si4 0.733992 0.718552 0.577215
Si Si5 0.804940 0.000000 0.452525
Si Si6 0.580037 0.000000 0.764960
Si Si7 0.106631 0.171523 0.673839
O O1 0.132545 0.796618 0.769362
O O2 0.061658 0.642812 0.809698
O O3 0.662035 0.756697 0.032367
O O4 0.000000 0.725151 0.000000
O O5 0.500000 0.400151 0.500000
O O6 0.685775 0.500000 0.286859
O O7 0.482268 0.351886 0.333425
O O8 0.657488 0.208194 0.685270
O O9 0.796705 0.168506 0.792049
O O10 0.447742 0.083051 0.867348
O O11 0.000000 0.683581 0.500000
O O12 0.781421 0.760480 0.452174
O O13 0.614415 0.000000 0.634228
O O14 0.111845 0.000000 0.345177
O O15 0.778852 0.917056 0.404239
#
# Coordination Sequence:
#
# PCOD9148009 Si02
#       7
#     4   4   4   4   2   2   4
#     4  12  24  39  60  85 124 164 199 238 302 364
#     4  11  24  44  68  88 113 152 199 248 303 374
#     4  10  20  36  60  93 122 162 200 250 293 347
#     4  10  19  37  66  92 118 153 196 248 300 354
#     4   9  16  31  59  92 118 162 211 256 285 332
#     4   9  16  31  59  90 123 156 212 250 290 343
#     4  10  20  36  62  89 123 162 210 244 287 344
#
# _framework density 20.852423999999999
#
# number of rings (size 3 to 8) (size 9 to 14) (size 15 to 20)
#    0.000    1.667    5.000    0.500    0.000    1.333 
#    0.000    4.167    0.000    4.000    0.000    0.000 
#    0.000    0.000    0.000    0.000    0.000    0.000 
#
# Total GULP energy -133991.112215 kJ/mol
# GULP energy per Si atom -5582.963009 kJ/mol
# Density = 2.080496 g / cm^3
# Si number density = 20.852424 Si / 1000 Ang^3
#
#
#
# Elastic Constant Matrix: (Units=GPa)
#
#
# Indices 1 2 3 4 5 6 
#
# 1 45.5864 33.1200 29.7773 0.0000 1.2740 0.0000
# 2 33.1200 154.9098 37.4989 0.0000 -3.6142 0.0000
# 3 29.7773 37.4989 78.4701 0.0000 6.5673 0.0000
# 4 0.0000 0.0000 0.0000 47.9386 0.0000 -8.0115
# 5 1.2740 -3.6142 6.5673 0.0000 48.3098 0.0000
# 6 0.0000 0.0000 0.0000 -8.0115 0.0000 21.7389
#
#
#
# Elastic Compliance Matrix: (Units=1/GPa)
#
#
# Indices 1 2 3 4 5 6 
#
# 1 0.031565 -0.004343 -0.009919 0.000000 0.000191 0.000000
# 2 -0.004343 0.007949 -0.002235 0.000000 0.001013 0.000000
# 3 -0.009919 -0.002235 0.017770 0.000000 -0.002321 0.000000
# 4 0.000000 0.000000 0.000000 0.022229 0.000000 0.008192
# 5 0.000191 0.001013 -0.002321 0.000000 0.021086 0.000000
# 6 0.000000 0.000000 0.000000 0.008192 0.000000 0.049020
#
#
# Mechanical properties :
#
#
# Convention : Reuss Voigt Hill
#
# Bulk Modulus (GPa) = 41.16927 53.30652 47.23790
# Shear Modulus (GPa) = 26.21787 35.50213 30.86000
#
# Velocity S-wave (km/s) = 3.54970 4.13066 3.85115
# Velocity P-wave (km/s) = 6.04868 6.95479 6.51750
#
# Compressibility (1/GPa) = 0.02428996
#
# Stress axis : x y z
#
# Youngs Moduli (GPa) = 31.68017 125.80747 56.27478
#
# Poissons Ratio (x) = 0.54642 0.55817
# Poissons Ratio (y) = 0.13760 0.12578
# Poissons Ratio (z) = 0.31423 0.28119
#
# Static dielectric constant tensor:
#      x y z
#    x 1.771910 0.000000 -0.030320 
#    y 0.000000 1.712110 0.000000 
#    z -0.030320 0.000000 1.826940 
# 
# From -- ./inp_files/29369.got.cif
#   From: 2010.05.17/outbox.cif.g08.bks.cpg/sg10_15_cif.got.tgz:29369.got - 2010.06.03 11:33:40.
