data_PCOD9148835
_publ_section_title
;
Structure prediction by ZEFSAII (Michael W. Deem and Ramdas Pophale) SiO2 
 PCOD9148835
Probable space group: P 2/M
;
_chemical_formula_sum "Si O2"
_cell_formula_units_Z 28
_cell_length_a 25.432997
_cell_length_b 9.641493
_cell_length_c 5.272736
_cell_angle_alpha 90.000000
_cell_angle_beta 74.565381
_cell_angle_gamma 90.000000
_cell_volume 1246.308353
_symmetry_space_group_name_H-M "P 2/M"
_symmetry_group_IT_number 10
_symmetry_cell_setting 'monoclinic'
loop_
_space_group_symop_operation_xyz
x,y,z
-x,y,-z
-x,-y,-z
x,-y,z
loop_
_atom_site_type_symbol
_atom_site_label
_atom_site_fract_x
_atom_site_fract_y
_atom_site_fract_z
Si Si1 0.297514 0.647145 0.535805
Si Si2 0.968793 0.832490 0.785421
Si Si3 0.132324 0.847849 0.785124
Si Si4 0.600782 0.334943 0.917803
Si Si5 0.187575 0.651412 0.386787
Si Si6 0.564905 0.836138 0.461433
Si Si7 0.754616 0.849513 0.081903
O O1 0.314499 0.500000 0.637819
O O2 0.335273 0.664412 0.242870
O O3 0.234487 0.633614 0.539551
O O4 0.296694 0.780460 0.714455
O O5 0.905609 0.804352 0.931869
O O6 0.000000 0.776809 0.500000
O O7 0.971583 0.000000 0.765493
O O8 0.000000 0.789250 0.000000
O O9 0.194385 0.866658 0.792627
O O10 0.112832 0.000000 0.714699
O O11 0.136107 0.731076 0.568658
O O12 0.584232 0.500000 0.950096
O O13 0.575766 0.249868 0.708689
O O14 0.588442 0.252248 0.192098
O O15 0.174012 0.500000 0.301240
O O16 0.219395 0.746482 0.150864
O O17 0.500000 0.839877 0.500000
O O18 0.582956 0.000000 0.450646
O O19 0.741620 0.000000 0.988478
#
# Coordination Sequence:
#
# PCOD9148835 Si02
#       7
#     4   4   4   4   4   4   4
#     4   9  21  39  56  81 117 155 195 241 296 356
#     4   9  18  31  52  81 110 142 183 236 297 351
#     4   9  19  34  53  79 109 141 186 239 288 342
#     4  11  24  42  68  98 128 167 216 266 315 374
#     4  10  20  35  56  79 111 153 192 232 287 353
#     4  11  25  45  67  95 132 171 212 263 323 379
#     4  10  20  33  54  83 113 146 188 238 289 347
#
# _framework density 22.466351
#
# number of rings (size 3 to 8) (size 9 to 14) (size 15 to 20)
#    0.000    2.143    0.000    2.143    4.000    5.143 
#    0.000    0.000    0.000    0.857    0.000    0.000 
#    0.000    0.000    0.000    0.000    0.000    0.000 
#
# Total GULP energy -156076.688906 kJ/mol
# GULP energy per Si atom -5574.167461 kJ/mol
# Density = 2.241522 g / cm^3
# Si number density = 22.466351 Si / 1000 Ang^3
#
#
#
# Elastic Constant Matrix: (Units=GPa)
#
#
# Indices 1 2 3 4 5 6 
#
# 1 48.3924 11.6868 17.8726 0.0000 -6.4050 0.0000
# 2 11.6868 190.5515 84.8083 0.0000 -6.6780 0.0000
# 3 17.8726 84.8083 130.8828 0.0000 -10.2103 0.0000
# 4 0.0000 0.0000 0.0000 32.0443 0.0000 -10.6812
# 5 -6.4050 -6.6780 -10.2103 0.0000 36.1331 0.0000
# 6 0.0000 0.0000 0.0000 -10.6812 0.0000 22.7648
#
#
#
# Elastic Compliance Matrix: (Units=1/GPa)
#
#
# Indices 1 2 3 4 5 6 
#
# 1 0.022104 -0.000016 -0.002764 0.000000 0.003134 0.000000
# 2 -0.000016 0.007375 -0.004776 0.000000 0.000011 0.000000
# 3 -0.002764 -0.004776 0.011253 0.000000 0.001807 0.000000
# 4 0.000000 0.000000 0.000000 0.036992 0.000000 0.017357
# 5 0.003134 0.000011 0.001807 0.000000 0.028744 0.000000
# 6 0.000000 0.000000 0.000000 0.017357 0.000000 0.052071
#
#
# Mechanical properties :
#
#
# Convention : Reuss Voigt Hill
#
# Bulk Modulus (GPa) = 39.02951 66.50690 52.76821
# Shear Modulus (GPa) = 27.44394 35.21905 31.33149
#
# Velocity S-wave (km/s) = 3.49887 3.96363 3.73848
# Velocity P-wave (km/s) = 5.80801 7.11438 6.49412
#
# Compressibility (1/GPa) = 0.02562164
#
# Stress axis : x y z
#
# Youngs Moduli (GPa) = 45.24125 135.59785 88.86297
#
# Poissons Ratio (x) = 0.00214 0.24558
# Poissons Ratio (y) = 0.00072 0.42438
# Poissons Ratio (z) = 0.12503 0.64757
#
# Static dielectric constant tensor:
#      x y z
#    x 1.913410 0.000000 0.045350 
#    y 0.000000 2.016270 0.000000 
#    z 0.045350 0.000000 1.831310 
# 
# From -- ./inp_files/13583.got.cif
#   From: 2010.05.17/outbox.cif.g08.bks.cpg/sg10_7_cif.got.tgz:13583.got - 2010.06.03 11:33:40.
