data_PCOD9148323
_publ_section_title
;
Structure prediction by ZEFSAII (Michael W. Deem and Ramdas Pophale) SiO2 
 PCOD9148323
Probable space group: P 2/M
;
_chemical_formula_sum "Si O2"
_cell_formula_units_Z 28
_cell_length_a 8.236465
_cell_length_b 7.664668
_cell_length_c 27.175388
_cell_angle_alpha 90.000000
_cell_angle_beta 141.240848
_cell_angle_gamma 90.000000
_cell_volume 1074.032979
_symmetry_space_group_name_H-M "P 2/M"
_symmetry_group_IT_number 10
_symmetry_cell_setting 'monoclinic'
loop_
_space_group_symop_operation_xyz
x,y,z
-x,y,-z
-x,-y,-z
x,-y,z
loop_
_atom_site_type_symbol
_atom_site_label
_atom_site_fract_x
_atom_site_fract_y
_atom_site_fract_z
Si Si1 0.870331 0.288297 0.118331
Si Si2 0.414066 0.204788 0.593554
Si Si3 0.427094 0.289123 0.266847
Si Si4 0.457825 0.299361 0.164097
Si Si5 0.209901 0.296063 0.446912
Si Si6 0.018223 0.798918 0.301958
Si Si7 0.311883 0.286307 0.027579
O O1 0.866786 0.500000 0.117752
O O2 0.598895 0.232748 0.076961
O O3 0.129451 0.234725 0.207467
O O4 0.872915 0.235045 0.061217
O O5 0.387230 0.232368 0.645315
O O6 0.209904 0.274436 0.505637
O O7 0.702701 0.277044 0.648522
O O8 0.420856 0.000000 0.585767
O O9 0.448049 0.500000 0.270578
O O10 0.458068 0.221445 0.218632
O O11 0.370104 0.500000 0.148820
O O12 0.297486 0.224539 0.080385
O O13 0.763516 0.297464 0.222705
O O14 0.500000 0.235549 0.500000
O O15 0.184117 0.500000 0.430342
O O16 0.025588 0.207748 0.363566
O O17 0.000699 0.000000 0.282538
O O18 0.304071 0.500000 0.027811
#
# Coordination Sequence:
#
# PCOD9148323 Si02
#       7
#     4   4   4   4   4   4   4
#     4   8  14  26  46  72 100 130 166 209 255 300
#     4  10  20  34  53  76 102 133 169 208 251 300
#     4  10  20  32  48  73 104 137 172 209 251 300
#     4  10  20  32  48  73 104 137 172 209 251 300
#     4   9  17  31  54  81 104 127 160 206 256 301
#     4  10  20  34  53  76 102 133 169 208 251 300
#     4   8  14  26  46  72 100 130 166 209 255 300
#
# _framework density 26.069965
#
# number of rings (size 3 to 8) (size 9 to 14) (size 15 to 20)
#    0.000    2.714    0.000    3.000    0.000    5.714 
#    0.000    3.571    0.000    5.143    0.000    6.000 
#    0.000    0.000    0.000    0.000    0.000    0.000 
#
# Total GULP energy -156474.807257 kJ/mol
# GULP energy per Si atom -5588.385973 kJ/mol
# Density = 2.601063 g / cm^3
# Si number density = 26.069965 Si / 1000 Ang^3
#
#
#
# Elastic Constant Matrix: (Units=GPa)
#
#
# Indices 1 2 3 4 5 6 
#
# 1 82.0967 -3.1626 40.8388 0.0000 -26.4679 0.0000
# 2 -3.1626 60.8363 1.9127 0.0000 -3.8793 0.0000
# 3 40.8388 1.9127 184.4966 0.0000 -27.0206 0.0000
# 4 0.0000 0.0000 0.0000 32.0123 0.0000 -37.2122
# 5 -26.4679 -3.8793 -27.0206 0.0000 56.4840 0.0000
# 6 0.0000 0.0000 0.0000 -37.2122 0.0000 35.8698
#
#
#
# Elastic Compliance Matrix: (Units=1/GPa)
#
#
# Indices 1 2 3 4 5 6 
#
# 1 0.015467 0.001274 -0.002541 0.000000 0.006120 0.000000
# 2 0.001274 0.016615 -0.000215 0.000000 0.001635 0.000000
# 3 -0.002541 -0.000215 0.006246 0.000000 0.001783 0.000000
# 4 0.000000 0.000000 0.000000 -0.151685 0.000000 -0.157362
# 5 0.006120 0.001635 0.001783 0.000000 0.021537 0.000000
# 6 0.000000 0.000000 0.000000 -0.157362 0.000000 -0.135373
#
#
# Mechanical properties :
#
#
# Convention : Reuss Voigt Hill
#
# Bulk Modulus (GPa) = 28.27659 45.17860 36.72759
# Shear Modulus (GPa) = -23.53571 44.06258 10.26344
#
# Velocity S-wave (km/s) = -3.00791 4.11562 1.98631
# Velocity P-wave (km/s) = 1.09241 6.32075 4.40219
#
# Compressibility (1/GPa) = 0.03536495
#
# Stress axis : x y z
#
# Youngs Moduli (GPa) = 64.65540 60.18724 160.10740
#
# Poissons Ratio (x) = -0.07669 0.40676
# Poissons Ratio (y) = -0.08238 0.03439
# Poissons Ratio (z) = 0.16426 0.01293
#
# Static dielectric constant tensor:
#      x y z
#    x 2.173010 0.000000 -0.019020 
#    y 0.000000 1.951100 0.000000 
#    z -0.019020 0.000000 2.002790 
# 
# From -- ./inp_files/37013.got.cif
#   From: 2010.05.17/outbox.cif.g08.bks.cpg/sg10_19_cif.got.tgz:37013.got - 2010.06.03 11:33:40.
