data_PCOD9148026
_publ_section_title
;
Structure prediction by ZEFSAII (Michael W. Deem and Ramdas Pophale) SiO2 
 PCOD9148026
Probable space group: P 2/M
;
_chemical_formula_sum "Si O2"
_cell_formula_units_Z 32
_cell_length_a 21.996506
_cell_length_b 15.054483
_cell_length_c 18.549927
_cell_angle_alpha 90.000000
_cell_angle_beta 162.326818
_cell_angle_gamma 90.000000
_cell_volume 1864.855123
_symmetry_space_group_name_H-M "P 2/M"
_symmetry_group_IT_number 10
_symmetry_cell_setting 'monoclinic'
loop_
_space_group_symop_operation_xyz
x,y,z
-x,y,-z
-x,-y,-z
x,-y,z
loop_
_atom_site_type_symbol
_atom_site_label
_atom_site_fract_x
_atom_site_fract_y
_atom_site_fract_z
Si Si1 0.940679 0.103548 0.088139
Si Si2 0.187157 0.637805 0.662970
Si Si3 0.293498 0.892349 0.307208
Si Si4 0.479481 0.103572 0.298934
Si Si5 0.459152 0.221684 0.134935
Si Si6 0.800856 0.104295 0.486409
Si Si7 0.569405 0.400923 0.195981
Si Si8 0.011903 0.823677 0.589361
O O1 0.100143 0.138396 0.326499
O O2 0.994632 0.000000 0.138433
O O3 0.886163 0.140764 0.947111
O O4 0.728013 0.105023 0.890564
O O5 0.239719 0.602383 0.642440
O O6 0.000000 0.605144 0.500000
O O7 0.138974 0.741118 0.593172
O O8 0.380133 0.617274 0.929543
O O9 0.500000 0.867527 0.500000
O O10 0.338920 0.872155 0.441681
O O11 0.280831 0.000000 0.290762
O O12 0.464789 0.173582 0.218529
O O13 0.503616 0.000000 0.302450
O O14 0.599540 0.158641 0.245133
O O15 0.551660 0.320118 0.232256
O O16 0.230836 0.217178 0.850892
O O17 0.950232 0.121463 0.589365
O O18 0.763580 0.000000 0.450579
O O19 0.554820 0.500000 0.210341
O O20 0.000000 0.874858 0.500000
#
# Coordination Sequence:
#
# PCOD9148026 Si02
#       8
#     4   4   4   4   4   4   4   4
#     4   8  14  28  49  73 103 137 176 218 260 304
#     4  10  19  38  59  79  97 128 162 214 274 327
#     4   7  11  22  44  74 102 131 171 216 257 301
#     4   9  16  28  50  75 104 144 178 209 255 306
#     4  12  22  36  53  76 109 137 175 221 264 309
#     4  11  23  36  53  75 105 147 185 219 258 300
#     4  11  23  36  57  84 105 128 166 217 277 333
#     4  11  22  38  57  70  99 142 181 222 260 306
#
# _framework density 17.159510999999998
#
# number of rings (size 3 to 8) (size 9 to 14) (size 15 to 20)
#    0.000    2.125    5.000    2.625    0.000    2.250 
#    0.000    1.250    0.000    3.000    0.000    0.000 
#    0.000    6.500    0.000    0.000    0.000    0.625 
#
# Total GULP energy -178190.019428 kJ/mol
# GULP energy per Si atom -5568.438107 kJ/mol
# Density = 1.712045 g / cm^3
# Si number density = 17.159511 Si / 1000 Ang^3
#
#
#
# Elastic Constant Matrix: (Units=GPa)
#
#
# Indices 1 2 3 4 5 6 
#
# 1 85.3580 33.4243 16.0232 0.0000 -12.4687 0.0000
# 2 33.4243 84.4781 16.1347 0.0000 -5.5937 0.0000
# 3 16.0232 16.1347 39.9868 0.0000 3.8774 0.0000
# 4 0.0000 0.0000 0.0000 -36.8717 0.0000 21.0011
# 5 -12.4687 -5.5937 3.8774 0.0000 32.0334 0.0000
# 6 0.0000 0.0000 0.0000 21.0011 0.0000 1.3844
#
#
#
# Elastic Compliance Matrix: (Units=1/GPa)
#
#
# Indices 1 2 3 4 5 6 
#
# 1 0.015311 -0.004770 -0.004763 0.000000 0.005703 0.000000
# 2 -0.004770 0.014584 -0.004088 0.000000 0.001185 0.000000
# 3 -0.004763 -0.004088 0.029158 0.000000 -0.006097 0.000000
# 4 0.000000 0.000000 0.000000 -0.002813 0.000000 0.042677
# 5 0.005703 0.001185 -0.006097 0.000000 0.034382 0.000000
# 6 0.000000 0.000000 0.000000 0.042677 0.000000 0.074929
#
#
# Mechanical properties :
#
#
# Convention : Reuss Voigt Hill
#
# Bulk Modulus (GPa) = 31.43764 37.88746 34.66255
# Shear Modulus (GPa) = 24.58257 8.92527 16.75392
#
# Velocity S-wave (km/s) = 3.78907 2.28312 3.12807
# Velocity P-wave (km/s) = 6.12399 5.39237 5.76979
#
# Compressibility (1/GPa) = 0.03180900
#
# Stress axis : x y z
#
# Youngs Moduli (GPa) = 65.31446 68.56815 34.29629
#
# Poissons Ratio (x) = 0.32709 0.16336
# Poissons Ratio (y) = 0.31157 0.14020
# Poissons Ratio (z) = 0.31111 0.28031
#
# Static dielectric constant tensor:
#      x y z
#    x 1.669410 0.000000 0.022180 
#    y 0.000000 1.562680 0.000000 
#    z 0.022180 0.000000 1.644680 
# 
# From -- ./inp_files/79731.got.cif
#   From: 2010.05.17/outbox.cif.g08.bks.cpg/sg10_40_cif.got.tgz:79731.got - 2010.06.03 11:33:40.
