data_PCOD9148429
_publ_section_title
;
Structure prediction by ZEFSAII (Michael W. Deem and Ramdas Pophale) SiO2 
 PCOD9148429
Probable space group: P 2/M
;
_chemical_formula_sum "Si O2"
_cell_formula_units_Z 32
_cell_length_a 17.115574
_cell_length_b 21.587669
_cell_length_c 16.785714
_cell_angle_alpha 90.000000
_cell_angle_beta 162.967357
_cell_angle_gamma 90.000000
_cell_volume 1816.690146
_symmetry_space_group_name_H-M "P 2/M"
_symmetry_group_IT_number 10
_symmetry_cell_setting 'monoclinic'
loop_
_space_group_symop_operation_xyz
x,y,z
-x,y,-z
-x,-y,-z
x,-y,z
loop_
_atom_site_type_symbol
_atom_site_label
_atom_site_fract_x
_atom_site_fract_y
_atom_site_fract_z
Si Si1 0.511330 0.791161 0.916538
Si Si2 0.524626 0.336636 0.840894
Si Si3 0.762716 0.254326 0.708025
Si Si4 0.594703 0.118428 0.502927
Si Si5 0.896897 0.071626 0.078691
Si Si6 0.041460 0.299335 0.261268
Si Si7 0.985038 0.829652 0.676908
Si Si8 0.743010 0.429451 0.298523
O O1 0.553162 0.719462 0.931846
O O2 0.266410 0.815858 0.624515
O O3 0.500000 0.794347 0.000000
O O4 0.763363 0.829942 0.134865
O O5 0.317906 0.315608 0.572488
O O6 0.377969 0.391600 0.745527
O O7 0.808769 0.342076 0.072744
O O8 0.500000 0.277702 0.500000
O O9 0.663306 0.191653 0.567435
O O10 0.898746 0.298146 0.774420
O O11 0.000000 0.237048 0.000000
O O12 0.500000 0.105908 0.500000
O O13 0.860990 0.080004 0.746819
O O14 0.366542 0.102022 0.216792
O O15 0.005364 0.109493 0.260349
O O16 0.845305 0.000000 0.045422
O O17 0.974817 0.229207 0.224649
O O18 0.184318 0.500000 0.606748
O O19 0.000000 0.403300 0.500000
O O20 0.500000 0.431786 0.000000
#
# Coordination Sequence:
#
# PCOD9148429 Si02
#       8
#     4   4   4   4   4   4   4   4
#     4  10  20  34  55  78 100 130 166 220 270 313
#     4  10  20  32  52  82 111 141 181 226 256 311
#     4  11  21  34  55  78 107 143 175 214 273 339
#     4  11  23  36  55  77 102 137 172 212 256 318
#     4  12  24  38  55  73 102 137 175 216 257 324
#     4  10  20  33  53  77 106 140 175 225 273 312
#     4  10  21  35  53  73 101 130 168 212 269 327
#     4  10  20  34  53  78 117 162 191 215 253 309
#
# _framework density 17.614450999999999
#
# number of rings (size 3 to 8) (size 9 to 14) (size 15 to 20)
#    0.000    1.500    1.250    5.250    3.500    3.500 
#    0.000    0.000    0.000    2.250    0.000    0.000 
#    0.000   10.000    0.000    0.000    0.000    0.000 
#
# Total GULP energy -178480.299642 kJ/mol
# GULP energy per Si atom -5577.509364 kJ/mol
# Density = 1.757436 g / cm^3
# Si number density = 17.614451 Si / 1000 Ang^3
#
#
#
# Elastic Constant Matrix: (Units=GPa)
#
#
# Indices 1 2 3 4 5 6 
#
# 1 104.2610 32.3138 26.4717 0.0000 16.8146 0.0000
# 2 32.3138 43.1282 3.0994 0.0000 -1.6249 0.0000
# 3 26.4717 3.0994 83.5760 0.0000 20.0535 0.0000
# 4 0.0000 0.0000 0.0000 2.0733 0.0000 5.8948
# 5 16.8146 -1.6249 20.0535 0.0000 29.1751 0.0000
# 6 0.0000 0.0000 0.0000 5.8948 0.0000 -7.1486
#
#
#
# Elastic Compliance Matrix: (Units=1/GPa)
#
#
# Indices 1 2 3 4 5 6 
#
# 1 0.014943 -0.011298 -0.002511 0.000000 -0.007516 0.000000
# 2 -0.011298 0.031917 0.000486 0.000000 0.007955 0.000000
# 3 -0.002511 0.000486 0.014835 0.000000 -0.008723 0.000000
# 4 0.000000 0.000000 0.000000 0.144211 0.000000 0.118919
# 5 -0.007516 0.007955 -0.008723 0.000000 0.045046 0.000000
# 6 0.000000 0.000000 0.000000 0.118919 0.000000 -0.041826
#
#
# Mechanical properties :
#
#
# Convention : Reuss Voigt Hill
#
# Bulk Modulus (GPa) = 28.53129 39.41499 33.97314
# Shear Modulus (GPa) = 20.20568 16.09198 18.14883
#
# Velocity S-wave (km/s) = 3.39057 3.02581 3.21337
# Velocity P-wave (km/s) = 5.61790 5.88493 5.75297
#
# Compressibility (1/GPa) = 0.03504924
#
# Stress axis : x y z
#
# Youngs Moduli (GPa) = 66.92285 31.33140 67.40651
#
# Poissons Ratio (x) = 0.35400 0.16923
# Poissons Ratio (y) = 0.75613 -0.03278
# Poissons Ratio (z) = 0.16801 -0.01524
#
# Static dielectric constant tensor:
#      x y z
#    x 1.601090 0.000000 0.043980 
#    y 0.000000 1.602790 0.000000 
#    z 0.043980 0.000000 1.601150 
# 
# From -- ./inp_files/67962.got.cif
#   From: 2010.05.17/outbox.cif.g08.bks.cpg/sg10_34_cif.got.tgz:67962.got - 2010.06.03 11:33:40.
