data_PCOD9148978
_publ_section_title
;
Structure prediction by ZEFSAII (Michael W. Deem and Ramdas Pophale) SiO2 
 PCOD9148978
Probable space group: P 2/M
;
_chemical_formula_sum "Si O2"
_cell_formula_units_Z 26
_cell_length_a 14.809954
_cell_length_b 8.373368
_cell_length_c 20.073075
_cell_angle_alpha 90.000000
_cell_angle_beta 153.329511
_cell_angle_gamma 90.000000
_cell_volume 1117.319903
_symmetry_space_group_name_H-M "P 2/M"
_symmetry_group_IT_number 10
_symmetry_cell_setting 'monoclinic'
loop_
_space_group_symop_operation_xyz
x,y,z
-x,y,-z
-x,-y,-z
x,-y,z
loop_
_atom_site_type_symbol
_atom_site_label
_atom_site_fract_x
_atom_site_fract_y
_atom_site_fract_z
Si Si1 0.619579 0.166764 0.800431
Si Si2 0.818823 0.687380 0.137390
Si Si3 0.027148 0.816082 0.623375
Si Si4 0.036100 0.176351 0.150515
Si Si5 0.559881 0.822475 0.169887
Si Si6 0.589097 0.500000 0.794845
Si Si7 0.957290 0.500000 0.893327
Si Si8 0.837905 0.500000 0.451609
O O1 0.853263 0.164757 0.976319
O O2 0.504873 0.170372 0.795852
O O3 0.578483 0.340033 0.744395
O O4 0.571923 0.000000 0.733887
O O5 0.874053 0.500000 0.179411
O O6 0.866180 0.781788 0.235981
O O7 0.937594 0.778194 0.156438
O O8 0.584079 0.703008 0.963928
O O9 0.204371 0.798047 0.685386
O O10 0.878859 0.666234 0.517197
O O11 0.950393 0.000000 0.569128
O O12 0.144630 0.337896 0.198845
O O13 0.130919 0.000000 0.215246
O O14 0.515810 0.000000 0.113251
O O15 0.804897 0.500000 0.975226
O O16 0.399647 0.500000 0.719786
O O17 0.000000 0.500000 0.000000
O O18 0.000000 0.500000 0.500000
#
# Coordination Sequence:
#
# PCOD9148978 Si02
#       8
#     4   4   4   4   4   2   2   2
#     4   8  15  28  47  70  95 130 171 206 252 309
#     4  11  19  30  51  77 105 138 174 219 275 327
#     4  11  23  37  50  70 101 137 182 233 273 314
#     4   9  17  31  51  79 112 140 163 199 257 326
#     4   9  18  29  45  71 102 136 173 216 270 321
#     4  10  20  34  52  71 101 138 177 225 260 295
#     4  10  20  35  57  87 114 140 172 208 262 328
#     4  12  26  39  52  74  99 142 199 233 260 301
#
# _framework density 23.269969
#
# number of rings (size 3 to 8) (size 9 to 14) (size 15 to 20)
#    0.000    2.154    1.538    3.692    4.308    3.077 
#    0.000    0.000    0.000    0.000    0.000    2.154 
#    0.000    2.462    0.000    0.000    0.000    0.000 
#
# Total GULP energy -145110.195341 kJ/mol
# GULP energy per Si atom -5581.161359 kJ/mol
# Density = 2.321701 g / cm^3
# Si number density = 23.269969 Si / 1000 Ang^3
#
#
#
# Elastic Constant Matrix: (Units=GPa)
#
#
# Indices 1 2 3 4 5 6 
#
# 1 58.0086 13.8065 12.7070 0.0000 9.7137 0.0000
# 2 13.8065 261.2284 17.7561 0.0000 -10.6920 0.0000
# 3 12.7070 17.7561 41.0913 0.0000 -2.6327 0.0000
# 4 0.0000 0.0000 0.0000 19.7565 0.0000 -13.9150
# 5 9.7137 -10.6920 -2.6327 0.0000 11.3395 0.0000
# 6 0.0000 0.0000 0.0000 -13.9150 0.0000 -12.4238
#
#
#
# Elastic Compliance Matrix: (Units=1/GPa)
#
#
# Indices 1 2 3 4 5 6 
#
# 1 0.023291 -0.001644 -0.007989 0.000000 -0.023357 0.000000
# 2 -0.001644 0.004191 -0.000974 0.000000 0.005134 0.000000
# 3 -0.007989 -0.000974 0.028024 0.000000 0.012431 0.000000
# 4 0.000000 0.000000 0.000000 0.028295 0.000000 -0.031691
# 5 -0.023357 0.005134 0.012431 0.000000 0.115923 0.000000
# 6 0.000000 0.000000 0.000000 -0.031691 0.000000 -0.044995
#
#
# Mechanical properties :
#
#
# Convention : Reuss Voigt Hill
#
# Bulk Modulus (GPa) = 29.16013 49.87420 39.51716
# Shear Modulus (GPa) = 26.68477 24.80502 25.74490
#
# Velocity S-wave (km/s) = 3.39004 3.26846 3.32980
# Velocity P-wave (km/s) = 5.28030 5.97688 5.63936
#
# Compressibility (1/GPa) = 0.03429340
#
# Stress axis : x y z
#
# Youngs Moduli (GPa) = 42.93466 238.59026 35.68411
#
# Poissons Ratio (x) = 0.39224 0.28507
# Poissons Ratio (y) = 0.07058 0.03475
# Poissons Ratio (z) = 0.34299 0.23234
#
# Static dielectric constant tensor:
#      x y z
#    x 1.912860 0.000000 0.040780 
#    y 0.000000 2.014730 0.000000 
#    z 0.040780 0.000000 1.843670 
# 
# From -- ./inp_files/84821.got.cif
#   From: 2010.05.17/outbox.cif.g08.bks.cpg/sg10_43_cif.got.tgz:84821.got - 2010.06.03 11:33:40.
