data_PCOD9148826
_publ_section_title
;
Structure prediction by ZEFSAII (Michael W. Deem and Ramdas Pophale) SiO2 
 PCOD9148826
Probable space group: P 2/M
;
_chemical_formula_sum "Si O2"
_cell_formula_units_Z 30
_cell_length_a 29.679965
_cell_length_b 9.308276
_cell_length_c 12.238269
_cell_angle_alpha 90.000000
_cell_angle_beta 149.836068
_cell_angle_gamma 90.000000
_cell_volume 1698.899802
_symmetry_space_group_name_H-M "P 2/M"
_symmetry_group_IT_number 10
_symmetry_cell_setting 'monoclinic'
loop_
_space_group_symop_operation_xyz
x,y,z
-x,y,-z
-x,-y,-z
x,-y,z
loop_
_atom_site_type_symbol
_atom_site_label
_atom_site_fract_x
_atom_site_fract_y
_atom_site_fract_z
Si Si1 0.272491 0.169387 0.703050
Si Si2 0.000000 0.751745 0.000000
Si Si3 0.585499 0.825071 0.822219
Si Si4 0.194992 0.335081 0.336116
Si Si5 0.077550 0.842778 0.387649
Si Si6 0.382859 0.825575 0.356613
Si Si7 0.958380 0.335579 0.292797
Si Si8 0.212399 0.172857 0.143224
O O1 0.251254 0.261320 0.551376
O O2 0.182977 0.177098 0.589690
O O3 0.284011 0.000000 0.698449
O O4 0.355407 0.220335 0.950763
O O5 0.910202 0.669613 0.849317
O O6 0.967925 0.839316 0.827120
O O7 0.481280 0.781108 0.605292
O O8 0.624668 0.779698 0.786118
O O9 0.587719 0.000000 0.827615
O O10 0.221010 0.500000 0.374208
O O11 0.207612 0.243745 0.252646
O O12 0.032867 0.719365 0.364432
O O13 0.061450 0.000000 0.404238
O O14 0.301583 0.782758 0.264036
O O15 0.383049 0.000000 0.355582
O O16 0.932376 0.500000 0.213460
O O17 0.000000 0.329097 0.500000
O O18 0.873532 0.232498 0.101264
O O19 0.209498 0.000000 0.145797
#
# Coordination Sequence:
#
# PCOD9148826 Si02
#       8
#     4   2   4   4   4   4   4   4
#     4   9  19  33  55  83 111 137 177 228 274 317
#     4  10  20  34  56  76 104 140 188 226 268 314
#     4   8  14  31  56  84 114 139 169 219 276 328
#     4  11  22  36  54  76 108 148 187 223 268 323
#     4  10  20  33  54  82 109 138 178 228 272 310
#     4   8  16  30  55  86 112 139 173 218 276 328
#     4  11  25  40  52  73 110 152 186 216 261 321
#     4  11  22  36  58  84 110 139 182 230 270 318
#
# _framework density 17.658486
#
# number of rings (size 3 to 8) (size 9 to 14) (size 15 to 20)
#    0.000    2.267    1.333    2.400    1.867    4.267 
#    0.000    0.667    0.000    5.600    0.000    4.667 
#    0.000    0.000    0.000    0.000    0.000    0.000 
#
# Total GULP energy -167283.552872 kJ/mol
# GULP energy per Si atom -5576.118429 kJ/mol
# Density = 1.761829 g / cm^3
# Si number density = 17.658486 Si / 1000 Ang^3
#
#
#
# Elastic Constant Matrix: (Units=GPa)
#
#
# Indices 1 2 3 4 5 6 
#
# 1 97.1308 44.5523 40.1527 0.0000 -1.3619 0.0000
# 2 44.5523 78.0231 37.9760 0.0000 -1.7097 0.0000
# 3 40.1527 37.9760 106.7829 0.0000 -11.8346 0.0000
# 4 0.0000 0.0000 0.0000 13.7788 0.0000 -8.5907
# 5 -1.3619 -1.7097 -11.8346 0.0000 14.7920 0.0000
# 6 0.0000 0.0000 0.0000 -8.5907 0.0000 12.2680
#
#
#
# Elastic Compliance Matrix: (Units=1/GPa)
#
#
# Indices 1 2 3 4 5 6 
#
# 1 0.014803 -0.006864 -0.003360 0.000000 -0.002119 0.000000
# 2 -0.006864 0.018794 -0.004315 0.000000 -0.001912 0.000000
# 3 -0.003360 -0.004315 0.013248 0.000000 0.009791 0.000000
# 4 0.000000 0.000000 0.000000 0.128813 0.000000 0.090201
# 5 -0.002119 -0.001912 0.009791 0.000000 0.075022 0.000000
# 6 0.000000 0.000000 0.000000 0.090201 0.000000 0.144677
#
#
# Mechanical properties :
#
#
# Convention : Reuss Voigt Hill
#
# Bulk Modulus (GPa) = 56.28158 58.58876 57.43517
# Shear Modulus (GPa) = 11.61828 18.78481 15.20155
#
# Velocity S-wave (km/s) = 2.56782 3.26511 2.93723
# Velocity P-wave (km/s) = 6.38225 6.88951 6.64073
#
# Compressibility (1/GPa) = 0.01776780
#
# Stress axis : x y z
#
# Youngs Moduli (GPa) = 67.55407 53.20760 75.48331
#
# Poissons Ratio (x) = 0.36520 0.25363
# Poissons Ratio (y) = 0.46367 0.32571
# Poissons Ratio (z) = 0.22699 0.22959
#
# Static dielectric constant tensor:
#      x y z
#    x 1.590070 0.000000 0.001770 
#    y 0.000000 1.591170 0.000000 
#    z 0.001770 0.000000 1.600120 
# 
# From -- ./inp_files/58014.got.cif
#   From: 2010.05.17/outbox.cif.g08.bks.cpg/sg10_30_cif.got.tgz:58014.got - 2010.06.03 11:33:40.
