data_PCOD9148427
_publ_section_title
;
Structure prediction by ZEFSAII (Michael W. Deem and Ramdas Pophale) SiO2 
 PCOD9148427
Probable space group: P 2/M
;
_chemical_formula_sum "Si O2"
_cell_formula_units_Z 30
_cell_length_a 5.520359
_cell_length_b 30.672313
_cell_length_c 12.317152
_cell_angle_alpha 90.000000
_cell_angle_beta 129.661510
_cell_angle_gamma 90.000000
_cell_volume 1605.528910
_symmetry_space_group_name_H-M "P 2/M"
_symmetry_group_IT_number 10
_symmetry_cell_setting 'monoclinic'
loop_
_space_group_symop_operation_xyz
x,y,z
-x,y,-z
-x,-y,-z
x,-y,z
loop_
_atom_site_type_symbol
_atom_site_label
_atom_site_fract_x
_atom_site_fract_y
_atom_site_fract_z
Si Si1 0.876216 0.594394 0.090335
Si Si2 0.253042 0.775621 0.845312
Si Si3 0.245867 0.049913 0.829269
Si Si4 0.933873 0.310926 0.851492
Si Si5 0.373044 0.826079 0.356345
Si Si6 0.117973 0.500000 0.907445
Si Si7 0.744208 0.900868 0.830003
Si Si8 0.342409 0.261370 0.637947
O O1 0.974555 0.641345 0.164975
O O2 0.500000 0.593890 0.000000
O O3 0.990529 0.547286 0.168103
O O4 0.000000 0.594887 0.000000
O O5 0.380327 0.757856 0.769320
O O6 0.118708 0.731639 0.862606
O O7 0.985394 0.810241 0.742131
O O8 0.500000 0.795124 0.000000
O O9 0.448847 0.071896 0.791485
O O10 0.945025 0.075664 0.791368
O O11 0.160409 0.000000 0.778745
O O12 0.500000 0.048736 0.000000
O O13 0.584146 0.300908 0.709310
O O14 0.000000 0.311482 0.000000
O O15 0.500000 0.849485 0.500000
O O16 0.392005 0.856123 0.256657
O O17 0.566333 0.781031 0.405092
O O18 0.500000 0.500000 0.000000
O O19 0.000000 0.500000 0.000000
O O20 0.000000 0.893977 0.000000
O O21 0.000000 0.274800 0.500000
#
# Coordination Sequence:
#
# PCOD9148427 Si02
#       8
#     4   4   4   4   4   2   4   4
#     4   9  17  28  48  75 111 144 183 230 287 345
#     4  11  22  36  58  77 108 144 192 239 284 338
#     4   9  18  36  60  89 120 147 182 233 284 328
#     4  10  20  32  52  82 105 145 190 242 285 335
#     4  11  25  39  55  81 113 154 190 234 290 340
#     4   8  14  26  42  70 107 147 175 219 286 349
#     4  10  22  35  60  91 114 147 192 233 275 335
#     4  11  23  39  55  76 111 153 193 235 289 343
#
# _framework density 18.68543
#
# number of rings (size 3 to 8) (size 9 to 14) (size 15 to 20)
#    0.000    2.000    2.667    0.800    5.600    2.133 
#    0.000    0.000    0.000    2.400    0.000    0.467 
#    0.000    1.067    0.000    0.000    0.000    0.000 
#
# Total GULP energy -167031.718305 kJ/mol
# GULP energy per Si atom -5567.723943 kJ/mol
# Density = 1.864290 g / cm^3
# Si number density = 18.685430 Si / 1000 Ang^3
#
#
#
# Elastic Constant Matrix: (Units=GPa)
#
#
# Indices 1 2 3 4 5 6 
#
# 1 92.7788 30.5618 21.3968 0.0000 2.9657 0.0000
# 2 30.5618 114.4659 25.9592 0.0000 6.8706 0.0000
# 3 21.3968 25.9592 72.8406 0.0000 11.1841 0.0000
# 4 0.0000 0.0000 0.0000 6.7419 0.0000 4.4474
# 5 2.9657 6.8706 11.1841 0.0000 25.9283 0.0000
# 6 0.0000 0.0000 0.0000 4.4474 0.0000 225.4929
#
#
#
# Elastic Compliance Matrix: (Units=1/GPa)
#
#
# Indices 1 2 3 4 5 6 
#
# 1 0.012277 -0.002689 -0.002722 0.000000 0.000482 0.000000
# 2 -0.002689 0.010125 -0.002628 0.000000 -0.001242 0.000000
# 3 -0.002722 -0.002628 0.016396 0.000000 -0.006065 0.000000
# 4 0.000000 0.000000 0.000000 0.150282 0.000000 -0.002964
# 5 0.000482 -0.001242 -0.006065 0.000000 0.041458 0.000000
# 6 0.000000 0.000000 0.000000 -0.002964 0.000000 0.004493
#
#
# Mechanical properties :
#
#
# Convention : Reuss Voigt Hill
#
# Bulk Modulus (GPa) = 44.01545 48.43564 46.22554
# Shear Modulus (GPa) = 19.32887 65.11046 42.21966
#
# Velocity S-wave (km/s) = 3.21975 5.90942 4.75857
# Velocity P-wave (km/s) = 6.11797 8.51701 7.41516
#
# Compressibility (1/GPa) = 0.02271930
#
# Stress axis : x y z
#
# Youngs Moduli (GPa) = 81.45624 98.76798 60.99144
#
# Poissons Ratio (x) = 0.26563 0.16601
# Poissons Ratio (y) = 0.21907 0.16026
# Poissons Ratio (z) = 0.22171 0.25952
#
# Static dielectric constant tensor:
#      x y z
#    x 1.715170 0.000000 -0.005670 
#    y 0.000000 1.685030 0.000000 
#    z -0.005670 0.000000 1.624980 
# 
# From -- ./inp_files/26203.got.cif
#   From: 2010.05.17/outbox.cif.g08.bks.cpg/sg10_14_cif.got.tgz:26203.got - 2010.06.03 11:33:40.
