data_PCOD9148652
_publ_section_title
;
Structure prediction by ZEFSAII (Michael W. Deem and Ramdas Pophale) SiO2 
 PCOD9148652
Probable space group: P 2/M
;
_chemical_formula_sum "Si O2"
_cell_formula_units_Z 28
_cell_length_a 17.220843
_cell_length_b 7.699027
_cell_length_c 15.609851
_cell_angle_alpha 90.000000
_cell_angle_beta 134.491199
_cell_angle_gamma 90.000000
_cell_volume 1476.374745
_symmetry_space_group_name_H-M "P 2/M"
_symmetry_group_IT_number 10
_symmetry_cell_setting 'monoclinic'
loop_
_space_group_symop_operation_xyz
x,y,z
-x,y,-z
-x,-y,-z
x,-y,z
loop_
_atom_site_type_symbol
_atom_site_label
_atom_site_fract_x
_atom_site_fract_y
_atom_site_fract_z
Si Si1 0.844143 0.290753 0.441455
Si Si2 0.774485 0.297043 0.846575
Si Si3 0.916934 0.712786 0.313659
Si Si4 0.119190 0.700327 0.900731
Si Si5 0.305737 0.205716 0.524372
Si Si6 0.123492 0.798134 0.252718
Si Si7 0.528417 0.210223 0.620099
O O1 0.845046 0.500000 0.442151
O O2 0.852056 0.233976 0.348760
O O3 0.742397 0.232602 0.418785
O O4 0.957124 0.234015 0.574320
O O5 0.805772 0.500000 0.867698
O O6 0.831420 0.212278 0.808540
O O7 0.645139 0.281038 0.737083
O O8 0.816127 0.222015 0.969117
O O9 0.917702 0.500000 0.312251
O O10 0.872580 0.776355 0.188494
O O11 0.155520 0.500000 0.921955
O O12 0.991396 0.705422 0.825045
O O13 0.216179 0.275646 0.387849
O O14 0.426649 0.271572 0.598739
O O15 0.311303 0.000000 0.511179
O O16 0.104688 0.000000 0.260279
O O17 0.500000 0.255830 0.500000
O O18 0.537046 0.000000 0.630602
#
# Coordination Sequence:
#
# PCOD9148652 Si02
#       7
#     4   4   4   4   4   4   4
#     4   9  16  29  52  77  99 130 168 203 248 303
#     4  11  23  35  51  76 103 134 173 213 251 294
#     4   8  15  29  50  75 102 132 164 200 249 302
#     4  10  20  35  52  74 107 138 166 207 254 298
#     4  10  20  33  51  75 103 132 164 208 257 296
#     4  11  21  34  51  74 105 140 172 201 246 307
#     4  10  20  38  56  70  97 136 173 211 255 298
#
# _framework density 18.965374000000001
#
# number of rings (size 3 to 8) (size 9 to 14) (size 15 to 20)
#    0.000    2.143    2.857    2.143    0.000    4.286 
#    0.000    2.143    0.000    0.857    0.000    6.000 
#    0.000    0.000    0.000    0.000    0.000    0.000 
#
# Total GULP energy -156265.440368 kJ/mol
# GULP energy per Si atom -5580.908585 kJ/mol
# Density = 1.892221 g / cm^3
# Si number density = 18.965374 Si / 1000 Ang^3
#
#
#
# Elastic Constant Matrix: (Units=GPa)
#
#
# Indices 1 2 3 4 5 6 
#
# 1 107.1088 -11.8870 39.1503 0.0000 -23.6555 0.0000
# 2 -11.8870 32.4198 -6.6659 0.0000 -0.3522 0.0000
# 3 39.1503 -6.6659 97.1917 0.0000 -21.6230 0.0000
# 4 0.0000 0.0000 0.0000 11.3921 0.0000 2.0102
# 5 -23.6555 -0.3522 -21.6230 0.0000 23.9257 0.0000
# 6 0.0000 0.0000 0.0000 2.0102 0.0000 25.0957
#
#
#
# Elastic Compliance Matrix: (Units=1/GPa)
#
#
# Indices 1 2 3 4 5 6 
#
# 1 0.013142 0.004398 -0.002612 0.000000 0.010697 0.000000
# 2 0.004398 0.032932 0.001956 0.000000 0.006600 0.000000
# 3 -0.002612 0.001956 0.013652 0.000000 0.009784 0.000000
# 4 0.000000 0.000000 0.000000 0.089039 0.000000 -0.007132
# 5 0.010697 0.006600 0.009784 0.000000 0.061312 0.000000
# 6 0.000000 0.000000 0.000000 -0.007132 0.000000 0.040419
#
#
# Mechanical properties :
#
#
# Convention : Reuss Voigt Hill
#
# Bulk Modulus (GPa) = 14.87933 30.87943 22.87938
# Shear Modulus (GPa) = 18.83841 26.49090 22.66466
#
# Velocity S-wave (km/s) = 3.15509 3.74144 3.46071
# Velocity P-wave (km/s) = 4.59732 5.91454 5.29704
#
# Compressibility (1/GPa) = 0.06720731
#
# Stress axis : x y z
#
# Youngs Moduli (GPa) = 76.09381 30.36600 73.24901
#
# Poissons Ratio (x) = -0.13354 0.19134
# Poissons Ratio (y) = -0.33463 -0.14324
# Poissons Ratio (z) = 0.19877 -0.05938
#
# Static dielectric constant tensor:
#      x y z
#    x 1.651240 0.000000 -0.027040 
#    y 0.000000 1.711080 0.000000 
#    z -0.027040 0.000000 1.658320 
# 
# From -- ./inp_files/49067.got.cif
#   From: 2010.05.17/outbox.cif.g08.bks.cpg/sg10_25_cif.got.tgz:49067.got - 2010.06.03 11:33:40.
