data_PCOD9148004
_publ_section_title
;
Structure prediction by ZEFSAII (Michael W. Deem and Ramdas Pophale) SiO2 
 PCOD9148004
Probable space group: P 2/M
;
_chemical_formula_sum "Si O2"
_cell_formula_units_Z 24
_cell_length_a 16.156460
_cell_length_b 15.506645
_cell_length_c 9.969470
_cell_angle_alpha 90.000000
_cell_angle_beta 146.928710
_cell_angle_gamma 90.000000
_cell_volume 1362.937224
_symmetry_space_group_name_H-M "P 2/M"
_symmetry_group_IT_number 10
_symmetry_cell_setting 'monoclinic'
loop_
_space_group_symop_operation_xyz
x,y,z
-x,y,-z
-x,-y,-z
x,-y,z
loop_
_atom_site_type_symbol
_atom_site_label
_atom_site_fract_x
_atom_site_fract_y
_atom_site_fract_z
Si Si1 0.715489 0.685316 0.884041
Si Si2 0.194491 0.500000 0.633799
Si Si3 0.830484 0.804357 0.266658
Si Si4 0.322364 0.681728 0.727536
Si Si5 0.473901 0.099044 0.125554
Si Si6 0.151084 0.500000 0.895449
Si Si7 0.611601 0.260905 0.461148
O O1 0.548801 0.690988 0.726810
O O2 0.698949 0.733511 0.719651
O O3 0.820493 0.738348 0.128194
O O4 0.773334 0.587732 0.947432
O O5 0.283229 0.585781 0.717017
O O6 0.174979 0.500000 0.767406
O O7 0.030865 0.500000 0.338735
O O8 0.780895 0.747255 0.327908
O O9 0.000000 0.838907 0.500000
O O10 0.700193 0.876057 0.079911
O O11 0.301790 0.692901 0.541526
O O12 0.500000 0.699317 0.000000
O O13 0.570298 0.166879 0.344812
O O14 0.507130 0.000000 0.203946
O O15 0.500000 0.109302 0.000000
#
# Coordination Sequence:
#
# PCOD9148004 Si02
#       7
#     4   2   4   4   4   2   4
#     4  10  21  35  57  80 118 154 187 233 286 329
#     4  11  23  31  57  80 113 152 202 241 266 319
#     4  11  20  36  57  84 118 152 188 226 283 345
#     4  12  19  36  57  82 111 151 201 239 270 326
#     4  10  19  37  65  89 110 142 188 240 284 337
#     4  11  20  38  49  81 116 159 191 228 286 331
#     4  10  20  37  56  86 113 143 194 234 288 336
#
# _framework density 17.609027999999999
#
# number of rings (size 3 to 8) (size 9 to 14) (size 15 to 20)
#    0.000    1.333    6.667    1.250    0.000    3.000 
#    0.000   10.833    0.000    0.000    0.000    2.333 
#    0.000    0.000    0.000    0.000    0.000    0.000 
#
# Total GULP energy -133901.941348 kJ/mol
# GULP energy per Si atom -5579.247556 kJ/mol
# Density = 1.756895 g / cm^3
# Si number density = 17.609028 Si / 1000 Ang^3
#
#
#
# Elastic Constant Matrix: (Units=GPa)
#
#
# Indices 1 2 3 4 5 6 
#
# 1 73.1179 19.0022 33.0674 0.0000 -11.6209 0.0000
# 2 19.0022 95.4857 17.0408 0.0000 1.2154 0.0000
# 3 33.0674 17.0408 47.8403 0.0000 -11.1568 0.0000
# 4 0.0000 0.0000 0.0000 39.1830 0.0000 -25.6687
# 5 -11.6209 1.2154 -11.1568 0.0000 30.1229 0.0000
# 6 0.0000 0.0000 0.0000 -25.6687 0.0000 35.3624
#
#
#
# Elastic Compliance Matrix: (Units=1/GPa)
#
#
# Indices 1 2 3 4 5 6 
#
# 1 0.020412 -0.001837 -0.012698 0.000000 0.003246 0.000000
# 2 -0.001837 0.011473 -0.003382 0.000000 -0.002424 0.000000
# 3 -0.012698 -0.003382 0.032589 0.000000 0.007308 0.000000
# 4 0.000000 0.000000 0.000000 0.048660 0.000000 0.035321
# 5 0.003246 -0.002424 0.007308 0.000000 0.037254 0.000000
# 6 0.000000 0.000000 0.000000 0.035321 0.000000 0.053917
#
#
# Mechanical properties :
#
#
# Convention : Reuss Voigt Hill
#
# Bulk Modulus (GPa) = 34.91667 39.40719 37.16193
# Shear Modulus (GPa) = 20.02513 30.75589 25.39051
#
# Velocity S-wave (km/s) = 3.37591 4.18377 3.80136
# Velocity P-wave (km/s) = 5.92179 6.76506 6.35742
#
# Compressibility (1/GPa) = 0.02863962
#
# Stress axis : x y z
#
# Youngs Moduli (GPa) = 48.98971 87.16219 30.68560
#
# Poissons Ratio (x) = 0.16015 0.38964
# Poissons Ratio (y) = 0.09001 0.10378
# Poissons Ratio (z) = 0.62206 0.29478
#
# Static dielectric constant tensor:
#      x y z
#    x 1.605070 0.000000 -0.002560 
#    y 0.000000 1.588020 0.000000 
#    z -0.002560 0.000000 1.620670 
# 
# From -- ./inp_files/29742.got.cif
#   From: 2010.05.17/outbox.cif.g08.bks.cpg/sg10_15_cif.got.tgz:29742.got - 2010.06.03 11:33:40.
