data_PCOD9148005
_publ_section_title
;
Structure prediction by ZEFSAII (Michael W. Deem and Ramdas Pophale) SiO2 
 PCOD9148005
Probable space group: P 2/M
;
_chemical_formula_sum "Si O2"
_cell_formula_units_Z 24
_cell_length_a 11.251844
_cell_length_b 15.136059
_cell_length_c 13.215503
_cell_angle_alpha 90.000000
_cell_angle_beta 147.582736
_cell_angle_gamma 90.000000
_cell_volume 1206.565134
_symmetry_space_group_name_H-M "P 2/M"
_symmetry_group_IT_number 10
_symmetry_cell_setting 'monoclinic'
loop_
_space_group_symop_operation_xyz
x,y,z
-x,y,-z
-x,-y,-z
x,-y,z
loop_
_atom_site_type_symbol
_atom_site_label
_atom_site_fract_x
_atom_site_fract_y
_atom_site_fract_z
Si Si1 0.699777 0.764635 0.567010
Si Si2 0.284174 0.349773 0.778455
Si Si3 0.255884 0.140177 0.779301
Si Si4 0.439749 0.098182 0.703556
Si Si5 0.188734 0.400798 0.487403
Si Si6 0.064754 0.900930 0.850886
O O1 0.500000 0.750390 0.500000
O O2 0.614279 0.826908 0.414820
O O3 0.775684 0.672831 0.572101
O O4 0.898782 0.822140 0.759374
O O5 0.230030 0.245507 0.749990
O O6 0.312044 0.373211 0.680530
O O7 0.069819 0.398818 0.667217
O O8 0.500000 0.368490 0.000000
O O9 0.271465 0.103274 0.677774
O O10 0.095355 0.104703 0.750735
O O11 0.500000 0.122219 0.000000
O O12 0.428682 0.000000 0.650752
O O13 0.690061 0.111311 0.925988
O O14 0.252949 0.500000 0.504040
O O15 0.988237 0.000000 0.823310
#
# Coordination Sequence:
#
# PCOD9148005 Si02
#       6
#     4   4   4   4   4   4
#     4  12  26  42  58  79 113 159 207 247 282 327
#     4  10  19  37  65  93 122 149 177 230 302 362
#     4   9  16  31  59  90 118 149 179 218 289 357
#     4  10  21  38  61  89 120 153 190 236 290 348
#     4  11  24  40  61  90 117 149 193 237 294 356
#     4  10  21  38  61  89 120 153 190 236 290 348
#
# _framework density 19.891176000000002
#
# number of rings (size 3 to 8) (size 9 to 14) (size 15 to 20)
#    0.000    1.667    3.333    2.000    0.000    6.333 
#    0.000    3.333    0.000    0.000    0.000    4.667 
#    0.000    0.000    0.000    0.000    0.000    0.000 
#
# Total GULP energy -134127.794093 kJ/mol
# GULP energy per Si atom -5588.658087 kJ/mol
# Density = 1.984590 g / cm^3
# Si number density = 19.891176 Si / 1000 Ang^3
#
#
#
# Elastic Constant Matrix: (Units=GPa)
#
#
# Indices 1 2 3 4 5 6 
#
# 1 51.5731 19.7438 -7.7561 0.0000 17.9713 0.0000
# 2 19.7438 111.0941 17.5282 0.0000 4.5375 0.0000
# 3 -7.7561 17.5282 74.4865 0.0000 0.3136 0.0000
# 4 0.0000 0.0000 0.0000 18.3230 0.0000 7.4072
# 5 17.9713 4.5375 0.3136 0.0000 22.3371 0.0000
# 6 0.0000 0.0000 0.0000 7.4072 0.0000 1.8403
#
#
#
# Elastic Compliance Matrix: (Units=1/GPa)
#
#
# Indices 1 2 3 4 5 6 
#
# 1 0.030113 -0.005101 0.004434 0.000000 -0.023253 0.000000
# 2 -0.005101 0.010291 -0.002962 0.000000 0.002055 0.000000
# 3 0.004434 -0.002962 0.014597 0.000000 -0.003171 0.000000
# 4 0.000000 0.000000 0.000000 -0.087021 0.000000 0.350265
# 5 -0.023253 0.002055 -0.003171 0.000000 0.063104 0.000000
# 6 0.000000 0.000000 0.000000 0.350265 0.000000 -0.866435
#
#
# Mechanical properties :
#
#
# Convention : Reuss Voigt Hill
#
# Bulk Modulus (GPa) = 20.94557 32.90950 26.92754
# Shear Modulus (GPa) = -6.15628 22.34260 8.09316
#
# Velocity S-wave (km/s) = -1.76116 3.35512 2.01929
# Velocity P-wave (km/s) = 2.53325 5.62048 4.35931
#
# Compressibility (1/GPa) = 0.04774280
#
# Stress axis : x y z
#
# Youngs Moduli (GPa) = 33.20865 97.16904 68.50620
#
# Poissons Ratio (x) = 0.49571 -0.30375
# Poissons Ratio (y) = 0.16941 0.20289
# Poissons Ratio (z) = -0.14724 0.28778
#
# Static dielectric constant tensor:
#      x y z
#    x 1.681500 0.000000 0.004240 
#    y 0.000000 1.711340 0.000000 
#    z 0.004240 0.000000 1.742630 
# 
# From -- ./inp_files/51455.got.cif
#   From: 2010.05.17/outbox.cif.g08.bks.cpg/sg10_26_cif.got.tgz:51455.got - 2010.06.03 11:33:40.
