data_PCOD9148736
_publ_section_title
;
Structure prediction by ZEFSAII (Michael W. Deem and Ramdas Pophale) SiO2 
 PCOD9148736
Probable space group: P 2/M
;
_chemical_formula_sum "Si O2"
_cell_formula_units_Z 28
_cell_length_a 9.328314
_cell_length_b 14.587088
_cell_length_c 15.012747
_cell_angle_alpha 90.000000
_cell_angle_beta 140.570603
_cell_angle_gamma 90.000000
_cell_volume 1297.455382
_symmetry_space_group_name_H-M "P 2/M"
_symmetry_group_IT_number 10
_symmetry_cell_setting 'monoclinic'
loop_
_space_group_symop_operation_xyz
x,y,z
-x,y,-z
-x,-y,-z
x,-y,z
loop_
_atom_site_type_symbol
_atom_site_label
_atom_site_fract_x
_atom_site_fract_y
_atom_site_fract_z
Si Si1 0.530406 0.606937 0.653049
Si Si2 0.048886 0.299615 0.223011
Si Si3 0.647688 0.325052 0.144938
Si Si4 0.741507 0.247985 0.383184
Si Si5 0.628979 0.102887 0.812345
Si Si6 0.956926 0.895196 0.127993
Si Si7 0.247291 0.402428 0.045107
O O1 0.486720 0.500000 0.609082
O O2 0.702314 0.658467 0.668214
O O3 0.312467 0.668700 0.573994
O O4 0.662838 0.606475 0.811977
O O5 0.017792 0.190385 0.220850
O O6 0.888530 0.348513 0.218402
O O7 0.917713 0.323427 0.067538
O O8 0.685259 0.275898 0.255325
O O9 0.466971 0.401232 0.087210
O O10 0.500000 0.270928 0.000000
O O11 0.560010 0.170034 0.314915
O O12 0.000000 0.220119 0.500000
O O13 0.837087 0.104600 0.843653
O O14 0.538888 0.000000 0.773374
O O15 0.735490 0.123372 0.960820
O O16 0.940232 0.000000 0.156271
O O17 0.128473 0.500000 0.975948
#
# Coordination Sequence:
#
# PCOD9148736 Si02
#       7
#     4   4   4   4   4   4   4
#     4  10  20  33  52  78 105 144 193 230 265 323
#     4  11  18  29  52  78 111 142 181 227 275 325
#     4   9  20  34  53  81 114 146 178 224 282 331
#     4  11  22  39  58  78 111 152 187 226 274 330
#     4   9  17  31  54  83 108 140 186 229 270 320
#     4   9  17  29  52  83 114 141 174 228 283 325
#     4   9  18  30  48  78 114 145 176 223 280 328
#
# _framework density 21.580704000000001
#
# number of rings (size 3 to 8) (size 9 to 14) (size 15 to 20)
#    0.000    2.286    1.429    4.286    2.000    4.857 
#    0.000    1.429    0.000    6.857    0.000    2.000 
#    0.000    0.000    0.000    0.000    0.000    0.000 
#
# Total GULP energy -156030.331513 kJ/mol
# GULP energy per Si atom -5572.511840 kJ/mol
# Density = 2.153158 g / cm^3
# Si number density = 21.580704 Si / 1000 Ang^3
#
#
#
# Elastic Constant Matrix: (Units=GPa)
#
#
# Indices 1 2 3 4 5 6 
#
# 1 100.4331 11.5431 10.8467 0.0000 25.0824 0.0000
# 2 11.5431 113.1706 30.3284 0.0000 19.9528 0.0000
# 3 10.8467 30.3284 62.4355 0.0000 22.3256 0.0000
# 4 0.0000 0.0000 0.0000 1.5260 0.0000 5.4631
# 5 25.0824 19.9528 22.3256 0.0000 27.6679 0.0000
# 6 0.0000 0.0000 0.0000 5.4631 0.0000 11.7901
#
#
#
# Elastic Compliance Matrix: (Units=1/GPa)
#
#
# Indices 1 2 3 4 5 6 
#
# 1 0.013232 0.000497 0.002639 0.000000 -0.014483 0.000000
# 2 0.000497 0.010632 -0.003300 0.000000 -0.005454 0.000000
# 3 0.002639 -0.003300 0.024127 0.000000 -0.019481 0.000000
# 4 0.000000 0.000000 0.000000 -0.994611 0.000000 0.460865
# 5 -0.014483 -0.005454 -0.019481 0.000000 0.068925 0.000000
# 6 0.000000 0.000000 0.000000 0.460865 0.000000 -0.128730
#
#
# Mechanical properties :
#
#
# Convention : Reuss Voigt Hill
#
# Bulk Modulus (GPa) = 20.98174 42.38620 31.68397
# Shear Modulus (GPa) = -5.04944 23.08485 9.01770
#
# Velocity S-wave (km/s) = -1.53130 3.27417 2.04638
# Velocity P-wave (km/s) = 2.57237 5.82898 4.50522
#
# Compressibility (1/GPa) = 0.04766049
#
# Stress axis : x y z
#
# Youngs Moduli (GPa) = 75.57586 94.05888 41.44716
#
# Poissons Ratio (x) = -0.04671 -0.10937
# Poissons Ratio (y) = -0.03753 0.13679
# Poissons Ratio (z) = -0.19942 0.31043
#
# Static dielectric constant tensor:
#      x y z
#    x 1.845770 0.000000 0.012930 
#    y 0.000000 1.812290 0.000000 
#    z 0.012930 0.000000 1.819660 
# 
# From -- ./inp_files/75324.got.cif
#   From: 2010.05.17/outbox.cif.g08.bks.cpg/sg10_38_cif.got.tgz:75324.got - 2010.06.03 11:33:40.
