data_PCOD9148663
_publ_section_title
;
Structure prediction by ZEFSAII (Michael W. Deem and Ramdas Pophale) SiO2 
 PCOD9148663
Probable space group: P 2/M
;
_chemical_formula_sum "Si O2"
_cell_formula_units_Z 28
_cell_length_a 9.292944
_cell_length_b 8.312595
_cell_length_c 29.835414
_cell_angle_alpha 90.000000
_cell_angle_beta 39.129980
_cell_angle_gamma 90.000000
_cell_volume 1454.479676
_symmetry_space_group_name_H-M "P 2/M"
_symmetry_group_IT_number 10
_symmetry_cell_setting 'monoclinic'
loop_
_space_group_symop_operation_xyz
x,y,z
-x,y,-z
-x,-y,-z
x,-y,z
loop_
_atom_site_type_symbol
_atom_site_label
_atom_site_fract_x
_atom_site_fract_y
_atom_site_fract_z
Si Si1 0.406082 0.305145 0.071134
Si Si2 0.890744 0.807525 0.209206
Si Si3 0.439179 0.694001 0.789358
Si Si4 0.049333 0.306097 0.350250
Si Si5 0.662163 0.313321 0.505020
Si Si6 0.260903 0.809439 0.656385
Si Si7 0.260317 0.696623 0.929426
O O1 0.400113 0.500000 0.072789
O O2 0.576008 0.252573 0.069609
O O3 0.152236 0.243719 0.140717
O O4 0.500000 0.253625 0.000000
O O5 0.740863 0.740612 0.204875
O O6 0.794836 0.749473 0.280391
O O7 0.875983 0.000000 0.212021
O O8 0.450851 0.500000 0.788691
O O9 0.692742 0.753533 0.715930
O O10 0.357334 0.750542 0.858058
O O11 0.052219 0.500000 0.353528
O O12 0.901075 0.246107 0.428595
O O13 0.910733 0.266069 0.338555
O O14 0.500000 0.309266 0.500000
O O15 0.689826 0.500000 0.511210
O O16 0.517921 0.227270 0.578176
O O17 0.225273 0.000000 0.663763
O O18 0.259250 0.500000 0.929481
O O19 0.000000 0.748549 0.000000
#
# Coordination Sequence:
#
# PCOD9148663 Si02
#       7
#     4   4   4   4   4   4   4
#     4  10  20  36  61  87 108 136 174 214 260 313
#     4  11  24  38  51  74 110 145 178 217 259 308
#     4  10  20  35  55  76 102 139 179 218 262 311
#     4   9  18  33  54  80 105 132 173 224 273 318
#     4   8  15  29  50  76 104 132 169 220 270 315
#     4  10  20  33  51  76 105 140 179 215 259 318
#     4   9  17  31  54  84 110 130 164 214 257 300
#
# _framework density 19.250869999999999
#
# number of rings (size 3 to 8) (size 9 to 14) (size 15 to 20)
#    0.000    2.429    0.000    3.429    0.000    9.143 
#    0.000    1.429    0.000    6.000    0.000    0.000 
#    0.000    0.000    0.000    0.000    0.000    0.000 
#
# Total GULP energy -156247.827088 kJ/mol
# GULP energy per Si atom -5580.279539 kJ/mol
# Density = 1.920705 g / cm^3
# Si number density = 19.250870 Si / 1000 Ang^3
#
#
#
# Elastic Constant Matrix: (Units=GPa)
#
#
# Indices 1 2 3 4 5 6 
#
# 1 128.3085 -1.5866 96.5817 0.0000 -7.7588 0.0000
# 2 -1.5866 -1.4819 9.8994 0.0000 -1.4240 0.0000
# 3 96.5817 9.8994 203.1488 0.0000 -7.7632 0.0000
# 4 0.0000 0.0000 0.0000 11.8648 0.0000 5.8269
# 5 -7.7588 -1.4240 -7.7632 0.0000 34.1217 0.0000
# 6 0.0000 0.0000 0.0000 5.8269 0.0000 -3.3685
#
#
#
# Elastic Compliance Matrix: (Units=1/GPa)
#
#
# Indices 1 2 3 4 5 6 
#
# 1 0.009753 -0.031352 -0.003101 0.000000 0.000204 0.000000
# 2 -0.031352 -0.400048 0.033783 0.000000 -0.016138 0.000000
# 3 -0.003101 0.033783 0.004819 0.000000 0.001801 0.000000
# 4 0.000000 0.000000 0.000000 0.045570 0.000000 0.078828
# 5 0.000204 -0.016138 0.001801 0.000000 0.029090 0.000000
# 6 0.000000 0.000000 0.000000 0.078828 0.000000 -0.160510
#
#
# Mechanical properties :
#
#
# Convention : Reuss Voigt Hill
#
# Bulk Modulus (GPa) = -2.58521 59.97381 28.69430
# Shear Modulus (GPa) = -8.34830 23.52897 7.59034
#
# Velocity S-wave (km/s) = -2.08471 3.49983 1.98782
# Velocity P-wave (km/s) = 2.67217 6.89588 4.49515
#
# Compressibility (1/GPa) = -0.38681600
#
# Stress axis : x y z
#
# Youngs Moduli (GPa) = 102.53673 -2.49970 207.49476
#
# Poissons Ratio (x) = -0.07837 0.64345
# Poissons Ratio (y) = 3.21474 -7.00982
# Poissons Ratio (z) = 0.31797 0.08445
#
# Static dielectric constant tensor:
#      x y z
#    x 1.632590 0.000000 -0.000940 
#    y 0.000000 1.662030 0.000000 
#    z -0.000940 0.000000 1.689940 
# 
# From -- ./inp_files/37019.got.cif
#   From: 2010.05.17/outbox.cif.g08.bks.cpg/sg10_19_cif.got.tgz:37019.got - 2010.06.03 11:33:40.
