data_PCOD9148979
_publ_section_title
;
Structure prediction by ZEFSAII (Michael W. Deem and Ramdas Pophale) SiO2 
 PCOD9148979
Probable space group: P 2/M
;
_chemical_formula_sum "Si O2"
_cell_formula_units_Z 32
_cell_length_a 9.290136
_cell_length_b 14.536441
_cell_length_c 27.453656
_cell_angle_alpha 90.000000
_cell_angle_beta 30.947318
_cell_angle_gamma 90.000000
_cell_volume 1906.577257
_symmetry_space_group_name_H-M "P 2/M"
_symmetry_group_IT_number 10
_symmetry_cell_setting 'monoclinic'
loop_
_space_group_symop_operation_xyz
x,y,z
-x,y,-z
-x,-y,-z
x,-y,z
loop_
_atom_site_type_symbol
_atom_site_label
_atom_site_fract_x
_atom_site_fract_y
_atom_site_fract_z
Si Si1 0.111322 0.891598 0.571088
Si Si2 0.319114 0.611876 0.907935
Si Si3 0.249884 0.394104 0.294289
Si Si4 0.682283 0.390672 0.898096
Si Si5 0.795826 0.741040 0.604749
Si Si6 0.321297 0.606240 0.597249
Si Si7 0.763259 0.890936 0.355370
Si Si8 0.780491 0.728336 0.281394
O O1 0.427981 0.877643 0.459495
O O2 0.108635 0.865262 0.629045
O O3 0.900068 0.833804 0.600297
O O4 0.055463 0.000000 0.584596
O O5 0.317453 0.500000 0.906300
O O6 0.484016 0.643784 0.812184
O O7 0.490252 0.634157 0.907168
O O8 0.000000 0.643730 0.000000
O O9 0.300374 0.500000 0.293369
O O10 0.173014 0.337438 0.363849
O O11 0.997250 0.393135 0.328842
O O12 0.757876 0.500000 0.871993
O O13 0.958736 0.327707 0.816468
O O14 0.500000 0.379924 0.000000
O O15 0.475001 0.745226 0.680932
O O16 0.000000 0.723780 0.500000
O O17 0.500000 0.643101 0.500000
O O18 0.407127 0.500000 0.580798
O O19 0.342343 0.665295 0.639267
O O20 0.864418 0.823578 0.283596
O O21 0.810524 0.000000 0.333322
#
# Coordination Sequence:
#
# PCOD9148979 Si02
#       8
#     4   4   4   4   4   4   4   4
#     4   9  19  37  57  78 108 145 187 230 273 322
#     4   9  18  35  58  78  97 134 184 236 282 316
#     4  10  21  36  51  72 107 146 191 228 264 320
#     4  10  22  39  58  83 112 145 187 234 283 329
#     4  12  24  34  48  81 118 152 182 220 277 322
#     4  10  20  34  52  72 101 150 195 224 260 318
#     4   9  19  36  60  82 103 142 189 232 275 328
#     4  12  22  33  56  81 115 147 183 227 280 337
#
# _framework density 16.784003999999999
#
# number of rings (size 3 to 8) (size 9 to 14) (size 15 to 20)
#    0.000    1.875    2.500    2.625    3.500    2.000 
#    0.000    0.000    0.000    0.375    0.000    0.000 
#    0.000    3.000    0.000    0.000    0.000    0.000 
#
# Total GULP energy -178628.665715 kJ/mol
# GULP energy per Si atom -5582.145804 kJ/mol
# Density = 1.674580 g / cm^3
# Si number density = 16.784004 Si / 1000 Ang^3
#
#
#
# Elastic Constant Matrix: (Units=GPa)
#
#
# Indices 1 2 3 4 5 6 
#
# 1 98.4334 44.7788 35.2734 0.0000 -6.7571 0.0000
# 2 44.7788 63.3355 32.0973 0.0000 3.9237 0.0000
# 3 35.2734 32.0973 75.3435 0.0000 -12.8971 0.0000
# 4 0.0000 0.0000 0.0000 47.3023 0.0000 -41.9392
# 5 -6.7571 3.9237 -12.8971 0.0000 20.9557 0.0000
# 6 0.0000 0.0000 0.0000 -41.9392 0.0000 75.8156
#
#
#
# Elastic Compliance Matrix: (Units=1/GPa)
#
#
# Indices 1 2 3 4 5 6 
#
# 1 0.016205 -0.010861 -0.001919 0.000000 0.006077 0.000000
# 2 -0.010861 0.029536 -0.010109 0.000000 -0.015254 0.000000
# 3 -0.001919 -0.010109 0.020897 0.000000 0.014135 0.000000
# 4 0.000000 0.000000 0.000000 0.041489 0.000000 0.022951
# 5 0.006077 -0.015254 0.014135 0.000000 0.061235 0.000000
# 6 0.000000 0.000000 0.000000 0.022951 0.000000 0.025886
#
#
# Mechanical properties :
#
#
# Convention : Reuss Voigt Hill
#
# Bulk Modulus (GPa) = 47.93996 51.26792 49.60394
# Shear Modulus (GPa) = 20.16298 37.14555 28.65427
#
# Velocity S-wave (km/s) = 3.46977 4.70952 4.13635
# Velocity P-wave (km/s) = 6.68411 7.75788 7.24093
#
# Compressibility (1/GPa) = 0.02085942
#
# Stress axis : x y z
#
# Youngs Moduli (GPa) = 61.70974 33.85749 47.85299
#
# Poissons Ratio (x) = 0.36772 0.09185
# Poissons Ratio (y) = 0.67021 0.48374
# Poissons Ratio (z) = 0.11845 0.34226
#
# Static dielectric constant tensor:
#      x y z
#    x 1.570040 0.000000 -0.005190 
#    y 0.000000 1.571740 0.000000 
#    z -0.005190 0.000000 1.582430 
# 
# From -- ./inp_files/82845.got.cif
#   From: 2010.05.17/outbox.cif.g08.bks.cpg/sg10_42_cif.got.tgz:82845.got - 2010.06.03 11:33:40.
