data_PCOD9148711
_publ_section_title
;
Structure prediction by ZEFSAII (Michael W. Deem and Ramdas Pophale) SiO2 
 PCOD9148711
Probable space group: P 2/M
;
_chemical_formula_sum "Si O2"
_cell_formula_units_Z 28
_cell_length_a 14.753750
_cell_length_b 24.546089
_cell_length_c 8.549541
_cell_angle_alpha 90.000000
_cell_angle_beta 30.363177
_cell_angle_gamma 90.000000
_cell_volume 1565.059782
_symmetry_space_group_name_H-M "P 2/M"
_symmetry_group_IT_number 10
_symmetry_cell_setting 'monoclinic'
loop_
_space_group_symop_operation_xyz
x,y,z
-x,y,-z
-x,-y,-z
x,-y,z
loop_
_atom_site_type_symbol
_atom_site_label
_atom_site_fract_x
_atom_site_fract_y
_atom_site_fract_z
Si Si1 0.834226 0.644634 0.627961
Si Si2 0.314013 0.267098 0.371974
Si Si3 0.664088 0.939265 0.373248
Si Si4 0.185700 0.563647 0.628599
Si Si5 0.537813 0.355366 0.627962
Si Si6 0.812898 0.145779 0.374203
Si Si7 0.037336 0.060735 0.626752
O O1 0.820873 0.697814 0.535726
O O2 0.836385 0.594202 0.504145
O O3 0.000000 0.645477 0.500000
O O4 0.650694 0.642364 1.000000
O O5 0.356599 0.302186 0.464274
O O6 0.247517 0.206823 0.504965
O O7 0.500000 0.264237 0.000000
O O8 0.500000 0.933147 0.500000
O O9 0.675331 0.890106 0.477497
O O10 0.651894 0.000000 0.464036
O O11 0.848986 0.938343 1.000000
O O12 0.226550 0.500000 0.546901
O O13 0.340530 0.594202 0.495855
O O14 0.000000 0.568733 0.000000
O O15 0.500000 0.354523 0.500000
O O16 0.847172 0.109894 0.477497
O O17 0.000000 0.147316 0.000000
O O18 0.000000 0.066854 0.500000
O O19 0.115930 0.000000 0.535964
#
# Coordination Sequence:
#
# PCOD9148711 Si02
#       7
#     4   4   4   4   4   4   4
#     4  10  21  38  59  81 108 145 184 222 267 315
#     4   9  21  38  53  75 106 137 174 221 265 309
#     4   9  18  33  51  72  99 130 166 208 255 310
#     4  10  21  37  58  86 117 146 179 220 264 312
#     4  10  21  38  59  81 108 145 184 222 267 315
#     4  10  20  33  52  75  99 133 171 209 259 314
#     4   9  18  33  51  72  99 130 166 208 255 310
#
# _framework density 17.890691
#
# number of rings (size 3 to 8) (size 9 to 14) (size 15 to 20)
#    0.000    2.429    0.000    2.571    0.000    9.143 
#    0.000    5.714    0.000    4.286    0.000    0.000 
#    0.000    0.000    0.000    0.000    0.000    0.000 
#
# Total GULP energy -156203.569306 kJ/mol
# GULP energy per Si atom -5578.698904 kJ/mol
# Density = 1.784997 g / cm^3
# Si number density = 17.890691 Si / 1000 Ang^3
#
#
#
# Elastic Constant Matrix: (Units=GPa)
#
#
# Indices 1 2 3 4 5 6 
#
# 1 171.7598 112.2148 42.6578 0.0000 -2.4075 0.0000
# 2 112.2148 204.1441 50.0054 0.0000 -2.0600 0.0000
# 3 42.6578 50.0054 32.3328 0.0000 -2.2099 0.0000
# 4 0.0000 0.0000 0.0000 32.4059 0.0000 0.5985
# 5 -2.4075 -2.0600 -2.2099 0.0000 28.2079 0.0000
# 6 0.0000 0.0000 0.0000 0.5985 0.0000 14.3353
#
#
#
# Elastic Compliance Matrix: (Units=1/GPa)
#
#
# Indices 1 2 3 4 5 6 
#
# 1 0.010140 -0.003698 -0.007660 0.000000 -0.000005 0.000000
# 2 -0.003698 0.009238 -0.009436 0.000000 -0.000380 0.000000
# 3 -0.007660 -0.009436 0.055834 0.000000 0.003031 0.000000
# 4 0.000000 0.000000 0.000000 0.030882 0.000000 -0.001289
# 5 -0.000005 -0.000380 0.003031 0.000000 0.035660 0.000000
# 6 0.000000 0.000000 0.000000 -0.001289 0.000000 0.069812
#
#
# Mechanical properties :
#
#
# Convention : Reuss Voigt Hill
#
# Bulk Modulus (GPa) = 29.73817 90.88809 60.31313
# Shear Modulus (GPa) = 18.91340 28.54707 23.73023
#
# Velocity S-wave (km/s) = 3.25493 3.99888 3.64593
# Velocity P-wave (km/s) = 5.54837 8.49903 7.17697
#
# Compressibility (1/GPa) = 0.03362681
#
# Stress axis : x y z
#
# Youngs Moduli (GPa) = 98.61779 108.24305 17.91008
#
# Poissons Ratio (x) = 0.40024 0.13719
# Poissons Ratio (y) = 0.36465 0.16899
# Poissons Ratio (z) = 0.75540 1.02134
#
# Static dielectric constant tensor:
#      x y z
#    x 1.593020 0.000000 0.000490 
#    y 0.000000 1.599850 0.000000 
#    z 0.000490 0.000000 1.607890 
# 
# From -- ./inp_files/19956.got.cif
#   From: 2010.05.17/outbox.cif.g08.bks.cpg/sg10_10_cif.got.tgz:19956.got - 2010.06.03 11:33:40.
