data_PCOD9148949
_publ_section_title
;
Structure prediction by ZEFSAII (Michael W. Deem and Ramdas Pophale) SiO2 
 PCOD9148949
Probable space group: P 2/M
;
_chemical_formula_sum "Si O2"
_cell_formula_units_Z 32
_cell_length_a 15.152286
_cell_length_b 8.842268
_cell_length_c 26.778898
_cell_angle_alpha 90.000000
_cell_angle_beta 31.431320
_cell_angle_gamma 90.000000
_cell_volume 1870.979259
_symmetry_space_group_name_H-M "P 2/M"
_symmetry_group_IT_number 10
_symmetry_cell_setting 'monoclinic'
loop_
_space_group_symop_operation_xyz
x,y,z
-x,y,-z
-x,-y,-z
x,-y,z
loop_
_atom_site_type_symbol
_atom_site_label
_atom_site_fract_x
_atom_site_fract_y
_atom_site_fract_z
Si Si1 0.746348 0.319965 0.437605
Si Si2 0.402909 0.680293 0.663823
Si Si3 0.754067 0.818646 0.891080
Si Si4 0.448998 0.681689 0.099478
Si Si5 0.063090 0.180152 0.563316
Si Si6 0.696159 0.681643 0.723981
Si Si7 0.373303 0.682142 0.353244
Si Si8 0.145520 0.179836 0.717576
O O1 0.771982 0.500000 0.426624
O O2 0.561441 0.288912 0.550170
O O3 0.880514 0.241221 0.409630
O O4 0.767529 0.259386 0.371835
O O5 0.372832 0.500000 0.677801
O O6 0.472048 0.725091 0.685060
O O7 0.240696 0.764796 0.721056
O O8 0.698505 0.744926 0.865373
O O9 0.946670 0.782104 0.811890
O O10 0.735947 0.000000 0.896351
O O11 0.620997 0.753900 0.995357
O O12 0.456671 0.500000 0.090892
O O13 0.409067 0.721853 0.175853
O O14 0.203855 0.243559 0.457223
O O15 0.879044 0.241507 0.638486
O O16 0.065037 0.000000 0.562141
O O17 0.720958 0.500000 0.712901
O O18 0.609388 0.720238 0.713195
O O19 0.354058 0.500000 0.367370
O O20 0.162307 0.000000 0.704297
#
# Coordination Sequence:
#
# PCOD9148949 Si02
#       8
#     4   4   4   4   4   4   4   4
#     4  10  20  34  51  72 101 137 172 205 247 296
#     4   9  19  34  51  71  97 133 172 207 245 291
#     4  10  21  36  52  73 104 135 158 191 247 305
#     4  10  20  34  55  80 100 124 162 204 245 292
#     4  11  21  31  47  75 107 136 169 206 245 293
#     4  10  20  34  53  75 100 132 169 208 250 297
#     4   9  19  36  53  70  99 137 172 207 249 292
#     4  11  22  33  50  76 102 131 167 206 249 298
#
# _framework density 17.103342999999999
#
# number of rings (size 3 to 8) (size 9 to 14) (size 15 to 20)
#    0.000    2.000    0.000    5.625    0.000   11.000 
#    0.000    0.000    0.000    0.750    0.000    5.250 
#    0.000    0.000    0.000    0.000    0.000    0.000 
#
# Total GULP energy -178694.650394 kJ/mol
# GULP energy per Si atom -5584.207825 kJ/mol
# Density = 1.706442 g / cm^3
# Si number density = 17.103343 Si / 1000 Ang^3
#
#
#
# Elastic Constant Matrix: (Units=GPa)
#
#
# Indices 1 2 3 4 5 6 
#
# 1 143.8293 45.0252 66.9139 0.0000 6.5210 0.0000
# 2 45.0252 39.4067 32.5779 0.0000 -1.7280 0.0000
# 3 66.9139 32.5779 55.2668 0.0000 4.3937 0.0000
# 4 0.0000 0.0000 0.0000 6.5960 0.0000 -30.6699
# 5 6.5210 -1.7280 4.3937 0.0000 26.2128 0.0000
# 6 0.0000 0.0000 0.0000 -30.6699 0.0000 -33.2706
#
#
#
# Elastic Compliance Matrix: (Units=1/GPa)
#
#
# Indices 1 2 3 4 5 6 
#
# 1 0.016382 -0.004862 -0.016843 0.000000 -0.001573 0.000000
# 2 -0.004862 0.052772 -0.025939 0.000000 0.009036 0.000000
# 3 -0.016843 -0.025939 0.054303 0.000000 -0.006622 0.000000
# 4 0.000000 0.000000 0.000000 0.028679 0.000000 -0.026437
# 5 -0.001573 0.009036 -0.006622 0.000000 0.040246 0.000000
# 6 0.000000 0.000000 0.000000 -0.026437 0.000000 -0.005686
#
#
# Mechanical properties :
#
#
# Convention : Reuss Voigt Hill
#
# Bulk Modulus (GPa) = 35.50018 58.61519 47.05769
# Shear Modulus (GPa) = 17.16001 6.17336 11.66668
#
# Velocity S-wave (km/s) = 3.17095 1.90192 2.61459
# Velocity P-wave (km/s) = 5.84875 6.25848 6.05708
#
# Compressibility (1/GPa) = 0.02816887
#
# Stress axis : x y z
#
# Youngs Moduli (GPa) = 61.04183 18.94954 18.41505
#
# Poissons Ratio (x) = 0.09214 0.31017
# Poissons Ratio (y) = 0.29680 0.47766
# Poissons Ratio (z) = 1.02816 0.49152
#
# Static dielectric constant tensor:
#      x y z
#    x 1.591300 0.000000 0.006380 
#    y 0.000000 1.570170 0.000000 
#    z 0.006380 0.000000 1.555840 
# 
# From -- ./inp_files/66509.got.cif
#   From: 2010.05.17/outbox.cif.g08.bks.cpg/sg10_34_cif.got.tgz:66509.got - 2010.06.03 11:33:40.
