data_PCOD9148814
_publ_section_title
;
Structure prediction by ZEFSAII (Michael W. Deem and Ramdas Pophale) SiO2 
 PCOD9148814
Probable space group: P 2/M
;
_chemical_formula_sum "Si O2"
_cell_formula_units_Z 28
_cell_length_a 13.721011
_cell_length_b 8.818641
_cell_length_c 13.720986
_cell_angle_alpha 90.000000
_cell_angle_beta 63.342166
_cell_angle_gamma 90.000000
_cell_volume 1483.767101
_symmetry_space_group_name_H-M "P 2/M"
_symmetry_group_IT_number 10
_symmetry_cell_setting 'monoclinic'
loop_
_space_group_symop_operation_xyz
x,y,z
-x,y,-z
-x,-y,-z
x,-y,z
loop_
_atom_site_type_symbol
_atom_site_label
_atom_site_fract_x
_atom_site_fract_y
_atom_site_fract_z
Si Si1 0.609224 0.681755 0.390777
Si Si2 0.590243 0.817456 0.184552
Si Si3 0.875576 0.827604 0.593002
Si Si4 0.815448 0.182543 0.409758
Si Si5 0.250616 0.319868 0.047093
Si Si6 0.047091 0.319869 0.250615
Si Si7 0.406999 0.827604 0.124425
O O1 0.500000 0.720738 0.500000
O O2 0.618071 0.500000 0.381929
O O3 0.602321 0.749315 0.285669
O O4 0.714331 0.749316 0.397681
O O5 0.473309 0.772905 0.189021
O O6 0.592189 0.000000 0.185556
O O7 0.686787 0.760848 0.069643
O O8 0.810979 0.772905 0.526693
O O9 0.884927 0.723302 0.682679
O O10 0.000000 0.836809 0.500000
O O11 0.842641 0.000000 0.632971
O O12 0.930356 0.239152 0.313213
O O13 0.814443 0.000000 0.407813
O O14 0.255019 0.500000 0.029988
O O15 0.125325 0.275187 0.125325
O O16 0.317321 0.276696 0.115075
O O17 0.029986 0.500000 0.255018
O O18 0.367030 0.000000 0.157360
O O19 0.500000 0.836809 0.000000
#
# Coordination Sequence:
#
# PCOD9148814 Si02
#       7
#     4   4   4   4   4   4   4
#     4  11  25  43  62  83 108 141 181 228 282 335
#     4  10  21  38  59  82 111 148 189 233 277 324
#     4   8  16  31  51  77 108 143 182 223 269 319
#     4  10  21  38  59  82 111 148 189 233 277 324
#     4  10  20  33  53  84 119 152 185 225 276 332
#     4  10  20  33  53  84 119 152 185 225 276 332
#     4   8  16  31  51  77 108 143 182 223 269 319
#
# _framework density 18.870885999999999
#
# number of rings (size 3 to 8) (size 9 to 14) (size 15 to 20)
#    0.000    2.429    0.000    3.857    0.000   10.857 
#    0.000    6.429    0.000    4.286    0.000    0.000 
#    0.000    0.000    0.000    0.000    0.000    0.000 
#
# Total GULP energy -156146.443873 kJ/mol
# GULP energy per Si atom -5576.658710 kJ/mol
# Density = 1.882794 g / cm^3
# Si number density = 18.870886 Si / 1000 Ang^3
#
#
#
# Elastic Constant Matrix: (Units=GPa)
#
#
# Indices 1 2 3 4 5 6 
#
# 1 123.9786 38.5201 76.0355 0.0000 14.4267 0.0000
# 2 38.5201 55.3708 44.3797 0.0000 -3.9095 0.0000
# 3 76.0355 44.3797 118.7475 0.0000 -10.9433 0.0000
# 4 0.0000 0.0000 0.0000 55.0746 0.0000 -14.8790
# 5 14.4267 -3.9095 -10.9433 0.0000 30.0776 0.0000
# 6 0.0000 0.0000 0.0000 -14.8790 0.0000 32.7680
#
#
#
# Elastic Compliance Matrix: (Units=1/GPa)
#
#
# Indices 1 2 3 4 5 6 
#
# 1 0.017567 -0.004516 -0.010752 0.000000 -0.012925 0.000000
# 2 -0.004516 0.026945 -0.006887 0.000000 0.003163 0.000000
# 3 -0.010752 -0.006887 0.018906 0.000000 0.011141 0.000000
# 4 0.000000 0.000000 0.000000 0.020696 0.000000 0.009397
# 5 -0.012925 0.003163 0.011141 0.000000 0.043911 0.000000
# 6 0.000000 0.000000 0.000000 0.009397 0.000000 0.034785
#
#
# Mechanical properties :
#
#
# Convention : Reuss Voigt Hill
#
# Bulk Modulus (GPa) = 52.33218 68.44083 60.38651
# Shear Modulus (GPa) = 23.42037 32.86147 28.14092
#
# Velocity S-wave (km/s) = 3.52672 4.17752 3.86584
# Velocity P-wave (km/s) = 6.66150 7.72111 7.21080
#
# Compressibility (1/GPa) = 0.01910870
#
# Stress axis : x y z
#
# Youngs Moduli (GPa) = 56.92495 37.11258 52.89252
#
# Poissons Ratio (x) = 0.16760 0.56868
# Poissons Ratio (y) = 0.25707 0.36428
# Poissons Ratio (z) = 0.61204 0.25560
#
# Static dielectric constant tensor:
#      x y z
#    x 1.657630 0.000000 -0.013320 
#    y 0.000000 1.630700 0.000000 
#    z -0.013320 0.000000 1.677600 
# 
# From -- ./inp_files/63655.got.cif
#   From: 2010.05.17/outbox.cif.g08.bks.cpg/sg10_32_cif.got.tgz:63655.got - 2010.06.03 11:33:40.
