data_PCOD9148502
_publ_section_title
;
Structure prediction by ZEFSAII (Michael W. Deem and Ramdas Pophale) SiO2 
 PCOD9148502
Probable space group: P 2/M
;
_chemical_formula_sum "Si O2"
_cell_formula_units_Z 32
_cell_length_a 18.257874
_cell_length_b 7.836714
_cell_length_c 24.482150
_cell_angle_alpha 90.000000
_cell_angle_beta 148.860564
_cell_angle_gamma 90.000000
_cell_volume 1811.453735
_symmetry_space_group_name_H-M "P 2/M"
_symmetry_group_IT_number 10
_symmetry_cell_setting 'monoclinic'
loop_
_space_group_symop_operation_xyz
x,y,z
-x,y,-z
-x,-y,-z
x,-y,z
loop_
_atom_site_type_symbol
_atom_site_label
_atom_site_fract_x
_atom_site_fract_y
_atom_site_fract_z
Si Si1 0.763543 0.293217 0.090024
Si Si2 0.672681 0.297328 0.829851
Si Si3 0.374069 0.197469 0.681310
Si Si4 0.103981 0.290607 0.936779
Si Si5 0.057877 0.208745 0.477505
Si Si6 0.120499 0.697748 0.124464
Si Si7 0.455550 0.302097 0.853336
Si Si8 0.802280 0.799010 0.238628
O O1 0.762808 0.500000 0.091867
O O2 0.865603 0.239012 0.105636
O O3 0.804834 0.228589 0.175763
O O4 0.604394 0.237644 0.972050
O O5 0.698496 0.500000 0.844276
O O6 0.507983 0.271606 0.734962
O O7 0.743095 0.226038 0.819152
O O8 0.764213 0.235620 0.940499
O O9 0.217970 0.271860 0.571371
O O10 0.405794 0.212429 0.766225
O O11 0.368886 0.000000 0.663014
O O12 0.102173 0.500000 0.936447
O O13 0.960301 0.228948 0.874498
O O14 0.000000 0.260973 0.500000
O O15 0.944874 0.261364 0.359777
O O16 0.063057 0.000000 0.481227
O O17 0.152171 0.500000 0.158388
O O18 0.000000 0.697497 0.000000
O O19 0.477566 0.500000 0.852065
O O20 0.333918 0.288009 0.820968
O O21 0.787476 0.000000 0.240913
#
# Coordination Sequence:
#
# PCOD9148502 Si02
#       8
#     4   4   4   4   4   4   4   4
#     4  10  20  33  48  69 100 129 154 188 230 277
#     4   9  15  27  45  70  98 122 153 193 230 271
#     4  11  20  31  50  71  93 125 160 193 235 283
#     4   8  13  25  44  67  95 129 156 179 223 279
#     4   9  18  35  52  65  87 120 158 198 240 278
#     4   7  11  20  41  67  91 122 158 184 213 273
#     4  11  21  34  50  70  97 126 154 190 236 278
#     4  11  22  36  52  68  89 122 163 201 233 276
#
# _framework density 17.665368000000001
#
# number of rings (size 3 to 8) (size 9 to 14) (size 15 to 20)
#    0.000    2.500    2.500    3.000    0.000    2.500 
#    0.000    3.125    0.000    4.125    0.000    0.875 
#    0.000    7.000    0.000    0.000    0.000    0.000 
#
# Total GULP energy -178372.440134 kJ/mol
# GULP energy per Si atom -5574.138754 kJ/mol
# Density = 1.762516 g / cm^3
# Si number density = 17.665368 Si / 1000 Ang^3
#
#
#
# Elastic Constant Matrix: (Units=GPa)
#
#
# Indices 1 2 3 4 5 6 
#
# 1 149.7437 -4.6223 70.6253 0.0000 22.1704 0.0000
# 2 -4.6223 18.3935 -1.3326 0.0000 1.0599 0.0000
# 3 70.6253 -1.3326 86.8530 0.0000 1.7386 0.0000
# 4 0.0000 0.0000 0.0000 14.9086 0.0000 -8.1979
# 5 22.1704 1.0599 1.7386 0.0000 22.4357 0.0000
# 6 0.0000 0.0000 0.0000 -8.1979 0.0000 -3.3839
#
#
#
# Elastic Compliance Matrix: (Units=1/GPa)
#
#
# Indices 1 2 3 4 5 6 
#
# 1 0.013898 0.003448 -0.010987 0.000000 -0.013045 0.000000
# 2 0.003448 0.055440 -0.001836 0.000000 -0.005884 0.000000
# 3 -0.010987 -0.001836 0.020232 0.000000 0.009376 0.000000
# 4 0.000000 0.000000 0.000000 0.028761 0.000000 -0.069678
# 5 -0.013045 -0.005884 0.009376 0.000000 0.057014 0.000000
# 6 0.000000 0.000000 0.000000 -0.069678 0.000000 -0.126714
#
#
# Mechanical properties :
#
#
# Convention : Reuss Voigt Hill
#
# Bulk Modulus (GPa) = 14.12019 42.70346 28.41183
# Shear Modulus (GPa) = 54.95308 19.48006 37.21657
#
# Velocity S-wave (km/s) = 5.58349 3.32433 4.59492
# Velocity P-wave (km/s) = 7.04114 6.24187 6.65352
#
# Compressibility (1/GPa) = 0.07082058
#
# Stress axis : x y z
#
# Youngs Moduli (GPa) = 71.95311 18.03767 49.42615
#
# Poissons Ratio (x) = -0.06220 0.54306
# Poissons Ratio (y) = -0.24811 0.09073
# Poissons Ratio (z) = 0.79056 0.03311
#
# Static dielectric constant tensor:
#      x y z
#    x 1.626270 0.000000 0.029680 
#    y 0.000000 1.660840 0.000000 
#    z 0.029680 0.000000 1.583580 
# 
# From -- ./inp_files/56390.got.cif
#   From: 2010.05.17/outbox.cif.g08.bks.cpg/sg10_29_cif.got.tgz:56390.got - 2010.06.03 11:33:40.
