data_PCOD9148265
_publ_section_title
;
Structure prediction by ZEFSAII (Michael W. Deem and Ramdas Pophale) SiO2 
 PCOD9148265
Probable space group: P 2/M
;
_chemical_formula_sum "Si O2"
_cell_formula_units_Z 22
_cell_length_a 17.627211
_cell_length_b 16.526178
_cell_length_c 17.025116
_cell_angle_alpha 90.000000
_cell_angle_beta 162.846723
_cell_angle_gamma 90.000000
_cell_volume 1462.727797
_symmetry_space_group_name_H-M "P 2/M"
_symmetry_group_IT_number 10
_symmetry_cell_setting 'monoclinic'
loop_
_space_group_symop_operation_xyz
x,y,z
-x,y,-z
-x,-y,-z
x,-y,z
loop_
_atom_site_type_symbol
_atom_site_label
_atom_site_fract_x
_atom_site_fract_y
_atom_site_fract_z
Si Si1 0.164646 0.903751 0.893406
Si Si2 0.666832 0.141220 0.490096
Si Si3 0.754198 0.098399 0.206695
Si Si4 0.009659 0.591650 0.914471
Si Si5 0.489537 0.690958 0.584592
Si Si6 0.755277 0.000000 0.700990
O O1 0.225580 0.878747 0.864350
O O2 0.917590 0.856790 0.682611
O O3 0.100158 0.000000 0.830217
O O4 0.418242 0.890975 0.196921
O O5 0.585592 0.225679 0.448443
O O6 0.746035 0.078380 0.636525
O O7 0.000000 0.124105 0.500000
O O8 0.748967 0.000000 0.201940
O O9 0.500000 0.126607 0.000000
O O10 0.055179 0.500000 0.931670
O O11 0.238666 0.653188 0.120720
O O12 0.000000 0.588603 0.000000
O O13 0.734496 0.626708 0.618418
O O14 0.500000 0.702759 0.500000
O O15 0.500000 0.000000 0.500000
O O16 0.000000 0.000000 0.000000
#
# Coordination Sequence:
#
# PCOD9148265 Si02
#       6
#     4   4   4   4   4   2
#     4  11  20  34  49  65  91 123 160 198 239 279
#     4  12  22  35  47  66  91 126 165 203 243 270
#     4   9  17  29  47  69  87 109 146 194 236 279
#     4   9  17  31  50  69  87 110 144 191 246 295
#     4  10  20  32  47  67  91 118 156 202 235 277
#     4  12  24  36  48  60  82 124 174 214 238 258
#
# _framework density 15.040392000000001
#
# number of rings (size 3 to 8) (size 9 to 14) (size 15 to 20)
#    0.000    1.636    1.818    4.364    0.000    7.273 
#    0.000    0.000    0.000    0.000    0.000    0.000 
#    0.000    0.000    0.000    0.000    0.000  229.091 
#
# Total GULP energy -122760.726304 kJ/mol
# GULP energy per Si atom -5580.033014 kJ/mol
# Density = 1.500616 g / cm^3
# Si number density = 15.040392 Si / 1000 Ang^3
#
#
#
# Elastic Constant Matrix: (Units=GPa)
#
#
# Indices 1 2 3 4 5 6 
#
# 1 96.5918 38.2565 50.2608 0.0000 15.7996 0.0000
# 2 38.2565 72.6993 22.9294 0.0000 5.7185 0.0000
# 3 50.2608 22.9294 108.1925 0.0000 18.1295 0.0000
# 4 0.0000 0.0000 0.0000 13.1402 0.0000 2.2470
# 5 15.7996 5.7185 18.1295 0.0000 28.0506 0.0000
# 6 0.0000 0.0000 0.0000 2.2470 0.0000 5.8759
#
#
#
# Elastic Compliance Matrix: (Units=1/GPa)
#
#
# Indices 1 2 3 4 5 6 
#
# 1 0.016595 -0.006631 -0.005567 0.000000 -0.004397 0.000000
# 2 -0.006631 0.017421 -0.000720 0.000000 0.000649 0.000000
# 3 -0.005567 -0.000720 0.012820 0.000000 -0.005003 0.000000
# 4 0.000000 0.000000 0.000000 0.081427 0.000000 -0.031139
# 5 -0.004397 0.000649 -0.005003 0.000000 0.041228 0.000000
# 6 0.000000 0.000000 0.000000 -0.031139 0.000000 0.182095
#
#
# Mechanical properties :
#
#
# Convention : Reuss Voigt Hill
#
# Bulk Modulus (GPa) = 47.62119 55.59744 51.60932
# Shear Modulus (GPa) = 13.00651 20.48248 16.74449
#
# Velocity S-wave (km/s) = 2.94389 3.69430 3.34024
# Velocity P-wave (km/s) = 6.57923 7.43255 7.01887
#
# Compressibility (1/GPa) = 0.02099906
#
# Stress axis : x y z
#
# Youngs Moduli (GPa) = 60.25804 57.40220 78.00300
#
# Poissons Ratio (x) = 0.38064 0.43425
# Poissons Ratio (y) = 0.39958 0.05619
# Poissons Ratio (z) = 0.33546 0.04135
#
# Static dielectric constant tensor:
#      x y z
#    x 1.490450 0.000000 0.005660 
#    y 0.000000 1.489780 0.000000 
#    z 0.005660 0.000000 1.495560 
# 
# From -- ./inp_files/9061.got.cif
#   From: 2010.05.17/outbox.cif.g08.bks.cpg/sg10_5_cif.got.tgz:9061.got - 2010.06.03 11:33:40.
