data_PCOD9148424
_publ_section_title
;
Structure prediction by ZEFSAII (Michael W. Deem and Ramdas Pophale) SiO2 
 PCOD9148424
Probable space group: P 2/M
;
_chemical_formula_sum "Si O2"
_cell_formula_units_Z 28
_cell_length_a 9.385832
_cell_length_b 12.160306
_cell_length_c 14.146374
_cell_angle_alpha 90.000000
_cell_angle_beta 60.910669
_cell_angle_gamma 90.000000
_cell_volume 1410.930598
_symmetry_space_group_name_H-M "P 2/M"
_symmetry_group_IT_number 10
_symmetry_cell_setting 'monoclinic'
loop_
_space_group_symop_operation_xyz
x,y,z
-x,y,-z
-x,-y,-z
x,-y,z
loop_
_atom_site_type_symbol
_atom_site_label
_atom_site_fract_x
_atom_site_fract_y
_atom_site_fract_z
Si Si1 0.411499 0.718445 0.937573
Si Si2 0.729365 0.372909 0.745666
Si Si3 0.685301 0.123174 0.407378
Si Si4 0.241840 0.500000 0.525886
Si Si5 0.171512 0.269421 0.473375
Si Si6 0.606793 0.500000 0.320575
Si Si7 0.267518 0.730146 0.793303
Si Si8 0.921026 0.370370 0.868524
O O1 0.558640 0.640612 0.855201
O O2 0.344231 0.778521 0.865112
O O3 0.500000 0.776128 0.000000
O O4 0.247925 0.656400 0.023664
O O5 0.748972 0.500000 0.710477
O O6 0.731561 0.293197 0.654750
O O7 0.873379 0.347461 0.774260
O O8 0.500000 0.113658 0.500000
O O9 0.758003 0.193886 0.468849
O O10 0.700251 0.190911 0.305688
O O11 0.754615 0.000000 0.375480
O O12 0.151305 0.390514 0.524532
O O13 0.422672 0.500000 0.420016
O O14 0.275336 0.500000 0.626368
O O15 0.000000 0.221603 0.500000
O O16 0.644813 0.612056 0.253383
O O17 0.074703 0.699642 0.855330
O O18 0.957267 0.500000 0.867445
#
# Coordination Sequence:
#
# PCOD9148424 Si02
#       8
#     4   4   4   2   4   2   4   4
#     4  10  22  37  54  81 122 162 196 237 289 359
#     4  10  20  32  52  80 123 169 199 228 279 349
#     4  11  25  45  65  86 116 157 206 254 301 359
#     4  11  21  34  52  86 129 165 194 239 286 352
#     4  12  23  36  59  92 128 161 200 244 296 355
#     4  11  22  32  56  86 122 160 205 238 283 360
#     4  12  22  36  60  86 116 155 198 244 297 356
#     4  10  21  35  52  84 123 160 198 237 286 344
#
# _framework density 19.845058999999999
#
# number of rings (size 3 to 8) (size 9 to 14) (size 15 to 20)
#    0.000    1.143    2.857    4.500    2.000    2.571 
#    0.000    0.000    0.000    2.143    0.000    2.000 
#    0.000    0.000    0.000    0.000    0.000    0.000 
#
# Total GULP energy -156323.777477 kJ/mol
# GULP energy per Si atom -5582.992053 kJ/mol
# Density = 1.979989 g / cm^3
# Si number density = 19.845059 Si / 1000 Ang^3
#
#
#
# Elastic Constant Matrix: (Units=GPa)
#
#
# Indices 1 2 3 4 5 6 
#
# 1 131.4382 27.6241 51.4545 0.0000 24.5667 0.0000
# 2 27.6241 80.6459 31.4764 0.0000 12.6187 0.0000
# 3 51.4545 31.4764 111.9085 0.0000 13.1506 0.0000
# 4 0.0000 0.0000 0.0000 21.1927 0.0000 8.7936
# 5 24.5667 12.6187 13.1506 0.0000 48.5116 0.0000
# 6 0.0000 0.0000 0.0000 8.7936 0.0000 25.1759
#
#
#
# Elastic Compliance Matrix: (Units=1/GPa)
#
#
# Indices 1 2 3 4 5 6 
#
# 1 0.010085 -0.001386 -0.003811 0.000000 -0.003714 0.000000
# 2 -0.001386 0.014456 -0.003170 0.000000 -0.002199 0.000000
# 3 -0.003811 -0.003170 0.011626 0.000000 -0.000397 0.000000
# 4 0.000000 0.000000 0.000000 0.055184 0.000000 -0.019275
# 5 -0.003714 -0.002199 -0.000397 0.000000 0.023174 0.000000
# 6 0.000000 0.000000 0.000000 -0.019275 0.000000 0.046453
#
#
# Mechanical properties :
#
#
# Convention : Reuss Voigt Hill
#
# Bulk Modulus (GPa) = 51.45799 60.56696 56.01247
# Shear Modulus (GPa) = 27.14566 33.20520 30.17543
#
# Velocity S-wave (km/s) = 3.70250 4.09494 3.90365
# Velocity P-wave (km/s) = 6.65313 7.27628 6.97167
#
# Compressibility (1/GPa) = 0.01943333
#
# Stress axis : x y z
#
# Youngs Moduli (GPa) = 99.15276 69.17469 86.01047
#
# Poissons Ratio (x) = 0.09589 0.32778
# Poissons Ratio (y) = 0.13744 0.27268
# Poissons Ratio (z) = 0.37786 0.21931
#
# Static dielectric constant tensor:
#      x y z
#    x 1.797490 0.000000 0.063040 
#    y 0.000000 1.656120 0.000000 
#    z 0.063040 0.000000 1.805130 
# 
# From -- ./inp_files/60947.got.cif
#   From: 2010.05.17/outbox.cif.g08.bks.cpg/sg10_31_cif.got.tgz:60947.got - 2010.06.03 11:33:40.
