data_PCOD9148822
_publ_section_title
;
Structure prediction by ZEFSAII (Michael W. Deem and Ramdas Pophale) SiO2 
 PCOD9148822
Probable space group: P 2/M
;
_chemical_formula_sum "Si O2"
_cell_formula_units_Z 20
_cell_length_a 13.984811
_cell_length_b 7.386121
_cell_length_c 22.319569
_cell_angle_alpha 90.000000
_cell_angle_beta 158.767254
_cell_angle_gamma 90.000000
_cell_volume 834.941670
_symmetry_space_group_name_H-M "P 2/M"
_symmetry_group_IT_number 10
_symmetry_cell_setting 'monoclinic'
loop_
_space_group_symop_operation_xyz
x,y,z
-x,y,-z
-x,-y,-z
x,-y,z
loop_
_atom_site_type_symbol
_atom_site_label
_atom_site_fract_x
_atom_site_fract_y
_atom_site_fract_z
Si Si1 0.180654 0.709805 0.658638
Si Si2 0.273755 0.218124 0.083108
Si Si3 0.293749 0.294342 0.424683
Si Si4 0.685685 0.780927 0.754342
Si Si5 0.210946 0.722393 0.810462
O O1 0.100482 0.500000 0.616703
O O2 0.487684 0.716824 0.818635
O O3 0.151694 0.786011 0.708378
O O4 0.000000 0.790104 0.500000
O O5 0.325671 0.271582 0.182609
O O6 0.277455 0.000000 0.083079
O O7 0.971291 0.274373 0.894148
O O8 0.500000 0.205056 0.500000
O O9 0.250190 0.500000 0.377585
O O10 0.446569 0.295979 0.576957
O O11 0.009841 0.213599 0.271936
O O12 0.673535 0.000000 0.745115
O O13 0.202796 0.500000 0.805234
O O14 0.500000 0.775840 0.000000
#
# Coordination Sequence:
#
# PCOD9148822 Si02
#       5
#     4   4   4   4   4
#     4  10  20  33  54  81 108 141 183 226 274 325
#     4   9  19  35  55  79 107 142 181 222 270 327
#     4  10  21  35  56  83 107 138 187 229 261 318
#     4   9  19  36  55  77 109 144 177 220 278 326
#     4   9  19  35  53  76 113 149 173 215 279 330
#
# _framework density 23.953768
#
# number of rings (size 3 to 8) (size 9 to 14) (size 15 to 20)
#    0.000    2.600    0.000    2.400    2.800    4.000 
#    0.000    3.000    0.000    1.200    0.000    0.000 
#    0.000    0.000    0.000    0.000    0.000    0.000 
#
# Total GULP energy -111795.851637 kJ/mol
# GULP energy per Si atom -5589.792582 kJ/mol
# Density = 2.389925 g / cm^3
# Si number density = 23.953768 Si / 1000 Ang^3
#
#
#
# Elastic Constant Matrix: (Units=GPa)
#
#
# Indices 1 2 3 4 5 6 
#
# 1 129.1376 4.9943 54.0362 0.0000 38.9460 0.0000
# 2 4.9943 87.8037 0.6620 0.0000 -3.9647 0.0000
# 3 54.0362 0.6620 117.8242 0.0000 28.5223 0.0000
# 4 0.0000 0.0000 0.0000 26.9454 0.0000 13.3155
# 5 38.9460 -3.9647 28.5223 0.0000 42.1413 0.0000
# 6 0.0000 0.0000 0.0000 13.3155 0.0000 7.6150
#
#
#
# Elastic Compliance Matrix: (Units=1/GPa)
#
#
# Indices 1 2 3 4 5 6 
#
# 1 0.011808 -0.001044 -0.003282 0.000000 -0.008790 0.000000
# 2 -0.001044 0.011545 -0.000099 0.000000 0.002118 0.000000
# 3 -0.003282 -0.000099 0.011076 0.000000 -0.004473 0.000000
# 4 0.000000 0.000000 0.000000 0.273057 0.000000 -0.477462
# 5 -0.008790 0.002118 -0.004473 0.000000 0.035080 0.000000
# 6 0.000000 0.000000 0.000000 -0.477462 0.000000 0.966199
#
#
# Mechanical properties :
#
#
# Convention : Reuss Voigt Hill
#
# Bulk Modulus (GPa) = 39.09337 50.46115 44.77726
# Shear Modulus (GPa) = 3.77034 33.67854 18.72444
#
# Velocity S-wave (km/s) = 1.25596 3.75371 2.79891
# Velocity P-wave (km/s) = 4.29639 6.31656 5.40175
#
# Compressibility (1/GPa) = 0.02557979
#
# Stress axis : x y z
#
# Youngs Moduli (GPa) = 84.68730 86.61924 90.28904
#
# Poissons Ratio (x) = 0.09041 0.29631
# Poissons Ratio (y) = 0.08840 0.00892
# Poissons Ratio (z) = 0.27792 0.00856
#
# Static dielectric constant tensor:
#      x y z
#    x 1.913210 0.000000 0.008790 
#    y 0.000000 1.886140 0.000000 
#    z 0.008790 0.000000 1.875010 
# 
# From -- ./inp_files/17871.got.cif
#   From: 2010.05.17/outbox.cif.g08.bks.cpg/sg10_9_cif.got.tgz:17871.got - 2010.06.03 11:33:40.
