data_PCOD9148910
_publ_section_title
;
Structure prediction by ZEFSAII (Michael W. Deem and Ramdas Pophale) SiO2 
 PCOD9148910
Probable space group: P 2/M
;
_chemical_formula_sum "Si O2"
_cell_formula_units_Z 32
_cell_length_a 15.402004
_cell_length_b 8.736515
_cell_length_c 14.445405
_cell_angle_alpha 90.000000
_cell_angle_beta 91.302618
_cell_angle_gamma 90.000000
_cell_volume 1943.269045
_symmetry_space_group_name_H-M "P 2/M"
_symmetry_group_IT_number 10
_symmetry_cell_setting 'monoclinic'
loop_
_space_group_symop_operation_xyz
x,y,z
-x,y,-z
-x,-y,-z
x,-y,z
loop_
_atom_site_type_symbol
_atom_site_label
_atom_site_fract_x
_atom_site_fract_y
_atom_site_fract_z
Si Si1 0.828426 0.186034 0.678218
Si Si2 0.702357 0.174991 0.825521
Si Si3 0.979715 0.317852 0.810192
Si Si4 0.100089 0.185778 0.516821
Si Si5 0.848818 0.816743 0.278344
Si Si6 0.403268 0.316132 0.018710
Si Si7 0.128346 0.176057 0.035692
Si Si8 0.754604 0.682666 0.114705
O O1 0.737794 0.226617 0.726260
O O2 0.904078 0.270456 0.736456
O O3 0.842457 0.224433 0.571334
O O4 0.839253 0.000000 0.689289
O O5 0.632317 0.269017 0.881459
O O6 0.789594 0.176398 0.891021
O O7 0.672437 0.000000 0.817839
O O8 0.989395 0.500000 0.815501
O O9 0.949023 0.251460 0.908141
O O10 0.065278 0.239772 0.772453
O O11 0.140169 0.236894 0.615327
O O12 0.000000 0.238336 0.500000
O O13 0.095951 0.000000 0.520649
O O14 0.769670 0.751859 0.216179
O O15 0.845647 0.000000 0.277188
O O16 0.404235 0.500000 0.014405
O O17 0.500000 0.259030 0.000000
O O18 0.332370 0.263570 0.940736
O O19 0.109612 0.000000 0.011158
O O20 0.165139 0.266432 0.948869
O O21 0.753661 0.500000 0.120104
#
# Coordination Sequence:
#
# PCOD9148910 Si02
#       8
#     4   4   4   4   4   4   4   4
#     4   9  16  30  48  67  93 126 164 203 241 279
#     4   8  15  26  45  72  98 120 147 190 236 275
#     4  11  20  29  43  66  93 124 162 202 242 274
#     4   9  16  29  50  69  87 122 171 210 237 271
#     4  11  21  33  48  65  90 126 166 200 236 281
#     4   9  18  33  53  74  97 125 151 178 224 289
#     4   9  17  31  48  65  89 124 163 194 229 279
#     4  10  20  34  49  69  97 121 149 193 239 282
#
# _framework density 16.467096999999999
#
# number of rings (size 3 to 8) (size 9 to 14) (size 15 to 20)
#    0.000    2.500    1.250    3.000    0.000    4.250 
#    0.000    4.375    0.000    0.000    0.000    0.875 
#    0.000    7.000    0.000    0.000    0.000    0.000 
#
# Total GULP energy -178392.980061 kJ/mol
# GULP energy per Si atom -5574.780627 kJ/mol
# Density = 1.642962 g / cm^3
# Si number density = 16.467097 Si / 1000 Ang^3
#
#
#
# Elastic Constant Matrix: (Units=GPa)
#
#
# Indices 1 2 3 4 5 6 
#
# 1 75.2232 13.1778 57.0074 0.0000 -11.7307 0.0000
# 2 13.1778 37.2627 25.6867 0.0000 1.8521 0.0000
# 3 57.0074 25.6867 142.2215 0.0000 -6.1284 0.0000
# 4 0.0000 0.0000 0.0000 -617.9515 0.0000 88.6239
# 5 -11.7307 1.8521 -6.1284 0.0000 17.0626 0.0000
# 6 0.0000 0.0000 0.0000 88.6239 0.0000 4.1758
#
#
#
# Elastic Compliance Matrix: (Units=1/GPa)
#
#
# Indices 1 2 3 4 5 6 
#
# 1 0.021451 -0.003017 -0.007520 0.000000 0.012374 0.000000
# 2 -0.003017 0.031575 -0.004805 0.000000 -0.007227 0.000000
# 3 -0.007520 -0.004805 0.010882 0.000000 -0.000740 0.000000
# 4 0.000000 0.000000 0.000000 -0.000400 0.000000 0.008493
# 5 0.012374 -0.007227 -0.000740 0.000000 0.067634 0.000000
# 6 0.000000 0.000000 0.000000 0.008493 0.000000 0.059221
#
#
# Mechanical properties :
#
#
# Convention : Reuss Voigt Hill
#
# Bulk Modulus (GPa) = 30.09944 49.60569 39.85257
# Shear Modulus (GPa) = 21.54046 -108.75358 -43.60656
#
# Velocity S-wave (km/s) = 3.62068 -8.13550 -5.15155
# Velocity P-wave (km/s) = 5.98308 7.61964 3.33629
#
# Compressibility (1/GPa) = 0.03322320
#
# Stress axis : x y z
#
# Youngs Moduli (GPa) = 46.61738 31.67071 91.89850
#
# Poissons Ratio (x) = 0.09556 0.69110
# Poissons Ratio (y) = 0.14065 0.44155
# Poissons Ratio (z) = 0.35058 0.15217
#
# Static dielectric constant tensor:
#      x y z
#    x 1.560240 0.000000 0.012440 
#    y 0.000000 1.555670 0.000000 
#    z 0.012440 0.000000 1.586140 
# 
# From -- ./inp_files/66164.got.cif
#   From: 2010.05.17/outbox.cif.g08.bks.cpg/sg10_34_cif.got.tgz:66164.got - 2010.06.03 11:33:40.
