data_PCOD9148706
_publ_section_title
;
Structure prediction by ZEFSAII (Michael W. Deem and Ramdas Pophale) SiO2 
 PCOD9148706
Probable space group: P 2/M
;
_chemical_formula_sum "Si O2"
_cell_formula_units_Z 32
_cell_length_a 11.633348
_cell_length_b 7.581174
_cell_length_c 20.559682
_cell_angle_alpha 90.000000
_cell_angle_beta 124.460184
_cell_angle_gamma 90.000000
_cell_volume 1495.059784
_symmetry_space_group_name_H-M "P 2/M"
_symmetry_group_IT_number 10
_symmetry_cell_setting 'monoclinic'
loop_
_space_group_symop_operation_xyz
x,y,z
-x,y,-z
-x,-y,-z
x,-y,z
loop_
_atom_site_type_symbol
_atom_site_label
_atom_site_fract_x
_atom_site_fract_y
_atom_site_fract_z
Si Si1 0.988673 0.693143 0.750000
Si Si2 0.393427 0.214191 0.561092
Si Si3 0.771243 0.785809 0.938909
Si Si4 0.490380 0.783692 0.920835
Si Si5 0.317472 0.213186 0.389164
Si Si6 0.148710 0.216308 0.579165
Si Si7 0.764138 0.802516 0.250000
Si Si8 0.039146 0.213186 0.110837
O O1 0.041146 0.500000 0.750002
O O2 0.098474 0.815883 0.750000
O O3 0.832502 0.717433 0.676155
O O4 0.980187 0.717436 0.823843
O O5 0.349343 0.261723 0.473764
O O6 0.554942 0.271270 0.616340
O O7 0.277905 0.273164 0.575098
O O8 0.393945 0.000000 0.564661
O O9 0.627709 0.726836 0.924903
O O10 0.822262 0.728730 0.883661
O O11 0.764625 0.000000 0.935341
O O12 0.901814 0.738275 0.026237
O O13 0.356220 0.725160 0.835474
O O14 0.486840 0.000000 0.922042
O O15 0.500000 0.727629 0.000000
O O16 0.312617 0.000000 0.384636
O O17 0.185273 0.274840 0.664526
O O18 0.000000 0.272371 0.500000
O O19 0.142756 0.000000 0.577958
O O20 0.711835 0.000000 0.250000
O O21 0.043346 0.000000 0.115363
#
# Coordination Sequence:
#
# PCOD9148706 Si02
#       8
#     4   4   4   4   4   4   4   4
#     4  12  24  35  48  70 102 135 171 214 255 296
#     4   8  15  29  52  82 106 125 159 209 258 302
#     4   8  15  29  52  82 106 125 159 209 258 302
#     4   9  16  27  48  79 109 131 160 207 253 296
#     4   9  17  32  55  78 101 130 164 204 253 308
#     4   9  16  27  48  79 109 131 160 207 253 296
#     4  10  20  33  52  74  96 133 177 212 255 306
#     4   9  17  32  55  78 101 130 164 204 253 308
#
# _framework density 21.403828000000001
#
# number of rings (size 3 to 8) (size 9 to 14) (size 15 to 20)
#    0.000    2.750    0.000    4.125    0.000    5.000 
#    0.000    6.250    0.000    9.750    0.000    0.000 
#    0.000    0.000    0.000    0.000    0.000    0.000 
#
# Total GULP energy -178425.026261 kJ/mol
# GULP energy per Si atom -5575.782071 kJ/mol
# Density = 2.135511 g / cm^3
# Si number density = 21.403828 Si / 1000 Ang^3
#
#
#
# Elastic Constant Matrix: (Units=GPa)
#
#
# Indices 1 2 3 4 5 6 
#
# 1 196.2238 8.2428 86.4215 0.0000 1.8170 0.0000
# 2 8.2428 48.5441 9.3880 0.0000 -0.0514 0.0000
# 3 86.4215 9.3880 129.7566 0.0000 1.1564 0.0000
# 4 0.0000 0.0000 0.0000 11.0922 0.0000 -1.1381
# 5 1.8170 -0.0514 1.1564 0.0000 34.6254 0.0000
# 6 0.0000 0.0000 0.0000 -1.1381 0.0000 -14.3558
#
#
#
# Elastic Compliance Matrix: (Units=1/GPa)
#
#
# Indices 1 2 3 4 5 6 
#
# 1 0.007218 -0.000301 -0.004783 0.000000 -0.000219 0.000000
# 2 -0.000301 0.020905 -0.001313 0.000000 0.000091 0.000000
# 3 -0.004783 -0.001313 0.010989 0.000000 -0.000118 0.000000
# 4 0.000000 0.000000 0.000000 0.089426 0.000000 -0.007090
# 5 -0.000219 0.000091 -0.000118 0.000000 0.028896 0.000000
# 6 0.000000 0.000000 0.000000 -0.007090 0.000000 -0.069096
#
#
# Mechanical properties :
#
#
# Convention : Reuss Voigt Hill
#
# Bulk Modulus (GPa) = 37.99841 64.73658 51.36749
# Shear Modulus (GPa) = 45.49437 24.30384 34.89910
#
# Velocity S-wave (km/s) = 4.61534 3.37336 4.04234
# Velocity P-wave (km/s) = 6.79658 6.74416 6.77042
#
# Compressibility (1/GPa) = 0.02631689
#
# Stress axis : x y z
#
# Youngs Moduli (GPa) = 138.54983 47.83568 91.00270
#
# Poissons Ratio (x) = 0.01438 0.43530
# Poissons Ratio (y) = 0.04166 0.11949
# Poissons Ratio (z) = 0.66274 0.06281
#
# Static dielectric constant tensor:
#      x y z
#    x 1.748620 0.000000 -0.000790 
#    y 0.000000 1.815140 0.000000 
#    z -0.000790 0.000000 1.766360 
# 
# From -- ./inp_files/83644.got.cif
#   From: 2010.05.17/outbox.cif.g08.bks.cpg/sg10_42_cif.got.tgz:83644.got - 2010.06.03 11:33:40.
