data_PCOD9148650
_publ_section_title
;
Structure prediction by ZEFSAII (Michael W. Deem and Ramdas Pophale) SiO2 
 PCOD9148650
Probable space group: P 2/M
;
_chemical_formula_sum "Si O2"
_cell_formula_units_Z 28
_cell_length_a 7.240959
_cell_length_b 19.020356
_cell_length_c 13.231992
_cell_angle_alpha 90.000000
_cell_angle_beta 42.799937
_cell_angle_gamma 90.000000
_cell_volume 1238.201678
_symmetry_space_group_name_H-M "P 2/M"
_symmetry_group_IT_number 10
_symmetry_cell_setting 'monoclinic'
loop_
_space_group_symop_operation_xyz
x,y,z
-x,y,-z
-x,-y,-z
x,-y,z
loop_
_atom_site_type_symbol
_atom_site_label
_atom_site_fract_x
_atom_site_fract_y
_atom_site_fract_z
Si Si1 0.739847 0.847308 0.175386
Si Si2 0.245870 0.000000 0.821888
Si Si3 0.459237 0.714285 0.355794
Si Si4 0.151402 0.000000 0.331806
Si Si5 0.694872 0.133870 0.827875
Si Si6 0.288001 0.425393 0.175851
Si Si7 0.924122 0.720553 0.693079
Si Si8 0.729019 0.579644 0.174556
O O1 0.769162 0.922330 0.220639
O O2 0.660136 0.780448 0.272574
O O3 0.495960 0.855863 0.193115
O O4 0.000000 0.834527 0.000000
O O5 0.529083 0.000000 0.768612
O O6 0.000000 0.000000 0.000000
O O7 0.276054 0.717110 0.325564
O O8 0.633088 0.642569 0.285322
O O9 0.232831 0.722217 0.532105
O O10 0.108471 0.929741 0.283731
O O11 0.000000 0.000000 0.500000
O O12 0.837555 0.209042 0.786865
O O13 0.500000 0.115179 0.000000
O O14 0.133735 0.500000 0.239106
O O15 0.125659 0.353560 0.233024
O O16 0.476189 0.424350 0.199036
O O17 0.500000 0.426573 0.000000
O O18 0.769321 0.500000 0.198803
O O19 0.000000 0.597147 0.000000
#
# Coordination Sequence:
#
# PCOD9148650 Si02
#       8
#     4   2   4   2   4   4   4   4
#     4   9  17  30  50  72  93 126 166 198 232 293
#     4   8  16  29  46  73  94 122 157 200 235 285
#     4   9  17  28  45  70  95 122 159 201 237 286
#     4  10  21  31  54  81 101 128 171 214 246 293
#     4  10  20  33  51  75 103 129 160 205 253 291
#     4   9  17  30  48  68  90 121 158 193 235 288
#     4   9  18  29  46  70  99 124 157 199 245 286
#     4   9  17  29  46  68  92 120 156 201 244 283
#
# _framework density 22.613440000000001
#
# number of rings (size 3 to 8) (size 9 to 14) (size 15 to 20)
#    0.000    2.857    0.000    1.071    6.000    0.571 
#    0.000    2.857    0.000    3.429    0.000   10.000 
#    0.000    0.000    0.000    0.000    0.000    0.000 
#
# Total GULP energy -156230.952937 kJ/mol
# GULP energy per Si atom -5579.676891 kJ/mol
# Density = 2.256197 g / cm^3
# Si number density = 22.613440 Si / 1000 Ang^3
#
#
#
# Elastic Constant Matrix: (Units=GPa)
#
#
# Indices 1 2 3 4 5 6 
#
# 1 81.1101 3.4000 3.4037 0.0000 -8.0147 0.0000
# 2 3.4000 242.3771 105.8300 0.0000 -4.5965 0.0000
# 3 3.4037 105.8300 92.0876 0.0000 -6.2579 0.0000
# 4 0.0000 0.0000 0.0000 1.1903 0.0000 44.7621
# 5 -8.0147 -4.5965 -6.2579 0.0000 28.9237 0.0000
# 6 0.0000 0.0000 0.0000 44.7621 0.0000 -314.3981
#
#
#
# Elastic Compliance Matrix: (Units=1/GPa)
#
#
# Indices 1 2 3 4 5 6 
#
# 1 0.012681 -0.000021 -0.000209 0.000000 0.003465 0.000000
# 2 -0.000021 0.008298 -0.009587 0.000000 -0.000761 0.000000
# 3 -0.000209 -0.009587 0.022102 0.000000 0.003200 0.000000
# 4 0.000000 0.000000 0.000000 0.132218 0.000000 0.018824
# 5 0.003465 -0.000761 0.003200 0.000000 0.036105 0.000000
# 6 0.000000 0.000000 0.000000 0.018824 0.000000 -0.000501
#
#
# Mechanical properties :
#
#
# Convention : Reuss Voigt Hill
#
# Bulk Modulus (GPa) = 42.65008 71.20468 56.92738
# Shear Modulus (GPa) = 20.97734 -36.66073 -7.84170
#
# Velocity S-wave (km/s) = 3.04904 -4.03077 -1.86420
# Velocity P-wave (km/s) = 5.59437 3.14536 4.53819
#
# Compressibility (1/GPa) = 0.02344661
#
# Stress axis : x y z
#
# Youngs Moduli (GPa) = 78.85819 120.51714 45.24495
#
# Poissons Ratio (x) = 0.00250 0.00947
# Poissons Ratio (y) = 0.00164 0.43375
# Poissons Ratio (z) = 0.01651 1.15537
#
# Static dielectric constant tensor:
#      x y z
#    x 1.949780 0.000000 0.018780 
#    y 0.000000 1.902430 0.000000 
#    z 0.018780 0.000000 1.769510 
# 
# From -- ./inp_files/62591.got.cif
#   From: 2010.05.17/outbox.cif.g08.bks.cpg/sg10_32_cif.got.tgz:62591.got - 2010.06.03 11:33:40.
