data_PCOD9148893
_publ_section_title
;
Structure prediction by ZEFSAII (Michael W. Deem and Ramdas Pophale) SiO2 
 PCOD9148893
Probable space group: P 2/M
;
_chemical_formula_sum "Si O2"
_cell_formula_units_Z 24
_cell_length_a 7.401418
_cell_length_b 16.860141
_cell_length_c 7.601506
_cell_angle_alpha 90.000000
_cell_angle_beta 111.218180
_cell_angle_gamma 90.000000
_cell_volume 884.278515
_symmetry_space_group_name_H-M "P 2/M"
_symmetry_group_IT_number 10
_symmetry_cell_setting 'monoclinic'
loop_
_space_group_symop_operation_xyz
x,y,z
-x,y,-z
-x,-y,-z
x,-y,z
loop_
_atom_site_type_symbol
_atom_site_label
_atom_site_fract_x
_atom_site_fract_y
_atom_site_fract_z
Si Si1 0.276069 0.415001 0.696644
Si Si2 0.180727 0.000000 0.290572
Si Si3 0.707984 0.762200 0.797280
Si Si4 0.153904 0.869549 0.836215
Si Si5 0.741612 0.412935 0.893158
Si Si6 0.594222 0.000000 0.256708
Si Si7 0.740836 0.754503 0.411185
O O1 0.213383 0.500000 0.603016
O O2 0.510573 0.415322 0.777848
O O3 0.210778 0.338377 0.568938
O O4 0.224311 0.409380 0.884639
O O5 0.031613 0.926982 0.218258
O O6 0.365263 0.000000 0.222885
O O7 0.282876 0.000000 0.517519
O O8 0.797943 0.673754 0.842820
O O9 0.477250 0.756928 0.746346
O O10 0.726443 0.788096 0.601667
O O11 0.792294 0.821812 0.969755
O O12 0.131913 0.802115 0.681143
O O13 0.812350 0.500000 0.854009
O O14 0.672200 0.075485 0.176977
#
# Coordination Sequence:
#
# PCOD9148893 Si02
#       7
#     4   2   4   4   4   2   4
#     4   8  13  24  46  81 135 208 272 323 376 434
#     4  10  25  51  86 121 147 188 242 303 387 476
#     4  10  20  33  58 100 149 212 272 317 383 446
#     4  11  21  43  79 112 152 197 242 314 388 453
#     4   8  13  24  45  80 138 206 271 327 377 435
#     4  10  25  53  88 116 146 186 238 303 382 483
#     4  10  20  34  59  97 152 213 266 322 374 446
#
# _framework density 27.140768000000001
#
# number of rings (size 3 to 8) (size 9 to 14) (size 15 to 20)
#    0.000    2.500    1.667    2.500    0.000    3.333 
#    0.000   13.333    0.000   40.000    0.000    4.667 
#    0.000   16.000    0.000   89.333    0.000   42.167 
#
# Total GULP energy -134569.682248 kJ/mol
# GULP energy per Si atom -5607.070094 kJ/mol
# Density = 2.707899 g / cm^3
# Si number density = 27.140768 Si / 1000 Ang^3
#
#
#
# Elastic Constant Matrix: (Units=GPa)
#
#
# Indices 1 2 3 4 5 6 
#
# 1 174.8192 69.6925 58.2147 0.0000 35.8185 0.0000
# 2 69.6925 239.4836 91.3302 0.0000 -11.0714 0.0000
# 3 58.2147 91.3302 172.7869 0.0000 -5.4099 0.0000
# 4 0.0000 0.0000 0.0000 92.8548 0.0000 112.9608
# 5 35.8185 -11.0714 -5.4099 0.0000 35.6246 0.0000
# 6 0.0000 0.0000 0.0000 112.9608 0.0000 -7.8195
#
#
#
# Elastic Compliance Matrix: (Units=1/GPa)
#
#
# Indices 1 2 3 4 5 6 
#
# 1 0.009685 -0.002437 -0.002314 0.000000 -0.010846 0.000000
# 2 -0.002437 0.005896 -0.002171 0.000000 0.003953 0.000000
# 3 -0.002314 -0.002171 0.007804 0.000000 0.002837 0.000000
# 4 0.000000 0.000000 0.000000 0.000580 0.000000 0.008376
# 5 -0.010846 0.003953 0.002837 0.000000 0.040635 0.000000
# 6 0.000000 0.000000 0.000000 0.008376 0.000000 -0.006885
#
#
# Mechanical properties :
#
#
# Convention : Reuss Voigt Hill
#
# Bulk Modulus (GPa) = 104.83923 113.95160 109.39542
# Shear Modulus (GPa) = 66.89899 48.65545 57.77722
#
# Velocity S-wave (km/s) = 4.97015 4.23863 4.61890
# Velocity P-wave (km/s) = 8.46453 8.12596 8.29697
#
# Compressibility (1/GPa) = 0.00953841
#
# Stress axis : x y z
#
# Youngs Moduli (GPa) = 103.25506 169.61346 128.14304
#
# Poissons Ratio (x) = 0.41338 0.29656
# Poissons Ratio (y) = 0.25165 0.27825
# Poissons Ratio (z) = 0.23896 0.36830
#
# Static dielectric constant tensor:
#      x y z
#    x 2.141240 0.000000 0.039120 
#    y 0.000000 2.122140 0.000000 
#    z 0.039120 0.000000 2.069640 
# 
# From -- ./inp_files/42522.got.cif
#   From: 2010.05.17/outbox.cif.g08.bks.cpg/sg10_22_cif.got.tgz:42522.got - 2010.06.03 11:33:40.
