data_PCOD9148855
_publ_section_title
;
Structure prediction by ZEFSAII (Michael W. Deem and Ramdas Pophale) SiO2 
 PCOD9148855
Probable space group: P 2/M
;
_chemical_formula_sum "Si O2"
_cell_formula_units_Z 28
_cell_length_a 14.906132
_cell_length_b 7.750628
_cell_length_c 11.712399
_cell_angle_alpha 90.000000
_cell_angle_beta 68.121978
_cell_angle_gamma 90.000000
_cell_volume 1255.700260
_symmetry_space_group_name_H-M "P 2/M"
_symmetry_group_IT_number 10
_symmetry_cell_setting 'monoclinic'
loop_
_space_group_symop_operation_xyz
x,y,z
-x,y,-z
-x,-y,-z
x,-y,z
loop_
_atom_site_type_symbol
_atom_site_label
_atom_site_fract_x
_atom_site_fract_y
_atom_site_fract_z
Si Si1 0.860451 0.301862 0.141271
Si Si2 0.712879 0.301684 0.653210
Si Si3 0.080502 0.200649 0.378665
Si Si4 0.472781 0.288874 0.385609
Si Si5 0.941325 0.800783 0.862863
Si Si6 0.340710 0.709280 0.842585
Si Si7 0.389671 0.203296 0.069184
O O1 0.859288 0.500000 0.180942
O O2 0.751308 0.233244 0.188186
O O3 0.942861 0.206280 0.173376
O O4 0.895569 0.295415 0.992500
O O5 0.732404 0.500000 0.613278
O O6 0.814998 0.209628 0.613781
O O7 0.632049 0.229364 0.606091
O O8 0.662734 0.294006 0.801363
O O9 0.084447 0.273952 0.248535
O O10 0.000000 0.278422 0.500000
O O11 0.053393 0.000000 0.372966
O O12 0.500000 0.236770 0.500000
O O13 0.470694 0.500000 0.383152
O O14 0.557766 0.233894 0.259566
O O15 0.908756 0.000000 0.886893
O O16 0.338549 0.500000 0.844379
O O17 0.335684 0.770518 0.975092
O O18 0.392796 0.000000 0.094618
O O19 0.500000 0.265853 0.000000
#
# Coordination Sequence:
#
# PCOD9148855 Si02
#       7
#     4   4   4   4   4   4   4
#     4  10  20  33  55  84 113 144 180 234 291 334
#     4  11  22  37  62  89 115 150 191 241 289 337
#     4  10  23  42  61  82 115 156 194 237 289 342
#     4   9  19  36  56  80 113 150 186 226 280 340
#     4  10  20  36  57  79 108 148 188 229 282 342
#     4  10  20  35  56  83 114 149 188 232 283 340
#     4  11  22  35  56  85 118 153 189 234 285 339
#
# _framework density 22.298314999999999
#
# number of rings (size 3 to 8) (size 9 to 14) (size 15 to 20)
#    0.000    1.857    1.429    3.429    0.000    6.571 
#    0.000    1.429    0.000    3.857    0.000    0.000 
#    0.000    0.000    0.000    0.000    0.000    0.000 
#
# Total GULP energy -156509.748924 kJ/mol
# GULP energy per Si atom -5589.633890 kJ/mol
# Density = 2.224756 g / cm^3
# Si number density = 22.298315 Si / 1000 Ang^3
#
#
#
# Elastic Constant Matrix: (Units=GPa)
#
#
# Indices 1 2 3 4 5 6 
#
# 1 141.3781 -8.9109 34.7595 0.0000 4.1704 0.0000
# 2 -8.9109 39.6735 -6.6266 0.0000 -0.9633 0.0000
# 3 34.7595 -6.6266 61.0225 0.0000 14.9585 0.0000
# 4 0.0000 0.0000 0.0000 16.1078 0.0000 4.1577
# 5 4.1704 -0.9633 14.9585 0.0000 32.9627 0.0000
# 6 0.0000 0.0000 0.0000 4.1577 0.0000 19.6586
#
#
#
# Elastic Compliance Matrix: (Units=1/GPa)
#
#
# Indices 1 2 3 4 5 6 
#
# 1 0.008314 0.001076 -0.004916 0.000000 0.001210 0.000000
# 2 0.001076 0.025820 0.002295 0.000000 -0.000423 0.000000
# 3 -0.004916 0.002295 0.021679 0.000000 -0.009149 0.000000
# 4 0.000000 0.000000 0.000000 0.065666 0.000000 -0.013888
# 5 0.001210 -0.000423 -0.009149 0.000000 0.034324 0.000000
# 6 0.000000 0.000000 0.000000 -0.013888 0.000000 0.053806
#
#
# Mechanical properties :
#
#
# Convention : Reuss Voigt Hill
#
# Bulk Modulus (GPa) = 18.96690 31.16869 25.06779
# Shear Modulus (GPa) = 21.71328 28.60263 25.15796
#
# Velocity S-wave (km/s) = 3.12390 3.58540 3.36258
# Velocity P-wave (km/s) = 4.64070 5.58109 5.13248
#
# Compressibility (1/GPa) = 0.05272343
#
# Stress axis : x y z
#
# Youngs Moduli (GPa) = 120.28069 38.72911 46.12688
#
# Poissons Ratio (x) = -0.04166 0.22674
# Poissons Ratio (y) = -0.12938 -0.10585
# Poissons Ratio (z) = 0.59125 -0.08888
#
# Static dielectric constant tensor:
#      x y z
#    x 1.826190 0.000000 -0.006400 
#    y 0.000000 1.803260 0.000000 
#    z -0.006400 0.000000 1.800130 
# 
# From -- ./inp_files/49068.got.cif
#   From: 2010.05.17/outbox.cif.g08.bks.cpg/sg10_25_cif.got.tgz:49068.got - 2010.06.03 11:33:40.
