data_PCOD9148850
_publ_section_title
;
Structure prediction by ZEFSAII (Michael W. Deem and Ramdas Pophale) SiO2 
 PCOD9148850
Probable space group: P 2/M
;
_chemical_formula_sum "Si O2"
_cell_formula_units_Z 32
_cell_length_a 23.296634
_cell_length_b 7.682166
_cell_length_c 9.666284
_cell_angle_alpha 90.000000
_cell_angle_beta 60.062598
_cell_angle_gamma 90.000000
_cell_volume 1499.134659
_symmetry_space_group_name_H-M "P 2/M"
_symmetry_group_IT_number 10
_symmetry_cell_setting 'monoclinic'
loop_
_space_group_symop_operation_xyz
x,y,z
-x,y,-z
-x,-y,-z
x,-y,z
loop_
_atom_site_type_symbol
_atom_site_label
_atom_site_fract_x
_atom_site_fract_y
_atom_site_fract_z
Si Si1 0.318092 0.205593 0.006492
Si Si2 0.065208 0.794067 0.340277
Si Si3 0.533759 0.786660 0.098835
Si Si4 0.177879 0.702972 0.679305
Si Si5 0.937030 0.289522 0.982952
Si Si6 0.554187 0.211791 0.543028
Si Si7 0.802858 0.296697 0.653545
Si Si8 0.699924 0.211897 0.281326
O O1 0.261887 0.226057 0.190074
O O2 0.327985 0.000000 0.973092
O O3 0.391270 0.274185 0.959097
O O4 0.292758 0.271122 0.887228
O O5 0.132516 0.722422 0.327372
O O6 0.000000 0.725578 0.500000
O O7 0.067781 0.000000 0.361332
O O8 0.061268 0.766281 0.179505
O O9 0.478790 0.736162 0.275712
O O10 0.537160 0.000000 0.093144
O O11 0.500000 0.727411 0.000000
O O12 0.158842 0.500000 0.684054
O O13 0.125072 0.777164 0.852439
O O14 0.182752 0.777891 0.517828
O O15 0.246835 0.716613 0.676178
O O16 0.934891 0.500000 0.979509
O O17 0.000000 0.239004 0.000000
O O18 0.500000 0.271401 0.500000
O O19 0.627352 0.268063 0.418189
O O20 0.556398 0.000000 0.535383
O O21 0.789072 0.500000 0.650936
O O22 0.704725 0.000000 0.280116
#
# Coordination Sequence:
#
# PCOD9148850 Si02
#       8
#     4   4   4   4   4   4   4   4
#     4  10  20  35  55  84 117 147 187 240 292 343
#     4  11  24  41  63  93 125 153 185 232 286 335
#     4   9  17  28  47  77 111 145 184 232 286 344
#     4  10  23  40  57  82 114 148 191 240 281 329
#     4  10  21  40  66  91 117 155 199 235 273 329
#     4   9  15  28  48  74 107 141 182 231 281 338
#     4  11  24  41  60  82 114 156 197 234 280 341
#     4  10  20  33  55  83 111 146 187 234 288 344
#
# _framework density 21.345645999999999
#
# number of rings (size 3 to 8) (size 9 to 14) (size 15 to 20)
#    0.000    2.000    1.250    2.250    1.750    6.250 
#    0.000    0.000    0.000    1.500    0.000    0.000 
#    0.000    0.000    0.000    0.000    0.000    0.000 
#
# Total GULP energy -178587.502196 kJ/mol
# GULP energy per Si atom -5580.859444 kJ/mol
# Density = 2.129706 g / cm^3
# Si number density = 21.345646 Si / 1000 Ang^3
#
#
#
# Elastic Constant Matrix: (Units=GPa)
#
#
# Indices 1 2 3 4 5 6 
#
# 1 100.0383 -17.1469 65.4173 0.0000 3.6024 0.0000
# 2 -17.1469 30.8355 -12.9582 0.0000 1.1965 0.0000
# 3 65.4173 -12.9582 177.6651 0.0000 12.9577 0.0000
# 4 0.0000 0.0000 0.0000 18.1036 0.0000 4.1073
# 5 3.6024 1.1965 12.9577 0.0000 45.7498 0.0000
# 6 0.0000 0.0000 0.0000 4.1073 0.0000 10.8259
#
#
#
# Elastic Compliance Matrix: (Units=1/GPa)
#
#
# Indices 1 2 3 4 5 6 
#
# 1 0.014119 0.005839 -0.004779 0.000000 0.000089 0.000000
# 2 0.005839 0.035986 0.000589 0.000000 -0.001568 0.000000
# 3 -0.004779 0.000589 0.007561 0.000000 -0.001781 0.000000
# 4 0.000000 0.000000 0.000000 0.060440 0.000000 -0.022930
# 5 0.000089 -0.001568 -0.001781 0.000000 0.022396 0.000000
# 6 0.000000 0.000000 0.000000 -0.022930 0.000000 0.101071
#
#
# Mechanical properties :
#
#
# Convention : Reuss Voigt Hill
#
# Bulk Modulus (GPa) = 16.40316 42.12927 29.26622
# Shear Modulus (GPa) = 19.33515 33.15098 26.24306
#
# Velocity S-wave (km/s) = 3.01294 3.94516 3.51013
# Velocity P-wave (km/s) = 4.45027 6.36647 5.49258
#
# Compressibility (1/GPa) = 0.06096386
#
# Stress axis : x y z
#
# Youngs Moduli (GPa) = 70.82563 27.78886 132.25452
#
# Poissons Ratio (x) = -0.16227 0.63209
# Poissons Ratio (y) = -0.41358 -0.07788
# Poissons Ratio (z) = 0.33850 -0.01636
#
# Static dielectric constant tensor:
#      x y z
#    x 1.676060 0.000000 -0.036840 
#    y 0.000000 1.812410 0.000000 
#    z -0.036840 0.000000 1.719580 
# 
# From -- ./inp_files/35799.got.cif
#   From: 2010.05.17/outbox.cif.g08.bks.cpg/sg10_18_cif.got.tgz:35799.got - 2010.06.03 11:33:40.
