data_PCOD9148785
_publ_section_title
;
Structure prediction by ZEFSAII (Michael W. Deem and Ramdas Pophale) SiO2 
 PCOD9148785
Probable space group: P 2/M
;
_chemical_formula_sum "Si O2"
_cell_formula_units_Z 32
_cell_length_a 13.264322
_cell_length_b 7.622037
_cell_length_c 29.587901
_cell_angle_alpha 90.000000
_cell_angle_beta 150.491193
_cell_angle_gamma 90.000000
_cell_volume 1473.421690
_symmetry_space_group_name_H-M "P 2/M"
_symmetry_group_IT_number 10
_symmetry_cell_setting 'monoclinic'
loop_
_space_group_symop_operation_xyz
x,y,z
-x,y,-z
-x,-y,-z
x,-y,z
loop_
_atom_site_type_symbol
_atom_site_label
_atom_site_fract_x
_atom_site_fract_y
_atom_site_fract_z
Si Si1 0.422299 0.212282 0.608144
Si Si2 0.157749 0.293713 0.277003
Si Si3 0.406787 0.790931 0.704925
Si Si4 0.922983 0.288253 0.098083
Si Si5 0.993016 0.784518 0.397573
Si Si6 0.082434 0.204450 0.732784
Si Si7 0.472272 0.208575 0.938468
Si Si8 0.150883 0.711322 0.098084
O O1 0.615285 0.267271 0.653435
O O2 0.438451 0.277196 0.666211
O O3 0.207558 0.270257 0.503036
O O4 0.424126 0.000000 0.609763
O O5 0.120284 0.500000 0.266837
O O6 0.005249 0.222420 0.178497
O O7 0.102853 0.214766 0.303936
O O8 0.201730 0.725500 0.649016
O O9 0.611717 0.757915 0.813400
O O10 0.382246 0.000000 0.691383
O O11 0.934524 0.500000 0.103628
O O12 0.066823 0.225069 0.113679
O O13 0.689105 0.236817 0.999108
O O14 0.968445 0.723120 0.336331
O O15 0.994934 0.000000 0.398754
O O16 0.280944 0.281705 0.835820
O O17 0.130182 0.000000 0.743427
O O18 0.436874 0.000000 0.929562
O O19 0.500000 0.282503 0.000000
O O20 0.138711 0.500000 0.093498
O O21 0.000000 0.775652 0.000000
#
# Coordination Sequence:
#
# PCOD9148785 Si02
#       8
#     4   4   4   4   4   4   4   4
#     4  10  20  37  62  86 109 145 189 233 284 340
#     4  11  22  37  58  83 114 148 189 237 277 327
#     4  10  20  36  61  89 114 143 187 238 280 329
#     4  10  21  36  54  77 108 148 186 222 271 329
#     4   9  20  38  59  84 114 147 185 232 287 340
#     4  10  21  38  57  81 115 151 186 229 283 338
#     4  10  20  33  53  80 108 139 179 224 268 320
#     4  10  22  39  56  80 116 154 186 221 275 337
#
# _framework density 21.718154999999999
#
# number of rings (size 3 to 8) (size 9 to 14) (size 15 to 20)
#    0.000    2.000    2.500    0.750    1.750    4.000 
#    0.000    4.375    0.000    1.500    0.000    0.000 
#    0.000    0.000    0.000    0.000    0.000    0.000 
#
# Total GULP energy -178799.910845 kJ/mol
# GULP energy per Si atom -5587.497214 kJ/mol
# Density = 2.166872 g / cm^3
# Si number density = 21.718155 Si / 1000 Ang^3
#
#
#
# Elastic Constant Matrix: (Units=GPa)
#
#
# Indices 1 2 3 4 5 6 
#
# 1 92.8540 -9.9901 61.7255 0.0000 11.7914 0.0000
# 2 -9.9901 42.3856 -6.0847 0.0000 -8.4394 0.0000
# 3 61.7255 -6.0847 158.1555 0.0000 9.1875 0.0000
# 4 0.0000 0.0000 0.0000 20.9123 0.0000 17.3172
# 5 11.7914 -8.4394 9.1875 0.0000 35.2448 0.0000
# 6 0.0000 0.0000 0.0000 17.3172 0.0000 16.5803
#
#
#
# Elastic Compliance Matrix: (Units=1/GPa)
#
#
# Indices 1 2 3 4 5 6 
#
# 1 0.015148 0.002146 -0.005650 0.000000 -0.003081 0.000000
# 2 0.002146 0.025138 -0.000181 0.000000 0.005349 0.000000
# 3 -0.005650 -0.000181 0.008543 0.000000 -0.000380 0.000000
# 4 0.000000 0.000000 0.000000 0.353925 0.000000 -0.369655
# 5 -0.003081 0.005349 -0.000380 0.000000 0.030784 0.000000
# 6 0.000000 0.000000 0.000000 -0.369655 0.000000 0.446396
#
#
# Mechanical properties :
#
#
# Convention : Reuss Voigt Hill
#
# Bulk Modulus (GPa) = 24.12127 42.74407 33.43267
# Shear Modulus (GPa) = 5.54863 31.06377 18.30620
#
# Velocity S-wave (km/s) = 1.60012 3.78605 2.90642
# Velocity P-wave (km/s) = 3.81372 6.23187 5.16627
#
# Compressibility (1/GPa) = 0.04145719
#
# Stress axis : x y z
#
# Youngs Moduli (GPa) = 66.01584 39.78105 117.05120
#
# Poissons Ratio (x) = -0.08536 0.66139
# Poissons Ratio (y) = -0.14165 0.02119
# Poissons Ratio (z) = 0.37302 0.00720
#
# Static dielectric constant tensor:
#      x y z
#    x 1.778820 0.000000 -0.013750 
#    y 0.000000 1.809170 0.000000 
#    z -0.013750 0.000000 1.769210 
# 
# From -- ./inp_files/49781.got.cif
#   From: 2010.05.17/outbox.cif.g08.bks.cpg/sg10_25_cif.got.tgz:49781.got - 2010.06.03 11:33:40.
