data_PCOD9148789
_publ_section_title
;
Structure prediction by ZEFSAII (Michael W. Deem and Ramdas Pophale) SiO2 
 PCOD9148789
Probable space group: P 2/M
;
_chemical_formula_sum "Si O2"
_cell_formula_units_Z 32
_cell_length_a 32.121611
_cell_length_b 8.525392
_cell_length_c 12.427745
_cell_angle_alpha 90.000000
_cell_angle_beta 150.235713
_cell_angle_gamma 90.000000
_cell_volume 1689.525041
_symmetry_space_group_name_H-M "P 2/M"
_symmetry_group_IT_number 10
_symmetry_cell_setting 'monoclinic'
loop_
_space_group_symop_operation_xyz
x,y,z
-x,y,-z
-x,-y,-z
x,-y,z
loop_
_atom_site_type_symbol
_atom_site_label
_atom_site_fract_x
_atom_site_fract_y
_atom_site_fract_z
Si Si1 0.888454 0.310553 0.352145
Si Si2 0.473228 0.311092 0.061707
Si Si3 0.776260 0.187280 0.712567
Si Si4 0.280969 0.312839 0.643513
Si Si5 0.080655 0.688840 0.821282
Si Si6 0.628895 0.811315 0.540798
Si Si7 0.403527 0.808531 0.293063
Si Si8 0.746166 0.812932 0.189737
O O1 0.881262 0.500000 0.340721
O O2 0.883387 0.263323 0.215244
O O3 0.818163 0.234265 0.267741
O O4 0.982453 0.268643 0.601843
O O5 0.476756 0.500000 0.080003
O O6 0.539564 0.237440 0.291803
O O7 0.500000 0.270800 0.000000
O O8 0.377995 0.257644 0.865018
O O9 0.760900 0.248995 0.558489
O O10 0.702215 0.247560 0.626289
O O11 0.771680 0.000000 0.700367
O O12 0.863698 0.239613 0.960230
O O13 0.281598 0.500000 0.638704
O O14 0.239292 0.259521 0.660778
O O15 0.085096 0.500000 0.836489
O O16 0.633699 0.757588 0.675154
O O17 0.633675 0.000000 0.552679
O O18 0.500000 0.756900 0.500000
O O19 0.404095 0.000000 0.293248
O O20 0.342437 0.757080 0.060198
O O21 0.742926 0.000000 0.192534
#
# Coordination Sequence:
#
# PCOD9148789 Si02
#       8
#     4   4   4   4   4   4   4   4
#     4   9  19  38  62  88 116 149 187 224 274 338
#     4  10  20  35  53  76 107 145 190 235 277 323
#     4  11  22  35  54  84 116 145 186 236 286 335
#     4  11  23  39  57  77 110 152 194 237 283 337
#     4   9  19  37  62  88 116 149 184 226 276 334
#     4  10  20  33  53  80 110 145 185 228 279 335
#     4   9  18  33  52  77 111 147 181 222 271 326
#     4  11  22  37  59  84 114 150 190 233 282 335
#
# _framework density 18.940234
#
# number of rings (size 3 to 8) (size 9 to 14) (size 15 to 20)
#    0.000    2.000    1.250    3.375    0.000    4.750 
#    0.000    3.125    0.000    7.125    0.000    0.000 
#    0.000    0.000    0.000    0.000    0.000    0.000 
#
# Total GULP energy -178742.543440 kJ/mol
# GULP energy per Si atom -5585.704482 kJ/mol
# Density = 1.889713 g / cm^3
# Si number density = 18.940234 Si / 1000 Ang^3
#
#
#
# Elastic Constant Matrix: (Units=GPa)
#
#
# Indices 1 2 3 4 5 6 
#
# 1 96.8975 16.4461 49.9053 0.0000 -12.2484 0.0000
# 2 16.4461 18.8845 20.6681 0.0000 -3.9738 0.0000
# 3 49.9053 20.6681 112.3471 0.0000 -19.5694 0.0000
# 4 0.0000 0.0000 0.0000 20.5631 0.0000 5.6050
# 5 -12.2484 -3.9738 -19.5694 0.0000 31.2102 0.0000
# 6 0.0000 0.0000 0.0000 5.6050 0.0000 17.6952
#
#
#
# Elastic Compliance Matrix: (Units=1/GPa)
#
#
# Indices 1 2 3 4 5 6 
#
# 1 0.014120 -0.006759 -0.004730 0.000000 0.001715 0.000000
# 2 -0.006759 0.069561 -0.009782 0.000000 0.000071 0.000000
# 3 -0.004730 -0.009782 0.013765 0.000000 0.005529 0.000000
# 4 0.000000 0.000000 0.000000 0.053226 0.000000 -0.016859
# 5 0.001715 0.000071 0.005529 0.000000 0.036190 0.000000
# 6 0.000000 0.000000 0.000000 -0.016859 0.000000 0.061853
#
#
# Mechanical properties :
#
#
# Convention : Reuss Voigt Hill
#
# Bulk Modulus (GPa) = 18.21396 44.68533 31.44965
# Shear Modulus (GPa) = 16.15206 23.30104 19.72655
#
# Velocity S-wave (km/s) = 2.92343 3.51128 3.23075
# Velocity P-wave (km/s) = 4.58614 6.33110 5.52791
#
# Compressibility (1/GPa) = 0.05490293
#
# Stress axis : x y z
#
# Youngs Moduli (GPa) = 70.81959 14.37594 72.64927
#
# Poissons Ratio (x) = 0.09717 0.34364
# Poissons Ratio (y) = 0.47870 0.71065
# Poissons Ratio (z) = 0.33499 0.14062
#
# Static dielectric constant tensor:
#      x y z
#    x 1.651680 0.000000 0.006940 
#    y 0.000000 1.641570 0.000000 
#    z 0.006940 0.000000 1.639900 
# 
# From -- ./inp_files/58364.got.cif
#   From: 2010.05.17/outbox.cif.g08.bks.cpg/sg10_30_cif.got.tgz:58364.got - 2010.06.03 11:33:40.
