data_PCOD9148039
_publ_section_title
;
Structure prediction by ZEFSAII (Michael W. Deem and Ramdas Pophale) SiO2 
 PCOD9148039
Probable space group: P 2/M
;
_chemical_formula_sum "Si O2"
_cell_formula_units_Z 32
_cell_length_a 15.686672
_cell_length_b 20.791300
_cell_length_c 15.686683
_cell_angle_alpha 90.000000
_cell_angle_beta 161.248529
_cell_angle_gamma 90.000000
_cell_volume 1644.658082
_symmetry_space_group_name_H-M "P 2/M"
_symmetry_group_IT_number 10
_symmetry_cell_setting 'monoclinic'
loop_
_space_group_symop_operation_xyz
x,y,z
-x,y,-z
-x,-y,-z
x,-y,z
loop_
_atom_site_type_symbol
_atom_site_label
_atom_site_fract_x
_atom_site_fract_y
_atom_site_fract_z
Si Si1 0.927658 0.750000 0.572341
Si Si2 0.493655 0.426695 0.195289
Si Si3 0.947419 0.389670 0.353727
Si Si4 0.146270 0.889671 0.552578
Si Si5 0.535837 0.692980 0.337739
Si Si6 0.779772 0.749998 0.720230
Si Si7 0.837741 0.807020 0.035837
Si Si8 0.695289 0.073305 0.993653
O O1 0.845211 0.811469 0.439332
O O2 0.685026 0.719793 0.395255
O O3 0.060673 0.688531 0.654794
O O4 0.104737 0.780207 0.814968
O O5 0.456385 0.500000 0.186658
O O6 0.420127 0.374752 0.198352
O O7 0.800658 0.414042 0.462073
O O8 0.315479 0.413523 0.942725
O O9 0.000000 0.411275 0.500000
O O10 0.000000 0.911276 0.500000
O O11 0.962071 0.914043 0.300655
O O12 0.442723 0.913523 0.815475
O O13 0.726716 0.693055 0.600690
O O14 0.333780 0.750000 0.166223
O O15 0.500000 0.765113 0.500000
O O16 0.899311 0.806943 0.773288
O O17 0.000000 0.734881 0.000000
O O18 0.698356 0.874751 0.920130
O O19 0.686658 0.000000 0.956383
#
# Coordination Sequence:
#
# PCOD9148039 Si02
#       8
#     4   4   4   4   4   4   4   4
#     4   9  19  34  55  86 112 152 204 248 293 344
#     4  11  24  39  57  83 116 159 204 242 289 349
#     4  11  22  36  56  81 116 156 203 258 305 339
#     4  11  22  36  56  81 116 156 203 258 305 339
#     4  10  19  38  63  85 116 154 194 237 284 356
#     4  11  22  36  63 100 121 140 179 244 301 350
#     4  10  19  38  63  85 116 154 194 237 284 356
#     4  11  24  39  57  83 116 159 204 242 289 349
#
# _framework density 19.456932999999999
#
# number of rings (size 3 to 8) (size 9 to 14) (size 15 to 20)
#    0.000    1.500    3.750    1.875    0.000    3.000 
#    0.000    2.500    0.000    1.500    0.000    0.000 
#    0.000    0.000    0.000    0.000    0.000    0.000 
#
# Total GULP energy -178423.012917 kJ/mol
# GULP energy per Si atom -5575.719154 kJ/mol
# Density = 1.941265 g / cm^3
# Si number density = 19.456933 Si / 1000 Ang^3
#
#
#
# Elastic Constant Matrix: (Units=GPa)
#
#
# Indices 1 2 3 4 5 6 
#
# 1 75.6979 30.2103 5.6126 0.0000 -2.2152 0.0000
# 2 30.2103 151.8054 23.3611 0.0000 -1.2473 0.0000
# 3 5.6126 23.3611 59.6756 0.0000 -0.7016 0.0000
# 4 0.0000 0.0000 0.0000 18.5236 0.0000 3.9206
# 5 -2.2152 -1.2473 -0.7016 0.0000 29.2352 0.0000
# 6 0.0000 0.0000 0.0000 3.9206 0.0000 -3.0219
#
#
#
# Elastic Compliance Matrix: (Units=1/GPa)
#
#
# Indices 1 2 3 4 5 6 
#
# 1 0.014381 -0.002817 -0.000238 0.000000 0.000964 0.000000
# 2 -0.002817 0.007563 -0.002695 0.000000 0.000045 0.000000
# 3 -0.000238 -0.002695 0.017838 0.000000 0.000295 0.000000
# 4 0.000000 0.000000 0.000000 0.042355 0.000000 0.054950
# 5 0.000964 0.000045 0.000295 0.000000 0.034287 0.000000
# 6 0.000000 0.000000 0.000000 0.054950 0.000000 -0.259624
#
#
# Mechanical properties :
#
#
# Convention : Reuss Voigt Hill
#
# Bulk Modulus (GPa) = 35.36018 45.06076 40.21047
# Shear Modulus (GPa) = -40.89280 24.14703 -8.37288
#
# Velocity S-wave (km/s) = -4.58941 3.52668 -2.07669
# Velocity P-wave (km/s) = 3.14175 6.30815 3.86796
#
# Compressibility (1/GPa) = 0.02828040
#
# Stress axis : x y z
#
# Youngs Moduli (GPa) = 69.53801 132.21976 56.05931
#
# Poissons Ratio (x) = 0.37250 0.01336
# Poissons Ratio (y) = 0.19591 0.15109
# Poissons Ratio (z) = 0.01657 0.35636
#
# Static dielectric constant tensor:
#      x y z
#    x 1.700050 0.000000 0.010260 
#    y 0.000000 1.736670 0.000000 
#    z 0.010260 0.000000 1.756420 
# 
# From -- ./inp_files/67964.got.cif
#   From: 2010.05.17/outbox.cif.g08.bks.cpg/sg10_34_cif.got.tgz:67964.got - 2010.06.03 11:33:40.
