data_PCOD9148586
_publ_section_title
;
Structure prediction by ZEFSAII (Michael W. Deem and Ramdas Pophale) SiO2 
 PCOD9148586
Probable space group: P 2/M
;
_chemical_formula_sum "Si O2"
_cell_formula_units_Z 32
_cell_length_a 19.300710
_cell_length_b 14.477351
_cell_length_c 23.631345
_cell_angle_alpha 90.000000
_cell_angle_beta 17.707050
_cell_angle_gamma 90.000000
_cell_volume 2008.348378
_symmetry_space_group_name_H-M "P 2/M"
_symmetry_group_IT_number 10
_symmetry_cell_setting 'monoclinic'
loop_
_space_group_symop_operation_xyz
x,y,z
-x,y,-z
-x,-y,-z
x,-y,z
loop_
_atom_site_type_symbol
_atom_site_label
_atom_site_fract_x
_atom_site_fract_y
_atom_site_fract_z
Si Si1 0.080685 0.390709 0.113935
Si Si2 0.792694 0.606852 0.707303
Si Si3 0.302221 0.609292 0.503153
Si Si4 0.507471 0.293831 0.146293
Si Si5 0.880773 0.895215 0.706899
Si Si6 0.530063 0.104788 0.882266
Si Si7 0.107602 0.706171 0.546158
Si Si8 0.826971 0.387896 0.086503
O O1 0.141769 0.500000 0.069710
O O2 0.830022 0.380560 0.334999
O O3 0.256166 0.334136 0.015924
O O4 0.101330 0.361297 0.032746
O O5 0.742472 0.500000 0.757528
O O6 0.582096 0.657360 0.841279
O O7 0.000000 0.610815 0.500000
O O8 0.888605 0.657357 0.688017
O O9 0.295854 0.500000 0.492657
O O10 0.167817 0.665860 0.560086
O O11 0.565055 0.638699 0.300859
O O12 0.505866 0.185045 0.134705
O O13 0.322487 0.314863 0.338750
O O14 0.758636 0.878003 0.741363
O O15 0.056444 0.814954 0.584125
O O16 0.971163 0.000000 0.636213
O O17 0.678540 0.891563 0.910725
O O18 0.541620 0.000000 0.851001
O O19 0.833194 0.500000 0.083391
O O20 0.000000 0.354121 0.000000
#
# Coordination Sequence:
#
# PCOD9148586 Si02
#       8
#     4   4   4   4   4   4   4   4
#     4  10  20  33  50  73 102 135 167 203 247 293
#     4   9  18  28  40  61  90 129 171 207 243 283
#     4  10  20  33  50  73 102 135 167 203 247 293
#     4  11  19  30  47  67  95 130 168 212 252 288
#     4   9  18  32  47  63  89 126 168 215 260 299
#     4   9  18  32  47  63  89 126 168 215 260 299
#     4  11  19  30  47  67  95 130 168 212 252 288
#     4   9  18  34  54  75 100 129 162 201 244 297
#
# _framework density 15.933491
#
# number of rings (size 3 to 8) (size 9 to 14) (size 15 to 20)
#    0.000    2.250    2.500    2.250    0.000    2.000 
#    0.000    3.750    0.000    3.000    0.000    0.000 
#    0.000    2.000    0.000    5.250    0.000    0.250 
#
# Total GULP energy -178533.764016 kJ/mol
# GULP energy per Si atom -5579.180125 kJ/mol
# Density = 1.589723 g / cm^3
# Si number density = 15.933491 Si / 1000 Ang^3
#
#
#
# Elastic Constant Matrix: (Units=GPa)
#
#
# Indices 1 2 3 4 5 6 
#
# 1 100.7046 37.8079 49.3091 0.0000 -13.3133 0.0000
# 2 37.8079 68.7008 22.1270 0.0000 -6.0654 0.0000
# 3 49.3091 22.1270 68.8766 0.0000 1.0131 0.0000
# 4 0.0000 0.0000 0.0000 17.4072 0.0000 3.6896
# 5 -13.3133 -6.0654 1.0131 0.0000 14.0358 0.0000
# 6 0.0000 0.0000 0.0000 3.6896 0.0000 7.8789
#
#
#
# Elastic Compliance Matrix: (Units=1/GPa)
#
#
# Indices 1 2 3 4 5 6 
#
# 1 0.021179 -0.005619 -0.013631 0.000000 0.018644 0.000000
# 2 -0.005619 0.018533 -0.001973 0.000000 0.002821 0.000000
# 3 -0.013631 -0.001973 0.025140 0.000000 -0.015597 0.000000
# 4 0.000000 0.000000 0.000000 0.063778 0.000000 -0.029866
# 5 0.018644 0.002821 -0.015597 0.000000 0.091276 0.000000
# 6 0.000000 0.000000 0.000000 -0.029866 0.000000 0.140906
#
#
# Mechanical properties :
#
#
# Convention : Reuss Voigt Hill
#
# Bulk Modulus (GPa) = 44.62989 50.75220 47.69105
# Shear Modulus (GPa) = 12.17357 16.46691 14.32024
#
# Velocity S-wave (km/s) = 2.76710 3.21826 3.00117
# Velocity P-wave (km/s) = 6.18709 6.76249 6.48118
#
# Compressibility (1/GPa) = 0.02240651
#
# Stress axis : x y z
#
# Youngs Moduli (GPa) = 47.21724 53.95923 39.77659
#
# Poissons Ratio (x) = 0.30319 0.54220
# Poissons Ratio (y) = 0.26531 0.07846
# Poissons Ratio (z) = 0.64362 0.10644
#
# Static dielectric constant tensor:
#      x y z
#    x 1.510610 0.000000 0.022870 
#    y 0.000000 1.522460 0.000000 
#    z 0.022870 0.000000 1.569640 
# 
# From -- ./inp_files/69277.got.cif
#   From: 2010.05.17/outbox.cif.g08.bks.cpg/sg10_35_cif.got.tgz:69277.got - 2010.06.03 11:33:40.
