data_PCOD9148016
_publ_section_title
;
Structure prediction by ZEFSAII (Michael W. Deem and Ramdas Pophale) SiO2 
 PCOD9148016
Probable space group: P 2/M
;
_chemical_formula_sum "Si O2"
_cell_formula_units_Z 20
_cell_length_a 8.083754
_cell_length_b 20.327266
_cell_length_c 5.644892
_cell_angle_alpha 90.000000
_cell_angle_beta 96.772257
_cell_angle_gamma 90.000000
_cell_volume 921.100214
_symmetry_space_group_name_H-M "P 2/M"
_symmetry_group_IT_number 10
_symmetry_cell_setting 'monoclinic'
loop_
_space_group_symop_operation_xyz
x,y,z
-x,y,-z
-x,-y,-z
x,-y,z
loop_
_atom_site_type_symbol
_atom_site_label
_atom_site_fract_x
_atom_site_fract_y
_atom_site_fract_z
Si Si1 0.336020 0.000000 0.122630
Si Si2 0.902174 0.243100 0.729295
Si Si3 0.675878 0.422370 0.270313
Si Si4 0.317245 0.878631 0.455421
Si Si5 0.702510 0.372620 0.774245
Si Si6 0.162909 0.000000 0.683630
O O1 0.343978 0.933796 0.265782
O O2 0.500000 0.000000 0.000000
O O3 0.162970 0.000000 0.960981
O O4 0.817889 0.174237 0.643052
O O5 0.762075 0.298202 0.754179
O O6 0.000000 0.262328 0.500000
O O7 0.000000 0.237564 0.000000
O O8 0.642448 0.500000 0.246093
O O9 0.758932 0.408485 0.539872
O O10 0.497007 0.385057 0.249341
O O11 0.763857 0.399177 0.041592
O O12 0.500000 0.845872 0.500000
O O13 0.254445 0.929329 0.648171
O O14 0.000000 0.000000 0.500000
#
# Coordination Sequence:
#
# PCOD9148016 Si02
#       6
#     2   4   4   4   4   2
#     4  11  21  43  67 100 132 171 227 300 345 404
#     4  12  29  48  66  97 145 190 230 280 349 423
#     4  10  19  37  71 107 132 167 233 288 331 397
#     4  11  25  42  68  97 130 176 239 290 339 400
#     4  10  20  38  64  95 138 174 222 273 344 389
#     4  11  23  41  67  97 137 170 219 281 359 414
#
# _framework density 21.713165
#
# number of rings (size 3 to 8) (size 9 to 14) (size 15 to 20)
#    0.000    1.200    2.000    5.400    8.400    0.800 
#    3.600    0.000    0.000   20.400    0.000    0.000 
#    0.000    0.000    0.000    0.000    0.000    0.000 
#
# Total GULP energy -111352.147846 kJ/mol
# GULP energy per Si atom -5567.607392 kJ/mol
# Density = 2.166374 g / cm^3
# Si number density = 21.713165 Si / 1000 Ang^3
#
#
#
# Elastic Constant Matrix: (Units=GPa)
#
#
# Indices 1 2 3 4 5 6 
#
# 1 52.0586 30.4794 15.9659 0.0000 -2.6013 0.0000
# 2 30.4794 137.8214 16.7759 0.0000 -8.0084 0.0000
# 3 15.9659 16.7759 143.3244 0.0000 -11.3691 0.0000
# 4 0.0000 0.0000 0.0000 36.3459 0.0000 4.2225
# 5 -2.6013 -8.0084 -11.3691 0.0000 27.6175 0.0000
# 6 0.0000 0.0000 0.0000 4.2225 0.0000 10.4686
#
#
#
# Elastic Compliance Matrix: (Units=1/GPa)
#
#
# Indices 1 2 3 4 5 6 
#
# 1 0.022596 -0.004762 -0.001965 0.000000 -0.000061 0.000000
# 2 -0.004762 0.008456 -0.000311 0.000000 0.001876 0.000000
# 3 -0.001965 -0.000311 0.007454 0.000000 0.002793 0.000000
# 4 0.000000 0.000000 0.000000 0.028866 0.000000 -0.011643
# 5 -0.000061 0.001876 0.002793 0.000000 0.037897 0.000000
# 6 0.000000 0.000000 0.000000 -0.011643 0.000000 0.100220
#
#
# Mechanical properties :
#
#
# Convention : Reuss Voigt Hill
#
# Bulk Modulus (GPa) = 40.92932 51.07186 46.00059
# Shear Modulus (GPa) = 21.95804 32.88528 27.42166
#
# Velocity S-wave (km/s) = 3.18351 3.89592 3.55759
# Velocity P-wave (km/s) = 5.69244 6.61890 6.17307
#
# Compressibility (1/GPa) = 0.02443236
#
# Stress axis : x y z
#
# Youngs Moduli (GPa) = 44.25465 118.26481 134.15669
#
# Poissons Ratio (x) = 0.56314 0.26358
# Poissons Ratio (y) = 0.21073 0.04166
# Poissons Ratio (z) = 0.08695 0.03672
#
# Static dielectric constant tensor:
#      x y z
#    x 1.795260 0.000000 0.024790 
#    y 0.000000 1.715950 0.000000 
#    z 0.024790 0.000000 1.926030 
# 
# From -- ./inp_files/4211.got.cif
#   From: 2010.05.17/outbox.cif.g08.bks.cpg/sg10_3_cif.got.tgz:4211.got - 2010.06.03 11:33:40.
