data_PCOD9148405
_publ_section_title
;
Structure prediction by ZEFSAII (Michael W. Deem and Ramdas Pophale) SiO2 
 PCOD9148405
Probable space group: P 2/M
;
_chemical_formula_sum "Si O2"
_cell_formula_units_Z 32
_cell_length_a 14.408102
_cell_length_b 15.794153
_cell_length_c 7.310865
_cell_angle_alpha 90.000000
_cell_angle_beta 75.746618
_cell_angle_gamma 90.000000
_cell_volume 1612.473641
_symmetry_space_group_name_H-M "P 2/M"
_symmetry_group_IT_number 10
_symmetry_cell_setting 'monoclinic'
loop_
_space_group_symop_operation_xyz
x,y,z
-x,y,-z
-x,-y,-z
x,-y,z
loop_
_atom_site_type_symbol
_atom_site_label
_atom_site_fract_x
_atom_site_fract_y
_atom_site_fract_z
Si Si1 0.537570 0.907148 0.277962
Si Si2 0.021685 0.274506 0.208936
Si Si3 0.725901 0.828845 0.051109
Si Si4 0.069172 0.906048 0.143777
Si Si5 0.789919 0.648684 0.014313
Si Si6 0.581939 0.246084 0.830343
Si Si7 0.133283 0.592080 0.643043
Si Si8 0.685070 0.405813 0.711646
O O1 0.500000 0.913655 0.500000
O O2 0.474664 0.831948 0.227592
O O3 0.525627 0.000000 0.196728
O O4 0.648152 0.879885 0.205046
O O5 0.939812 0.330281 0.339650
O O6 0.033449 0.177806 0.267284
O O7 0.121989 0.323663 0.159122
O O8 0.000000 0.270163 0.000000
O O9 0.822078 0.881592 0.967286
O O10 0.753833 0.737525 0.119268
O O11 0.669996 0.798050 0.895296
O O12 0.067855 0.000000 0.230380
O O13 0.000000 0.910839 0.000000
O O14 0.714891 0.607187 0.911160
O O15 0.826682 0.595813 0.168041
O O16 0.621488 0.323933 0.694277
O O17 0.500000 0.285550 0.000000
O O18 0.085418 0.500000 0.641358
O O19 0.220993 0.597492 0.460778
O O20 0.642740 0.500000 0.709623
#
# Coordination Sequence:
#
# PCOD9148405 Si02
#       8
#     4   4   4   4   4   4   4   4
#     4  10  21  35  55  86 113 139 181 231 284 336
#     4   8  16  30  46  71 105 140 184 227 274 325
#     4   9  18  33  55  80 108 148 184 222 282 326
#     4   9  16  28  49  79 110 143 186 225 265 328
#     4   9  18  33  52  76 108 144 181 224 275 331
#     4   9  20  38  57  80 108 145 184 229 287 332
#     4  10  20  32  51  77 106 145 185 230 282 323
#     4  10  21  35  54  81 108 142 186 227 278 340
#
# _framework density 19.845286000000002
#
# number of rings (size 3 to 8) (size 9 to 14) (size 15 to 20)
#    0.000    2.750    0.000    1.500    1.750    6.250 
#    0.000    1.250    0.000    0.375    0.000    7.875 
#    0.000    0.000    0.000    0.000    0.000    0.000 
#
# Total GULP energy -178207.827571 kJ/mol
# GULP energy per Si atom -5568.994612 kJ/mol
# Density = 1.980012 g / cm^3
# Si number density = 19.845286 Si / 1000 Ang^3
#
#
#
# Elastic Constant Matrix: (Units=GPa)
#
#
# Indices 1 2 3 4 5 6 
#
# 1 72.6381 38.5798 11.9975 0.0000 -19.3585 0.0000
# 2 38.5798 177.1707 48.0214 0.0000 -34.6076 0.0000
# 3 11.9975 48.0214 58.8520 0.0000 -12.5382 0.0000
# 4 0.0000 0.0000 0.0000 28.8263 0.0000 -4.6674
# 5 -19.3585 -34.6076 -12.5382 0.0000 19.3139 0.0000
# 6 0.0000 0.0000 0.0000 -4.6674 0.0000 0.0021
#
#
#
# Elastic Compliance Matrix: (Units=1/GPa)
#
#
# Indices 1 2 3 4 5 6 
#
# 1 0.018847 -0.000770 0.000600 0.000000 0.017900 0.000000
# 2 -0.000770 0.009808 -0.004951 0.000000 0.013589 0.000000
# 3 0.000600 -0.004951 0.022221 0.000000 0.006155 0.000000
# 4 0.000000 0.000000 0.000000 -0.000097 0.000000 -0.214849
# 5 0.017900 0.013589 0.006155 0.000000 0.098062 0.000000
# 6 0.000000 0.000000 0.000000 -0.214849 0.000000 -1.326917
#
#
# Mechanical properties :
#
#
# Convention : Reuss Voigt Hill
#
# Bulk Modulus (GPa) = 24.61036 56.20648 40.40842
# Shear Modulus (GPa) = -4.33168 23.63262 9.65047
#
# Velocity S-wave (km/s) = -1.47901 3.45460 2.20758
# Velocity P-wave (km/s) = 3.08406 6.65554 5.18689
#
# Compressibility (1/GPa) = 0.04063330
#
# Stress axis : x y z
#
# Youngs Moduli (GPa) = 53.05786 101.95359 45.00292
#
# Poissons Ratio (x) = 0.07852 -0.02699
# Poissons Ratio (y) = 0.04086 0.22282
# Poissons Ratio (z) = -0.03182 0.50480
#
# Static dielectric constant tensor:
#      x y z
#    x 1.728180 0.000000 0.004970 
#    y 0.000000 1.768970 0.000000 
#    z 0.004970 0.000000 1.719060 
# 
# From -- ./inp_files/29501.got.cif
#   From: 2010.05.17/outbox.cif.g08.bks.cpg/sg10_15_cif.got.tgz:29501.got - 2010.06.03 11:33:40.
