data_PCOD9148186
_publ_section_title
;
Structure prediction by ZEFSAII (Michael W. Deem and Ramdas Pophale) SiO2 
 PCOD9148186
Probable space group: P 2/M
;
_chemical_formula_sum "Si O2"
_cell_formula_units_Z 24
_cell_length_a 25.218488
_cell_length_b 7.528894
_cell_length_c 18.455896
_cell_angle_alpha 90.000000
_cell_angle_beta 19.377438
_cell_angle_gamma 90.000000
_cell_volume 1162.647973
_symmetry_space_group_name_H-M "P 2/M"
_symmetry_group_IT_number 10
_symmetry_cell_setting 'monoclinic'
loop_
_space_group_symop_operation_xyz
x,y,z
-x,y,-z
-x,-y,-z
x,-y,z
loop_
_atom_site_type_symbol
_atom_site_label
_atom_site_fract_x
_atom_site_fract_y
_atom_site_fract_z
Si Si1 0.100975 0.210911 0.146313
Si Si2 0.250769 0.286046 0.347027
Si Si3 0.553451 0.286034 0.044432
Si Si4 0.595455 0.210890 0.157346
Si Si5 0.055261 0.783161 0.042868
Si Si6 0.251516 0.783172 0.650437
O O1 0.091351 0.282039 0.076786
O O2 0.929474 0.234034 0.404797
O O3 0.126093 0.000000 0.106934
O O4 0.247618 0.282986 0.004775
O O5 0.255611 0.500000 0.340559
O O6 0.377353 0.225087 0.245230
O O7 0.322089 0.225851 0.177861
O O8 0.551861 0.500000 0.044407
O O9 0.597744 0.234020 0.068115
O O10 0.427611 0.282061 0.404374
O O11 0.592080 0.000000 0.174994
O O12 0.881163 0.728356 0.237627
O O13 0.054399 0.000000 0.045044
O O14 0.183842 0.730156 0.816205
O O15 0.253277 0.000000 0.647366
#
# Coordination Sequence:
#
# PCOD9148186 Si02
#       6
#     4   4   4   4   4   4
#     4  10  20  31  46  73 105 132 158 192 237 287
#     4   9  19  36  55  72  91 121 163 205 243 286
#     4   9  19  36  55  72  91 121 163 205 243 286
#     4  10  20  31  46  73 105 132 158 192 237 287
#     4   8  14  26  45  68  94 126 163 199 234 275
#     4   8  14  26  45  68  94 126 163 199 234 275
#
# _framework density 20.642534000000001
#
# number of rings (size 3 to 8) (size 9 to 14) (size 15 to 20)
#    0.000    3.000    0.000    3.000    0.000    4.667 
#    0.000    8.333    0.000    1.000    0.000    7.000 
#    0.000    0.000    0.000    0.000    0.000    0.000 
#
# Total GULP energy -133934.972850 kJ/mol
# GULP energy per Si atom -5580.623869 kJ/mol
# Density = 2.059555 g / cm^3
# Si number density = 20.642534 Si / 1000 Ang^3
#
#
#
# Elastic Constant Matrix: (Units=GPa)
#
#
# Indices 1 2 3 4 5 6 
#
# 1 161.9418 4.2196 184.2088 0.0000 -22.3540 0.0000
# 2 4.2196 50.7599 3.0437 0.0000 -3.4247 0.0000
# 3 184.2088 3.0437 151.6333 0.0000 -10.9157 0.0000
# 4 0.0000 0.0000 0.0000 29.7762 0.0000 18.5687
# 5 -22.3540 -3.4247 -10.9157 0.0000 16.3878 0.0000
# 6 0.0000 0.0000 0.0000 18.5687 0.0000 22.8273
#
#
#
# Elastic Compliance Matrix: (Units=1/GPa)
#
#
# Indices 1 2 3 4 5 6 
#
# 1 -0.014886 -0.000400 0.017462 0.000000 -0.008758 0.000000
# 2 -0.000400 0.019973 0.000364 0.000000 0.003870 0.000000
# 3 0.017462 0.000364 -0.013555 0.000000 0.014866 0.000000
# 4 0.000000 0.000000 0.000000 0.068159 0.000000 -0.055443
# 5 -0.008758 0.003870 0.014866 0.000000 0.059785 0.000000
# 6 0.000000 0.000000 0.000000 -0.055443 0.000000 0.088907
#
#
# Mechanical properties :
#
#
# Convention : Reuss Voigt Hill
#
# Bulk Modulus (GPa) = 37.90378 83.03102 60.46740
# Shear Modulus (GPa) = 27.42333 25.32245 26.37289
#
# Velocity S-wave (km/s) = 3.64879 3.50624 3.57823
# Velocity P-wave (km/s) = 6.01277 7.53009 6.81380
#
# Compressibility (1/GPa) = 0.02638259
#
# Stress axis : x y z
#
# Youngs Moduli (GPa) = -67.17673 50.06721 -73.77215
#
# Poissons Ratio (x) = 0.02005 1.28818
# Poissons Ratio (y) = -0.02690 0.02687
# Poissons Ratio (z) = 1.17302 -0.01824
#
# Static dielectric constant tensor:
#      x y z
#    x 1.717740 0.000000 -0.006670 
#    y 0.000000 1.795430 0.000000 
#    z -0.006670 0.000000 1.715400 
# 
# From -- ./inp_files/24040.got.cif
#   From: 2010.05.17/outbox.cif.g08.bks.cpg/sg10_13_cif.got.tgz:24040.got - 2010.06.03 11:33:40.
