data_PCOD9148112
_publ_section_title
;
Structure prediction by ZEFSAII (Michael W. Deem and Ramdas Pophale) SiO2 
 PCOD9148112
Probable space group: P 2/M
;
_chemical_formula_sum "Si O2"
_cell_formula_units_Z 26
_cell_length_a 15.334021
_cell_length_b 9.263146
_cell_length_c 14.268329
_cell_angle_alpha 90.000000
_cell_angle_beta 37.127398
_cell_angle_gamma 90.000000
_cell_volume 1223.289416
_symmetry_space_group_name_H-M "P 2/M"
_symmetry_group_IT_number 10
_symmetry_cell_setting 'monoclinic'
loop_
_space_group_symop_operation_xyz
x,y,z
-x,y,-z
-x,-y,-z
x,-y,z
loop_
_atom_site_type_symbol
_atom_site_label
_atom_site_fract_x
_atom_site_fract_y
_atom_site_fract_z
Si Si1 0.265464 0.848101 0.636088
Si Si2 0.669577 0.160184 0.968818
Si Si3 0.682566 0.500000 0.879274
Si Si4 0.485588 0.749608 0.294072
Si Si5 0.998308 0.500000 0.326900
Si Si6 0.317207 0.500000 0.334985
Si Si7 0.226053 0.663826 0.849052
Si Si8 0.041292 0.218212 0.169115
O O1 0.394597 0.826568 0.452660
O O2 0.254312 0.722843 0.721685
O O3 0.113216 0.853189 0.712624
O O4 0.286612 0.000000 0.669929
O O5 0.651912 0.330123 0.944074
O O6 0.830137 0.157020 0.876522
O O7 0.654474 0.000000 0.931025
O O8 0.554429 0.158152 0.151790
O O9 0.856217 0.500000 0.737777
O O10 0.630448 0.500000 0.817026
O O11 0.379525 0.636405 0.336144
O O12 0.623277 0.672672 0.223686
O O13 0.003248 0.366016 0.253153
O O14 0.854858 0.500000 0.511025
O O15 0.175076 0.500000 0.890625
O O16 0.112340 0.756610 0.006243
#
# Coordination Sequence:
#
# PCOD9148112 Si02
#       8
#     4   4   2   4   2   2   4   4
#     4  12  26  40  58  91 132 170 218 268 315 375
#     4  10  22  44  69  96 136 173 211 269 327 387
#     4  10  24  42  73 106 127 163 220 263 331 407
#     4  11  24  40  65  91 127 173 216 257 325 385
#     4  10  19  40  69  99 129 163 204 274 329 384
#     4  12  22  42  70 101 127 162 209 279 323 392
#     4  11  24  39  62  92 125 166 221 266 311 373
#     4  10  21  39  67  93 124 171 222 260 320 381
#
# _framework density 21.254169000000001
#
# number of rings (size 3 to 8) (size 9 to 14) (size 15 to 20)
#    0.000    1.231    3.077    2.538    4.308    7.385 
#    0.000    2.308    0.000    1.846    0.000    0.000 
#    0.000    0.000    0.000    0.000    0.000    0.000 
#
# Total GULP energy -144907.390255 kJ/mol
# GULP energy per Si atom -5573.361164 kJ/mol
# Density = 2.120579 g / cm^3
# Si number density = 21.254169 Si / 1000 Ang^3
#
#
#
# Elastic Constant Matrix: (Units=GPa)
#
#
# Indices 1 2 3 4 5 6 
#
# 1 51.9995 20.6993 -2.0251 0.0000 2.6916 0.0000
# 2 20.6993 129.2159 20.0989 0.0000 1.5574 0.0000
# 3 -2.0251 20.0989 91.5988 0.0000 -5.4757 0.0000
# 4 0.0000 0.0000 0.0000 -117.7486 0.0000 -198.4920
# 5 2.6916 1.5574 -5.4757 0.0000 29.7662 0.0000
# 6 0.0000 0.0000 0.0000 -198.4920 0.0000 -318.7256
#
#
#
# Elastic Compliance Matrix: (Units=1/GPa)
#
#
# Indices 1 2 3 4 5 6 
#
# 1 0.020737 -0.003480 0.001133 0.000000 -0.001485 0.000000
# 2 -0.003480 0.008613 -0.001997 0.000000 -0.000503 0.000000
# 3 0.001133 -0.001997 0.011507 0.000000 0.002119 0.000000
# 4 0.000000 0.000000 0.000000 0.170480 0.000000 -0.106169
# 5 -0.001485 -0.000503 0.002119 0.000000 0.034145 0.000000
# 6 0.000000 0.000000 0.000000 -0.106169 0.000000 0.062981
#
#
# Mechanical properties :
#
#
# Convention : Reuss Voigt Hill
#
# Bulk Modulus (GPa) = 31.08510 38.92894 35.00702
# Shear Modulus (GPa) = 15.24970 -65.73885 -25.24458
#
# Velocity S-wave (km/s) = 2.68151 -5.56750 -3.45011
# Velocity P-wave (km/s) = 4.92387 4.79309 0.79713
#
# Compressibility (1/GPa) = 0.03216975
#
# Stress axis : x y z
#
# Youngs Moduli (GPa) = 48.22216 116.10099 86.90315
#
# Poissons Ratio (x) = 0.40407 -0.09849
# Poissons Ratio (y) = 0.16783 0.17354
# Poissons Ratio (z) = -0.05465 0.23185
#
# Static dielectric constant tensor:
#      x y z
#    x 1.760470 0.000000 -0.024380 
#    y 0.000000 -35.927890 0.000000 
#    z -0.024380 0.000000 1.742260 
# 
# From -- ./inp_files/66825.got.cif
#   From: 2010.05.17/outbox.cif.g08.bks.cpg/sg10_34_cif.got.tgz:66825.got - 2010.06.03 11:33:40.
