data_PCOD9148121
_publ_section_title
;
Structure prediction by ZEFSAII (Michael W. Deem and Ramdas Pophale) SiO2 
 PCOD9148121
Probable space group: P 2/M
;
_chemical_formula_sum "Si O2"
_cell_formula_units_Z 22
_cell_length_a 10.038242
_cell_length_b 5.656204
_cell_length_c 21.428561
_cell_angle_alpha 90.000000
_cell_angle_beta 134.883838
_cell_angle_gamma 90.000000
_cell_volume 862.063874
_symmetry_space_group_name_H-M "P 2/M"
_symmetry_group_IT_number 10
_symmetry_cell_setting 'monoclinic'
loop_
_space_group_symop_operation_xyz
x,y,z
-x,y,-z
-x,-y,-z
x,-y,z
loop_
_atom_site_type_symbol
_atom_site_label
_atom_site_fract_x
_atom_site_fract_y
_atom_site_fract_z
Si Si1 0.251880 0.000000 0.348065
Si Si2 0.800775 0.000000 0.809677
Si Si3 0.727177 0.500000 0.579671
Si Si4 0.206227 0.500000 0.542748
Si Si5 0.406997 0.000000 0.622301
Si Si6 0.747042 0.250909 0.907879
Si Si7 0.706179 0.249537 0.236048
Si Si8 0.278054 0.250570 0.908892
O O1 0.150419 0.000000 0.246877
O O2 0.212089 0.747905 0.367472
O O3 0.475651 0.000000 0.404557
O O4 0.573075 0.000000 0.726987
O O5 0.830146 0.779119 0.865484
O O6 0.500000 0.500000 0.500000
O O7 0.796105 0.500000 0.532448
O O8 0.303483 0.749256 0.593720
O O9 0.000000 0.500000 0.500000
O O10 0.801989 0.500000 0.954154
O O11 0.519761 0.252927 0.830976
O O12 0.796418 0.000000 0.955033
O O13 0.779518 0.500000 0.285188
O O14 0.735845 0.247029 0.170956
O O15 0.781389 0.000000 0.286461
O O16 0.194090 0.500000 0.901875
O O17 0.207550 0.000000 0.910562
O O18 0.500000 0.256049 0.000000
#
# Coordination Sequence:
#
# PCOD9148121 Si02
#       8
#     2   2   2   2   2   4   4   4
#     4  10  20  27  50  68  84 105 134 166 189 225
#     4   8  18  25  41  59  79  95 126 153 193 220
#     4  12  18  34  50  68  86 108 134 160 190 225
#     4  12  24  36  50  68  90 112 132 158 194 235
#     4  10  20  33  49  67  87 108 135 163 189 233
#     4   8  14  20  32  45  67  88 109 143 182 228
#     4   8  12  18  24  36  51  75 102 130 174 219
#     4   8  12  16  22  30  44  65  96 133 167 208
#
# _framework density 25.520152
#
# number of rings (size 3 to 8) (size 9 to 14) (size 15 to 20)
#    1.091    1.818    1.818    1.091    2.545    0.000 
#    0.000    0.000    0.000    0.000    0.000    0.000 
#    0.000    0.000    0.000    0.000    0.000    0.000 
#
# Total GULP energy -122691.596219 kJ/mol
# GULP energy per Si atom -5576.890737 kJ/mol
# Density = 2.546207 g / cm^3
# Si number density = 25.520152 Si / 1000 Ang^3
#
#
#
# Elastic Constant Matrix: (Units=GPa)
#
#
# Indices 1 2 3 4 5 6 
#
# 1 58.1476 23.8736 41.4747 0.0000 -4.1769 0.0000
# 2 23.8736 342.4381 44.0496 0.0000 -1.0063 0.0000
# 3 41.4747 44.0496 67.0982 0.0000 -8.6827 0.0000
# 4 0.0000 0.0000 0.0000 4.2073 0.0000 -3.6553
# 5 -4.1769 -1.0063 -8.6827 0.0000 40.9677 0.0000
# 6 0.0000 0.0000 0.0000 -3.6553 0.0000 3.3189
#
#
#
# Elastic Compliance Matrix: (Units=1/GPa)
#
#
# Indices 1 2 3 4 5 6 
#
# 1 0.030829 0.000344 -0.019407 0.000000 -0.000961 0.000000
# 2 0.000344 0.003199 -0.002363 0.000000 -0.000387 0.000000
# 3 -0.019407 -0.002363 0.028982 0.000000 0.004106 0.000000
# 4 0.000000 0.000000 0.000000 5.511861 0.000000 6.070558
# 5 -0.000961 -0.000387 0.004106 0.000000 0.025172 0.000000
# 6 0.000000 0.000000 0.000000 6.070558 0.000000 6.987190
#
#
# Mechanical properties :
#
#
# Convention : Reuss Voigt Hill
#
# Bulk Modulus (GPa) = 49.60487 76.27554 62.94020
# Shear Modulus (GPa) = 0.39567 33.58451 16.99009
#
# Velocity S-wave (km/s) = 0.39418 3.63161 2.58302
# Velocity P-wave (km/s) = 4.43699 6.89478 5.79762
#
# Compressibility (1/GPa) = 0.02015931
#
# Stress axis : x y z
#
# Youngs Moduli (GPa) = 32.43666 312.59079 34.50448
#
# Poissons Ratio (x) = -0.10760 0.66961
# Poissons Ratio (y) = -0.01117 0.08154
# Poissons Ratio (z) = 0.62949 0.73867
#
# Static dielectric constant tensor:
#      x y z
#    x 2.017320 0.000000 0.022430 
#    y 0.000000 2.152140 0.000000 
#    z 0.022430 0.000000 1.939460 
# 
# From -- ./inp_files/94397.got.cif
#   From: 2010.05.17/outbox.cif.g08.bks.cpg/sg10_48_cif.got.tgz:94397.got - 2010.06.03 11:33:40.
