data_PCOD9148888
_publ_section_title
;
Structure prediction by ZEFSAII (Michael W. Deem and Ramdas Pophale) SiO2 
 PCOD9148888
Probable space group: P 2/M
;
_chemical_formula_sum "Si O2"
_cell_formula_units_Z 24
_cell_length_a 13.777182
_cell_length_b 7.533925
_cell_length_c 13.854799
_cell_angle_alpha 90.000000
_cell_angle_beta 46.967782
_cell_angle_gamma 90.000000
_cell_volume 1051.190737
_symmetry_space_group_name_H-M "P 2/M"
_symmetry_group_IT_number 10
_symmetry_cell_setting 'monoclinic'
loop_
_space_group_symop_operation_xyz
x,y,z
-x,y,-z
-x,-y,-z
x,-y,z
loop_
_atom_site_type_symbol
_atom_site_label
_atom_site_fract_x
_atom_site_fract_y
_atom_site_fract_z
Si Si1 0.632954 0.203353 0.349693
Si Si2 0.632005 0.700679 0.138142
Si Si3 0.069213 0.714205 0.054432
Si Si4 0.410743 0.202408 0.146596
Si Si5 0.851369 0.782418 0.568957
Si Si6 0.154624 0.210528 0.646827
O O1 0.500000 0.195859 0.500000
O O2 0.608521 0.302480 0.267836
O O3 0.743294 0.285734 0.344057
O O4 0.672219 0.000000 0.297816
O O5 0.633117 0.500000 0.098538
O O6 0.512331 0.798799 0.167259
O O7 0.780528 0.777686 0.030806
O O8 0.075390 0.500000 0.042615
O O9 0.985291 0.763835 0.205555
O O10 0.000000 0.775665 0.000000
O O11 0.270159 0.278154 0.279762
O O12 0.380341 0.000000 0.136015
O O13 0.500000 0.283828 0.000000
O O14 0.833084 0.722380 0.470374
O O15 0.000000 0.731413 0.500000
O O16 0.847068 0.000000 0.572411
O O17 0.183017 0.000000 0.621333
#
# Coordination Sequence:
#
# PCOD9148888 Si02
#       6
#     4   4   4   4   4   4
#     4  10  20  35  56  84 116 149 188 240 296 350
#     4  11  23  38  58  83 116 157 193 237 294 351
#     4  10  21  38  56  80 118 157 192 235 288 344
#     4  10  22  40  64  91 117 151 196 245 294 347
#     4   9  19  37  60  88 120 149 186 240 297 347
#     4  10  20  33  57  86 113 148 190 239 291 345
#
# _framework density 22.831251999999999
#
# number of rings (size 3 to 8) (size 9 to 14) (size 15 to 20)
#    0.000    2.000    1.667    1.500    2.333    5.000 
#    0.000    2.500    0.000    1.000    0.000    0.000 
#    0.000    0.000    0.000    0.000    0.000    0.000 
#
# Total GULP energy -133991.447260 kJ/mol
# GULP energy per Si atom -5582.976969 kJ/mol
# Density = 2.277929 g / cm^3
# Si number density = 22.831252 Si / 1000 Ang^3
#
#
#
# Elastic Constant Matrix: (Units=GPa)
#
#
# Indices 1 2 3 4 5 6 
#
# 1 112.3966 5.5265 64.5453 0.0000 -1.9167 0.0000
# 2 5.5265 58.8657 -0.3327 0.0000 -0.2177 0.0000
# 3 64.5453 -0.3327 180.6636 0.0000 2.9174 0.0000
# 4 0.0000 0.0000 0.0000 54.8980 0.0000 20.1612
# 5 -1.9167 -0.2177 2.9174 0.0000 37.2802 0.0000
# 6 0.0000 0.0000 0.0000 20.1612 0.0000 48.3243
#
#
#
# Elastic Compliance Matrix: (Units=1/GPa)
#
#
# Indices 1 2 3 4 5 6 
#
# 1 0.011291 -0.001080 -0.004050 0.000000 0.000891 0.000000
# 2 -0.001080 0.017092 0.000417 0.000000 0.000012 0.000000
# 3 -0.004050 0.000417 0.006995 0.000000 -0.000753 0.000000
# 4 0.000000 0.000000 0.000000 0.021512 0.000000 -0.008975
# 5 0.000891 0.000012 -0.000753 0.000000 0.026929 0.000000
# 6 0.000000 0.000000 0.000000 -0.008975 0.000000 0.024438
#
#
# Mechanical properties :
#
#
# Convention : Reuss Voigt Hill
#
# Bulk Modulus (GPa) = 38.53270 54.60045 46.56657
# Shear Modulus (GPa) = 39.57792 46.91296 43.24544
#
# Velocity S-wave (km/s) = 4.16805 4.53787 4.35689
# Velocity P-wave (km/s) = 6.33066 7.17099 6.76389
#
# Compressibility (1/GPa) = 0.02595198
#
# Stress axis : x y z
#
# Youngs Moduli (GPa) = 88.56334 58.50832 142.95590
#
# Poissons Ratio (x) = 0.06317 0.57903
# Poissons Ratio (y) = 0.09562 -0.05961
# Poissons Ratio (z) = 0.35872 -0.02440
#
# Static dielectric constant tensor:
#      x y z
#    x 1.841020 0.000000 -0.028050 
#    y 0.000000 1.921360 0.000000 
#    z -0.028050 0.000000 1.869440 
# 
# From -- ./inp_files/66326.got.cif
#   From: 2010.05.17/outbox.cif.g08.bks.cpg/sg10_34_cif.got.tgz:66326.got - 2010.06.03 11:33:40.
