data_PCOD9148927
_publ_section_title
;
Structure prediction by ZEFSAII (Michael W. Deem and Ramdas Pophale) SiO2 
 PCOD9148927
Probable space group: P 2/M
;
_chemical_formula_sum "Si O2"
_cell_formula_units_Z 32
_cell_length_a 15.097270
_cell_length_b 7.381625
_cell_length_c 29.685585
_cell_angle_alpha 90.000000
_cell_angle_beta 26.012246
_cell_angle_gamma 90.000000
_cell_volume 1450.869121
_symmetry_space_group_name_H-M "P 2/M"
_symmetry_group_IT_number 10
_symmetry_cell_setting 'monoclinic'
loop_
_space_group_symop_operation_xyz
x,y,z
-x,y,-z
-x,-y,-z
x,-y,z
loop_
_atom_site_type_symbol
_atom_site_label
_atom_site_fract_x
_atom_site_fract_y
_atom_site_fract_z
Si Si1 0.681344 0.220893 0.029627
Si Si2 0.068656 0.222056 0.163809
Si Si3 0.223292 0.289454 0.411273
Si Si4 0.311396 0.218288 0.135385
Si Si5 0.614166 0.296495 0.570142
Si Si6 0.959072 0.782403 0.660731
Si Si7 0.646571 0.794508 0.394118
Si Si8 0.417900 0.218538 0.229575
O O1 0.498128 0.278883 0.080380
O O2 0.611820 0.278960 0.111414
O O3 0.682931 0.000000 0.030348
O O4 0.880144 0.276588 0.910941
O O5 0.254651 0.276751 0.111385
O O6 0.862167 0.286219 0.281147
O O7 0.061640 0.000000 0.167016
O O8 0.185100 0.500000 0.440441
O O9 0.332942 0.212117 0.405370
O O10 0.372832 0.280222 0.300533
O O11 0.000000 0.213946 0.500000
O O12 0.116783 0.258989 0.254859
O O13 0.335592 0.000000 0.122100
O O14 0.532232 0.500000 0.613950
O O15 0.831985 0.303663 0.447183
O O16 0.473306 0.200732 0.598299
O O17 0.781228 0.728454 0.707839
O O18 0.980505 0.000000 0.647466
O O19 0.500000 0.714220 0.500000
O O20 0.689961 0.000000 0.390495
O O21 0.422728 0.000000 0.228444
#
# Coordination Sequence:
#
# PCOD9148927 Si02
#       8
#     4   4   4   4   4   4   4   4
#     4   8  14  24  41  70 102 127 157 197 242 293
#     4   9  15  25  44  67  95 131 164 198 243 289
#     4  10  20  34  50  71 101 132 165 204 249 304
#     4   8  13  22  40  68  99 128 157 192 237 291
#     4  11  22  34  50  71  97 132 170 208 248 292
#     4   9  16  27  44  69 101 130 158 195 241 295
#     4  10  21  36  53  74 101 134 171 208 244 287
#     4   9  17  28  46  74 103 128 155 196 247 298
#
# _framework density 22.055744000000001
#
# number of rings (size 3 to 8) (size 9 to 14) (size 15 to 20)
#    0.000    2.750    1.250    3.000    0.000    5.000 
#    0.000    0.000    0.000    1.500    0.000    5.250 
#    0.000    7.000    0.000    0.000    0.000    0.000 
#
# Total GULP energy -178380.708007 kJ/mol
# GULP energy per Si atom -5574.397125 kJ/mol
# Density = 2.200554 g / cm^3
# Si number density = 22.055744 Si / 1000 Ang^3
#
#
#
# Elastic Constant Matrix: (Units=GPa)
#
#
# Indices 1 2 3 4 5 6 
#
# 1 85.3856 -1.2755 29.4714 0.0000 21.5564 0.0000
# 2 -1.2755 68.8876 -1.2635 0.0000 -1.4500 0.0000
# 3 29.4714 -1.2635 136.3407 0.0000 25.2078 0.0000
# 4 0.0000 0.0000 0.0000 16.1922 0.0000 6.5507
# 5 21.5564 -1.4500 25.2078 0.0000 31.1112 0.0000
# 6 0.0000 0.0000 0.0000 6.5507 0.0000 68.0009
#
#
#
# Elastic Compliance Matrix: (Units=1/GPa)
#
#
# Indices 1 2 3 4 5 6 
#
# 1 0.014450 0.000055 -0.001497 0.000000 -0.008797 0.000000
# 2 0.000055 0.014531 0.000005 0.000000 0.000635 0.000000
# 3 -0.001497 0.000005 0.008782 0.000000 -0.006078 0.000000
# 4 0.000000 0.000000 0.000000 0.064263 0.000000 -0.006191
# 5 -0.008797 0.000635 -0.006078 0.000000 0.043193 0.000000
# 6 0.000000 0.000000 0.000000 -0.006191 0.000000 0.015302
#
#
# Mechanical properties :
#
#
# Convention : Reuss Voigt Hill
#
# Bulk Modulus (GPa) = 28.66127 38.27542 33.46834
# Shear Modulus (GPa) = 28.56781 40.63963 34.60372
#
# Velocity S-wave (km/s) = 3.60287 4.29719 3.96526
# Velocity P-wave (km/s) = 5.50733 6.48173 6.01429
#
# Compressibility (1/GPa) = 0.03489029
#
# Stress axis : x y z
#
# Youngs Moduli (GPa) = 69.20522 68.81898 113.87020
#
# Poissons Ratio (x) = -0.00378 0.17041
# Poissons Ratio (y) = -0.00380 -0.00062
# Poissons Ratio (z) = 0.10357 -0.00037
#
# Static dielectric constant tensor:
#      x y z
#    x 1.800940 0.000000 0.021090 
#    y 0.000000 1.867900 0.000000 
#    z 0.021090 0.000000 1.838630 
# 
# From -- ./inp_files/93106.got.cif
#   From: 2010.05.17/outbox.cif.g08.bks.cpg/sg10_47_cif.got.tgz:93106.got - 2010.06.03 11:33:40.
