data_PCOD9148684
_publ_section_title
;
Structure prediction by ZEFSAII (Michael W. Deem and Ramdas Pophale) SiO2 
 PCOD9148684
Probable space group: P 2/M
;
_chemical_formula_sum "Si O2"
_cell_formula_units_Z 24
_cell_length_a 9.857179
_cell_length_b 8.766612
_cell_length_c 20.487635
_cell_angle_alpha 90.000000
_cell_angle_beta 49.685395
_cell_angle_gamma 90.000000
_cell_volume 1349.951175
_symmetry_space_group_name_H-M "P 2/M"
_symmetry_group_IT_number 10
_symmetry_cell_setting 'monoclinic'
loop_
_space_group_symop_operation_xyz
x,y,z
-x,y,-z
-x,-y,-z
x,-y,z
loop_
_atom_site_type_symbol
_atom_site_label
_atom_site_fract_x
_atom_site_fract_y
_atom_site_fract_z
Si Si1 0.534598 0.182934 0.283527
Si Si2 0.108039 0.683267 0.774850
Si Si3 0.887888 0.683547 0.971529
Si Si4 0.152489 0.317279 0.400320
Si Si5 0.533566 0.182607 0.130757
Si Si6 0.129774 0.183400 0.263630
O O1 0.696133 0.250588 0.274307
O O2 0.343747 0.251266 0.361704
O O3 0.563549 0.223417 0.197807
O O4 0.529854 0.000000 0.289519
O O5 0.115074 0.500000 0.770955
O O6 0.988158 0.731123 0.874575
O O7 0.014579 0.747012 0.739626
O O8 0.884694 0.500000 0.974012
O O9 0.687803 0.743266 0.040265
O O10 0.000000 0.736709 0.000000
O O11 0.164714 0.500000 0.390091
O O12 0.110004 0.244976 0.343160
O O13 0.000000 0.280684 0.500000
O O14 0.330461 0.227121 0.178366
O O15 0.546361 0.000000 0.121358
O O16 0.120373 0.000000 0.267101
#
# Coordination Sequence:
#
# PCOD9148684 Si02
#       6
#     4   4   4   4   4   4
#     4  10  20  35  57  84 113 148 187 227 276 331
#     4  11  22  36  55  81 114 152 190 234 283 326
#     4  10  20  33  51  78 110 147 192 235 275 323
#     4  10  21  39  64  90 113 141 179 223 273 335
#     4   9  19  34  53  77 106 147 191 231 274 324
#     4  10  22  39  57  82 115 148 185 229 282 335
#
# _framework density 17.778419
#
# number of rings (size 3 to 8) (size 9 to 14) (size 15 to 20)
#    0.000    2.000    1.667    3.000    0.000    7.000 
#    0.000    4.167    0.000    5.000    0.000    0.000 
#    0.000    0.000    0.000    0.000    0.000    0.000 
#
# Total GULP energy -134021.101366 kJ/mol
# GULP energy per Si atom -5584.212557 kJ/mol
# Density = 1.773795 g / cm^3
# Si number density = 17.778419 Si / 1000 Ang^3
#
#
#
# Elastic Constant Matrix: (Units=GPa)
#
#
# Indices 1 2 3 4 5 6 
#
# 1 163.4481 50.4031 72.5489 0.0000 -19.9319 0.0000
# 2 50.4031 50.6539 48.4310 0.0000 -9.5103 0.0000
# 3 72.5489 48.4310 128.0254 0.0000 -23.0143 0.0000
# 4 0.0000 0.0000 0.0000 -91.6433 0.0000 -65.9462
# 5 -19.9319 -9.5103 -23.0143 0.0000 19.0199 0.0000
# 6 0.0000 0.0000 0.0000 -65.9462 0.0000 -1.4310
#
#
#
# Elastic Compliance Matrix: (Units=1/GPa)
#
#
# Indices 1 2 3 4 5 6 
#
# 1 0.009676 -0.006768 -0.002183 0.000000 0.004114 0.000000
# 2 -0.006768 0.035704 -0.009888 0.000000 -0.001204 0.000000
# 3 -0.002183 -0.009888 0.014682 0.000000 0.010534 0.000000
# 4 0.000000 0.000000 0.000000 0.000339 0.000000 -0.015635
# 5 0.004114 -0.001204 0.010534 0.000000 0.069031 0.000000
# 6 0.000000 0.000000 0.000000 -0.015635 0.000000 0.021728
#
#
# Mechanical properties :
#
#
# Convention : Reuss Voigt Hill
#
# Bulk Modulus (GPa) = 44.67483 76.09929 60.38706
# Shear Modulus (GPa) = 25.47109 -3.42793 11.02158
#
# Velocity S-wave (km/s) = 3.78920 -1.39008 2.49256
# Velocity P-wave (km/s) = 6.65788 6.34987 6.50569
#
# Compressibility (1/GPa) = 0.02238397
#
# Stress axis : x y z
#
# Youngs Moduli (GPa) = 103.34759 28.00782 68.10994
#
# Poissons Ratio (x) = 0.18957 0.14870
# Poissons Ratio (y) = 0.69949 0.67345
# Poissons Ratio (z) = 0.22563 0.27693
#
# Static dielectric constant tensor:
#      x y z
#    x 1.594020 0.000000 -0.003920 
#    y 0.000000 1.593130 0.000000 
#    z -0.003920 0.000000 1.588300 
# 
# From -- ./inp_files/27307.got.cif
#   From: 2010.05.17/outbox.cif.g08.bks.cpg/sg10_14_cif.got.tgz:27307.got - 2010.06.03 11:33:40.
