data_PCOD9148630
_publ_section_title
;
Structure prediction by ZEFSAII (Michael W. Deem and Ramdas Pophale) SiO2 
 PCOD9148630
Probable space group: P 2/M
;
_chemical_formula_sum "Si O2"
_cell_formula_units_Z 28
_cell_length_a 28.973128
_cell_length_b 9.981515
_cell_length_c 5.473332
_cell_angle_alpha 90.000000
_cell_angle_beta 63.796682
_cell_angle_gamma 90.000000
_cell_volume 1420.197628
_symmetry_space_group_name_H-M "P 2/M"
_symmetry_group_IT_number 10
_symmetry_cell_setting 'monoclinic'
loop_
_space_group_symop_operation_xyz
x,y,z
-x,y,-z
-x,-y,-z
x,-y,z
loop_
_atom_site_type_symbol
_atom_site_label
_atom_site_fract_x
_atom_site_fract_y
_atom_site_fract_z
Si Si1 0.699908 0.160811 0.736728
Si Si2 0.099175 0.148662 0.746574
Si Si3 0.201190 0.148311 0.200899
Si Si4 0.472008 0.836844 0.315053
Si Si5 0.147997 0.349142 0.020074
Si Si6 0.954105 0.645509 0.413767
Si Si7 0.352857 0.836489 0.637047
O O1 0.668084 0.208753 0.049610
O O2 0.692589 0.000000 0.743618
O O3 0.759111 0.180996 0.675555
O O4 0.680623 0.210020 0.518552
O O5 0.144133 0.133657 0.440925
O O6 0.051097 0.226062 0.744567
O O7 0.087958 0.000000 0.870689
O O8 0.124300 0.250766 0.876400
O O9 0.195928 0.270031 0.025750
O O10 0.216287 0.000000 0.062353
O O11 0.500000 0.793753 0.500000
O O12 0.412173 0.798195 0.459954
O O13 0.473568 0.000000 0.310228
O O14 0.500000 0.792650 0.000000
O O15 0.160206 0.500000 0.906697
O O16 0.100746 0.361253 0.320984
O O17 0.959358 0.500000 0.275971
O O18 0.000000 0.658416 0.500000
O O19 0.350908 0.000000 0.646463
#
# Coordination Sequence:
#
# PCOD9148630 Si02
#       7
#     4   4   4   4   4   4   4
#     4   9  17  27  42  62  88 119 160 212 258 301
#     4  10  20  33  51  74 100 128 162 205 252 304
#     4   9  19  33  50  70  94 127 164 207 253 299
#     4   9  15  22  33  49  76 116 161 206 248 293
#     4  10  20  34  53  74  97 126 163 204 246 303
#     4   9  19  36  54  72  97 129 165 204 248 301
#     4   9  16  25  37  58  85 118 163 212 255 299
#
# _framework density 19.715565999999999
#
# number of rings (size 3 to 8) (size 9 to 14) (size 15 to 20)
#    0.000    2.714    0.000    1.714    2.000    5.429 
#    0.000    2.857    0.000    0.000    0.000    0.000 
#    0.000    0.000    0.000    0.000    0.000   14.286 
#
# Total GULP energy -155979.130585 kJ/mol
# GULP energy per Si atom -5570.683235 kJ/mol
# Density = 1.967069 g / cm^3
# Si number density = 19.715566 Si / 1000 Ang^3
#
#
#
# Elastic Constant Matrix: (Units=GPa)
#
#
# Indices 1 2 3 4 5 6 
#
# 1 109.7686 38.7248 14.7736 0.0000 8.7166 0.0000
# 2 38.7248 113.5198 10.6883 0.0000 19.5271 0.0000
# 3 14.7736 10.6883 58.4626 0.0000 0.7372 0.0000
# 4 0.0000 0.0000 0.0000 12.5565 0.0000 -61.4202
# 5 8.7166 19.5271 0.7372 0.0000 31.9036 0.0000
# 6 0.0000 0.0000 0.0000 -61.4202 0.0000 1905.8289
#
#
#
# Elastic Compliance Matrix: (Units=1/GPa)
#
#
# Indices 1 2 3 4 5 6 
#
# 1 0.010613 -0.003280 -0.002072 0.000000 -0.000844 0.000000
# 2 -0.003280 0.011036 -0.001115 0.000000 -0.005833 0.000000
# 3 -0.002072 -0.001115 0.017822 0.000000 0.000837 0.000000
# 4 0.000000 0.000000 0.000000 0.094544 0.000000 0.003047
# 5 -0.000844 -0.005833 0.000837 0.000000 0.035126 0.000000
# 6 0.000000 0.000000 0.000000 0.003047 0.000000 0.000623
#
#
# Mechanical properties :
#
#
# Convention : Reuss Voigt Hill
#
# Bulk Modulus (GPa) = 37.68293 45.56936 41.62615
# Shear Modulus (GPa) = 26.10370 404.56209 215.33290
#
# Velocity S-wave (km/s) = 3.64265 14.34032 10.46216
# Velocity P-wave (km/s) = 6.07014 17.24403 12.92678
#
# Compressibility (1/GPa) = 0.02653721
#
# Stress axis : x y z
#
# Youngs Moduli (GPa) = 94.22296 90.60951 56.11104
#
# Poissons Ratio (x) = 0.29722 0.11624
# Poissons Ratio (y) = 0.30907 0.06258
# Poissons Ratio (z) = 0.19519 0.10105
#
# Static dielectric constant tensor:
#      x y z
#    x 1.697490 0.000000 0.016620 
#    y 0.000000 1.724430 0.000000 
#    z 0.016620 0.000000 1.763540 
# 
# From -- ./inp_files/13549.got.cif
#   From: 2010.05.17/outbox.cif.g08.bks.cpg/sg10_7_cif.got.tgz:13549.got - 2010.06.03 11:33:40.
