data_PCOD9148975
_publ_section_title
;
Structure prediction by ZEFSAII (Michael W. Deem and Ramdas Pophale) SiO2 
 PCOD9148975
Probable space group: P 2/M
;
_chemical_formula_sum "Si O2"
_cell_formula_units_Z 28
_cell_length_a 15.616315
_cell_length_b 8.370540
_cell_length_c 23.588975
_cell_angle_alpha 90.000000
_cell_angle_beta 27.563087
_cell_angle_gamma 90.000000
_cell_volume 1426.803186
_symmetry_space_group_name_H-M "P 2/M"
_symmetry_group_IT_number 10
_symmetry_cell_setting 'monoclinic'
loop_
_space_group_symop_operation_xyz
x,y,z
-x,y,-z
-x,-y,-z
x,-y,z
loop_
_atom_site_type_symbol
_atom_site_label
_atom_site_fract_x
_atom_site_fract_y
_atom_site_fract_z
Si Si1 0.237240 0.689318 0.557890
Si Si2 0.746749 0.688177 0.691314
Si Si3 0.786575 0.192696 0.116313
Si Si4 0.662933 0.307755 0.066268
Si Si5 0.033731 0.306345 0.788603
Si Si6 0.366236 0.191271 0.672776
Si Si7 0.137688 0.184639 0.494104
O O1 0.218877 0.500000 0.560337
O O2 0.091753 0.741579 0.691219
O O3 0.443311 0.729318 0.458377
O O4 0.207065 0.773678 0.515664
O O5 0.765837 0.500000 0.692961
O O6 0.543565 0.747362 0.827864
O O7 0.768181 0.712679 0.610940
O O8 0.918913 0.779577 0.617702
O O9 0.708679 0.260651 0.103866
O O10 0.673259 0.239089 0.238785
O O11 0.783456 0.000000 0.114457
O O12 0.000000 0.242390 0.000000
O O13 0.658521 0.500000 0.065817
O O14 0.832270 0.251254 0.927739
O O15 0.037990 0.500000 0.788466
O O16 0.190513 0.242520 0.739025
O O17 0.385302 0.000000 0.659099
O O18 0.174787 0.000000 0.459498
#
# Coordination Sequence:
#
# PCOD9148975 Si02
#       7
#     4   4   4   4   4   4   4
#     4  11  23  39  58  79 109 149 190 232 277 327
#     4  10  20  37  62  89 115 144 179 224 280 335
#     4  10  20  34  51  77 112 147 179 219 275 328
#     4  10  21  36  57  84 111 145 187 228 273 327
#     4  10  22  39  56  78 111 150 190 230 273 326
#     4  11  22  36  56  82 112 147 188 233 278 329
#     4  11  22  38  60  87 115 143 181 229 278 330
#
# _framework density 19.624289000000001
#
# number of rings (size 3 to 8) (size 9 to 14) (size 15 to 20)
#    0.000    1.571    1.429    4.714    0.000    7.714 
#    0.000    0.714    0.000    4.286    0.000    0.000 
#    0.000    0.000    0.000    0.000    0.000    0.000 
#
# Total GULP energy -156494.785203 kJ/mol
# GULP energy per Si atom -5589.099472 kJ/mol
# Density = 1.957962 g / cm^3
# Si number density = 19.624289 Si / 1000 Ang^3
#
#
#
# Elastic Constant Matrix: (Units=GPa)
#
#
# Indices 1 2 3 4 5 6 
#
# 1 38.9451 -4.1818 25.7190 0.0000 -8.2381 0.0000
# 2 -4.1818 17.0817 -0.8900 0.0000 1.8471 0.0000
# 3 25.7190 -0.8900 93.6137 0.0000 -16.1229 0.0000
# 4 0.0000 0.0000 0.0000 10.0344 0.0000 -10.8106
# 5 -8.2381 1.8471 -16.1229 0.0000 26.0980 0.0000
# 6 0.0000 0.0000 0.0000 -10.8106 0.0000 34.9220
#
#
#
# Elastic Compliance Matrix: (Units=1/GPa)
#
#
# Indices 1 2 3 4 5 6 
#
# 1 0.032823 0.007089 -0.008116 0.000000 0.004845 0.000000
# 2 0.007089 0.060527 -0.001930 0.000000 -0.003238 0.000000
# 3 -0.008116 -0.001930 0.013961 0.000000 0.006200 0.000000
# 4 0.000000 0.000000 0.000000 0.149527 0.000000 0.046288
# 5 0.004845 -0.003238 0.006200 0.000000 0.043906 0.000000
# 6 0.000000 0.000000 0.000000 0.046288 0.000000 0.042964
#
#
# Mechanical properties :
#
#
# Convention : Reuss Voigt Hill
#
# Bulk Modulus (GPa) = 9.86217 21.21499 15.53858
# Shear Modulus (GPa) = 13.04049 22.81043 17.92546
#
# Velocity S-wave (km/s) = 2.58060 3.41303 3.02558
# Velocity P-wave (km/s) = 3.73038 5.13476 4.48785
#
# Compressibility (1/GPa) = 0.10139753
#
# Stress axis : x y z
#
# Youngs Moduli (GPa) = 30.46660 16.52151 71.62654
#
# Poissons Ratio (x) = -0.11711 0.58130
# Poissons Ratio (y) = -0.21597 0.13822
# Poissons Ratio (z) = 0.24726 0.03188
#
# Static dielectric constant tensor:
#      x y z
#    x 1.656460 0.000000 -0.009570 
#    y 0.000000 1.669460 0.000000 
#    z -0.009570 0.000000 1.713040 
# 
# From -- ./inp_files/49166.got.cif
#   From: 2010.05.17/outbox.cif.g08.bks.cpg/sg10_25_cif.got.tgz:49166.got - 2010.06.03 11:33:40.
