data_PCOD9148951
_publ_section_title
;
Structure prediction by ZEFSAII (Michael W. Deem and Ramdas Pophale) SiO2 
 PCOD9148951
Probable space group: P 2/M
;
_chemical_formula_sum "Si O2"
_cell_formula_units_Z 30
_cell_length_a 28.321934
_cell_length_b 8.649729
_cell_length_c 5.534407
_cell_angle_alpha 90.000000
_cell_angle_beta 102.121520
_cell_angle_gamma 90.000000
_cell_volume 1325.574336
_symmetry_space_group_name_H-M "P 2/M"
_symmetry_group_IT_number 10
_symmetry_cell_setting 'monoclinic'
loop_
_space_group_symop_operation_xyz
x,y,z
-x,y,-z
-x,-y,-z
x,-y,z
loop_
_atom_site_type_symbol
_atom_site_label
_atom_site_fract_x
_atom_site_fract_y
_atom_site_fract_z
Si Si1 0.470803 0.500000 0.219749
Si Si2 0.137410 0.812468 0.878512
Si Si3 0.423276 0.167245 0.061950
Si Si4 0.270168 0.670364 0.803399
Si Si5 0.321280 0.836530 0.218431
Si Si6 0.630110 0.336129 0.340454
Si Si7 0.974185 0.188844 0.222125
Si Si8 0.810072 0.813165 0.570217
O O1 0.500000 0.500000 0.500000
O O2 0.443882 0.330907 0.181482
O O3 0.500000 0.500000 0.000000
O O4 0.166042 0.762229 0.151306
O O5 0.137803 0.000000 0.884932
O O6 0.081707 0.762758 0.835895
O O7 0.159559 0.770079 0.640860
O O8 0.371296 0.144912 0.127641
O O9 0.449072 0.000000 0.112882
O O10 0.408450 0.205869 0.767652
O O11 0.252257 0.500000 0.853155
O O12 0.327106 0.655281 0.809383
O O13 0.240953 0.734798 0.545363
O O14 0.273476 0.799269 0.014614
O O15 0.336895 0.694842 0.396687
O O16 0.314043 0.000000 0.345747
O O17 0.604722 0.500000 0.328763
O O18 0.000000 0.237610 0.500000
O O19 0.975190 0.000000 0.222871
O O20 0.000000 0.238029 0.000000
O O21 0.806081 0.000000 0.569911
#
# Coordination Sequence:
#
# PCOD9148951 Si02
#       8
#     2   4   4   4   4   4   4   4
#     4  12  30  50  74 104 138 182 220 268 330 390
#     4   9  18  31  47  71 104 148 190 230 298 365
#     4  10  23  43  67  98 132 171 219 269 322 385
#     4  10  22  37  52  82 115 155 205 254 302 357
#     4  10  21  36  62  93 122 160 207 261 315 371
#     4  10  20  36  63  91 124 164 207 265 320 369
#     4   9  15  24  42  68  99 133 175 233 295 360
#     4  10  20  34  51  72 110 155 192 236 287 359
#
# _framework density 22.631696999999999
#
# number of rings (size 3 to 8) (size 9 to 14) (size 15 to 20)
#    0.000    2.133    0.667    2.000    5.600    5.333 
#    0.000    0.000    0.000    0.000    0.000    0.000 
#    0.000   10.667    0.000    0.000    0.000    0.000 
#
# Total GULP energy -167039.601163 kJ/mol
# GULP energy per Si atom -5567.986705 kJ/mol
# Density = 2.258019 g / cm^3
# Si number density = 22.631697 Si / 1000 Ang^3
#
#
#
# Elastic Constant Matrix: (Units=GPa)
#
#
# Indices 1 2 3 4 5 6 
#
# 1 78.7307 33.8729 42.5985 0.0000 3.9030 0.0000
# 2 33.8729 106.5302 34.0711 0.0000 14.7877 0.0000
# 3 42.5985 34.0711 137.7023 0.0000 20.0671 0.0000
# 4 0.0000 0.0000 0.0000 12.0558 0.0000 -0.4108
# 5 3.9030 14.7877 20.0671 0.0000 38.0270 0.0000
# 6 0.0000 0.0000 0.0000 -0.4108 0.0000 6.7083
#
#
#
# Elastic Compliance Matrix: (Units=1/GPa)
#
#
# Indices 1 2 3 4 5 6 
#
# 1 0.016843 -0.004235 -0.004496 0.000000 0.002291 0.000000
# 2 -0.004235 0.011553 -0.001037 0.000000 -0.003511 0.000000
# 3 -0.004496 -0.001037 0.009515 0.000000 -0.004157 0.000000
# 4 0.000000 0.000000 0.000000 0.083121 0.000000 0.005091
# 5 0.002291 -0.003511 -0.004157 0.000000 0.029621 0.000000
# 6 0.000000 0.000000 0.000000 0.005091 0.000000 0.149381
#
#
# Mechanical properties :
#
#
# Convention : Reuss Voigt Hill
#
# Bulk Modulus (GPa) = 54.42434 60.44977 57.43706
# Shear Modulus (GPa) = 15.35180 25.51961 20.43570
#
# Velocity S-wave (km/s) = 2.60731 3.36163 3.00820
# Velocity P-wave (km/s) = 5.75883 6.46804 6.12371
#
# Compressibility (1/GPa) = 0.01837413
#
# Stress axis : x y z
#
# Youngs Moduli (GPa) = 59.37180 86.56068 105.09503
#
# Poissons Ratio (x) = 0.36663 0.47254
# Poissons Ratio (y) = 0.25147 0.10893
# Poissons Ratio (z) = 0.26696 0.08972
#
# Static dielectric constant tensor:
#      x y z
#    x 1.900790 0.000000 -0.085500 
#    y 0.000000 1.910430 0.000000 
#    z -0.085500 0.000000 1.894730 
# 
# From -- ./inp_files/13674.got.cif
#   From: 2010.05.17/outbox.cif.g08.bks.cpg/sg10_7_cif.got.tgz:13674.got - 2010.06.03 11:33:40.
