data_PCOD9148459
_publ_section_title
;
Structure prediction by ZEFSAII (Michael W. Deem and Ramdas Pophale) SiO2 
 PCOD9148459
Probable space group: P 2/M
;
_chemical_formula_sum "Si O2"
_cell_formula_units_Z 22
_cell_length_a 8.998884
_cell_length_b 13.898774
_cell_length_c 11.373798
_cell_angle_alpha 90.000000
_cell_angle_beta 68.076355
_cell_angle_gamma 90.000000
_cell_volume 1319.683857
_symmetry_space_group_name_H-M "P 2/M"
_symmetry_group_IT_number 10
_symmetry_cell_setting 'monoclinic'
loop_
_space_group_symop_operation_xyz
x,y,z
-x,y,-z
-x,-y,-z
x,-y,z
loop_
_atom_site_type_symbol
_atom_site_label
_atom_site_fract_x
_atom_site_fract_y
_atom_site_fract_z
Si Si1 0.655868 0.202934 0.014963
Si Si2 0.033827 0.331369 0.119547
Si Si3 0.059337 0.500000 0.296808
Si Si4 0.500000 0.335447 0.500000
Si Si5 0.211701 0.000000 0.051285
Si Si6 0.274380 0.500000 0.460995
Si Si7 0.281930 0.206491 0.734174
Si Si8 0.847304 0.000000 0.214601
O O1 0.637358 0.198871 0.161000
O O2 0.500000 0.244760 0.000000
O O3 0.812941 0.264116 0.941797
O O4 0.691044 0.096689 0.954409
O O5 0.065456 0.408320 0.210352
O O6 0.882038 0.265980 0.198550
O O7 0.000000 0.375069 0.000000
O O8 0.200741 0.500000 0.351611
O O9 0.885341 0.500000 0.411140
O O10 0.383159 0.406923 0.460433
O O11 0.393235 0.266612 0.613953
O O12 0.040411 0.000000 0.167420
O O13 0.178493 0.000000 0.919890
O O14 0.231636 0.097869 0.713856
#
# Coordination Sequence:
#
# PCOD9148459 Si02
#       8
#     4   4   2   2   2   2   4   2
#     4  10  20  32  54  87 112 143 178 228 278 328
#     4  10  20  36  57  83 114 147 176 225 283 334
#     4  11  21  40  58  84 103 146 192 229 279 334
#     4  11  22  41  56  82 108 149 186 241 266 320
#     4   9  15  30  54  79 116 139 184 216 270 325
#     4  10  24  38  61  77 106 144 199 232 268 327
#     4  10  20  35  58  79 116 147 184 220 274 327
#     4   9  16  31  54  85 104 151 182 219 259 345
#
# _framework density 16.670660000000002
#
# number of rings (size 3 to 8) (size 9 to 14) (size 15 to 20)
#    0.000    2.000    3.636    0.545    2.545    0.364 
#    0.000    0.455    0.000    0.000    0.000    2.545 
#    0.000    0.000    0.000    0.000    0.000    0.000 
#
# Total GULP energy -122654.112914 kJ/mol
# GULP energy per Si atom -5575.186951 kJ/mol
# Density = 1.663272 g / cm^3
# Si number density = 16.670660 Si / 1000 Ang^3
#
#
#
# Elastic Constant Matrix: (Units=GPa)
#
#
# Indices 1 2 3 4 5 6 
#
# 1 112.7985 43.3175 57.5488 0.0000 -1.7477 0.0000
# 2 43.3175 119.7099 66.5780 0.0000 1.2087 0.0000
# 3 57.5488 66.5780 96.1059 0.0000 -6.0135 0.0000
# 4 0.0000 0.0000 0.0000 65.3910 0.0000 17.4855
# 5 -1.7477 1.2087 -6.0135 0.0000 26.3706 0.0000
# 6 0.0000 0.0000 0.0000 17.4855 0.0000 37.9371
#
#
#
# Elastic Compliance Matrix: (Units=1/GPa)
#
#
# Indices 1 2 3 4 5 6 
#
# 1 0.012808 -0.000542 -0.007344 0.000000 -0.000801 0.000000
# 2 -0.000542 0.013821 -0.009426 0.000000 -0.002819 0.000000
# 3 -0.007344 -0.009426 0.021638 0.000000 0.004880 0.000000
# 4 0.000000 0.000000 0.000000 0.017442 0.000000 -0.008039
# 5 -0.000801 -0.002819 0.004880 0.000000 0.039110 0.000000
# 6 0.000000 0.000000 0.000000 -0.008039 0.000000 0.030065
#
#
# Mechanical properties :
#
#
# Convention : Reuss Voigt Hill
#
# Bulk Modulus (GPa) = 73.30161 73.72253 73.51207
# Shear Modulus (GPa) = 28.72642 36.68440 32.70541
#
# Velocity S-wave (km/s) = 4.15561 4.69608 4.43409
# Velocity P-wave (km/s) = 8.19093 8.58622 8.39090
#
# Compressibility (1/GPa) = 0.01364227
#
# Stress axis : x y z
#
# Youngs Moduli (GPa) = 78.07607 72.35605 46.21454
#
# Poissons Ratio (x) = 0.03922 0.33941
# Poissons Ratio (y) = 0.04232 0.43562
# Poissons Ratio (z) = 0.57340 0.68203
#
# Static dielectric constant tensor:
#      x y z
#    x 1.554960 0.000000 0.007560 
#    y 0.000000 1.560170 0.000000 
#    z 0.007560 0.000000 1.537930 
# 
# From -- ./inp_files/23561.got.cif
#   From: 2010.05.17/outbox.cif.g08.bks.cpg/sg10_12_cif.got.tgz:23561.got - 2010.06.03 11:33:40.
