data_PCOD9148986
_publ_section_title
;
Structure prediction by ZEFSAII (Michael W. Deem and Ramdas Pophale) SiO2 
 PCOD9148986
Probable space group: P 2/M
;
_chemical_formula_sum "Si O2"
_cell_formula_units_Z 32
_cell_length_a 24.437145
_cell_length_b 9.011651
_cell_length_c 18.019368
_cell_angle_alpha 90.000000
_cell_angle_beta 149.375660
_cell_angle_gamma 90.000000
_cell_volume 2021.432826
_symmetry_space_group_name_H-M "P 2/M"
_symmetry_group_IT_number 10
_symmetry_cell_setting 'monoclinic'
loop_
_space_group_symop_operation_xyz
x,y,z
-x,y,-z
-x,-y,-z
x,-y,z
loop_
_atom_site_type_symbol
_atom_site_label
_atom_site_fract_x
_atom_site_fract_y
_atom_site_fract_z
Si Si1 0.488965 0.322112 0.074562
Si Si2 0.827870 0.323520 0.667878
Si Si3 0.304423 0.177383 0.613631
Si Si4 0.899777 0.178018 0.223476
Si Si5 0.944051 0.821006 0.107097
Si Si6 0.871632 0.170708 0.866891
Si Si7 0.140187 0.822145 0.556099
Si Si8 0.756654 0.322658 0.178781
O O1 0.503933 0.500000 0.099932
O O2 0.580835 0.237798 0.226592
O O3 0.500000 0.286794 0.000000
O O4 0.368940 0.283193 0.960189
O O5 0.828419 0.500000 0.663566
O O6 0.737496 0.253773 0.509941
O O7 0.818166 0.270883 0.741904
O O8 0.941852 0.258304 0.771920
O O9 0.219002 0.213570 0.579513
O O10 0.305420 0.000000 0.606069
O O11 0.898320 0.214629 0.134490
O O12 0.810831 0.257913 0.168532
O O13 0.018304 0.217526 0.392683
O O14 0.888297 0.000000 0.217381
O O15 0.962996 0.000000 0.126035
O O16 0.867210 0.783617 0.947908
O O17 0.835916 0.000000 0.816989
O O18 0.000000 0.172996 0.000000
O O19 0.181084 0.742866 0.677558
O O20 0.143991 0.000000 0.571833
O O21 0.764986 0.500000 0.189665
#
# Coordination Sequence:
#
# PCOD9148986 Si02
#       8
#     4   4   4   4   4   4   4   4
#     4  10  21  38  54  71  99 131 165 210 261 302
#     4  11  20  29  46  73 106 135 163 203 252 301
#     4  11  21  34  54  76  98 129 174 213 248 296
#     4  10  20  35  52  72 102 135 171 209 247 292
#     4   9  17  32  50  70  99 137 171 204 245 292
#     4   8  15  28  47  68  97 134 169 201 240 293
#     4  10  20  34  52  72  98 132 169 210 249 292
#     4  11  23  36  51  72 100 132 169 210 253 303
#
# _framework density 15.830356
#
# number of rings (size 3 to 8) (size 9 to 14) (size 15 to 20)
#    0.000    2.000    2.500    3.000    0.000    6.500 
#    0.000    0.000    0.000    0.000    0.000    0.875 
#    0.000    7.000    0.000    0.000    0.000    0.000 
#
# Total GULP energy -178566.365686 kJ/mol
# GULP energy per Si atom -5580.198928 kJ/mol
# Density = 1.579433 g / cm^3
# Si number density = 15.830356 Si / 1000 Ang^3
#
#
#
# Elastic Constant Matrix: (Units=GPa)
#
#
# Indices 1 2 3 4 5 6 
#
# 1 117.3407 54.7297 86.7831 0.0000 -8.9534 0.0000
# 2 54.7297 49.1267 52.7054 0.0000 -13.0825 0.0000
# 3 86.7831 52.7054 101.5842 0.0000 -20.2116 0.0000
# 4 0.0000 0.0000 0.0000 16.7653 0.0000 14.9928
# 5 -8.9534 -13.0825 -20.2116 0.0000 28.7178 0.0000
# 6 0.0000 0.0000 0.0000 14.9928 0.0000 -1.6983
#
#
#
# Elastic Compliance Matrix: (Units=1/GPa)
#
#
# Indices 1 2 3 4 5 6 
#
# 1 0.028407 -0.013970 -0.019215 0.000000 -0.011031 0.000000
# 2 -0.013970 0.053364 -0.013700 0.000000 0.010312 0.000000
# 3 -0.019215 -0.013700 0.035971 0.000000 0.013084 0.000000
# 4 0.000000 0.000000 0.000000 0.006706 0.000000 0.059200
# 5 -0.011031 0.010312 0.013084 0.000000 0.045289 0.000000
# 6 0.000000 0.000000 0.000000 0.059200 0.000000 -0.066199
#
#
# Mechanical properties :
#
#
# Convention : Reuss Voigt Hill
#
# Bulk Modulus (GPa) = 41.71745 72.94312 57.33029
# Shear Modulus (GPa) = 24.35467 13.67920 19.01694
#
# Velocity S-wave (km/s) = 3.92660 2.94277 3.46973
# Velocity P-wave (km/s) = 6.85329 7.59767 7.23506
#
# Compressibility (1/GPa) = 0.02397078
#
# Stress axis : x y z
#
# Youngs Moduli (GPa) = 35.20202 18.73933 27.80031
#
# Poissons Ratio (x) = 0.26179 0.53418
# Poissons Ratio (y) = 0.49178 0.38088
# Poissons Ratio (z) = 0.67640 0.25674
#
# Static dielectric constant tensor:
#      x y z
#    x 1.530290 0.000000 -0.019520 
#    y 0.000000 1.525880 0.000000 
#    z -0.019520 0.000000 1.510540 
# 
# From -- ./inp_files/79949.got.cif
#   From: 2010.05.17/outbox.cif.g08.bks.cpg/sg10_40_cif.got.tgz:79949.got - 2010.06.03 11:33:40.
