data_PCOD9148428
_publ_section_title
;
Structure prediction by ZEFSAII (Michael W. Deem and Ramdas Pophale) SiO2 
 PCOD9148428
Probable space group: P 2/M
;
_chemical_formula_sum "Si O2"
_cell_formula_units_Z 24
_cell_length_a 16.318782
_cell_length_b 7.605122
_cell_length_c 14.629379
_cell_angle_alpha 90.000000
_cell_angle_beta 141.769681
_cell_angle_gamma 90.000000
_cell_volume 1123.536218
_symmetry_space_group_name_H-M "P 2/M"
_symmetry_group_IT_number 10
_symmetry_cell_setting 'monoclinic'
loop_
_space_group_symop_operation_xyz
x,y,z
-x,y,-z
-x,-y,-z
x,-y,z
loop_
_atom_site_type_symbol
_atom_site_label
_atom_site_fract_x
_atom_site_fract_y
_atom_site_fract_z
Si Si1 0.119840 0.214598 0.037695
Si Si2 0.241041 0.209101 0.468868
Si Si3 0.948099 0.788921 0.225628
Si Si4 0.348240 0.784704 0.368772
Si Si5 0.305369 0.289794 0.882126
Si Si6 0.574587 0.288164 0.202579
O O1 0.257840 0.270019 0.204306
O O2 0.118413 0.000000 0.034835
O O3 0.097080 0.275372 0.914348
O O4 0.000000 0.267160 0.000000
O O5 0.280469 0.276173 0.403443
O O6 0.355345 0.237309 0.642698
O O7 0.097223 0.276729 0.374302
O O8 0.227253 0.000000 0.445934
O O9 0.838364 0.748638 0.204807
O O10 0.953057 0.000000 0.224839
O O11 0.500000 0.727214 0.500000
O O12 0.348721 0.000000 0.369197
O O13 0.317457 0.500000 0.889054
O O14 0.339986 0.225970 0.810413
O O15 0.424088 0.226234 0.052792
O O16 0.572820 0.500000 0.199596
#
# Coordination Sequence:
#
# PCOD9148428 Si02
#       6
#     4   4   4   4   4   4
#     4   9  15  28  47  69 104 142 169 201 247 301
#     4  10  20  33  51  81 113 136 167 215 261 302
#     4  10  20  32  52  82 110 137 171 212 258 304
#     4   9  17  28  45  73 106 138 172 207 247 300
#     4   9  20  39  58  75  98 134 178 217 258 313
#     4   9  20  39  58  74  99 136 175 216 262 312
#
# _framework density 21.361127
#
# number of rings (size 3 to 8) (size 9 to 14) (size 15 to 20)
#    0.000    2.667    1.667    1.000    2.333    2.667 
#    0.000    5.000    0.000    2.000    0.000    0.000 
#    0.000    0.000    0.000    0.000    0.000    0.000 
#
# Total GULP energy -133964.802329 kJ/mol
# GULP energy per Si atom -5581.866764 kJ/mol
# Density = 2.131251 g / cm^3
# Si number density = 21.361127 Si / 1000 Ang^3
#
#
#
# Elastic Constant Matrix: (Units=GPa)
#
#
# Indices 1 2 3 4 5 6 
#
# 1 32.1745 3.1281 -20.4037 0.0000 20.4840 0.0000
# 2 3.1281 39.5282 -1.7508 0.0000 2.7663 0.0000
# 3 -20.4037 -1.7508 53.8714 0.0000 7.2412 0.0000
# 4 0.0000 0.0000 0.0000 41.4770 0.0000 -34.4245
# 5 20.4840 2.7663 7.2412 0.0000 37.5356 0.0000
# 6 0.0000 0.0000 0.0000 -34.4245 0.0000 76.8010
#
#
#
# Elastic Compliance Matrix: (Units=1/GPa)
#
#
# Indices 1 2 3 4 5 6 
#
# 1 0.103266 -0.001469 0.047866 0.000000 -0.065480 0.000000
# 2 -0.001469 0.025515 0.000429 0.000000 -0.001161 0.000000
# 3 0.047866 0.000429 0.041292 0.000000 -0.034119 0.000000
# 4 0.000000 0.000000 0.000000 0.038392 0.000000 0.017209
# 5 -0.065480 -0.001161 -0.034119 0.000000 0.069043 0.000000
# 6 0.000000 0.000000 0.000000 0.017209 0.000000 0.020734
#
#
# Mechanical properties :
#
#
# Convention : Reuss Voigt Hill
#
# Bulk Modulus (GPa) = 3.79185 9.72459 6.75822
# Shear Modulus (GPa) = 17.09402 40.80276 28.94839
#
# Velocity S-wave (km/s) = 2.83192 4.37526 3.68528
# Velocity P-wave (km/s) = 3.53157 5.48509 4.61293
#
# Compressibility (1/GPa) = 0.26372335
#
# Stress axis : x y z
#
# Youngs Moduli (GPa) = 9.68371 39.19276 24.21782
#
# Poissons Ratio (x) = 0.05759 -1.15921
# Poissons Ratio (y) = 0.01423 -0.01038
# Poissons Ratio (z) = -0.46352 -0.01680
#
# Static dielectric constant tensor:
#      x y z
#    x 1.751590 0.000000 0.018310 
#    y 0.000000 1.817530 0.000000 
#    z 0.018310 0.000000 1.757310 
# 
# From -- ./inp_files/27311.got.cif
#   From: 2010.05.17/outbox.cif.g08.bks.cpg/sg10_14_cif.got.tgz:27311.got - 2010.06.03 11:33:40.
