data_PCOD9148421
_publ_section_title
;
Structure prediction by ZEFSAII (Michael W. Deem and Ramdas Pophale) SiO2 
 PCOD9148421
Probable space group: P 2/M
;
_chemical_formula_sum "Si O2"
_cell_formula_units_Z 24
_cell_length_a 14.531499
_cell_length_b 13.204348
_cell_length_c 9.408095
_cell_angle_alpha 90.000000
_cell_angle_beta 136.639720
_cell_angle_gamma 90.000000
_cell_volume 1239.431502
_symmetry_space_group_name_H-M "P 2/M"
_symmetry_group_IT_number 10
_symmetry_cell_setting 'monoclinic'
loop_
_space_group_symop_operation_xyz
x,y,z
-x,y,-z
-x,-y,-z
x,-y,z
loop_
_atom_site_type_symbol
_atom_site_label
_atom_site_fract_x
_atom_site_fract_y
_atom_site_fract_z
Si Si1 0.229273 0.188919 0.484080
Si Si2 0.852949 0.686514 0.860454
Si Si3 0.525606 0.797414 0.863400
Si Si4 0.397401 0.613299 0.253496
Si Si5 0.945309 0.887705 0.127624
Si Si6 0.794758 0.885808 0.244775
O O1 0.210991 0.287686 0.365102
O O2 0.384875 0.158012 0.647496
O O3 0.202758 0.193726 0.623729
O O4 0.105863 0.119548 0.294983
O O5 0.749549 0.628013 0.843078
O O6 0.881066 0.794222 0.971414
O O7 0.000000 0.640343 0.000000
O O8 0.568888 0.700312 0.821165
O O9 0.500000 0.770559 0.000000
O O10 0.650853 0.873223 0.006883
O O11 0.500000 0.623840 0.500000
O O12 0.410647 0.500000 0.208972
O O13 0.905065 0.874047 0.247398
O O14 0.899427 0.000000 0.033687
O O15 0.804373 0.000000 0.315236
#
# Coordination Sequence:
#
# PCOD9148421 Si02
#       6
#     4   4   4   4   4   4
#     4  10  20  32  52  79 115 148 186 230 266 319
#     4  10  21  37  58  85 115 149 185 235 283 335
#     4  10  21  37  58  85 115 149 185 235 283 335
#     4  11  22  40  65  84 107 144 191 240 294 346
#     4  10  20  34  54  81 114 156 196 226 269 333
#     4  10  20  34  54  81 114 156 196 226 269 333
#
# _framework density 19.363716
#
# number of rings (size 3 to 8) (size 9 to 14) (size 15 to 20)
#    0.000    1.833    3.333    1.000    0.000    9.333 
#    0.000    0.000    0.000    3.000    0.000    4.667 
#    0.000    0.000    0.000    0.000    0.000    0.000 
#
# Total GULP energy -133731.322540 kJ/mol
# GULP energy per Si atom -5572.138439 kJ/mol
# Density = 1.931964 g / cm^3
# Si number density = 19.363716 Si / 1000 Ang^3
#
#
#
# Elastic Constant Matrix: (Units=GPa)
#
#
# Indices 1 2 3 4 5 6 
#
# 1 93.0627 24.4935 11.3972 0.0000 9.5369 0.0000
# 2 24.4935 56.0045 8.8577 0.0000 -6.6916 0.0000
# 3 11.3972 8.8577 63.3977 0.0000 11.2869 0.0000
# 4 0.0000 0.0000 0.0000 7.3060 0.0000 5.0317
# 5 9.5369 -6.6916 11.2869 0.0000 36.3515 0.0000
# 6 0.0000 0.0000 0.0000 5.0317 0.0000 5.7812
#
#
#
# Elastic Compliance Matrix: (Units=1/GPa)
#
#
# Indices 1 2 3 4 5 6 
#
# 1 0.012853 -0.006017 -0.000712 0.000000 -0.004259 0.000000
# 2 -0.006017 0.021765 -0.003126 0.000000 0.006556 0.000000
# 3 -0.000712 -0.003126 0.017367 0.000000 -0.005781 0.000000
# 4 0.000000 0.000000 0.000000 0.341698 0.000000 -0.297401
# 5 -0.004259 0.006556 -0.005781 0.000000 0.031628 0.000000
# 6 0.000000 0.000000 0.000000 -0.297401 0.000000 0.431822
#
#
# Mechanical properties :
#
#
# Convention : Reuss Voigt Hill
#
# Bulk Modulus (GPa) = 30.98417 33.55128 32.26772
# Shear Modulus (GPa) = 5.63315 21.06883 13.35099
#
# Velocity S-wave (km/s) = 1.70747 3.30215 2.62865
# Velocity P-wave (km/s) = 4.46353 5.64831 5.09051
#
# Compressibility (1/GPa) = 0.03227455
#
# Stress axis : x y z
#
# Youngs Moduli (GPa) = 77.80430 45.94492 57.57899
#
# Poissons Ratio (x) = 0.27647 0.04098
# Poissons Ratio (y) = 0.46818 0.18001
# Poissons Ratio (z) = 0.05537 0.14364
#
# Static dielectric constant tensor:
#      x y z
#    x 1.699240 0.000000 0.012940 
#    y 0.000000 1.635710 0.000000 
#    z 0.012940 0.000000 1.734340 
# 
# From -- ./inp_files/29243.got.cif
#   From: 2010.05.17/outbox.cif.g08.bks.cpg/sg10_15_cif.got.tgz:29243.got - 2010.06.03 11:33:40.
