data_PCOD9148889
_publ_section_title
;
Structure prediction by ZEFSAII (Michael W. Deem and Ramdas Pophale) SiO2 
 PCOD9148889
Probable space group: P 2/M
;
_chemical_formula_sum "Si O2"
_cell_formula_units_Z 28
_cell_length_a 12.327832
_cell_length_b 7.511597
_cell_length_c 13.996939
_cell_angle_alpha 90.000000
_cell_angle_beta 103.676109
_cell_angle_gamma 90.000000
_cell_volume 1259.391985
_symmetry_space_group_name_H-M "P 2/M"
_symmetry_group_IT_number 10
_symmetry_cell_setting 'monoclinic'
loop_
_space_group_symop_operation_xyz
x,y,z
-x,y,-z
-x,-y,-z
x,-y,z
loop_
_atom_site_type_symbol
_atom_site_label
_atom_site_fract_x
_atom_site_fract_y
_atom_site_fract_z
Si Si1 0.383921 0.207280 0.441083
Si Si2 0.675797 0.292218 0.785108
Si Si3 0.224055 0.216019 0.857898
Si Si4 0.938711 0.783404 0.338967
Si Si5 0.840984 0.782192 0.522625
Si Si6 0.526106 0.214961 0.113958
Si Si7 0.873863 0.291127 0.956969
O O1 0.500000 0.287156 0.500000
O O2 0.360572 0.212623 0.323533
O O3 0.278387 0.286646 0.472830
O O4 0.386474 0.000000 0.470902
O O5 0.695421 0.500000 0.771719
O O6 0.571081 0.276534 0.835724
O O7 0.789356 0.217604 0.858012
O O8 0.126633 0.278812 0.767129
O O9 0.345504 0.271764 0.843816
O O10 0.225017 0.000000 0.860064
O O11 0.195094 0.274990 0.958704
O O12 0.876811 0.730658 0.423817
O O13 0.065689 0.726563 0.381317
O O14 0.937522 0.000000 0.335355
O O15 0.841834 0.000000 0.523578
O O16 0.523606 0.000000 0.117933
O O17 0.500000 0.268747 0.000000
O O18 0.888976 0.500000 0.938123
O O19 0.000000 0.216945 0.000000
#
# Coordination Sequence:
#
# PCOD9148889 Si02
#       7
#     4   4   4   4   4   4   4
#     4  10  22  37  58  85 113 147 187 233 286 337
#     4  11  24  40  59  81 111 154 195 234 282 338
#     4  10  20  33  57  88 112 141 182 235 286 330
#     4   8  15  28  50  79 109 138 174 222 274 328
#     4   8  15  30  50  76 109 142 176 219 274 332
#     4  10  20  36  57  83 114 142 180 235 287 332
#     4  10  23  41  57  78 114 157 193 228 279 341
#
# _framework density 22.232949999999999
#
# number of rings (size 3 to 8) (size 9 to 14) (size 15 to 20)
#    0.000    2.429    1.429    1.286    4.000    2.000 
#    0.000    0.000    0.000    0.000    0.000    2.000 
#    0.000    0.000    0.000    0.000    0.000    0.000 
#
# Total GULP energy -156320.278901 kJ/mol
# GULP energy per Si atom -5582.867104 kJ/mol
# Density = 2.218235 g / cm^3
# Si number density = 22.232950 Si / 1000 Ang^3
#
#
#
# Elastic Constant Matrix: (Units=GPa)
#
#
# Indices 1 2 3 4 5 6 
#
# 1 151.9768 2.5534 42.8127 0.0000 33.2414 0.0000
# 2 2.5534 57.8217 -6.4636 0.0000 7.4548 0.0000
# 3 42.8127 -6.4636 99.0557 0.0000 41.2613 0.0000
# 4 0.0000 0.0000 0.0000 14.9223 0.0000 -2.1422
# 5 33.2414 7.4548 41.2613 0.0000 32.2384 0.0000
# 6 0.0000 0.0000 0.0000 -2.1422 0.0000 -10.5380
#
#
#
# Elastic Compliance Matrix: (Units=1/GPa)
#
#
# Indices 1 2 3 4 5 6 
#
# 1 0.008533 0.000851 0.000245 0.000000 -0.009308 0.000000
# 2 0.000851 0.019864 0.006869 0.000000 -0.014263 0.000000
# 3 0.000245 0.006869 0.023999 0.000000 -0.032557 0.000000
# 4 0.000000 0.000000 0.000000 0.065114 0.000000 -0.013236
# 5 -0.009308 -0.014263 -0.032557 0.000000 0.085585 0.000000
# 6 0.000000 0.000000 0.000000 -0.013236 0.000000 -0.092204
#
#
# Mechanical properties :
#
#
# Convention : Reuss Voigt Hill
#
# Bulk Modulus (GPa) = 14.63569 42.96213 28.79891
# Shear Modulus (GPa) = 42.46803 25.32130 33.89466
#
# Velocity S-wave (km/s) = 4.37526 3.37843 3.90875
# Velocity P-wave (km/s) = 5.66754 5.88082 5.77516
#
# Compressibility (1/GPa) = 0.06832613
#
# Stress axis : x y z
#
# Youngs Moduli (GPa) = 117.19692 50.34306 41.66778
#
# Poissons Ratio (x) = -0.04283 -0.01021
# Poissons Ratio (y) = -0.09970 -0.28624
# Poissons Ratio (z) = -0.02872 -0.34583
#
# Static dielectric constant tensor:
#      x y z
#    x 1.824380 0.000000 0.046060 
#    y 0.000000 1.853260 0.000000 
#    z 0.046060 0.000000 1.786820 
# 
# From -- ./inp_files/49411.got.cif
#   From: 2010.05.17/outbox.cif.g08.bks.cpg/sg10_25_cif.got.tgz:49411.got - 2010.06.03 11:33:40.
