data_PCOD9148511
_publ_section_title
;
Structure prediction by ZEFSAII (Michael W. Deem and Ramdas Pophale) SiO2 
 PCOD9148511
Probable space group: P 2/M
;
_chemical_formula_sum "Si O2"
_cell_formula_units_Z 24
_cell_length_a 21.343328
_cell_length_b 11.276803
_cell_length_c 21.142901
_cell_angle_alpha 90.000000
_cell_angle_beta 167.422184
_cell_angle_gamma 90.000000
_cell_volume 1108.157570
_symmetry_space_group_name_H-M "P 2/M"
_symmetry_group_IT_number 10
_symmetry_cell_setting 'monoclinic'
loop_
_space_group_symop_operation_xyz
x,y,z
-x,y,-z
-x,-y,-z
x,-y,z
loop_
_atom_site_type_symbol
_atom_site_label
_atom_site_fract_x
_atom_site_fract_y
_atom_site_fract_z
Si Si1 0.153992 0.000000 0.758021
Si Si2 0.627376 0.000000 0.323135
Si Si3 0.603889 0.134502 0.673135
Si Si4 0.858881 0.741559 0.294332
Si Si5 0.058652 0.217340 0.207861
Si Si6 0.507740 0.237573 0.271506
Si Si7 0.379665 0.636899 0.742818
O O1 0.223338 0.879881 0.789461
O O2 0.823472 0.000000 0.453826
O O3 0.312442 0.000000 0.981691
O O4 0.658901 0.117109 0.395879
O O5 0.500000 0.159486 0.500000
O O6 0.318510 0.137196 0.435959
O O7 0.723751 0.000000 0.794098
O O8 0.849143 0.224904 0.939661
O O9 0.100692 0.716574 0.479958
O O10 0.000000 0.711302 0.500000
O O11 0.590979 0.663537 0.009283
O O12 0.275528 0.298548 0.464013
O O13 0.796206 0.197517 0.998444
O O14 0.472235 0.320519 0.175833
O O15 0.299923 0.500000 0.661821
#
# Coordination Sequence:
#
# PCOD9148511 Si02
#       7
#     2   2   4   4   4   4   4
#     4  12  21  42  60  92 120 156 195 244 308 370
#     4  12  22  34  63  80 125 156 196 250 304 366
#     4  10  20  33  48  77 122 167 202 230 276 345
#     4  12  25  43  65  92 119 156 204 248 305 371
#     4  10  22  32  53  79 115 152 207 234 285 344
#     4  11  22  38  56  87 114 151 202 249 298 358
#     4  12  26  46  65  86 121 160 200 257 314 361
#
# _framework density 21.657568999999999
#
# number of rings (size 3 to 8) (size 9 to 14) (size 15 to 20)
#    0.000    0.833    3.333    4.250    7.000    3.333 
#    0.000    2.500    0.000    0.000    0.000    0.000 
#    0.000   46.667    0.000    0.000    0.000    0.000 
#
# Total GULP energy -133661.432348 kJ/mol
# GULP energy per Si atom -5569.226348 kJ/mol
# Density = 2.160828 g / cm^3
# Si number density = 21.657569 Si / 1000 Ang^3
#
#
#
# Elastic Constant Matrix: (Units=GPa)
#
#
# Indices 1 2 3 4 5 6 
#
# 1 84.3772 14.6327 28.7282 0.0000 -16.1055 0.0000
# 2 14.6327 58.5648 3.8830 0.0000 -7.2573 0.0000
# 3 28.7282 3.8830 114.9735 0.0000 -19.9235 0.0000
# 4 0.0000 0.0000 0.0000 12.8648 0.0000 -3.9281
# 5 -16.1055 -7.2573 -19.9235 0.0000 41.9085 0.0000
# 6 0.0000 0.0000 0.0000 -3.9281 0.0000 -1.1294
#
#
#
# Elastic Compliance Matrix: (Units=1/GPa)
#
#
# Indices 1 2 3 4 5 6 
#
# 1 0.013973 -0.002867 -0.002779 0.000000 0.003552 0.000000
# 2 -0.002867 0.018038 0.000499 0.000000 0.002259 0.000000
# 3 -0.002779 0.000499 0.010032 0.000000 0.003787 0.000000
# 4 0.000000 0.000000 0.000000 0.037698 0.000000 -0.131113
# 5 0.003552 0.002259 0.003787 0.000000 0.027418 0.000000
# 6 0.000000 0.000000 0.000000 -0.131113 0.000000 -0.429407
#
#
# Mechanical properties :
#
#
# Convention : Reuss Voigt Hill
#
# Bulk Modulus (GPa) = 31.49776 39.15590 35.32683
# Shear Modulus (GPa) = -16.59083 24.77354 4.09135
#
# Velocity S-wave (km/s) = -2.77077 3.38579 1.37594
# Velocity P-wave (km/s) = 2.08300 5.77958 4.34410
#
# Compressibility (1/GPa) = 0.03174829
#
# Stress axis : x y z
#
# Youngs Moduli (GPa) = 71.56706 55.43777 99.68582
#
# Poissons Ratio (x) = 0.15893 0.27703
# Poissons Ratio (y) = 0.20516 -0.04970
# Poissons Ratio (z) = 0.19889 -0.02764
#
# Static dielectric constant tensor:
#      x y z
#    x 1.852390 0.000000 -0.005720 
#    y 0.000000 1.729100 0.000000 
#    z -0.005720 0.000000 1.815810 
# 
# From -- ./inp_files/90841.got.cif
#   From: 2010.05.17/outbox.cif.g08.bks.cpg/sg10_46_cif.got.tgz:90841.got - 2010.06.03 11:33:40.
