data_PCOD9148583
_publ_section_title
;
Structure prediction by ZEFSAII (Michael W. Deem and Ramdas Pophale) SiO2 
 PCOD9148583
Probable space group: P 2/M
;
_chemical_formula_sum "Si O2"
_cell_formula_units_Z 30
_cell_length_a 13.935011
_cell_length_b 13.879482
_cell_length_c 12.158405
_cell_angle_alpha 90.000000
_cell_angle_beta 127.868068
_cell_angle_gamma 90.000000
_cell_volume 1856.388113
_symmetry_space_group_name_H-M "P 2/M"
_symmetry_group_IT_number 10
_symmetry_cell_setting 'monoclinic'
loop_
_space_group_symop_operation_xyz
x,y,z
-x,y,-z
-x,-y,-z
x,-y,z
loop_
_atom_site_type_symbol
_atom_site_label
_atom_site_fract_x
_atom_site_fract_y
_atom_site_fract_z
Si Si1 0.643464 0.114238 0.929888
Si Si2 0.682173 0.386856 0.260619
Si Si3 0.182778 0.613012 0.427430
Si Si4 0.391426 0.115155 0.346577
Si Si5 0.843939 0.766565 0.780130
Si Si6 0.096362 0.609645 0.749702
Si Si7 0.116988 0.775069 0.940105
Si Si8 0.500000 0.248568 0.000000
O O1 0.592348 0.137504 0.771511
O O2 0.579096 0.179948 0.975828
O O3 0.629087 0.000000 0.940398
O O4 0.785547 0.143647 0.021919
O O5 0.644047 0.500000 0.230747
O O6 0.718122 0.360516 0.410784
O O7 0.808387 0.380597 0.281564
O O8 0.585513 0.317355 0.134676
O O9 0.198296 0.500000 0.412533
O O10 0.185491 0.678410 0.321243
O O11 0.045577 0.623714 0.379466
O O12 0.500000 0.150983 0.500000
O O13 0.264902 0.158043 0.299396
O O14 0.386228 0.000000 0.350530
O O15 0.976245 0.807241 0.839394
O O16 0.856151 0.739351 0.917144
O O17 0.106798 0.500000 0.799373
O O18 0.129095 0.686861 0.865096
#
# Coordination Sequence:
#
# PCOD9148583 Si02
#       8
#     4   4   4   4   4   4   4   2
#     4  10  21  36  53  74 100 131 169 212 254 302
#     4  10  20  33  50  73 101 133 171 211 248 292
#     4   9  18  31  50  76 104 134 166 204 247 296
#     4   9  19  35  54  76 100 128 167 209 251 301
#     4   9  18  30  54  76 104 133 168 201 251 297
#     4   9  16  30  51  74 100 132 170 206 246 294
#     4   9  17  33  49  79 103 131 166 209 249 295
#     4  12  22  34  54  74 100 136 170 208 256 304
#
# _framework density 16.160413999999999
#
# number of rings (size 3 to 8) (size 9 to 14) (size 15 to 20)
#    0.000    2.533    1.333    0.800    1.867    2.667 
#    0.000    5.333    0.000    0.400    0.000    1.867 
#    0.000    0.000    0.000    0.000    0.000    0.000 
#
# Total GULP energy -167081.649199 kJ/mol
# GULP energy per Si atom -5569.388307 kJ/mol
# Density = 1.612363 g / cm^3
# Si number density = 16.160414 Si / 1000 Ang^3
#
#
#
# Elastic Constant Matrix: (Units=GPa)
#
#
# Indices 1 2 3 4 5 6 
#
# 1 75.6152 38.6091 44.9668 0.0000 -2.9619 0.0000
# 2 38.6091 59.2272 52.2205 0.0000 -0.8992 0.0000
# 3 44.9668 52.2205 113.8811 0.0000 5.5033 0.0000
# 4 0.0000 0.0000 0.0000 25.3871 0.0000 0.5679
# 5 -2.9619 -0.8992 5.5033 0.0000 10.2105 0.0000
# 6 0.0000 0.0000 0.0000 0.5679 0.0000 25.5065
#
#
#
# Elastic Compliance Matrix: (Units=1/GPa)
#
#
# Indices 1 2 3 4 5 6 
#
# 1 0.021056 -0.010016 -0.004080 0.000000 0.007425 0.000000
# 2 -0.010016 0.034087 -0.011993 0.000000 0.006560 0.000000
# 3 -0.004080 -0.011993 0.016428 0.000000 -0.011094 0.000000
# 4 0.000000 0.000000 0.000000 0.039410 0.000000 -0.000877
# 5 0.007425 0.006560 -0.011094 0.000000 0.106649 0.000000
# 6 0.000000 0.000000 0.000000 -0.000877 0.000000 0.039225
#
#
# Mechanical properties :
#
#
# Convention : Reuss Voigt Hill
#
# Bulk Modulus (GPa) = 51.56520 57.81294 54.68907
# Shear Modulus (GPa) = 15.84798 19.74929 17.79864
#
# Velocity S-wave (km/s) = 3.13496 3.49962 3.32229
# Velocity P-wave (km/s) = 6.71428 7.22370 6.97364
#
# Compressibility (1/GPa) = 0.01939292
#
# Stress axis : x y z
#
# Youngs Moduli (GPa) = 47.49181 29.33671 60.87287
#
# Poissons Ratio (x) = 0.29383 0.24838
# Poissons Ratio (y) = 0.47567 0.73004
# Poissons Ratio (z) = 0.19378 0.35183
#
# Static dielectric constant tensor:
#      x y z
#    x 1.538940 0.000000 0.005990 
#    y 0.000000 1.510540 0.000000 
#    z 0.005990 0.000000 1.550410 
# 
# From -- ./inp_files/46736.got.cif
#   From: 2010.05.17/outbox.cif.g08.bks.cpg/sg10_24_cif.got.tgz:46736.got - 2010.06.03 11:33:40.
