data_PCOD9148289
_publ_section_title
;
Structure prediction by ZEFSAII (Michael W. Deem and Ramdas Pophale) SiO2 
 PCOD9148289
Probable space group: P 2/M
;
_chemical_formula_sum "Si O2"
_cell_formula_units_Z 28
_cell_length_a 18.086390
_cell_length_b 9.437792
_cell_length_c 18.575990
_cell_angle_alpha 90.000000
_cell_angle_beta 22.116995
_cell_angle_gamma 90.000000
_cell_volume 1193.818136
_symmetry_space_group_name_H-M "P 2/M"
_symmetry_group_IT_number 10
_symmetry_cell_setting 'monoclinic'
loop_
_space_group_symop_operation_xyz
x,y,z
-x,y,-z
-x,-y,-z
x,-y,z
loop_
_atom_site_type_symbol
_atom_site_label
_atom_site_fract_x
_atom_site_fract_y
_atom_site_fract_z
Si Si1 0.738647 0.839069 0.864609
Si Si2 0.481840 0.162163 0.683334
Si Si3 0.707730 0.661739 0.269413
Si Si4 0.897924 0.838406 0.220269
Si Si5 0.265432 0.160533 0.293995
Si Si6 0.317683 0.657852 0.382334
Si Si7 0.083462 0.658956 0.169952
O O1 0.806157 0.804214 0.722037
O O2 0.800809 0.727473 0.868153
O O3 0.805480 0.000000 0.822096
O O4 0.502920 0.842434 0.075146
O O5 0.338921 0.244444 0.758144
O O6 0.691745 0.156872 0.451160
O O7 0.522667 0.246708 0.720339
O O8 0.424602 0.000000 0.748867
O O9 0.500000 0.655643 0.500000
O O10 0.762194 0.500000 0.202824
O O11 0.855648 0.738502 0.190481
O O12 0.058657 0.768342 0.127238
O O13 0.943373 0.000000 0.158753
O O14 0.231607 0.267136 0.389376
O O15 0.202652 0.000000 0.368238
O O16 0.389757 0.500000 0.300440
O O17 0.137936 0.645683 0.599642
O O18 0.147665 0.500000 0.091614
#
# Coordination Sequence:
#
# PCOD9148289 Si02
#       7
#     4   4   4   4   4   4   4
#     4   9  19  36  55  73  94 123 161 202 242 288
#     4   9  16  26  41  62  90 125 163 199 236 281
#     4   9  15  23  37  59  90 125 158 195 240 285
#     4   9  16  26  41  62  90 125 163 199 236 281
#     4   9  19  36  55  73  94 123 161 202 242 288
#     4  10  20  32  47  71 102 131 160 198 244 290
#     4  10  20  32  47  71 102 131 160 198 244 290
#
# _framework density 23.454160000000002
#
# number of rings (size 3 to 8) (size 9 to 14) (size 15 to 20)
#    0.000    2.714    0.000    3.000    0.000    8.571 
#    0.000    4.286    0.000    0.000    0.000    1.000 
#    0.000    8.000    0.000    0.000    0.000    0.000 
#
# Total GULP energy -156671.714134 kJ/mol
# GULP energy per Si atom -5595.418362 kJ/mol
# Density = 2.340078 g / cm^3
# Si number density = 23.454160 Si / 1000 Ang^3
#
#
#
# Elastic Constant Matrix: (Units=GPa)
#
#
# Indices 1 2 3 4 5 6 
#
# 1 160.3319 126.4194 9.1652 0.0000 -23.8022 0.0000
# 2 126.4194 226.5201 3.8958 0.0000 -14.7453 0.0000
# 3 9.1652 3.8958 54.4017 0.0000 1.8953 0.0000
# 4 0.0000 0.0000 0.0000 39.7200 0.0000 -75.7255
# 5 -23.8022 -14.7453 1.8953 0.0000 41.7886 0.0000
# 6 0.0000 0.0000 0.0000 -75.7255 0.0000 218.2302
#
#
#
# Elastic Compliance Matrix: (Units=1/GPa)
#
#
# Indices 1 2 3 4 5 6 
#
# 1 0.012090 -0.006411 -0.001742 0.000000 0.004703 0.000000
# 2 -0.006411 0.007926 0.000543 0.000000 -0.000880 0.000000
# 3 -0.001742 0.000543 0.018694 0.000000 -0.001648 0.000000
# 4 0.000000 0.000000 0.000000 0.074386 0.000000 0.025812
# 5 0.004703 -0.000880 -0.001648 0.000000 0.026373 0.000000
# 6 0.000000 0.000000 0.000000 0.025812 0.000000 0.013539
#
#
# Mechanical properties :
#
#
# Convention : Reuss Voigt Hill
#
# Bulk Modulus (GPa) = 42.57042 80.02381 61.29711
# Shear Modulus (GPa) = 28.39986 80.06600 54.23293
#
# Velocity S-wave (km/s) = 3.48353 5.84905 4.81385
# Velocity P-wave (km/s) = 5.86258 8.93356 7.55573
#
# Compressibility (1/GPa) = 0.02349049
#
# Stress axis : x y z
#
# Youngs Moduli (GPa) = 82.71307 126.16561 53.49398
#
# Poissons Ratio (x) = 0.80888 0.09316
# Poissons Ratio (y) = 0.53029 -0.02906
# Poissons Ratio (z) = 0.14405 -0.06853
#
# Static dielectric constant tensor:
#      x y z
#    x 1.814570 0.000000 0.009570 
#    y 0.000000 1.817450 0.000000 
#    z 0.009570 0.000000 1.993430 
# 
# From -- ./inp_files/28203.got.cif
#   From: 2010.05.17/outbox.cif.g08.bks.cpg/sg10_15_cif.got.tgz:28203.got - 2010.06.03 11:33:40.
