data_PCOD9148691
_publ_section_title
;
Structure prediction by ZEFSAII (Michael W. Deem and Ramdas Pophale) SiO2 
 PCOD9148691
Probable space group: P 2/M
;
_chemical_formula_sum "Si O2"
_cell_formula_units_Z 28
_cell_length_a 22.683079
_cell_length_b 7.653131
_cell_length_c 15.373411
_cell_angle_alpha 90.000000
_cell_angle_beta 27.851202
_cell_angle_gamma 90.000000
_cell_volume 1246.788539
_symmetry_space_group_name_H-M "P 2/M"
_symmetry_group_IT_number 10
_symmetry_cell_setting 'monoclinic'
loop_
_space_group_symop_operation_xyz
x,y,z
-x,y,-z
-x,-y,-z
x,-y,z
loop_
_atom_site_type_symbol
_atom_site_label
_atom_site_fract_x
_atom_site_fract_y
_atom_site_fract_z
Si Si1 0.653953 0.697992 0.097846
Si Si2 0.947897 0.204420 0.306976
Si Si3 0.460868 0.705842 0.919475
Si Si4 0.299879 0.801382 0.286134
Si Si5 0.351450 0.713322 0.701995
Si Si6 0.900586 0.701173 0.058772
Si Si7 0.911183 0.204211 0.693131
O O1 0.609259 0.500000 0.172545
O O2 0.559854 0.778740 0.150204
O O3 0.782939 0.695268 0.876140
O O4 0.679630 0.774650 0.159029
O O5 0.810721 0.278250 0.511103
O O6 0.018793 0.212688 0.306245
O O7 0.936764 0.000000 0.295226
O O8 0.025227 0.294805 0.129745
O O9 0.489765 0.500000 0.876240
O O10 0.340572 0.722011 0.140889
O O11 0.574935 0.797417 0.819368
O O12 0.260123 0.000000 0.318798
O O13 0.500000 0.760368 0.500000
O O14 0.344585 0.500000 0.706380
O O15 0.240395 0.774718 0.780622
O O16 0.879472 0.500000 0.114302
O O17 0.000000 0.778321 0.000000
O O18 0.000000 0.268291 0.500000
O O19 0.881005 0.000000 0.714155
#
# Coordination Sequence:
#
# PCOD9148691 Si02
#       7
#     4   4   4   4   4   4   4
#     4  10  20  34  54  80 108 142 181 227 281 334
#     4  10  21  36  55  80 110 146 184 229 284 336
#     4  10  20  33  51  79 112 145 186 233 281 328
#     4  10  20  35  54  76 108 151 191 223 274 341
#     4   9  18  35  57  80 110 145 183 232 290 348
#     4  10  21  37  60  86 109 143 193 242 290 347
#     4  10  20  34  54  80 111 147 185 223 270 332
#
# _framework density 22.457698000000001
#
# number of rings (size 3 to 8) (size 9 to 14) (size 15 to 20)
#    0.000    2.143    1.429    2.571    0.000    5.143 
#    0.000    2.857    0.000    1.714    0.000    0.000 
#    0.000    0.000    0.000    0.000    0.000    0.000 
#
# Total GULP energy -156096.343358 kJ/mol
# GULP energy per Si atom -5574.869406 kJ/mol
# Density = 2.240658 g / cm^3
# Si number density = 22.457698 Si / 1000 Ang^3
#
#
#
# Elastic Constant Matrix: (Units=GPa)
#
#
# Indices 1 2 3 4 5 6 
#
# 1 152.3603 6.4256 42.5744 0.0000 -12.5330 0.0000
# 2 6.4256 46.4134 -7.2865 0.0000 -2.5223 0.0000
# 3 42.5744 -7.2865 98.4399 0.0000 -13.4591 0.0000
# 4 0.0000 0.0000 0.0000 7.7170 0.0000 -3.4958
# 5 -12.5330 -2.5223 -13.4591 0.0000 28.9919 0.0000
# 6 0.0000 0.0000 0.0000 -3.4958 0.0000 -9.7715
#
#
#
# Elastic Compliance Matrix: (Units=1/GPa)
#
#
# Indices 1 2 3 4 5 6 
#
# 1 0.007656 -0.001468 -0.003187 0.000000 0.001702 0.000000
# 2 -0.001468 0.022299 0.002631 0.000000 0.002527 0.000000
# 3 -0.003187 0.002631 0.012359 0.000000 0.004589 0.000000
# 4 0.000000 0.000000 0.000000 0.111512 0.000000 -0.039894
# 5 0.001702 0.002527 0.004589 0.000000 0.037578 0.000000
# 6 0.000000 0.000000 0.000000 -0.039894 0.000000 -0.088066
#
#
# Mechanical properties :
#
#
# Convention : Reuss Voigt Hill
#
# Bulk Modulus (GPa) = 26.13279 42.29340 34.21310
# Shear Modulus (GPa) = 41.61768 22.42083 32.01925
#
# Velocity S-wave (km/s) = 4.30950 3.16311 3.78002
# Velocity P-wave (km/s) = 6.03524 5.67571 5.85824
#
# Compressibility (1/GPa) = 0.03826610
#
# Stress axis : x y z
#
# Youngs Moduli (GPa) = 130.61874 44.84498 80.91313
#
# Poissons Ratio (x) = 0.06582 0.25787
# Poissons Ratio (y) = 0.19171 -0.21287
# Poissons Ratio (z) = 0.41628 -0.11798
#
# Static dielectric constant tensor:
#      x y z
#    x 1.866340 0.000000 -0.039420 
#    y 0.000000 1.850200 0.000000 
#    z -0.039420 0.000000 1.849460 
# 
# From -- ./inp_files/49334.got.cif
#   From: 2010.05.17/outbox.cif.g08.bks.cpg/sg10_25_cif.got.tgz:49334.got - 2010.06.03 11:33:40.
