data_PCOD9148948
_publ_section_title
;
Structure prediction by ZEFSAII (Michael W. Deem and Ramdas Pophale) SiO2 
 PCOD9148948
Probable space group: P 2/M
;
_chemical_formula_sum "Si O2"
_cell_formula_units_Z 24
_cell_length_a 8.258061
_cell_length_b 19.471083
_cell_length_c 8.258070
_cell_angle_alpha 90.000000
_cell_angle_beta 56.699443
_cell_angle_gamma 90.000000
_cell_volume 1109.813934
_symmetry_space_group_name_H-M "P 2/M"
_symmetry_group_IT_number 10
_symmetry_cell_setting 'monoclinic'
loop_
_space_group_symop_operation_xyz
x,y,z
-x,y,-z
-x,-y,-z
x,-y,z
loop_
_atom_site_type_symbol
_atom_site_label
_atom_site_fract_x
_atom_site_fract_y
_atom_site_fract_z
Si Si1 0.209808 0.847817 0.076761
Si Si2 0.187482 0.500000 0.088259
Si Si3 0.112074 0.396876 0.612073
Si Si4 0.113511 0.239257 0.613510
Si Si5 0.423240 0.847817 0.290191
Si Si6 0.588259 0.500000 0.687483
Si Si7 0.654485 0.000000 0.558508
Si Si8 0.941494 0.000000 0.845514
O O1 0.327998 0.827467 0.172002
O O2 0.018833 0.802941 0.189998
O O3 0.168074 0.928662 0.117951
O O4 0.348804 0.837065 0.848805
O O5 0.308155 0.500000 0.191845
O O6 0.036110 0.436220 0.185402
O O7 0.356553 0.500000 0.856554
O O8 0.142487 0.318207 0.642485
O O9 0.314599 0.436220 0.463889
O O10 0.000000 0.398448 0.500000
O O11 0.310002 0.197058 0.481167
O O12 0.000000 0.238507 0.500000
O O13 0.382051 0.928662 0.331924
O O14 0.500000 0.000000 0.500000
O O15 0.871275 0.000000 0.371276
O O16 0.000000 0.000000 0.000000
#
# Coordination Sequence:
#
# PCOD9148948 Si02
#       8
#     4   2   4   4   4   2   2   2
#     4  10  20  34  51  71  95 124 161 204 248 294
#     4   8  13  21  34  53  83 122 157 190 226 266
#     4   8  14  23  35  56  84 117 161 196 222 271
#     4   9  17  29  45  65  91 125 161 199 241 283
#     4  10  20  34  51  71  95 124 161 204 248 294
#     4   8  13  21  34  53  83 122 157 190 226 266
#     4  12  23  36  53  72  95 122 161 205 248 296
#     4  12  23  36  53  72  95 122 161 205 248 296
#
# _framework density 21.625247999999999
#
# number of rings (size 3 to 8) (size 9 to 14) (size 15 to 20)
#    0.000    2.500    1.667    3.000    0.000    3.333 
#    0.000    6.667    0.000    0.000    0.000    0.000 
#    0.000    0.000    0.000    6.000    2.667    7.000 
#
# Total GULP energy -133916.076787 kJ/mol
# GULP energy per Si atom -5579.836533 kJ/mol
# Density = 2.157603 g / cm^3
# Si number density = 21.625248 Si / 1000 Ang^3
#
#
#
# Elastic Constant Matrix: (Units=GPa)
#
#
# Indices 1 2 3 4 5 6 
#
# 1 53.2642 19.6406 48.8384 0.0000 -14.0130 0.0000
# 2 19.6406 186.5988 104.5289 0.0000 -50.5831 0.0000
# 3 48.8384 104.5289 196.4206 0.0000 -71.2903 0.0000
# 4 0.0000 0.0000 0.0000 -87.6837 0.0000 18.4844
# 5 -14.0130 -50.5831 -71.2903 0.0000 48.1012 0.0000
# 6 0.0000 0.0000 0.0000 18.4844 0.0000 -56.6467
#
#
#
# Elastic Compliance Matrix: (Units=1/GPa)
#
#
# Indices 1 2 3 4 5 6 
#
# 1 0.024780 0.000848 -0.007940 0.000000 -0.003657 0.000000
# 2 0.000848 0.008108 -0.002903 0.000000 0.004471 0.000000
# 3 -0.007940 -0.002903 0.014419 0.000000 0.016004 0.000000
# 4 0.000000 0.000000 0.000000 -0.012247 0.000000 -0.003996
# 5 -0.003657 0.004471 0.016004 0.000000 0.048145 0.000000
# 6 0.000000 0.000000 0.000000 -0.003996 0.000000 -0.018957
#
#
# Mechanical properties :
#
#
# Convention : Reuss Voigt Hill
#
# Bulk Modulus (GPa) = 36.60682 86.92215 61.76448
# Shear Modulus (GPa) = 53.56611 -1.69412 25.93600
#
# Velocity S-wave (km/s) = 4.98236 -0.88606 3.46690
# Velocity P-wave (km/s) = 7.07553 6.26380 6.68200
#
# Compressibility (1/GPa) = 0.02731731
#
# Stress axis : x y z
#
# Youngs Moduli (GPa) = 40.35564 123.33496 69.35346
#
# Poissons Ratio (x) = -0.10463 0.55066
# Poissons Ratio (y) = -0.03423 0.20134
# Poissons Ratio (z) = 0.32042 0.35805
#
# Static dielectric constant tensor:
#      x y z
#    x 1.819910 0.000000 -0.027340 
#    y 0.000000 1.749500 0.000000 
#    z -0.027340 0.000000 1.865780 
# 
# From -- ./inp_files/20198.got.cif
#   From: 2010.05.17/outbox.cif.g08.bks.cpg/sg10_11_cif.got.tgz:20198.got - 2010.06.03 11:33:40.
