data_PCOD9148107
_publ_section_title
;
Structure prediction by ZEFSAII (Michael W. Deem and Ramdas Pophale) SiO2 
 PCOD9148107
Probable space group: P 2/M
;
_chemical_formula_sum "Si O2"
_cell_formula_units_Z 16
_cell_length_a 5.289690
_cell_length_b 22.391707
_cell_length_c 5.315777
_cell_angle_alpha 90.000000
_cell_angle_beta 90.106200
_cell_angle_gamma 90.000000
_cell_volume 629.627128
_symmetry_space_group_name_H-M "P 2/M"
_symmetry_group_IT_number 10
_symmetry_cell_setting 'monoclinic'
loop_
_space_group_symop_operation_xyz
x,y,z
-x,y,-z
-x,-y,-z
x,-y,z
loop_
_atom_site_type_symbol
_atom_site_label
_atom_site_fract_x
_atom_site_fract_y
_atom_site_fract_z
Si Si1 0.500000 0.840935 0.000000
Si Si2 0.853509 0.239450 0.254806
Si Si3 0.754376 0.068197 0.669711
Si Si4 0.328298 0.628093 0.748879
Si Si5 0.324942 0.500000 0.749898
O O1 0.404751 0.796410 0.782660
O O2 0.711599 0.885208 0.892164
O O3 0.824106 0.310942 0.262588
O O4 0.000000 0.219859 0.500000
O O5 0.000000 0.226692 0.000000
O O6 0.500000 0.071974 0.500000
O O7 0.000000 0.079429 0.500000
O O8 0.772149 0.000000 0.765590
O O9 0.500000 0.628191 0.500000
O O10 0.185946 0.563982 0.751939
O O11 0.500000 0.631030 0.000000
O O12 0.500000 0.500000 0.500000
O O13 0.500000 0.500000 0.000000
#
# Coordination Sequence:
#
# PCOD9148107 Si02
#       5
#     2   4   4   4   2
#     4  12  29  46  76 107 158 202 258 310 394 463
#     4  12  29  46  70 107 149 198 253 315 381 465
#     4  10  25  49  80 116 156 203 260 325 393 467
#     4  10  19  40  65  95 138 187 243 311 381 453
#     4   8  16  30  62  94 124 181 243 300 379 454
#
# _framework density 25.411867000000001
#
# number of rings (size 3 to 8) (size 9 to 14) (size 15 to 20)
#    0.000    1.500    1.250    1.875    7.000    0.000 
#    0.000    5.000    0.000    2.250    0.000    0.000 
#    0.000    0.000    0.000    0.000    0.000    0.000 
#
# Total GULP energy -89672.827234 kJ/mol
# GULP energy per Si atom -5604.551702 kJ/mol
# Density = 2.535403 g / cm^3
# Si number density = 25.411867 Si / 1000 Ang^3
#
#
#
# Elastic Constant Matrix: (Units=GPa)
#
#
# Indices 1 2 3 4 5 6 
#
# 1 97.2892 42.8283 47.6278 0.0000 -2.5652 0.0000
# 2 42.8283 234.9692 40.9190 0.0000 2.2745 0.0000
# 3 47.6278 40.9190 184.1977 0.0000 8.1934 0.0000
# 4 0.0000 0.0000 0.0000 28.7080 0.0000 -42.5063
# 5 -2.5652 2.2745 8.1934 0.0000 50.8298 0.0000
# 6 0.0000 0.0000 0.0000 -42.5063 0.0000 -18.8663
#
#
#
# Elastic Compliance Matrix: (Units=1/GPa)
#
#
# Indices 1 2 3 4 5 6 
#
# 1 0.012512 -0.001789 -0.002890 0.000000 0.001177 0.000000
# 2 -0.001789 0.004683 -0.000569 0.000000 -0.000208 0.000000
# 3 -0.002890 -0.000569 0.006353 0.000000 -0.001145 0.000000
# 4 0.000000 0.000000 0.000000 0.008034 0.000000 -0.018100
# 5 0.001177 -0.000208 -0.001145 0.000000 0.019927 0.000000
# 6 0.000000 0.000000 0.000000 -0.018100 0.000000 -0.012224
#
#
# Mechanical properties :
#
#
# Convention : Reuss Voigt Hill
#
# Bulk Modulus (GPa) = 76.60770 86.57847 81.59309
# Shear Modulus (GPa) = 92.36954 37.80635 65.08794
#
# Velocity S-wave (km/s) = 6.03555 3.86131 5.06644
# Velocity P-wave (km/s) = 8.87594 7.35008 8.14881
#
# Compressibility (1/GPa) = 0.01305352
#
# Stress axis : x y z
#
# Youngs Moduli (GPa) = 79.92333 213.54168 157.39385
#
# Poissons Ratio (x) = 0.38195 0.45491
# Poissons Ratio (y) = 0.14296 0.08949
# Poissons Ratio (z) = 0.23100 0.12141
#
# Static dielectric constant tensor:
#      x y z
#    x 2.200340 0.000000 -0.309590 
#    y 0.000000 1.999660 0.000000 
#    z -0.309590 0.000000 2.942850 
# 
# From -- ./inp_files/1400.got.cif
#   From: 2010.05.17/outbox.cif.g08.bks.cpg/sg10_1_cif.got.tgz:1400.got - 2010.06.03 11:33:40.
