data_PCOD9148689
_publ_section_title
;
Structure prediction by ZEFSAII (Michael W. Deem and Ramdas Pophale) SiO2 
 PCOD9148689
Probable space group: P 2/M
;
_chemical_formula_sum "Si O2"
_cell_formula_units_Z 24
_cell_length_a 9.413660
_cell_length_b 7.822364
_cell_length_c 20.332760
_cell_angle_alpha 90.000000
_cell_angle_beta 60.133027
_cell_angle_gamma 90.000000
_cell_volume 1298.386809
_symmetry_space_group_name_H-M "P 2/M"
_symmetry_group_IT_number 10
_symmetry_cell_setting 'monoclinic'
loop_
_space_group_symop_operation_xyz
x,y,z
-x,y,-z
-x,-y,-z
x,-y,z
loop_
_atom_site_type_symbol
_atom_site_label
_atom_site_fract_x
_atom_site_fract_y
_atom_site_fract_z
Si Si1 0.777842 0.000000 0.427946
Si Si2 0.354385 0.297844 0.987629
Si Si3 0.354822 0.799979 0.836159
Si Si4 0.989551 0.299829 0.581362
Si Si5 0.609542 0.307025 0.675916
Si Si6 0.998398 0.206284 0.923872
Si Si7 0.492255 0.000000 0.394093
O O1 0.890551 0.832639 0.410933
O O2 0.670130 0.000000 0.386788
O O3 0.645840 0.000000 0.517499
O O4 0.375734 0.500000 0.973139
O O5 0.358972 0.215997 0.914171
O O6 0.500000 0.232842 0.000000
O O7 0.176422 0.267441 0.061363
O O8 0.500911 0.704498 0.766517
O O9 0.173684 0.737620 0.855409
O O10 0.368638 0.000000 0.816210
O O11 0.029340 0.500000 0.584423
O O12 0.800629 0.268693 0.644416
O O13 0.000000 0.271549 0.500000
O O14 0.602738 0.500000 0.650345
O O15 0.537782 0.167823 0.642678
O O16 0.998051 0.000000 0.922908
O O17 0.000000 0.262232 0.000000
#
# Coordination Sequence:
#
# PCOD9148689 Si02
#       7
#     2   4   4   4   4   4   2
#     4  11  22  37  62  85 120 152 188 246 289 347
#     4  10  20  33  51  79 111 143 183 229 281 338
#     4  10  20  35  57  81 107 142 189 236 280 337
#     4  10  20  36  60  89 116 153 198 237 283 342
#     4  11  22  38  61  86 117 153 197 243 285 344
#     4   8  16  31  51  75 101 133 178 225 266 324
#     4  11  23  38  57  90 117 151 194 235 298 345
#
# _framework density 18.484476000000001
#
# number of rings (size 3 to 8) (size 9 to 14) (size 15 to 20)
#    0.000    2.000    2.500    2.750    0.000    5.667 
#    0.000    3.333    0.000    0.000    0.000    0.000 
#    0.000    0.000    0.000    0.000    0.000    0.000 
#
# Total GULP energy -133865.369568 kJ/mol
# GULP energy per Si atom -5577.723732 kJ/mol
# Density = 1.844240 g / cm^3
# Si number density = 18.484476 Si / 1000 Ang^3
#
#
#
# Elastic Constant Matrix: (Units=GPa)
#
#
# Indices 1 2 3 4 5 6 
#
# 1 145.4459 60.4133 40.5398 0.0000 -29.5016 0.0000
# 2 60.4133 93.2781 16.1377 0.0000 -8.4447 0.0000
# 3 40.5398 16.1377 81.9149 0.0000 -32.1894 0.0000
# 4 0.0000 0.0000 0.0000 27.4544 0.0000 -11.3048
# 5 -29.5016 -8.4447 -32.1894 0.0000 28.4529 0.0000
# 6 0.0000 0.0000 0.0000 -11.3048 0.0000 15.7945
#
#
#
# Elastic Compliance Matrix: (Units=1/GPa)
#
#
# Indices 1 2 3 4 5 6 
#
# 1 0.011737 -0.006615 -0.000891 0.000000 0.009199 0.000000
# 2 -0.006615 0.014862 -0.001109 0.000000 -0.003703 0.000000
# 3 -0.000891 -0.001109 0.022280 0.000000 0.023953 0.000000
# 4 0.000000 0.000000 0.000000 0.051645 0.000000 0.036964
# 5 0.009199 -0.003703 0.023953 0.000000 0.070683 0.000000
# 6 0.000000 0.000000 0.000000 0.036964 0.000000 0.089770
#
#
# Mechanical properties :
#
#
# Convention : Reuss Voigt Hill
#
# Bulk Modulus (GPa) = 31.59681 61.64674 46.62177
# Shear Modulus (GPa) = 17.31572 27.91024 22.61298
#
# Velocity S-wave (km/s) = 3.06399 3.89000 3.50144
# Velocity P-wave (km/s) = 5.44502 7.32114 6.45164
#
# Compressibility (1/GPa) = 0.03164877
#
# Stress axis : x y z
#
# Youngs Moduli (GPa) = 85.19977 67.28773 44.88401
#
# Poissons Ratio (x) = 0.44510 0.03998
# Poissons Ratio (y) = 0.56359 0.04978
# Poissons Ratio (z) = 0.07590 0.07463
#
# Static dielectric constant tensor:
#      x y z
#    x 1.637680 0.000000 -0.025880 
#    y 0.000000 1.650260 0.000000 
#    z -0.025880 0.000000 1.645390 
# 
# From -- ./inp_files/81945.got.cif
#   From: 2010.05.17/outbox.cif.g08.bks.cpg/sg10_41_cif.got.tgz:81945.got - 2010.06.03 11:33:40.
