data_PCOD9148941
_publ_section_title
;
Structure prediction by ZEFSAII (Michael W. Deem and Ramdas Pophale) SiO2 
 PCOD9148941
Probable space group: P 2/M
;
_chemical_formula_sum "Si O2"
_cell_formula_units_Z 32
_cell_length_a 19.196007
_cell_length_b 9.019765
_cell_length_c 19.165103
_cell_angle_alpha 90.000000
_cell_angle_beta 142.884465
_cell_angle_gamma 90.000000
_cell_volume 2002.350118
_symmetry_space_group_name_H-M "P 2/M"
_symmetry_group_IT_number 10
_symmetry_cell_setting 'monoclinic'
loop_
_space_group_symop_operation_xyz
x,y,z
-x,y,-z
-x,-y,-z
x,-y,z
loop_
_atom_site_type_symbol
_atom_site_label
_atom_site_fract_x
_atom_site_fract_y
_atom_site_fract_z
Si Si1 0.268938 0.675879 0.304201
Si Si2 0.619236 0.676999 0.756425
Si Si3 0.792342 0.177051 0.999521
Si Si4 0.853843 0.823988 0.580444
Si Si5 0.973949 0.827376 0.896764
Si Si6 0.380289 0.822968 0.524256
Si Si7 0.915052 0.325856 0.215627
Si Si8 0.971652 0.675748 0.555331
O O1 0.277295 0.500000 0.322134
O O2 0.309267 0.708857 0.257555
O O3 0.138244 0.731357 0.209253
O O4 0.350183 0.758924 0.424155
O O5 0.612100 0.500000 0.758509
O O6 0.686886 0.748496 0.874971
O O7 0.493628 0.746652 0.645245
O O8 0.780081 0.000000 0.990208
O O9 0.816596 0.240480 0.095731
O O10 0.909467 0.214998 0.050236
O O11 0.731587 0.790505 0.517108
O O12 0.870899 0.763795 0.515215
O O13 0.959667 0.742859 0.704508
O O14 0.872745 0.000000 0.598018
O O15 0.947834 0.000000 0.859001
O O16 0.000000 0.817340 0.000000
O O17 0.395313 0.000000 0.532864
O O18 0.911199 0.500000 0.196740
O O19 0.921385 0.306932 0.304800
O O20 0.944055 0.500000 0.531905
O O21 0.000000 0.724640 0.500000
#
# Coordination Sequence:
#
# PCOD9148941 Si02
#       8
#     4   4   4   4   4   4   4   4
#     4  11  23  36  52  73  96 126 169 220 266 306
#     4  11  24  38  51  69  95 129 174 221 262 301
#     4  11  21  34  51  71  98 130 168 208 251 306
#     4   9  18  32  50  77 105 132 166 201 245 295
#     4  10  20  34  51  70  94 127 165 206 255 307
#     4  11  23  37  53  71  97 132 172 214 256 304
#     4   9  18  31  50  75 105 134 161 198 242 291
#     4   8  16  31  51  78 110 139 164 193 237 295
#
# _framework density 15.981221
#
# number of rings (size 3 to 8) (size 9 to 14) (size 15 to 20)
#    0.750    1.250    1.250    3.000    0.000    9.500 
#    0.000    0.000    0.000    0.000    0.000    0.875 
#    0.000    7.000    0.000    0.000    0.000    0.000 
#
# Total GULP energy -178397.903593 kJ/mol
# GULP energy per Si atom -5574.934487 kJ/mol
# Density = 1.594485 g / cm^3
# Si number density = 15.981221 Si / 1000 Ang^3
#
#
#
# Elastic Constant Matrix: (Units=GPa)
#
#
# Indices 1 2 3 4 5 6 
#
# 1 40.2532 28.4467 31.9180 0.0000 -15.4147 0.0000
# 2 28.4467 55.4597 55.5643 0.0000 -4.8453 0.0000
# 3 31.9180 55.5643 123.1134 0.0000 -5.4600 0.0000
# 4 0.0000 0.0000 0.0000 39.4156 0.0000 24.6492
# 5 -15.4147 -4.8453 -5.4600 0.0000 18.2734 0.0000
# 6 0.0000 0.0000 0.0000 24.6492 0.0000 90.6353
#
#
#
# Elastic Compliance Matrix: (Units=1/GPa)
#
#
# Indices 1 2 3 4 5 6 
#
# 1 0.061861 -0.025085 -0.002733 0.000000 0.044715 0.000000
# 2 -0.025085 0.043430 -0.013707 0.000000 -0.013741 0.000000
# 3 -0.002733 -0.013707 0.014952 0.000000 -0.001473 0.000000
# 4 0.000000 0.000000 0.000000 0.030570 0.000000 -0.008314
# 5 0.044715 -0.013741 -0.001473 0.000000 0.088361 0.000000
# 6 0.000000 0.000000 0.000000 -0.008314 0.000000 0.013294
#
#
# Mechanical properties :
#
#
# Convention : Reuss Voigt Hill
#
# Bulk Modulus (GPa) = 26.88701 50.07602 38.48151
# Shear Modulus (GPa) = 14.37125 36.52468 25.44796
#
# Velocity S-wave (km/s) = 3.00202 4.78585 3.99478
# Velocity P-wave (km/s) = 5.37371 7.87029 6.73863
#
# Compressibility (1/GPa) = 0.03719268
#
# Stress axis : x y z
#
# Youngs Moduli (GPa) = 16.16532 23.02535 66.87924
#
# Poissons Ratio (x) = 0.57759 0.18280
# Poissons Ratio (y) = 0.40551 0.91673
# Poissons Ratio (z) = 0.04418 0.31561
#
# Static dielectric constant tensor:
#      x y z
#    x 1.537640 0.000000 -0.021810 
#    y 0.000000 1.532980 0.000000 
#    z -0.021810 0.000000 1.527060 
# 
# From -- ./inp_files/86158.got.cif
#   From: 2010.05.17/outbox.cif.g08.bks.cpg/sg10_44_cif.got.tgz:86158.got - 2010.06.03 11:33:40.
