data_PCOD9148093
_publ_section_title
;
Structure prediction by ZEFSAII (Michael W. Deem and Ramdas Pophale) SiO2 
 PCOD9148093
Probable space group: P 2/M
;
_chemical_formula_sum "Si O2"
_cell_formula_units_Z 32
_cell_length_a 15.632882
_cell_length_b 8.710162
_cell_length_c 12.340970
_cell_angle_alpha 90.000000
_cell_angle_beta 91.348639
_cell_angle_gamma 90.000000
_cell_volume 1679.941884
_symmetry_space_group_name_H-M "P 2/M"
_symmetry_group_IT_number 10
_symmetry_cell_setting 'monoclinic'
loop_
_space_group_symop_operation_xyz
x,y,z
-x,y,-z
-x,-y,-z
x,-y,z
loop_
_atom_site_type_symbol
_atom_site_label
_atom_site_fract_x
_atom_site_fract_y
_atom_site_fract_z
Si Si1 0.492842 0.814043 0.126219
Si Si2 0.845891 0.184797 0.220790
Si Si3 0.660368 0.319208 0.736772
Si Si4 0.997691 0.684305 0.372785
Si Si5 0.398124 0.822964 0.485420
Si Si6 0.151336 0.818417 0.234993
Si Si7 0.654015 0.186707 0.278065
Si Si8 0.897694 0.324817 0.993017
O O1 0.408021 0.748597 0.180156
O O2 0.576965 0.763466 0.196634
O O3 0.488635 0.000000 0.131952
O O4 0.500000 0.771237 0.000000
O O5 0.748940 0.232177 0.246013
O O6 0.915545 0.246497 0.308413
O O7 0.850530 0.000000 0.219574
O O8 0.866864 0.250634 0.103402
O O9 0.668577 0.500000 0.753833
O O10 0.625858 0.280295 0.616334
O O11 0.752794 0.241029 0.745964
O O12 0.993322 0.500000 0.365099
O O13 0.082817 0.740601 0.313410
O O14 0.000000 0.727393 0.500000
O O15 0.500000 0.827933 0.500000
O O16 0.362034 0.766090 0.598706
O O17 0.368907 0.000000 0.465167
O O18 0.127467 0.773001 0.111859
O O19 0.146807 0.000000 0.250120
O O20 0.650921 0.000000 0.277543
O O21 0.865526 0.500000 0.980888
O O22 0.000000 0.330553 0.000000
#
# Coordination Sequence:
#
# PCOD9148093 Si02
#       8
#     4   4   4   4   4   4   4   4
#     4  10  21  41  67  92 124 169 216 261 310 370
#     4  11  23  39  64  97 129 167 216 261 307 376
#     4  12  26  42  62  94 133 167 208 262 324 386
#     4  11  25  45  65  91 131 170 206 261 327 382
#     4  10  19  39  68  91 121 165 214 263 311 367
#     4  12  26  44  69  95 123 166 220 267 312 377
#     4   9  20  38  61  95 127 159 210 265 307 356
#     4  11  23  42  67  93 128 166 205 263 327 377
#
# _framework density 19.048279000000001
#
# number of rings (size 3 to 8) (size 9 to 14) (size 15 to 20)
#    0.000    1.250    2.500    3.375    3.500    2.000 
#    0.000    1.875    0.000    0.000    0.000    0.000 
#    0.000    0.000    0.000    0.000    0.000    0.000 
#
# Total GULP energy -178869.572434 kJ/mol
# GULP energy per Si atom -5589.674139 kJ/mol
# Density = 1.900492 g / cm^3
# Si number density = 19.048279 Si / 1000 Ang^3
#
#
#
# Elastic Constant Matrix: (Units=GPa)
#
#
# Indices 1 2 3 4 5 6 
#
# 1 123.2038 24.9813 52.8333 0.0000 -17.4732 0.0000
# 2 24.9813 59.4407 26.4296 0.0000 -9.3003 0.0000
# 3 52.8333 26.4296 137.9048 0.0000 -24.8850 0.0000
# 4 0.0000 0.0000 0.0000 44.6281 0.0000 -15.0875
# 5 -17.4732 -9.3003 -24.8850 0.0000 33.5254 0.0000
# 6 0.0000 0.0000 0.0000 -15.0875 0.0000 17.9174
#
#
#
# Elastic Compliance Matrix: (Units=1/GPa)
#
#
# Indices 1 2 3 4 5 6 
#
# 1 0.010274 -0.002607 -0.003003 0.000000 0.002402 0.000000
# 2 -0.002607 0.019294 -0.002284 0.000000 0.002298 0.000000
# 3 -0.003003 -0.002284 0.009749 0.000000 0.005037 0.000000
# 4 0.000000 0.000000 0.000000 0.031325 0.000000 0.026378
# 5 0.002402 0.002298 0.005037 0.000000 0.035457 0.000000
# 6 0.000000 0.000000 0.000000 0.026378 0.000000 0.078023
#
#
# Mechanical properties :
#
#
# Convention : Reuss Voigt Hill
#
# Bulk Modulus (GPa) = 42.50129 58.78196 50.64163
# Shear Modulus (GPa) = 24.06709 33.63451 28.85080
#
# Velocity S-wave (km/s) = 3.55840 4.20664 3.89603
# Velocity P-wave (km/s) = 6.26449 7.38383 6.84707
#
# Compressibility (1/GPa) = 0.02352870
#
# Stress axis : x y z
#
# Youngs Moduli (GPa) = 97.33680 51.82877 102.57857
#
# Poissons Ratio (x) = 0.13510 0.30803
# Poissons Ratio (y) = 0.25372 0.23433
# Poissons Ratio (z) = 0.29229 0.11840
#
# Static dielectric constant tensor:
#      x y z
#    x 1.701750 0.000000 0.004130 
#    y 0.000000 1.652850 0.000000 
#    z 0.004130 0.000000 1.632070 
# 
# From -- ./inp_files/49960.got.cif
#   From: 2010.05.17/outbox.cif.g08.bks.cpg/sg10_25_cif.got.tgz:49960.got - 2010.06.03 11:33:40.
