data_PCOD9148164
_publ_section_title
;
Structure prediction by ZEFSAII (Michael W. Deem and Ramdas Pophale) SiO2 
 PCOD9148164
Probable space group: P 2/M
;
_chemical_formula_sum "Si O2"
_cell_formula_units_Z 28
_cell_length_a 19.172721
_cell_length_b 9.706948
_cell_length_c 11.794886
_cell_angle_alpha 90.000000
_cell_angle_beta 52.783839
_cell_angle_gamma 90.000000
_cell_volume 1748.112135
_symmetry_space_group_name_H-M "P 2/M"
_symmetry_group_IT_number 10
_symmetry_cell_setting 'monoclinic'
loop_
_space_group_symop_operation_xyz
x,y,z
-x,y,-z
-x,-y,-z
x,-y,z
loop_
_atom_site_type_symbol
_atom_site_label
_atom_site_fract_x
_atom_site_fract_y
_atom_site_fract_z
Si Si1 0.808055 0.163332 0.786222
Si Si2 0.707646 0.658899 0.055644
Si Si3 0.403339 0.667628 0.628647
Si Si4 0.975011 0.162738 0.781831
Si Si5 0.120645 0.342101 0.950089
Si Si6 0.758630 0.333904 0.372640
Si Si7 0.831233 0.835350 0.499478
O O1 0.899461 0.190234 0.762454
O O2 0.817599 0.197936 0.644844
O O3 0.791276 0.000000 0.812437
O O4 0.733340 0.248433 0.924199
O O5 0.691386 0.500000 0.038925
O O6 0.630133 0.710852 0.213892
O O7 0.793143 0.658996 0.053650
O O8 0.500000 0.714743 0.500000
O O9 0.403597 0.500000 0.631832
O O10 0.329671 0.704577 0.608469
O O11 0.069008 0.195483 0.636330
O O12 0.972592 0.000000 0.809958
O O13 0.949832 0.247774 0.918507
O O14 0.090552 0.500000 0.973501
O O15 0.159379 0.298744 0.790718
O O16 0.759142 0.500000 0.386881
O O17 0.769843 0.252575 0.477569
O O18 0.817804 0.000000 0.498249
#
# Coordination Sequence:
#
# PCOD9148164 Si02
#       7
#     4   4   4   4   4   4   4
#     4   9  17  30  46  62  85 119 155 187 218 251
#     4   8  14  26  46  70  90 109 139 179 219 259
#     4   8  14  28  52  76  93 110 136 175 221 265
#     4   9  17  29  45  63  82 112 157 196 219 247
#     4   8  15  28  43  61  88 116 141 177 224 265
#     4   9  18  31  46  66  91 117 144 175 218 270
#     4  10  20  31  43  61  88 121 153 186 220 253
#
# _framework density 16.017278999999998
#
# number of rings (size 3 to 8) (size 9 to 14) (size 15 to 20)
#    0.000    3.286    0.000    2.143    0.000    4.000 
#    0.000    5.000    0.000    6.857    0.000    6.000 
#    0.000    0.000    0.000    0.000    0.000    0.000 
#
# Total GULP energy -155952.573093 kJ/mol
# GULP energy per Si atom -5569.734753 kJ/mol
# Density = 1.598082 g / cm^3
# Si number density = 16.017279 Si / 1000 Ang^3
#
#
#
# Elastic Constant Matrix: (Units=GPa)
#
#
# Indices 1 2 3 4 5 6 
#
# 1 63.9045 32.2698 63.9505 0.0000 2.0699 0.0000
# 2 32.2698 25.9701 49.4038 0.0000 2.8855 0.0000
# 3 63.9505 49.4038 131.3733 0.0000 -6.0542 0.0000
# 4 0.0000 0.0000 0.0000 33.8369 0.0000 8.0635
# 5 2.0699 2.8855 -6.0542 0.0000 23.4961 0.0000
# 6 0.0000 0.0000 0.0000 8.0635 0.0000 18.7306
#
#
#
# Elastic Compliance Matrix: (Units=1/GPa)
#
#
# Indices 1 2 3 4 5 6 
#
# 1 0.042365 -0.048211 -0.002420 0.000000 0.001565 0.000000
# 2 -0.048211 0.215027 -0.059117 0.000000 -0.037393 0.000000
# 3 -0.002420 -0.059117 0.031743 0.000000 0.015653 0.000000
# 4 0.000000 0.000000 0.000000 0.032932 0.000000 -0.014177
# 5 0.001565 -0.037393 0.015653 0.000000 0.051048 0.000000
# 6 0.000000 0.000000 0.000000 -0.014177 0.000000 0.059492
#
#
# Mechanical properties :
#
#
# Convention : Reuss Voigt Hill
#
# Bulk Modulus (GPa) = 14.36008 56.94402 35.65205
# Shear Modulus (GPa) = 7.40394 20.25430 13.82912
#
# Velocity S-wave (km/s) = 2.15233 3.55988 2.94153
# Velocity P-wave (km/s) = 3.89378 7.24747 5.81753
#
# Compressibility (1/GPa) = 0.06963751
#
# Stress axis : x y z
#
# Youngs Moduli (GPa) = 23.60444 4.65058 31.50316
#
# Poissons Ratio (x) = 0.22421 0.07625
# Poissons Ratio (y) = 1.13800 1.86238
# Poissons Ratio (z) = 0.05713 0.27493
#
# Static dielectric constant tensor:
#      x y z
#    x 1.533490 0.000000 -0.005770 
#    y 0.000000 1.529870 0.000000 
#    z -0.005770 0.000000 1.534940 
# 
# From -- ./inp_files/48794.got.cif
#   From: 2010.05.17/outbox.cif.g08.bks.cpg/sg10_25_cif.got.tgz:48794.got - 2010.06.03 11:33:40.
