data_PCOD9148500
_publ_section_title
;
Structure prediction by ZEFSAII (Michael W. Deem and Ramdas Pophale) SiO2 
 PCOD9148500
Probable space group: P 2/M
;
_chemical_formula_sum "Si O2"
_cell_formula_units_Z 32
_cell_length_a 19.676235
_cell_length_b 7.476682
_cell_length_c 20.591446
_cell_angle_alpha 90.000000
_cell_angle_beta 150.698473
_cell_angle_gamma 90.000000
_cell_volume 1482.541205
_symmetry_space_group_name_H-M "P 2/M"
_symmetry_group_IT_number 10
_symmetry_cell_setting 'monoclinic'
loop_
_space_group_symop_operation_xyz
x,y,z
-x,y,-z
-x,-y,-z
x,-y,z
loop_
_atom_site_type_symbol
_atom_site_label
_atom_site_fract_x
_atom_site_fract_y
_atom_site_fract_z
Si Si1 0.500270 0.717392 0.894161
Si Si2 0.714030 0.715872 0.185935
Si Si3 0.564728 0.282866 0.665017
Si Si4 0.213183 0.218620 0.492319
Si Si5 0.242103 0.789417 0.370609
Si Si6 0.855320 0.293322 0.849471
Si Si7 0.017231 0.202876 0.443292
Si Si8 0.529613 0.295839 0.779178
O O1 0.493674 0.500000 0.883107
O O2 0.350661 0.773321 0.798415
O O3 0.552591 0.787523 0.868876
O O4 0.606578 0.759975 0.039732
O O5 0.726726 0.500000 0.198135
O O6 0.859080 0.799207 0.289161
O O7 0.563968 0.500000 0.663763
O O8 0.410925 0.236662 0.509437
O O9 0.704876 0.218080 0.746756
O O10 0.575053 0.217484 0.748248
O O11 0.190438 0.274421 0.398492
O O12 0.363259 0.292322 0.635659
O O13 0.108527 0.279518 0.461225
O O14 0.217442 0.000000 0.495722
O O15 0.159500 0.710736 0.240820
O O16 0.218441 0.000000 0.347762
O O17 0.853829 0.500000 0.870137
O O18 0.000000 0.217843 0.000000
O O19 0.000000 0.291131 0.500000
O O20 0.068760 0.000000 0.497168
O O21 0.582442 0.500000 0.824311
#
# Coordination Sequence:
#
# PCOD9148500 Si02
#       8
#     4   4   4   4   4   4   4   4
#     4   8  15  29  47  68  97 126 155 200 251 288
#     4   9  17  30  47  68  94 126 162 200 244 293
#     4   9  18  33  54  78 103 132 170 212 254 300
#     4   9  19  34  49  70 102 131 160 203 252 290
#     4  10  20  35  56  78 102 136 174 214 255 303
#     4  10  21  37  54  77 109 139 167 207 258 308
#     4  10  20  33  48  68  97 131 164 202 247 291
#     4   9  16  29  51  74  94 123 164 203 240 289
#
# _framework density 21.58456
#
# number of rings (size 3 to 8) (size 9 to 14) (size 15 to 20)
#    0.000    2.750    0.000    2.250    0.000    3.500 
#    2.250    1.875    0.000    0.000    0.000    0.000 
#    0.000    0.000    0.000    0.000    0.000    0.000 
#
# Total GULP energy -178294.984193 kJ/mol
# GULP energy per Si atom -5571.718256 kJ/mol
# Density = 2.153543 g / cm^3
# Si number density = 21.584560 Si / 1000 Ang^3
#
#
#
# Elastic Constant Matrix: (Units=GPa)
#
#
# Indices 1 2 3 4 5 6 
#
# 1 131.8647 -0.3885 56.3375 0.0000 -6.6336 0.0000
# 2 -0.3885 62.9848 0.8319 0.0000 0.3123 0.0000
# 3 56.3375 0.8319 79.3678 0.0000 -16.5667 0.0000
# 4 0.0000 0.0000 0.0000 6.4910 0.0000 6.9537
# 5 -6.6336 0.3123 -16.5667 0.0000 32.2889 0.0000
# 6 0.0000 0.0000 0.0000 6.9537 0.0000 -0.2771
#
#
#
# Elastic Compliance Matrix: (Units=1/GPa)
#
#
# Indices 1 2 3 4 5 6 
#
# 1 0.010996 0.000186 -0.008216 0.000000 -0.001958 0.000000
# 2 0.000186 0.015884 -0.000361 0.000000 -0.000301 0.000000
# 3 -0.008216 -0.000361 0.020252 0.000000 0.008707 0.000000
# 4 0.000000 0.000000 0.000000 0.005524 0.000000 0.138651
# 5 -0.001958 -0.000301 0.008707 0.000000 0.035038 0.000000
# 6 0.000000 0.000000 0.000000 0.138651 0.000000 -0.129424
#
#
# Mechanical properties :
#
#
# Convention : Reuss Voigt Hill
#
# Bulk Modulus (GPa) = 32.94847 43.08655 38.01751
# Shear Modulus (GPa) = -337.13865 22.19632 -157.47116
#
# Velocity S-wave (km/s) = -12.51133 3.21026 -8.55066
# Velocity P-wave (km/s) = 13.90731 5.80914 8.93497
#
# Compressibility (1/GPa) = 0.03035042
#
# Stress axis : x y z
#
# Youngs Moduli (GPa) = 90.94544 62.95537 49.37677
#
# Poissons Ratio (x) = -0.01171 0.40566
# Poissons Ratio (y) = -0.01692 0.01784
# Poissons Ratio (z) = 0.74718 0.02275
#
# Static dielectric constant tensor:
#      x y z
#    x 1.847480 0.000000 -0.027510 
#    y 0.000000 1.847030 0.000000 
#    z -0.027510 0.000000 1.792850 
# 
# From -- ./inp_files/86149.got.cif
#   From: 2010.05.17/outbox.cif.g08.bks.cpg/sg10_44_cif.got.tgz:86149.got - 2010.06.03 11:33:40.
