data_PCOD9148415
_publ_section_title
;
Structure prediction by ZEFSAII (Michael W. Deem and Ramdas Pophale) SiO2 
 PCOD9148415
Probable space group: P 2/M
;
_chemical_formula_sum "Si O2"
_cell_formula_units_Z 18
_cell_length_a 15.295532
_cell_length_b 10.778109
_cell_length_c 5.533247
_cell_angle_alpha 90.000000
_cell_angle_beta 93.612437
_cell_angle_gamma 90.000000
_cell_volume 910.381548
_symmetry_space_group_name_H-M "P 2/M"
_symmetry_group_IT_number 10
_symmetry_cell_setting 'monoclinic'
loop_
_space_group_symop_operation_xyz
x,y,z
-x,y,-z
-x,-y,-z
x,-y,z
loop_
_atom_site_type_symbol
_atom_site_label
_atom_site_fract_x
_atom_site_fract_y
_atom_site_fract_z
Si Si1 0.643836 0.363931 0.207902
Si Si2 0.402816 0.862136 0.105900
Si Si3 0.500000 0.271927 0.500000
Si Si4 0.897843 0.650163 0.028159
Si Si5 0.818895 0.354567 0.516409
O O1 0.656437 0.500000 0.094431
O O2 0.547662 0.354234 0.308739
O O3 0.716895 0.352377 0.428286
O O4 0.649878 0.247431 0.031700
O O5 0.425963 0.817374 0.377993
O O6 0.365146 0.000000 0.086278
O O7 0.500000 0.866780 0.000000
O O8 0.885404 0.500000 0.037930
O O9 0.844609 0.696824 0.783296
O O10 0.867060 0.697952 0.285376
O O11 0.000000 0.673647 0.000000
O O12 0.845082 0.500000 0.534032
#
# Coordination Sequence:
#
# PCOD9148415 Si02
#       5
#     4   4   2   4   4
#     4  10  21  33  49  74 106 140 174 216 265 316
#     4   9  19  35  52  70  95 132 179 225 266 307
#     4  10  20  32  52  72  98 140 180 220 258 314
#     4   9  16  28  46  68  98 137 173 206 257 322
#     4   9  18  29  45  70 103 136 170 213 261 312
#
# _framework density 19.771927999999999
#
# number of rings (size 3 to 8) (size 9 to 14) (size 15 to 20)
#    0.000    2.667    0.000    1.333    3.111    8.444 
#    0.000    0.000    0.000    0.000    0.000    0.000 
#    0.000    5.333    0.000    0.000    0.000    0.000 
#
# Total GULP energy -100281.139658 kJ/mol
# GULP energy per Si atom -5571.174425 kJ/mol
# Density = 1.972693 g / cm^3
# Si number density = 19.771928 Si / 1000 Ang^3
#
#
#
# Elastic Constant Matrix: (Units=GPa)
#
#
# Indices 1 2 3 4 5 6 
#
# 1 42.1318 11.8919 13.2845 0.0000 -8.7575 0.0000
# 2 11.8919 107.3909 34.8539 0.0000 15.0086 0.0000
# 3 13.2845 34.8539 90.5025 0.0000 14.8476 0.0000
# 4 0.0000 0.0000 0.0000 11.8273 0.0000 2.4099
# 5 -8.7575 15.0086 14.8476 0.0000 30.9362 0.0000
# 6 0.0000 0.0000 0.0000 2.4099 0.0000 -0.3822
#
#
#
# Elastic Compliance Matrix: (Units=1/GPa)
#
#
# Indices 1 2 3 4 5 6 
#
# 1 0.028728 -0.003267 -0.004942 0.000000 0.012089 0.000000
# 2 -0.003267 0.011368 -0.003085 0.000000 -0.004959 0.000000
# 3 -0.004942 -0.003085 0.014053 0.000000 -0.006647 0.000000
# 4 0.000000 0.000000 0.000000 0.037003 0.000000 0.233349
# 5 0.012089 -0.004959 -0.006647 0.000000 0.041343 0.000000
# 6 0.000000 0.000000 0.000000 0.233349 0.000000 -1.145206
#
#
# Mechanical properties :
#
#
# Convention : Reuss Voigt Hill
#
# Bulk Modulus (GPa) = 31.68366 40.00954 35.84660
# Shear Modulus (GPa) = -5.10411 20.47592 7.68590
#
# Velocity S-wave (km/s) = -1.60845 3.22157 1.97376
# Velocity P-wave (km/s) = 3.55104 5.84102 4.83360
#
# Compressibility (1/GPa) = 0.03156201
#
# Stress axis : x y z
#
# Youngs Moduli (GPa) = 34.80888 87.96792 71.15716
#
# Poissons Ratio (x) = 0.28737 0.35167
# Poissons Ratio (y) = 0.11371 0.21950
# Poissons Ratio (z) = 0.17203 0.27136
#
# Static dielectric constant tensor:
#      x y z
#    x 1.712000 0.000000 -0.018970 
#    y 0.000000 1.675270 0.000000 
#    z -0.018970 0.000000 1.776740 
# 
# From -- ./inp_files/8745.got.cif
#   From: 2010.05.17/outbox.cif.g08.bks.cpg/sg10_5_cif.got.tgz:8745.got - 2010.06.03 11:33:40.
