data_PCOD9148172
_publ_section_title
;
Structure prediction by ZEFSAII (Michael W. Deem and Ramdas Pophale) SiO2 
 PCOD9148172
Probable space group: P 2/M
;
_chemical_formula_sum "Si O2"
_cell_formula_units_Z 28
_cell_length_a 18.277264
_cell_length_b 9.763508
_cell_length_c 19.847338
_cell_angle_alpha 90.000000
_cell_angle_beta 20.818209
_cell_angle_gamma 90.000000
_cell_volume 1258.756412
_symmetry_space_group_name_H-M "P 2/M"
_symmetry_group_IT_number 10
_symmetry_cell_setting 'monoclinic'
loop_
_space_group_symop_operation_xyz
x,y,z
-x,y,-z
-x,-y,-z
x,-y,z
loop_
_atom_site_type_symbol
_atom_site_label
_atom_site_fract_x
_atom_site_fract_y
_atom_site_fract_z
Si Si1 0.709087 0.844376 0.231336
Si Si2 0.030599 0.156213 0.335224
Si Si3 0.308957 0.833437 0.211144
Si Si4 0.830000 0.346261 0.399889
Si Si5 0.426518 0.155396 0.896774
Si Si6 0.786932 0.844134 0.316976
Si Si7 0.655306 0.345853 0.158527
O O1 0.803359 0.813758 0.223462
O O2 0.460415 0.844253 0.456086
O O3 0.758350 0.739778 0.129773
O O4 0.764901 0.000000 0.164608
O O5 0.105297 0.204691 0.344651
O O6 0.892997 0.257125 0.410160
O O7 0.949697 0.000000 0.409099
O O8 0.241046 0.147751 0.110107
O O9 0.373585 0.798183 0.231767
O O10 0.308314 0.000000 0.210898
O O11 0.500000 0.786079 0.000000
O O12 0.915885 0.500000 0.328469
O O13 0.883780 0.262854 0.285688
O O14 0.583940 0.357101 0.613458
O O15 0.359160 0.258798 0.897193
O O16 0.457721 0.000000 0.843530
O O17 0.858941 0.000000 0.268739
O O18 0.735219 0.500000 0.082021
#
# Coordination Sequence:
#
# PCOD9148172 Si02
#       7
#     4   4   4   4   4   4   4
#     4   8  14  26  45  67  89 116 153 194 231 267
#     4   9  17  31  52  73  91 116 153 195 236 276
#     4   7  12  26  48  71  90 110 146 195 236 271
#     4  10  20  31  44  67  99 130 156 184 224 274
#     4   9  17  31  52  73  91 116 153 195 236 276
#     4   8  14  26  45  67  89 116 153 194 231 267
#     4  10  20  31  44  67  99 130 156 184 224 274
#
# _framework density 22.244174999999998
#
# number of rings (size 3 to 8) (size 9 to 14) (size 15 to 20)
#    0.000    3.286    0.000    3.429    0.000    2.857 
#    0.000    4.286    0.000    7.714    0.000    6.000 
#    0.000    0.000    0.000    0.000    0.000    0.000 
#
# Total GULP energy -156377.840329 kJ/mol
# GULP energy per Si atom -5584.922869 kJ/mol
# Density = 2.219355 g / cm^3
# Si number density = 22.244175 Si / 1000 Ang^3
#
#
#
# Elastic Constant Matrix: (Units=GPa)
#
#
# Indices 1 2 3 4 5 6 
#
# 1 176.9316 128.9247 23.9523 0.0000 11.7361 0.0000
# 2 128.9247 148.2078 18.0852 0.0000 5.1248 0.0000
# 3 23.9523 18.0852 60.9661 0.0000 -0.7875 0.0000
# 4 0.0000 0.0000 0.0000 9.3107 0.0000 -7.6519
# 5 11.7361 5.1248 -0.7875 0.0000 41.6535 0.0000
# 6 0.0000 0.0000 0.0000 -7.6519 0.0000 -14.8967
#
#
#
# Elastic Compliance Matrix: (Units=1/GPa)
#
#
# Indices 1 2 3 4 5 6 
#
# 1 0.016056 -0.013584 -0.002316 0.000000 -0.002896 0.000000
# 2 -0.013584 0.018528 -0.000139 0.000000 0.001545 0.000000
# 3 -0.002316 -0.000139 0.017367 0.000000 0.000998 0.000000
# 4 0.000000 0.000000 0.000000 0.075522 0.000000 -0.038793
# 5 -0.002896 0.001545 0.000998 0.000000 0.024652 0.000000
# 6 0.000000 0.000000 0.000000 -0.038793 0.000000 -0.047203
#
#
# Mechanical properties :
#
#
# Convention : Reuss Voigt Hill
#
# Bulk Modulus (GPa) = 50.32263 80.89221 65.60742
# Shear Modulus (GPa) = 34.81320 21.55639 28.18479
#
# Velocity S-wave (km/s) = 3.96036 3.11638 3.56345
# Velocity P-wave (km/s) = 6.60186 7.02806 6.81829
#
# Compressibility (1/GPa) = 0.01987177
#
# Stress axis : x y z
#
# Youngs Moduli (GPa) = 62.28260 53.97369 57.58187
#
# Poissons Ratio (x) = 0.73318 0.13335
# Poissons Ratio (y) = 0.84605 0.00802
# Poissons Ratio (z) = 0.14423 0.00751
#
# Static dielectric constant tensor:
#      x y z
#    x 1.805760 0.000000 -0.008640 
#    y 0.000000 1.759750 0.000000 
#    z -0.008640 0.000000 1.947510 
# 
# From -- ./inp_files/54531.got.cif
#   From: 2010.05.17/outbox.cif.g08.bks.cpg/sg10_28_cif.got.tgz:54531.got - 2010.06.03 11:33:40.
