data_PCOD9148732
_publ_section_title
;
Structure prediction by ZEFSAII (Michael W. Deem and Ramdas Pophale) SiO2 
 PCOD9148732
Probable space group: P 2/M
;
_chemical_formula_sum "Si O2"
_cell_formula_units_Z 32
_cell_length_a 16.901366
_cell_length_b 22.971239
_cell_length_c 9.061509
_cell_angle_alpha 90.000000
_cell_angle_beta 150.925428
_cell_angle_gamma 90.000000
_cell_volume 1709.606460
_symmetry_space_group_name_H-M "P 2/M"
_symmetry_group_IT_number 10
_symmetry_cell_setting 'monoclinic'
loop_
_space_group_symop_operation_xyz
x,y,z
-x,y,-z
-x,-y,-z
x,-y,z
loop_
_atom_site_type_symbol
_atom_site_label
_atom_site_fract_x
_atom_site_fract_y
_atom_site_fract_z
Si Si1 0.606422 0.301668 0.814223
Si Si2 0.091709 0.333724 0.881697
Si Si3 0.786865 0.251039 0.375928
Si Si4 0.823410 0.067343 0.701056
Si Si5 0.686565 0.336633 0.470651
Si Si6 0.495671 0.931386 0.666556
Si Si7 0.111223 0.565682 0.329038
Si Si8 0.673690 0.126580 0.203738
O O1 0.500000 0.279564 0.500000
O O2 0.481303 0.337866 0.712603
O O3 0.761287 0.334194 0.995145
O O4 0.683452 0.257274 0.056579
O O5 0.961798 0.282231 0.643013
O O6 0.989615 0.393545 0.723153
O O7 0.175202 0.325644 0.178870
O O8 0.700755 0.286358 0.370085
O O9 0.785763 0.182806 0.404671
O O10 0.680046 0.092063 0.567716
O O11 0.756391 0.074223 0.427392
O O12 0.838745 0.000000 0.770001
O O13 0.000000 0.095149 0.000000
O O14 0.732059 0.396691 0.463527
O O15 0.500000 0.928313 0.500000
O O16 0.509452 0.000000 0.733547
O O17 0.631380 0.894299 0.971382
O O18 0.143795 0.500000 0.431992
O O19 0.000000 0.562143 0.000000
O O20 0.500000 0.139083 0.000000
#
# Coordination Sequence:
#
# PCOD9148732 Si02
#       8
#     4   4   4   4   4   4   4   4
#     4  10  20  34  51  73 101 134 171 211 256 304
#     4   9  19  34  53  76 103 135 170 209 258 310
#     4  11  20  34  53  73 100 137 174 210 254 305
#     4   9  18  34  55  78 104 135 170 209 253 302
#     4   9  18  33  54  76 100 134 173 210 252 307
#     4   9  18  35  57  77 102 137 173 211 258 308
#     4   8  14  28  52  79 104 132 168 209 253 304
#     4  10  20  33  52  78 103 133 174 214 253 303
#
# _framework density 18.717756999999999
#
# number of rings (size 3 to 8) (size 9 to 14) (size 15 to 20)
#    0.000    2.625    0.000    3.000    0.000    3.000 
#    0.000    6.250    0.000   18.750    0.000    0.000 
#    0.000    0.000    0.000    0.000    0.000    0.000 
#
# Total GULP energy -178190.861552 kJ/mol
# GULP energy per Si atom -5568.464424 kJ/mol
# Density = 1.867515 g / cm^3
# Si number density = 18.717757 Si / 1000 Ang^3
#
#
#
# Elastic Constant Matrix: (Units=GPa)
#
#
# Indices 1 2 3 4 5 6 
#
# 1 89.8628 16.4480 33.6224 0.0000 8.9664 0.0000
# 2 16.4480 47.2536 14.4322 0.0000 4.3662 0.0000
# 3 33.6224 14.4322 76.0932 0.0000 11.8009 0.0000
# 4 0.0000 0.0000 0.0000 18.8934 0.0000 -6.2913
# 5 8.9664 4.3662 11.8009 0.0000 31.4380 0.0000
# 6 0.0000 0.0000 0.0000 -6.2913 0.0000 5.4167
#
#
#
# Elastic Compliance Matrix: (Units=1/GPa)
#
#
# Indices 1 2 3 4 5 6 
#
# 1 0.013819 -0.003053 -0.005289 0.000000 -0.001532 0.000000
# 2 -0.003053 0.023216 -0.002855 0.000000 -0.001282 0.000000
# 3 -0.005289 -0.002855 0.016697 0.000000 -0.004362 0.000000
# 4 0.000000 0.000000 0.000000 0.086309 0.000000 0.100244
# 5 -0.001532 -0.001282 -0.004362 0.000000 0.034061 0.000000
# 6 0.000000 0.000000 0.000000 0.100244 0.000000 0.301043
#
#
# Mechanical properties :
#
#
# Convention : Reuss Voigt Hill
#
# Bulk Modulus (GPa) = 31.91229 38.02386 34.96807
# Shear Modulus (GPa) = 9.84280 21.06340 15.45310
#
# Velocity S-wave (km/s) = 2.29564 3.35821 2.87642
# Velocity P-wave (km/s) = 4.91048 5.94939 5.45472
#
# Compressibility (1/GPa) = 0.03133589
#
# Stress axis : x y z
#
# Youngs Moduli (GPa) = 72.36548 43.07446 59.89087
#
# Poissons Ratio (x) = 0.13151 0.31678
# Poissons Ratio (y) = 0.22093 0.17101
# Poissons Ratio (z) = 0.38276 0.12300
#
# Static dielectric constant tensor:
#      x y z
#    x 1.660200 0.000000 0.008600 
#    y 0.000000 1.639230 0.000000 
#    z 0.008600 0.000000 1.682200 
# 
# From -- ./inp_files/30636.got.cif
#   From: 2010.05.17/outbox.cif.g08.bks.cpg/sg10_16_cif.got.tgz:30636.got - 2010.06.03 11:33:40.
