data_PCOD9148694
_publ_section_title
;
Structure prediction by ZEFSAII (Michael W. Deem and Ramdas Pophale) SiO2 
 PCOD9148694
Probable space group: P 2/M
;
_chemical_formula_sum "Si O2"
_cell_formula_units_Z 32
_cell_length_a 12.803147
_cell_length_b 7.844518
_cell_length_c 29.230834
_cell_angle_alpha 90.000000
_cell_angle_beta 29.396192
_cell_angle_gamma 90.000000
_cell_volume 1441.017735
_symmetry_space_group_name_H-M "P 2/M"
_symmetry_group_IT_number 10
_symmetry_cell_setting 'monoclinic'
loop_
_space_group_symop_operation_xyz
x,y,z
-x,y,-z
-x,-y,-z
x,-y,z
loop_
_atom_site_type_symbol
_atom_site_label
_atom_site_fract_x
_atom_site_fract_y
_atom_site_fract_z
Si Si1 0.631738 0.707147 0.708030
Si Si2 0.320355 0.699379 0.751594
Si Si3 0.319651 0.792492 0.508553
Si Si4 0.934453 0.198929 0.719742
Si Si5 0.222017 0.297706 0.688213
Si Si6 0.469567 0.699305 0.866633
Si Si7 0.982295 0.196712 0.954608
Si Si8 0.077437 0.197414 0.517284
O O1 0.652255 0.500000 0.699761
O O2 0.524266 0.768164 0.701850
O O3 0.490611 0.753016 0.805483
O O4 0.859291 0.791194 0.628985
O O5 0.365282 0.500000 0.727099
O O6 0.259965 0.772395 0.725152
O O7 0.129171 0.714264 0.861005
O O8 0.561736 0.738184 0.422861
O O9 0.129294 0.731071 0.613983
O O10 0.257577 0.730158 0.481030
O O11 0.316614 0.000000 0.510885
O O12 0.702718 0.276590 0.799438
O O13 0.023635 0.220673 0.736890
O O14 0.913656 0.000000 0.716974
O O15 0.189031 0.500000 0.703246
O O16 0.418842 0.500000 0.887254
O O17 0.265477 0.792481 0.964780
O O18 0.050825 0.000000 0.929985
O O19 0.000000 0.266631 0.000000
O O20 0.000000 0.283575 0.500000
O O21 0.130154 0.000000 0.488170
#
# Coordination Sequence:
#
# PCOD9148694 Si02
#       8
#     4   4   4   4   4   4   4   4
#     4  10  20  34  56  84 116 154 192 236 294 351
#     4  10  22  41  61  87 123 160 197 245 302 357
#     4  10  21  37  57  84 118 159 203 247 299 352
#     4  11  23  41  63  86 121 161 203 252 298 350
#     4  11  24  40  61  88 119 157 206 254 297 351
#     4  11  22  38  63  91 120 154 195 242 294 353
#     4  11  23  38  62  95 125 156 196 241 293 358
#     4  10  20  33  51  79 117 158 197 239 291 352
#
# _framework density 22.206527999999999
#
# number of rings (size 3 to 8) (size 9 to 14) (size 15 to 20)
#    0.000    1.500    2.500    2.625    0.000    5.750 
#    0.000    0.625    0.000    3.750    0.000    0.000 
#    0.000    0.000    0.000    0.000    0.000    0.000 
#
# Total GULP energy -178775.156836 kJ/mol
# GULP energy per Si atom -5586.723651 kJ/mol
# Density = 2.215598 g / cm^3
# Si number density = 22.206528 Si / 1000 Ang^3
#
#
#
# Elastic Constant Matrix: (Units=GPa)
#
#
# Indices 1 2 3 4 5 6 
#
# 1 128.2178 -2.7646 25.5081 0.0000 -16.8882 0.0000
# 2 -2.7646 39.6585 -3.5908 0.0000 -0.4954 0.0000
# 3 25.5081 -3.5908 78.5364 0.0000 -12.8842 0.0000
# 4 0.0000 0.0000 0.0000 26.3279 0.0000 -3.0068
# 5 -16.8882 -0.4954 -12.8842 0.0000 31.9767 0.0000
# 6 0.0000 0.0000 0.0000 -3.0068 0.0000 19.0852
#
#
#
# Elastic Compliance Matrix: (Units=1/GPa)
#
#
# Indices 1 2 3 4 5 6 
#
# 1 0.008740 0.000456 -0.002205 0.000000 0.003734 0.000000
# 2 0.000456 0.025369 0.001195 0.000000 0.001115 0.000000
# 3 -0.002205 0.001195 0.014258 0.000000 0.004599 0.000000
# 4 0.000000 0.000000 0.000000 0.038678 0.000000 0.006094
# 5 0.003734 0.001115 0.004599 0.000000 0.035115 0.000000
# 6 0.000000 0.000000 0.000000 0.006094 0.000000 0.053357
#
#
# Mechanical properties :
#
#
# Convention : Reuss Voigt Hill
#
# Bulk Modulus (GPa) = 21.16007 31.63532 26.39770
# Shear Modulus (GPa) = 25.99042 30.62863 28.30952
#
# Velocity S-wave (km/s) = 3.42482 3.71787 3.57435
# Velocity P-wave (km/s) = 5.01882 5.71900 5.38031
#
# Compressibility (1/GPa) = 0.04725882
#
# Stress axis : x y z
#
# Youngs Moduli (GPa) = 114.42139 39.41794 70.13484
#
# Poissons Ratio (x) = -0.01798 0.15465
# Poissons Ratio (y) = -0.05220 -0.08379
# Poissons Ratio (z) = 0.25231 -0.04709
#
# Static dielectric constant tensor:
#      x y z
#    x 1.869370 0.000000 0.032940 
#    y 0.000000 1.792590 0.000000 
#    z 0.032940 0.000000 1.836110 
# 
# From -- ./inp_files/49899.got.cif
#   From: 2010.05.17/outbox.cif.g08.bks.cpg/sg10_25_cif.got.tgz:49899.got - 2010.06.03 11:33:40.
