data_PCOD9148984
_publ_section_title
;
Structure prediction by ZEFSAII (Michael W. Deem and Ramdas Pophale) SiO2 
 PCOD9148984
Probable space group: P 2/M
;
_chemical_formula_sum "Si O2"
_cell_formula_units_Z 24
_cell_length_a 12.468070
_cell_length_b 8.747359
_cell_length_c 14.628348
_cell_angle_alpha 90.000000
_cell_angle_beta 110.568443
_cell_angle_gamma 90.000000
_cell_volume 1493.704782
_symmetry_space_group_name_H-M "P 2/M"
_symmetry_group_IT_number 10
_symmetry_cell_setting 'monoclinic'
loop_
_space_group_symop_operation_xyz
x,y,z
-x,y,-z
-x,-y,-z
x,-y,z
loop_
_atom_site_type_symbol
_atom_site_label
_atom_site_fract_x
_atom_site_fract_y
_atom_site_fract_z
Si Si1 0.062238 0.182264 0.650806
Si Si2 0.408799 0.816287 0.549981
Si Si3 0.617361 0.823152 0.975223
Si Si4 0.542725 0.815742 0.226869
Si Si5 0.751642 0.680422 0.172157
Si Si6 0.161025 0.317822 0.492626
O O1 0.134400 0.235389 0.759691
O O2 0.130426 0.242966 0.581696
O O3 0.936835 0.255852 0.604585
O O4 0.054868 0.000000 0.643888
O O5 0.500000 0.773670 0.500000
O O6 0.455582 0.781427 0.665623
O O7 0.287280 0.734250 0.502583
O O8 0.390680 0.000000 0.539968
O O9 0.573027 0.772963 0.862347
O O10 0.654506 0.000000 0.983298
O O11 0.500000 0.818165 0.000000
O O12 0.709465 0.726295 0.058336
O O13 0.649808 0.736051 0.209372
O O14 0.556516 0.000000 0.219199
O O15 0.765832 0.500000 0.184679
O O16 0.153088 0.500000 0.498456
#
# Coordination Sequence:
#
# PCOD9148984 Si02
#       6
#     4   4   4   4   4   4
#     4  11  20  32  50  69  95 130 161 194 239 295
#     4  10  20  34  52  72  96 132 172 202 233 280
#     4   8  15  27  42  62  90 126 160 191 233 287
#     4   9  17  30  46  64  93 129 163 199 236 280
#     4  11  19  27  43  70  98 125 155 195 241 290
#     4  11  21  33  48  71  98 125 160 202 245 286
#
# _framework density 16.067432
#
# number of rings (size 3 to 8) (size 9 to 14) (size 15 to 20)
#    0.000    2.000    1.667    6.500    0.000    3.333 
#    0.000    0.000    0.000    0.000    0.000    1.167 
#    0.000    9.333    0.000    0.000    0.000    0.000 
#
# Total GULP energy -133867.025471 kJ/mol
# GULP energy per Si atom -5577.792728 kJ/mol
# Density = 1.603086 g / cm^3
# Si number density = 16.067432 Si / 1000 Ang^3
#
#
#
# Elastic Constant Matrix: (Units=GPa)
#
#
# Indices 1 2 3 4 5 6 
#
# 1 74.0392 37.4185 52.5668 0.0000 11.2333 0.0000
# 2 37.4185 85.2264 44.7676 0.0000 10.1477 0.0000
# 3 52.5668 44.7676 108.4286 0.0000 24.2909 0.0000
# 4 0.0000 0.0000 0.0000 19.2860 0.0000 29.6492
# 5 11.2333 10.1477 24.2909 0.0000 21.9359 0.0000
# 6 0.0000 0.0000 0.0000 29.6492 0.0000 54.2390
#
#
#
# Elastic Compliance Matrix: (Units=1/GPa)
#
#
# Indices 1 2 3 4 5 6 
#
# 1 0.022304 -0.005253 -0.008817 0.000000 0.000772 0.000000
# 2 -0.005253 0.016220 -0.004085 0.000000 -0.000290 0.000000
# 3 -0.008817 -0.004085 0.018285 0.000000 -0.013843 0.000000
# 4 0.000000 0.000000 0.000000 0.324828 0.000000 -0.177564
# 5 0.000772 -0.000290 -0.013843 0.000000 0.060655 0.000000
# 6 0.000000 0.000000 0.000000 -0.177564 0.000000 0.115500
#
#
# Mechanical properties :
#
#
# Convention : Reuss Voigt Hill
#
# Bulk Modulus (GPa) = 48.78450 59.68889 54.23669
# Shear Modulus (GPa) = 8.32032 27.95493 18.13763
#
# Velocity S-wave (km/s) = 2.27807 4.17568 3.36347
# Velocity P-wave (km/s) = 6.11128 7.77676 6.99377
#
# Compressibility (1/GPa) = 0.02049831
#
# Stress axis : x y z
#
# Youngs Moduli (GPa) = 44.83464 61.65145 54.68852
#
# Poissons Ratio (x) = 0.32386 0.48221
# Poissons Ratio (y) = 0.23552 0.22342
# Poissons Ratio (z) = 0.39532 0.25187
#
# Static dielectric constant tensor:
#      x y z
#    x 1.506200 0.000000 0.021550 
#    y 0.000000 1.535180 0.000000 
#    z 0.021550 0.000000 1.575750 
# 
# From -- ./inp_files/54594.got.cif
#   From: 2010.05.17/outbox.cif.g08.bks.cpg/sg10_28_cif.got.tgz:54594.got - 2010.06.03 11:33:40.
