data_PCOD9148806
_publ_section_title
;
Structure prediction by ZEFSAII (Michael W. Deem and Ramdas Pophale) SiO2 
 PCOD9148806
Probable space group: P 2/M
;
_chemical_formula_sum "Si O2"
_cell_formula_units_Z 32
_cell_length_a 14.422443
_cell_length_b 9.747717
_cell_length_c 24.919743
_cell_angle_alpha 90.000000
_cell_angle_beta 29.677575
_cell_angle_gamma 90.000000
_cell_volume 1734.581035
_symmetry_space_group_name_H-M "P 2/M"
_symmetry_group_IT_number 10
_symmetry_cell_setting 'monoclinic'
loop_
_space_group_symop_operation_xyz
x,y,z
-x,y,-z
-x,-y,-z
x,-y,z
loop_
_atom_site_type_symbol
_atom_site_label
_atom_site_fract_x
_atom_site_fract_y
_atom_site_fract_z
Si Si1 0.776067 0.653074 0.113344
Si Si2 0.222731 0.161027 0.395436
Si Si3 0.253603 0.842046 0.775411
Si Si4 0.323719 0.158874 0.465610
Si Si5 0.007868 0.661232 0.822793
Si Si6 0.542458 0.661196 0.806826
Si Si7 0.421493 0.333221 0.982419
Si Si8 0.294908 0.339351 0.580137
O O1 0.724768 0.500000 0.159735
O O2 0.709989 0.771995 0.185795
O O3 0.669403 0.667561 0.110654
O O4 0.000000 0.659702 0.000000
O O5 0.268419 0.204869 0.433521
O O6 0.328966 0.251030 0.297618
O O7 0.000000 0.170152 0.500000
O O8 0.278593 0.000000 0.362572
O O9 0.450317 0.835696 0.645377
O O10 0.098577 0.753247 0.823203
O O11 0.198170 0.000000 0.808931
O O12 0.247923 0.250761 0.551656
O O13 0.265590 0.000000 0.500556
O O14 0.009514 0.500000 0.837881
O O15 0.140604 0.675669 0.704044
O O16 0.796411 0.701989 0.915345
O O17 0.597110 0.500000 0.777880
O O18 0.534870 0.709870 0.872195
O O19 0.430129 0.500000 0.978382
O O20 0.500000 0.284437 0.000000
O O21 0.500000 0.300464 0.500000
O O22 0.305859 0.500000 0.559832
#
# Coordination Sequence:
#
# PCOD9148806 Si02
#       8
#     4   4   4   4   4   4   4   4
#     4  10  20  34  54  82 115 150 186 226 281 342
#     4  10  22  41  61  81 112 154 191 226 280 343
#     4  11  21  33  53  81 112 146 186 231 279 332
#     4  10  21  36  54  78 109 148 187 226 278 334
#     4  10  20  36  57  81 114 151 188 231 283 341
#     4  10  20  35  59  88 113 143 187 235 279 328
#     4   9  19  37  60  84 111 147 188 231 279 332
#     4  10  20  33  53  83 113 146 186 229 279 333
#
# _framework density 18.448260000000001
#
# number of rings (size 3 to 8) (size 9 to 14) (size 15 to 20)
#    0.000    2.000    2.500    1.125    0.000    5.250 
#    0.000    3.125    0.000    1.500    0.000    0.000 
#    0.000    0.000    0.000    0.000    0.000    0.000 
#
# Total GULP energy -178560.722093 kJ/mol
# GULP energy per Si atom -5580.022565 kJ/mol
# Density = 1.840627 g / cm^3
# Si number density = 18.448260 Si / 1000 Ang^3
#
#
#
# Elastic Constant Matrix: (Units=GPa)
#
#
# Indices 1 2 3 4 5 6 
#
# 1 116.2918 43.5621 32.3983 0.0000 19.7856 0.0000
# 2 43.5621 60.4247 30.7223 0.0000 18.2288 0.0000
# 3 32.3983 30.7223 54.0861 0.0000 12.5042 0.0000
# 4 0.0000 0.0000 0.0000 12.1302 0.0000 1.0641
# 5 19.7856 18.2288 12.5042 0.0000 30.3552 0.0000
# 6 0.0000 0.0000 0.0000 1.0641 0.0000 18.5972
#
#
#
# Elastic Compliance Matrix: (Units=1/GPa)
#
#
# Indices 1 2 3 4 5 6 
#
# 1 0.012377 -0.006492 -0.003053 0.000000 -0.002911 0.000000
# 2 -0.006492 0.029403 -0.010731 0.000000 -0.009005 0.000000
# 3 -0.003053 -0.010731 0.027038 0.000000 -0.002704 0.000000
# 4 0.000000 0.000000 0.000000 0.082855 0.000000 -0.004741
# 5 -0.002911 -0.009005 -0.002704 0.000000 0.041362 0.000000
# 6 0.000000 0.000000 0.000000 -0.004741 0.000000 0.054043
#
#
# Mechanical properties :
#
#
# Convention : Reuss Voigt Hill
#
# Bulk Modulus (GPa) = 35.37884 49.35199 42.36541
# Shear Modulus (GPa) = 16.83213 20.49118 18.66166
#
# Velocity S-wave (km/s) = 3.02387 3.33639 3.18396
# Velocity P-wave (km/s) = 5.60452 6.45381 6.04410
#
# Compressibility (1/GPa) = 0.02826548
#
# Stress axis : x y z
#
# Youngs Moduli (GPa) = 80.79570 34.01066 36.98466
#
# Poissons Ratio (x) = 0.22081 0.11292
# Poissons Ratio (y) = 0.52456 0.39687
# Poissons Ratio (z) = 0.24668 0.36495
#
# Static dielectric constant tensor:
#      x y z
#    x 1.644290 0.000000 -0.002100 
#    y 0.000000 1.622950 0.000000 
#    z -0.002100 0.000000 1.635730 
# 
# From -- ./inp_files/66456.got.cif
#   From: 2010.05.17/outbox.cif.g08.bks.cpg/sg10_34_cif.got.tgz:66456.got - 2010.06.03 11:33:40.
