data_PCOD9148833
_publ_section_title
;
Structure prediction by ZEFSAII (Michael W. Deem and Ramdas Pophale) SiO2 
 PCOD9148833
Probable space group: P 2/M
;
_chemical_formula_sum "Si O2"
_cell_formula_units_Z 32
_cell_length_a 5.331422
_cell_length_b 9.571451
_cell_length_c 30.009762
_cell_angle_alpha 90.000000
_cell_angle_beta 77.463845
_cell_angle_gamma 90.000000
_cell_volume 1494.872175
_symmetry_space_group_name_H-M "P 2/M"
_symmetry_group_IT_number 10
_symmetry_cell_setting 'monoclinic'
loop_
_space_group_symop_operation_xyz
x,y,z
-x,y,-z
-x,-y,-z
x,-y,z
loop_
_atom_site_type_symbol
_atom_site_label
_atom_site_fract_x
_atom_site_fract_y
_atom_site_fract_z
Si Si1 0.010208 0.167029 0.166102
Si Si2 0.780640 0.851332 0.748720
Si Si3 0.513537 0.348620 0.704904
Si Si4 0.904432 0.653084 0.610241
Si Si5 0.714568 0.331210 0.525433
Si Si6 0.554593 0.330302 0.132702
Si Si7 0.279117 0.332257 0.976102
Si Si8 0.821390 0.847844 0.343563
O O1 0.770267 0.249977 0.154100
O O2 0.015409 0.168567 0.219939
O O3 0.278605 0.250449 0.145846
O O4 0.015489 0.000000 0.153166
O O5 0.599412 0.719831 0.747827
O O6 0.921126 0.865431 0.695980
O O7 0.643808 0.000000 0.763313
O O8 0.391238 0.500000 0.716022
O O9 0.754121 0.365802 0.662138
O O10 0.341637 0.246348 0.682967
O O11 0.018099 0.500000 0.593834
O O12 0.711977 0.697244 0.578446
O O13 0.113464 0.768504 0.613500
O O14 0.500000 0.275600 0.500000
O O15 0.702940 0.500000 0.522754
O O16 0.000000 0.287061 0.500000
O O17 0.535677 0.500000 0.142501
O O18 0.651706 0.314005 0.078049
O O19 0.269415 0.500000 0.983963
O O20 0.500000 0.275616 0.000000
O O21 0.000000 0.275490 0.000000
O O22 0.705602 0.000000 0.355208
#
# Coordination Sequence:
#
# PCOD9148833 Si02
#       8
#     4   4   4   4   4   4   4   4
#     4  11  24  42  63  87 125 172 209 248 310 379
#     4   9  21  39  56  76 106 152 200 234 278 351
#     4  10  20  33  54  83 111 138 178 237 295 335
#     4   9  19  34  53  79 109 139 178 231 286 332
#     4   9  18  31  52  81 110 142 181 225 278 342
#     4  11  23  40  64  96 126 159 211 265 309 361
#     4   9  17  32  58  89 120 156 200 253 309 364
#     4  10  20  35  56  79 106 144 191 232 278 343
#
# _framework density 21.406511999999999
#
# number of rings (size 3 to 8) (size 9 to 14) (size 15 to 20)
#    0.000    2.250    0.000    2.250    3.500    4.000 
#    0.000    0.000    0.000    8.250    0.000    0.000 
#    0.000    0.000    0.000    0.000    0.000    0.000 
#
# Total GULP energy -178302.069189 kJ/mol
# GULP energy per Si atom -5571.939662 kJ/mol
# Density = 2.135779 g / cm^3
# Si number density = 21.406512 Si / 1000 Ang^3
#
#
#
# Elastic Constant Matrix: (Units=GPa)
#
#
# Indices 1 2 3 4 5 6 
#
# 1 107.9440 52.0127 38.0397 0.0000 25.9921 0.0000
# 2 52.0127 145.8634 32.6520 0.0000 31.0213 0.0000
# 3 38.0397 32.6520 84.3543 0.0000 25.8973 0.0000
# 4 0.0000 0.0000 0.0000 28.3343 0.0000 8.5361
# 5 25.9921 31.0213 25.8973 0.0000 40.7468 0.0000
# 6 0.0000 0.0000 0.0000 8.5361 0.0000 16.0524
#
#
#
# Elastic Compliance Matrix: (Units=1/GPa)
#
#
# Indices 1 2 3 4 5 6 
#
# 1 0.012830 -0.003013 -0.003493 0.000000 -0.003671 0.000000
# 2 -0.003013 0.009056 -0.000771 0.000000 -0.004483 0.000000
# 3 -0.003493 -0.000771 0.015983 0.000000 -0.007343 0.000000
# 4 0.000000 0.000000 0.000000 0.042026 0.000000 -0.022348
# 5 -0.003671 -0.004483 -0.007343 0.000000 0.034964 0.000000
# 6 0.000000 0.000000 0.000000 -0.022348 0.000000 0.074180
#
#
# Mechanical properties :
#
#
# Convention : Reuss Voigt Hill
#
# Bulk Modulus (GPa) = 42.88694 64.84117 53.86406
# Shear Modulus (GPa) = 23.65612 31.39052 27.52332
#
# Velocity S-wave (km/s) = 3.32790 3.83352 3.58962
# Velocity P-wave (km/s) = 5.90293 7.06757 6.51134
#
# Compressibility (1/GPa) = 0.02331712
#
# Stress axis : x y z
#
# Youngs Moduli (GPa) = 77.93936 110.42568 62.56829
#
# Poissons Ratio (x) = 0.33266 0.21854
# Poissons Ratio (y) = 0.23480 0.04821
# Poissons Ratio (z) = 0.27223 0.08509
#
# Static dielectric constant tensor:
#      x y z
#    x 1.852290 0.000000 -0.047650 
#    y 0.000000 1.956150 0.000000 
#    z -0.047650 0.000000 1.788300 
# 
# From -- ./inp_files/94336.got.cif
#   From: 2010.05.17/outbox.cif.g08.bks.cpg/sg10_48_cif.got.tgz:94336.got - 2010.06.03 11:33:40.
