data_PCOD9148241
_publ_section_title
;
Structure prediction by ZEFSAII (Michael W. Deem and Ramdas Pophale) SiO2 
 PCOD9148241
Probable space group: P 2/M
;
_chemical_formula_sum "Si O2"
_cell_formula_units_Z 32
_cell_length_a 6.806776
_cell_length_b 7.989478
_cell_length_c 22.398996
_cell_angle_alpha 90.000000
_cell_angle_beta 87.225921
_cell_angle_gamma 90.000000
_cell_volume 1216.687884
_symmetry_space_group_name_H-M "P 2/M"
_symmetry_group_IT_number 10
_symmetry_cell_setting 'monoclinic'
loop_
_space_group_symop_operation_xyz
x,y,z
-x,y,-z
-x,-y,-z
x,-y,z
loop_
_atom_site_type_symbol
_atom_site_label
_atom_site_fract_x
_atom_site_fract_y
_atom_site_fract_z
Si Si1 0.985989 0.688077 0.432442
Si Si2 0.229646 0.199601 0.950408
Si Si3 0.587854 0.819922 0.434148
Si Si4 0.366261 0.803436 0.203267
Si Si5 0.302380 0.202687 0.077507
Si Si6 0.819749 0.700409 0.178058
Si Si7 0.079865 0.701427 0.697177
Si Si8 0.548525 0.693925 0.672392
O O1 0.072395 0.500000 0.434910
O O2 0.749650 0.678539 0.430534
O O3 0.020784 0.759227 0.363864
O O4 0.000000 0.766047 0.500000
O O5 0.463675 0.228679 0.936980
O O6 0.126308 0.261059 0.891422
O O7 0.198695 0.000000 0.952449
O O8 0.196718 0.263644 0.018647
O O9 0.500000 0.822571 0.500000
O O10 0.417576 0.792726 0.388841
O O11 0.684806 0.000000 0.420834
O O12 0.270210 0.727979 0.144673
O O13 0.601729 0.778706 0.189059
O O14 0.333899 0.729489 0.269232
O O15 0.327308 0.000000 0.206464
O O16 0.274085 0.000000 0.080444
O O17 0.800240 0.500000 0.184239
O O18 0.947981 0.761515 0.233347
O O19 0.051847 0.500000 0.697088
O O20 0.316565 0.733796 0.687616
O O21 0.565802 0.500000 0.659968
#
# Coordination Sequence:
#
# PCOD9148241 Si02
#       8
#     4   4   4   4   4   4   4   4
#     4   9  17  30  48  67  86 111 143 178 218 260
#     4   8  12  19  27  35  51  78 113 150 187 227
#     4  10  20  32  46  65  88 114 144 176 211 253
#     4   9  14  21  32  44  60  85 117 152 192 237
#     4   7  11  18  27  37  52  78 111 147 187 230
#     4   9  14  19  27  41  61  85 115 152 193 232
#     4   7  12  22  34  49  70  93 119 155 196 239
#     4   9  16  26  39  55  74  96 125 163 204 242
#
# _framework density 26.300910999999999
#
# number of rings (size 3 to 8) (size 9 to 14) (size 15 to 20)
#    0.000    3.500    0.000    4.500    0.000    1.250 
#    0.000    6.250    0.000    0.000    0.000    0.000 
#    0.000    0.000    0.000    0.000    0.000    1.250 
#
# Total GULP energy -178432.531273 kJ/mol
# GULP energy per Si atom -5576.016602 kJ/mol
# Density = 2.624105 g / cm^3
# Si number density = 26.300911 Si / 1000 Ang^3
#
#
#
# Elastic Constant Matrix: (Units=GPa)
#
#
# Indices 1 2 3 4 5 6 
#
# 1 92.3308 -3.9077 57.2124 0.0000 34.8556 0.0000
# 2 -3.9077 56.3458 27.3571 0.0000 -0.8273 0.0000
# 3 57.2124 27.3571 338.7873 0.0000 35.3209 0.0000
# 4 0.0000 0.0000 0.0000 30.4706 0.0000 8.2202
# 5 34.8556 -0.8273 35.3209 0.0000 52.5813 0.0000
# 6 0.0000 0.0000 0.0000 8.2202 0.0000 6.2707
#
#
#
# Elastic Compliance Matrix: (Units=1/GPa)
#
#
# Indices 1 2 3 4 5 6 
#
# 1 0.015420 0.001819 -0.001815 0.000000 -0.008974 0.000000
# 2 0.001819 0.018781 -0.001859 0.000000 0.000338 0.000000
# 3 -0.001815 -0.001859 0.003533 0.000000 -0.001199 0.000000
# 4 0.000000 0.000000 0.000000 0.050775 0.000000 -0.066560
# 5 -0.008974 0.000338 -0.001199 0.000000 0.025778 0.000000
# 6 0.000000 0.000000 0.000000 -0.066560 0.000000 0.246723
#
#
# Mechanical properties :
#
#
# Convention : Reuss Voigt Hill
#
# Bulk Modulus (GPa) = 29.39089 72.08751 50.73920
# Shear Modulus (GPa) = 13.29565 44.98467 29.14016
#
# Velocity S-wave (km/s) = 2.25082 4.14017 3.33220
# Velocity P-wave (km/s) = 4.23722 7.09386 5.84281
#
# Compressibility (1/GPa) = 0.03402415
#
# Stress axis : x y z
#
# Youngs Moduli (GPa) = 64.85008 53.24446 283.01033
#
# Poissons Ratio (x) = -0.09685 0.51377
# Poissons Ratio (y) = -0.11797 0.52614
# Poissons Ratio (z) = 0.11773 0.09899
#
# Static dielectric constant tensor:
#      x y z
#    x 2.190460 0.000000 -0.052780 
#    y 0.000000 1.993990 0.000000 
#    z -0.052780 0.000000 2.219010 
# 
# From -- ./inp_files/83217.got.cif
#   From: 2010.05.17/outbox.cif.g08.bks.cpg/sg10_42_cif.got.tgz:83217.got - 2010.06.03 11:33:40.
