data_PCOD9148735
_publ_section_title
;
Structure prediction by ZEFSAII (Michael W. Deem and Ramdas Pophale) SiO2 
 PCOD9148735
Probable space group: P 2/M
;
_chemical_formula_sum "Si O2"
_cell_formula_units_Z 32
_cell_length_a 12.883733
_cell_length_b 8.799143
_cell_length_c 23.650712
_cell_angle_alpha 90.000000
_cell_angle_beta 43.764530
_cell_angle_gamma 90.000000
_cell_volume 1854.563530
_symmetry_space_group_name_H-M "P 2/M"
_symmetry_group_IT_number 10
_symmetry_cell_setting 'monoclinic'
loop_
_space_group_symop_operation_xyz
x,y,z
-x,y,-z
-x,-y,-z
x,-y,z
loop_
_atom_site_type_symbol
_atom_site_label
_atom_site_fract_x
_atom_site_fract_y
_atom_site_fract_z
Si Si1 0.345255 0.816154 0.819327
Si Si2 0.817965 0.182306 0.003952
Si Si3 0.326626 0.317006 0.310252
Si Si4 0.055920 0.819860 0.343393
Si Si5 0.658871 0.317737 0.962849
Si Si6 0.858920 0.673614 0.512334
Si Si7 0.113352 0.183700 0.819877
Si Si8 0.958258 0.681470 0.775066
O O1 0.231763 0.769100 0.914265
O O2 0.506800 0.742903 0.765346
O O3 0.267484 0.774975 0.790478
O O4 0.359084 0.000000 0.815758
O O5 0.823641 0.000000 0.002632
O O6 0.695032 0.238268 0.007603
O O7 0.977366 0.232722 0.915484
O O8 0.320051 0.500000 0.309835
O O9 0.204528 0.251620 0.314303
O O10 0.274471 0.271983 0.394467
O O11 0.033333 0.755177 0.289677
O O12 0.915090 0.773046 0.438244
O O13 0.072455 0.000000 0.335681
O O14 0.657164 0.500000 0.971808
O O15 0.795543 0.282168 0.866644
O O16 0.500000 0.270757 0.000000
O O17 0.830764 0.500000 0.504744
O O18 0.000000 0.669052 0.500000
O O19 0.078323 0.255868 0.773069
O O20 0.107101 0.000000 0.817438
O O21 0.970881 0.500000 0.765581
#
# Coordination Sequence:
#
# PCOD9148735 Si02
#       8
#     4   4   4   4   4   4   4   4
#     4  10  20  33  52  78 105 135 173 218 261 305
#     4   9  18  32  50  73  98 133 176 214 256 302
#     4  10  21  35  52  77 109 140 168 205 256 308
#     4  11  21  33  54  81 107 134 169 209 253 308
#     4   9  19  33  47  67  98 136 171 209 256 299
#     4   8  16  33  53  74 103 137 168 200 249 308
#     4   9  18  35  54  72 101 138 177 219 260 300
#     4  10  20  34  52  74 102 136 175 214 254 304
#
# _framework density 17.254735
#
# number of rings (size 3 to 8) (size 9 to 14) (size 15 to 20)
#    0.000    2.500    0.000    3.000    1.750    6.000 
#    0.000    0.000    0.000    4.500    0.000    5.250 
#    0.000    0.000    0.000    0.000    0.000    0.000 
#
# Total GULP energy -178425.693581 kJ/mol
# GULP energy per Si atom -5575.802924 kJ/mol
# Density = 1.721546 g / cm^3
# Si number density = 17.254735 Si / 1000 Ang^3
#
#
#
# Elastic Constant Matrix: (Units=GPa)
#
#
# Indices 1 2 3 4 5 6 
#
# 1 87.3527 31.1108 49.3102 0.0000 22.8906 0.0000
# 2 31.1108 45.1734 36.2007 0.0000 16.2376 0.0000
# 3 49.3102 36.2007 74.2358 0.0000 26.1911 0.0000
# 4 0.0000 0.0000 0.0000 25.0262 0.0000 -4.7728
# 5 22.8906 16.2376 26.1911 0.0000 23.1868 0.0000
# 6 0.0000 0.0000 0.0000 -4.7728 0.0000 83.0996
#
#
#
# Elastic Compliance Matrix: (Units=1/GPa)
#
#
# Indices 1 2 3 4 5 6 
#
# 1 0.019525 -0.004174 -0.008586 0.000000 -0.006654 0.000000
# 2 -0.004174 0.038403 -0.013168 0.000000 -0.007899 0.000000
# 3 -0.008586 -0.013168 0.032172 0.000000 -0.018644 0.000000
# 4 0.000000 0.000000 0.000000 0.040401 0.000000 0.002320
# 5 -0.006654 -0.007899 -0.018644 0.000000 0.076288 0.000000
# 6 0.000000 0.000000 0.000000 0.002320 0.000000 0.012167
#
#
# Mechanical properties :
#
#
# Convention : Reuss Voigt Hill
#
# Bulk Modulus (GPa) = 26.14752 48.88947 37.51849
# Shear Modulus (GPa) = 17.63293 32.27184 24.95238
#
# Velocity S-wave (km/s) = 3.20021 4.32941 3.80691
# Velocity P-wave (km/s) = 5.37046 7.30665 6.41206
#
# Compressibility (1/GPa) = 0.03824455
#
# Stress axis : x y z
#
# Youngs Moduli (GPa) = 51.21643 26.03944 31.08245
#
# Poissons Ratio (x) = 0.10870 0.26688
# Poissons Ratio (y) = 0.21380 0.40928
# Poissons Ratio (z) = 0.43975 0.34288
#
# Static dielectric constant tensor:
#      x y z
#    x 1.563780 0.000000 -0.000840 
#    y 0.000000 1.578580 0.000000 
#    z -0.000840 0.000000 1.598850 
# 
# From -- ./inp_files/58164.got.cif
#   From: 2010.05.17/outbox.cif.g08.bks.cpg/sg10_30_cif.got.tgz:58164.got - 2010.06.03 11:33:40.
