data_PCOD9148489
_publ_section_title
;
Structure prediction by ZEFSAII (Michael W. Deem and Ramdas Pophale) SiO2 
 PCOD9148489
Probable space group: P 2/M
;
_chemical_formula_sum "Si O2"
_cell_formula_units_Z 28
_cell_length_a 9.991092
_cell_length_b 7.554316
_cell_length_c 31.045314
_cell_angle_alpha 90.000000
_cell_angle_beta 37.406820
_cell_angle_gamma 90.000000
_cell_volume 1423.407600
_symmetry_space_group_name_H-M "P 2/M"
_symmetry_group_IT_number 10
_symmetry_cell_setting 'monoclinic'
loop_
_space_group_symop_operation_xyz
x,y,z
-x,y,-z
-x,-y,-z
x,-y,z
loop_
_atom_site_type_symbol
_atom_site_label
_atom_site_fract_x
_atom_site_fract_y
_atom_site_fract_z
Si Si1 0.271492 0.713575 0.154077
Si Si2 0.337453 0.705061 0.999877
Si Si3 0.254694 0.207885 0.563281
Si Si4 0.835677 0.790518 0.720257
Si Si5 0.535636 0.294372 0.718894
Si Si6 0.039085 0.717871 0.845026
Si Si7 0.046541 0.284884 0.439586
O O1 0.280686 0.500000 0.148792
O O2 0.510590 0.781748 0.076804
O O3 0.210021 0.760046 0.218173
O O4 0.088187 0.770552 0.166107
O O5 0.293144 0.500000 0.999901
O O6 0.500000 0.705333 0.000000
O O7 0.109420 0.779872 0.076517
O O8 0.500000 0.285516 0.500000
O O9 0.072633 0.280877 0.643283
O O10 0.140834 0.226321 0.545883
O O11 0.278384 0.000000 0.567883
O O12 0.647345 0.714590 0.737296
O O13 0.835129 0.000000 0.712133
O O14 0.510170 0.500000 0.713391
O O15 0.290083 0.219379 0.781396
O O16 0.719521 0.220178 0.639255
O O17 0.036223 0.500000 0.847226
O O18 0.048852 0.500000 0.438189
O O19 0.000000 0.227485 0.500000
#
# Coordination Sequence:
#
# PCOD9148489 Si02
#       7
#     4   4   4   4   4   4   4
#     4   9  16  28  49  73  93 116 149 188 229 271
#     4   7  11  22  42  68  93 114 143 187 229 261
#     4   9  19  35  51  66  87 119 157 190 220 261
#     4  10  20  33  47  65  93 124 151 184 225 267
#     4   9  17  31  49  67  91 123 154 184 222 269
#     4   8  14  26  47  72  92 114 151 194 227 260
#     4   9  18  31  47  70  97 120 145 183 230 274
#
# _framework density 19.671104
#
# number of rings (size 3 to 8) (size 9 to 14) (size 15 to 20)
#    0.000    3.286    0.000    2.143    0.000    2.286 
#    0.000    2.857    0.000    9.000    0.000    0.000 
#    0.000    0.000    0.000    0.000    0.000    0.000 
#
# Total GULP energy -155976.995717 kJ/mol
# GULP energy per Si atom -5570.606990 kJ/mol
# Density = 1.962633 g / cm^3
# Si number density = 19.671104 Si / 1000 Ang^3
#
#
#
# Elastic Constant Matrix: (Units=GPa)
#
#
# Indices 1 2 3 4 5 6 
#
# 1 74.0326 -10.9198 107.4483 0.0000 -4.7045 0.0000
# 2 -10.9198 44.2429 -4.1344 0.0000 -5.5732 0.0000
# 3 107.4483 -4.1344 198.8772 0.0000 -9.2601 0.0000
# 4 0.0000 0.0000 0.0000 6.0340 0.0000 11.4796
# 5 -4.7045 -5.5732 -9.2601 0.0000 40.2269 0.0000
# 6 0.0000 0.0000 0.0000 11.4796 0.0000 38.4326
#
#
#
# Elastic Compliance Matrix: (Units=1/GPa)
#
#
# Indices 1 2 3 4 5 6 
#
# 1 0.070153 0.013996 -0.037541 0.000000 0.001502 0.000000
# 2 0.013996 0.025875 -0.006854 0.000000 0.003644 0.000000
# 3 -0.037541 -0.006854 0.025190 0.000000 0.000459 0.000000
# 4 0.000000 0.000000 0.000000 0.383862 0.000000 -0.114657
# 5 0.001502 0.003644 0.000459 0.000000 0.025645 0.000000
# 6 0.000000 0.000000 0.000000 -0.114657 0.000000 0.060267
#
#
# Mechanical properties :
#
#
# Convention : Reuss Voigt Hill
#
# Bulk Modulus (GPa) = 16.55088 55.77121 36.16105
# Shear Modulus (GPa) = 7.44124 31.92261 19.68193
#
# Velocity S-wave (km/s) = 1.94706 4.03279 3.16658
# Velocity P-wave (km/s) = 3.67244 7.07799 5.63847
#
# Compressibility (1/GPa) = 0.06041973
#
# Stress axis : x y z
#
# Youngs Moduli (GPa) = 14.25448 38.64675 39.69884
#
# Poissons Ratio (x) = -0.54090 1.49034
# Poissons Ratio (y) = -0.19950 0.27210
# Poissons Ratio (z) = 0.53513 0.26489
#
# Static dielectric constant tensor:
#      x y z
#    x 1.634110 0.000000 -0.015310 
#    y 0.000000 1.744480 0.000000 
#    z -0.015310 0.000000 1.738550 
# 
# From -- ./inp_files/37034.got.cif
#   From: 2010.05.17/outbox.cif.g08.bks.cpg/sg10_19_cif.got.tgz:37034.got - 2010.06.03 11:33:40.
