data_PCOD9148768
_publ_section_title
;
Structure prediction by ZEFSAII (Michael W. Deem and Ramdas Pophale) SiO2 
 PCOD9148768
Probable space group: P 2/M
;
_chemical_formula_sum "Si O2"
_cell_formula_units_Z 32
_cell_length_a 24.833558
_cell_length_b 9.446927
_cell_length_c 15.478136
_cell_angle_alpha 90.000000
_cell_angle_beta 27.572827
_cell_angle_gamma 90.000000
_cell_volume 1680.786459
_symmetry_space_group_name_H-M "P 2/M"
_symmetry_group_IT_number 10
_symmetry_cell_setting 'monoclinic'
loop_
_space_group_symop_operation_xyz
x,y,z
-x,y,-z
-x,-y,-z
x,-y,z
loop_
_atom_site_type_symbol
_atom_site_label
_atom_site_fract_x
_atom_site_fract_y
_atom_site_fract_z
Si Si1 0.543150 0.341093 0.032606
Si Si2 0.488569 0.333602 0.616529
Si Si3 0.943923 0.159462 0.983311
Si Si4 0.121075 0.163214 0.377594
Si Si5 0.801975 0.832318 0.425042
Si Si6 0.627967 0.168172 0.067165
Si Si7 0.744536 0.335124 0.333375
Si Si8 0.208050 0.656070 0.399019
O O1 0.492179 0.500000 0.121534
O O2 0.542792 0.238592 0.115419
O O3 0.500000 0.289934 0.000000
O O4 0.679465 0.359184 0.820893
O O5 0.500000 0.290365 0.500000
O O6 0.454145 0.500000 0.667689
O O7 0.402817 0.242626 0.798534
O O8 0.616652 0.322368 0.476203
O O9 0.841181 0.271758 0.130743
O O10 0.900380 0.000000 0.028496
O O11 0.000000 0.158776 0.000000
O O12 0.058001 0.188371 0.764958
O O13 0.119466 0.262958 0.463365
O O14 0.000000 0.178330 0.500000
O O15 0.132678 0.000000 0.390495
O O16 0.236789 0.189469 0.154392
O O17 0.758155 0.757072 0.400714
O O18 0.752557 0.751927 0.577251
O O19 0.779680 0.000000 0.453905
O O20 0.607723 0.000000 0.099794
O O21 0.768821 0.500000 0.317071
O O22 0.170335 0.500000 0.481515
#
# Coordination Sequence:
#
# PCOD9148768 Si02
#       8
#     4   4   4   4   4   4   4   4
#     4   9  19  35  55  80 115 154 185 220 275 340
#     4  10  23  43  61  79 112 155 194 237 294 348
#     4   8  16  32  51  73 104 142 178 215 270 333
#     4   9  19  39  62  82 114 153 187 227 285 344
#     4  10  20  34  53  79 115 151 180 220 283 344
#     4  10  21  37  60  89 114 145 191 241 286 333
#     4  10  20  34  56  80 105 142 188 235 283 334
#     4  10  20  33  52  83 115 144 186 231 270 324
#
# _framework density 19.038706999999999
#
# number of rings (size 3 to 8) (size 9 to 14) (size 15 to 20)
#    0.000    2.500    0.000    2.250    1.750    5.500 
#    2.250    0.000    0.000    0.000    0.000    0.000 
#    0.000    0.000    0.000    0.000    0.000    0.000 
#
# Total GULP energy -178306.526155 kJ/mol
# GULP energy per Si atom -5572.078942 kJ/mol
# Density = 1.899537 g / cm^3
# Si number density = 19.038707 Si / 1000 Ang^3
#
#
#
# Elastic Constant Matrix: (Units=GPa)
#
#
# Indices 1 2 3 4 5 6 
#
# 1 81.9485 63.0447 26.8493 0.0000 14.1904 0.0000
# 2 63.0447 119.8894 51.7700 0.0000 12.6007 0.0000
# 3 26.8493 51.7700 55.5920 0.0000 9.7222 0.0000
# 4 0.0000 0.0000 0.0000 25.7368 0.0000 1.4383
# 5 14.1904 12.6007 9.7222 0.0000 26.2984 0.0000
# 6 0.0000 0.0000 0.0000 1.4383 0.0000 1.9104
#
#
#
# Elastic Compliance Matrix: (Units=1/GPa)
#
#
# Indices 1 2 3 4 5 6 
#
# 1 0.021543 -0.011101 0.001108 0.000000 -0.006715 0.000000
# 2 -0.011101 0.019772 -0.013302 0.000000 0.001434 0.000000
# 3 0.001108 -0.013302 0.030823 0.000000 -0.005619 0.000000
# 4 0.000000 0.000000 0.000000 0.040561 0.000000 -0.030537
# 5 -0.006715 0.001434 -0.005619 0.000000 0.043039 0.000000
# 6 0.000000 0.000000 0.000000 -0.030537 0.000000 0.546447
#
#
# Mechanical properties :
#
#
# Convention : Reuss Voigt Hill
#
# Bulk Modulus (GPa) = 39.14287 60.08421 49.61354
# Shear Modulus (GPa) = 6.60248 18.50685 12.55467
#
# Velocity S-wave (km/s) = 1.86426 3.12118 2.57072
# Velocity P-wave (km/s) = 5.02376 6.67956 5.90994
#
# Compressibility (1/GPa) = 0.02554744
#
# Stress axis : x y z
#
# Youngs Moduli (GPa) = 46.41895 50.57733 32.44313
#
# Poissons Ratio (x) = 0.56146 -0.03593
# Poissons Ratio (y) = 0.51530 0.43155
# Poissons Ratio (z) = -0.05141 0.67276
#
# Static dielectric constant tensor:
#      x y z
#    x 1.648350 0.000000 0.008540 
#    y 0.000000 1.683710 0.000000 
#    z 0.008540 0.000000 1.724840 
# 
# From -- ./inp_files/71557.got.cif
#   From: 2010.05.17/outbox.cif.g08.bks.cpg/sg10_36_cif.got.tgz:71557.got - 2010.06.03 11:33:40.
