data_PCOD9148154
_publ_section_title
;
Structure prediction by ZEFSAII (Michael W. Deem and Ramdas Pophale) SiO2 
 PCOD9148154
Probable space group: P 2/M
;
_chemical_formula_sum "Si O2"
_cell_formula_units_Z 19
_cell_length_a 11.399165
_cell_length_b 9.792763
_cell_length_c 8.620958
_cell_angle_alpha 90.000000
_cell_angle_beta 87.609919
_cell_angle_gamma 90.000000
_cell_volume 961.514506
_symmetry_space_group_name_H-M "P 2/M"
_symmetry_group_IT_number 10
_symmetry_cell_setting 'monoclinic'
loop_
_space_group_symop_operation_xyz
x,y,z
-x,y,-z
-x,-y,-z
x,-y,z
loop_
_atom_site_type_symbol
_atom_site_label
_atom_site_fract_x
_atom_site_fract_y
_atom_site_fract_z
Si Si1 0.251382 0.773757 0.721466
Si Si2 0.915317 0.500000 0.780327
Si Si3 0.550284 0.000000 0.318942
Si Si4 0.000000 0.000000 0.500000
Si Si5 0.180608 0.500000 0.865006
Si Si6 0.173895 0.226801 0.376322
Si Si7 0.691504 0.000000 0.812622
Si Si8 0.872436 0.000000 0.086567
O O1 0.366672 0.868215 0.709917
O O2 0.252718 0.635142 0.817861
O O3 0.219855 0.742822 0.546018
O O4 0.150469 0.869467 0.803202
O O5 0.869187 0.363769 0.701126
O O6 0.057072 0.500000 0.777369
O O7 0.862339 0.500000 0.956076
O O8 0.500000 0.000000 0.500000
O O9 0.448216 0.000000 0.196567
O O10 0.929703 0.881430 0.599436
O O11 0.269823 0.138971 0.277434
O O12 0.766723 0.000000 0.966579
O O13 0.000000 0.000000 0.000000
#
# Coordination Sequence:
#
# PCOD9148154 Si02
#       8
#     4   2   2   1   2   4   2   2
#     4  11  24  41  67  96 136 173 230 275 334 391
#     4  11  25  41  66  89 151 179 221 265 354 415
#     4  11  21  48  71 101 129 176 233 297 320 385
#     4  10  20  30  56  88 130 148 224 268 324 380
#     4  11  25  43  59 100 138 189 215 283 335 414
#     4  11  22  38  62 100 124 182 220 278 324 411
#     4  11  23  40  71  97 136 175 229 267 346 384
#     4  11  26  40  64 104 141 178 213 280 340 410
#
# _framework density 19.760491999999999
#
# number of rings (size 3 to 8) (size 9 to 14) (size 15 to 20)
#    0.000    1.053    2.105    5.053   11.789    2.947 
#    0.000    1.579    0.000    2.526    0.000    0.000 
#    0.000    0.000    0.000    0.000    0.000    0.000 
#
# Total GULP energy -105960.459912 kJ/mol
# GULP energy per Si atom -5576.866311 kJ/mol
# Density = 1.971552 g / cm^3
# Si number density = 19.760492 Si / 1000 Ang^3
#
#
#
# Elastic Constant Matrix: (Units=GPa)
#
#
# Indices 1 2 3 4 5 6 
#
# 1 127.5405 51.4287 42.5603 0.0000 0.6138 0.0000
# 2 51.4287 172.1245 25.1375 0.0000 -12.3904 0.0000
# 3 42.5603 25.1375 70.7067 0.0000 8.2016 0.0000
# 4 0.0000 0.0000 0.0000 21.6358 0.0000 23.8569
# 5 0.6138 -12.3904 8.2016 0.0000 31.9529 0.0000
# 6 0.0000 0.0000 0.0000 23.8569 0.0000 48.8955
#
#
#
# Elastic Compliance Matrix: (Units=1/GPa)
#
#
# Indices 1 2 3 4 5 6 
#
# 1 0.010659 -0.002340 -0.005622 0.000000 0.000331 0.000000
# 2 -0.002340 0.006939 -0.001418 0.000000 0.003100 0.000000
# 3 -0.005622 -0.001418 0.018638 0.000000 -0.005226 0.000000
# 4 0.000000 0.000000 0.000000 0.100044 0.000000 -0.048813
# 5 0.000331 0.003100 -0.005226 0.000000 0.033833 0.000000
# 6 0.000000 0.000000 0.000000 -0.048813 0.000000 0.044268
#
#
# Mechanical properties :
#
#
# Convention : Reuss Voigt Hill
#
# Bulk Modulus (GPa) = 57.22528 67.62496 62.42512
# Shear Modulus (GPa) = 20.92350 37.24652 29.08501
#
# Velocity S-wave (km/s) = 3.25754 4.34625 3.84067
# Velocity P-wave (km/s) = 6.57047 7.71253 7.16429
#
# Compressibility (1/GPa) = 0.01747479
#
# Stress axis : x y z
#
# Youngs Moduli (GPa) = 93.82014 144.11125 53.65516
#
# Poissons Ratio (x) = 0.33718 0.30167
# Poissons Ratio (y) = 0.21952 0.07609
# Poissons Ratio (z) = 0.52749 0.20437
#
# Static dielectric constant tensor:
#      x y z
#    x 1.832390 0.000000 0.039240 
#    y 0.000000 1.642980 0.000000 
#    z 0.039240 0.000000 1.736690 
# 
# From -- ./inp_files/22253.got.cif
#   From: 2010.05.17/outbox.cif.g08.bks.cpg/sg10_12_cif.got.tgz:22253.got - 2010.06.03 11:33:40.
