data_PCOD9148757
_publ_section_title
;
Structure prediction by ZEFSAII (Michael W. Deem and Ramdas Pophale) SiO2 
 PCOD9148757
Probable space group: P 2/M
;
_chemical_formula_sum "Si O2"
_cell_formula_units_Z 30
_cell_length_a 16.955030
_cell_length_b 14.927699
_cell_length_c 11.923427
_cell_angle_alpha 90.000000
_cell_angle_beta 30.858224
_cell_angle_gamma 90.000000
_cell_volume 1547.883718
_symmetry_space_group_name_H-M "P 2/M"
_symmetry_group_IT_number 10
_symmetry_cell_setting 'monoclinic'
loop_
_space_group_symop_operation_xyz
x,y,z
-x,y,-z
-x,-y,-z
x,-y,z
loop_
_atom_site_type_symbol
_atom_site_label
_atom_site_fract_x
_atom_site_fract_y
_atom_site_fract_z
Si Si1 0.623197 0.711562 0.252191
Si Si2 0.583083 0.395093 0.657378
Si Si3 0.279247 0.103895 0.958594
Si Si4 0.921032 0.103005 0.395643
Si Si5 0.825089 0.097454 0.258337
Si Si6 0.182797 0.294799 0.790687
Si Si7 0.500000 0.334139 0.000000
Si Si8 0.347863 0.840408 0.122955
O O1 0.500000 0.696876 0.500000
O O2 0.563902 0.654394 0.219681
O O3 0.775475 0.679911 0.132250
O O4 0.632368 0.816367 0.210741
O O5 0.580253 0.500000 0.634714
O O6 0.727615 0.349641 0.415406
O O7 0.578294 0.383343 0.798696
O O8 0.329133 0.113654 0.026594
O O9 0.098493 0.129897 0.169455
O O10 0.297113 0.000000 0.899930
O O11 0.840822 0.107172 0.372504
O O12 0.810041 0.150256 0.617421
O O13 0.927111 0.000000 0.424855
O O14 0.762278 0.190658 0.289238
O O15 0.752102 0.000000 0.321284
O O16 0.000000 0.092475 0.000000
O O17 0.000000 0.298297 0.000000
O O18 0.384049 0.265119 0.079884
O O19 0.500000 0.879044 0.000000
#
# Coordination Sequence:
#
# PCOD9148757 Si02
#       8
#     4   4   4   4   4   4   2   4
#     4  10  22  40  59  86 123 157 197 240 293 356
#     4  11  23  43  67  88 114 152 198 250 312 372
#     4  11  21  35  55  83 119 162 202 239 283 340
#     4  10  20  33  52  80 115 160 206 238 281 338
#     4   9  17  31  52  82 119 158 194 234 280 336
#     4  10  21  37  63  94 123 155 201 245 297 352
#     4  10  21  40  65  88 112 150 199 248 299 366
#     4  10  21  36  54  78 117 149 195 243 289 343
#
# _framework density 19.381301000000001
#
# number of rings (size 3 to 8) (size 9 to 14) (size 15 to 20)
#    0.400    1.467    1.333    3.400    0.000    6.667 
#    0.000    4.667    0.000    0.000    0.000    2.800 
#    0.000    0.000    0.000    0.000    0.000    0.000 
#
# Total GULP energy -167130.911011 kJ/mol
# GULP energy per Si atom -5571.030367 kJ/mol
# Density = 1.933719 g / cm^3
# Si number density = 19.381301 Si / 1000 Ang^3
#
#
#
# Elastic Constant Matrix: (Units=GPa)
#
#
# Indices 1 2 3 4 5 6 
#
# 1 88.9282 28.0479 29.0675 0.0000 9.9610 0.0000
# 2 28.0479 100.5073 29.4855 0.0000 3.3622 0.0000
# 3 29.0675 29.4855 42.4308 0.0000 7.1107 0.0000
# 4 0.0000 0.0000 0.0000 21.7723 0.0000 -0.8554
# 5 9.9610 3.3622 7.1107 0.0000 32.3617 0.0000
# 6 0.0000 0.0000 0.0000 -0.8554 0.0000 23.5025
#
#
#
# Elastic Compliance Matrix: (Units=1/GPa)
#
#
# Indices 1 2 3 4 5 6 
#
# 1 0.014845 -0.001505 -0.008705 0.000000 -0.002500 0.000000
# 2 -0.001505 0.012662 -0.007917 0.000000 0.000887 0.000000
# 3 -0.008705 -0.007917 0.035762 0.000000 -0.004356 0.000000
# 4 0.000000 0.000000 0.000000 0.045996 0.000000 0.001674
# 5 -0.002500 0.000887 -0.004356 0.000000 0.032535 0.000000
# 6 0.000000 0.000000 0.000000 0.001674 0.000000 0.042610
#
#
# Mechanical properties :
#
#
# Convention : Reuss Voigt Hill
#
# Bulk Modulus (GPa) = 37.01441 45.00759 41.01100
# Shear Modulus (GPa) = 21.77045 25.21166 23.49105
#
# Velocity S-wave (km/s) = 3.35516 3.61061 3.48522
# Velocity P-wave (km/s) = 5.84371 6.37609 6.11570
#
# Compressibility (1/GPa) = 0.02701650
#
# Stress axis : x y z
#
# Youngs Moduli (GPa) = 67.36207 78.97379 27.96245
#
# Poissons Ratio (x) = 0.11889 0.24340
# Poissons Ratio (y) = 0.10141 0.22137
# Poissons Ratio (z) = 0.58636 0.62520
#
# Static dielectric constant tensor:
#      x y z
#    x 1.774670 0.000000 -0.000740 
#    y 0.000000 1.685120 0.000000 
#    z -0.000740 0.000000 1.735260 
# 
# From -- ./inp_files/53913.got.cif
#   From: 2010.05.17/outbox.cif.g08.bks.cpg/sg10_27_cif.got.tgz:53913.got - 2010.06.03 11:33:40.
