data_PCOD9148847
_publ_section_title
;
Structure prediction by ZEFSAII (Michael W. Deem and Ramdas Pophale) SiO2 
 PCOD9148847
Probable space group: P 2/M
;
_chemical_formula_sum "Si O2"
_cell_formula_units_Z 18
_cell_length_a 11.024722
_cell_length_b 7.984793
_cell_length_c 15.648615
_cell_angle_alpha 90.000000
_cell_angle_beta 140.811755
_cell_angle_gamma 90.000000
_cell_volume 870.432617
_symmetry_space_group_name_H-M "P 2/M"
_symmetry_group_IT_number 10
_symmetry_cell_setting 'monoclinic'
loop_
_space_group_symop_operation_xyz
x,y,z
-x,y,-z
-x,-y,-z
x,-y,z
loop_
_atom_site_type_symbol
_atom_site_label
_atom_site_fract_x
_atom_site_fract_y
_atom_site_fract_z
Si Si1 0.206382 0.186205 0.932179
Si Si2 0.790764 0.500000 0.563005
Si Si3 0.963881 0.500000 0.847659
Si Si4 0.410610 0.689872 0.790796
Si Si5 0.967279 0.813026 0.353667
Si Si6 0.422542 0.500000 0.268090
O O1 0.139463 0.194792 0.797264
O O2 0.096293 0.335467 0.920277
O O3 0.158666 0.000000 0.937993
O O4 0.432626 0.217442 0.066421
O O5 0.857845 0.500000 0.697417
O O6 0.563734 0.500000 0.425814
O O7 0.881365 0.663363 0.567254
O O8 0.797622 0.500000 0.826840
O O9 0.375995 0.500000 0.806410
O O10 0.206065 0.778279 0.675617
O O11 0.513099 0.656148 0.756035
O O12 0.046454 0.000000 0.407225
#
# Coordination Sequence:
#
# PCOD9148847 Si02
#       6
#     4   2   2   4   4   2
#     4  10  20  35  58  86 111 140 181 223 269 327
#     4  10  20  39  61  77 104 145 187 232 273 306
#     4  10  20  39  61  77 104 145 187 232 273 306
#     4  10  20  33  55  79 119 144 165 216 276 327
#     4  10  20  35  58  86 111 140 181 223 269 327
#     4  10  23  38  55  78 110 148 190 226 261 324
#
# _framework density 20.679372000000001
#
# number of rings (size 3 to 8) (size 9 to 14) (size 15 to 20)
#    0.667    1.333    2.222    1.667    0.000    6.222 
#    0.000    7.778    0.000    5.333    0.000    0.000 
#    0.000    0.000    0.000    0.000    0.000    0.000 
#
# Total GULP energy -100502.064961 kJ/mol
# GULP energy per Si atom -5583.448053 kJ/mol
# Density = 2.063230 g / cm^3
# Si number density = 20.679372 Si / 1000 Ang^3
#
#
#
# Elastic Constant Matrix: (Units=GPa)
#
#
# Indices 1 2 3 4 5 6 
#
# 1 87.4587 32.1347 -1.6806 0.0000 18.3124 0.0000
# 2 32.1347 150.2576 11.6614 0.0000 11.0976 0.0000
# 3 -1.6806 11.6614 56.9515 0.0000 3.9259 0.0000
# 4 0.0000 0.0000 0.0000 6.8407 0.0000 -6.7693
# 5 18.3124 11.0976 3.9259 0.0000 31.6745 0.0000
# 6 0.0000 0.0000 0.0000 -6.7693 0.0000 3.4645
#
#
#
# Elastic Compliance Matrix: (Units=1/GPa)
#
#
# Indices 1 2 3 4 5 6 
#
# 1 0.013936 -0.002550 0.001439 0.000000 -0.007342 0.000000
# 2 -0.002550 0.007387 -0.001524 0.000000 -0.000925 0.000000
# 3 0.001439 -0.001524 0.018088 0.000000 -0.002540 0.000000
# 4 0.000000 0.000000 0.000000 -0.156599 0.000000 -0.305977
# 5 -0.007342 -0.000925 -0.002540 0.000000 0.036455 0.000000
# 6 0.000000 0.000000 0.000000 -0.305977 0.000000 -0.309204
#
#
# Mechanical properties :
#
#
# Convention : Reuss Voigt Hill
#
# Bulk Modulus (GPa) = 29.28901 42.09988 35.69444
# Shear Modulus (GPa) = -13.39451 25.23276 5.91912
#
# Velocity S-wave (km/s) = -2.54780 3.49691 1.69368
# Velocity P-wave (km/s) = 2.35352 6.05864 4.59599
#
# Compressibility (1/GPa) = 0.03414250
#
# Stress axis : x y z
#
# Youngs Moduli (GPa) = 71.75774 135.36999 55.28387
#
# Poissons Ratio (x) = 0.34517 -0.07958
# Poissons Ratio (y) = 0.18297 0.08426
# Poissons Ratio (z) = -0.10329 0.20631
#
# Static dielectric constant tensor:
#      x y z
#    x 1.747760 0.000000 -0.055090 
#    y 0.000000 1.736140 0.000000 
#    z -0.055090 0.000000 1.732380 
# 
# From -- ./inp_files/22409.got.cif
#   From: 2010.05.17/outbox.cif.g08.bks.cpg/sg10_12_cif.got.tgz:22409.got - 2010.06.03 11:33:40.
