data_PCOD9148562
_publ_section_title
;
Structure prediction by ZEFSAII (Michael W. Deem and Ramdas Pophale) SiO2 
 PCOD9148562
Probable space group: P 2/M
;
_chemical_formula_sum "Si O2"
_cell_formula_units_Z 32
_cell_length_a 9.424330
_cell_length_b 13.830594
_cell_length_c 15.042633
_cell_angle_alpha 90.000000
_cell_angle_beta 119.921128
_cell_angle_gamma 90.000000
_cell_volume 1699.379691
_symmetry_space_group_name_H-M "P 2/M"
_symmetry_group_IT_number 10
_symmetry_cell_setting 'monoclinic'
loop_
_space_group_symop_operation_xyz
x,y,z
-x,y,-z
-x,-y,-z
x,-y,z
loop_
_atom_site_type_symbol
_atom_site_label
_atom_site_fract_x
_atom_site_fract_y
_atom_site_fract_z
Si Si1 0.440213 0.238214 0.267496
Si Si2 0.339915 0.615131 0.389073
Si Si3 0.744259 0.250927 0.239526
Si Si4 0.308158 0.105938 0.929260
Si Si5 0.990122 0.384521 0.601171
Si Si6 0.826021 0.111317 0.915679
Si Si7 0.007460 0.106722 0.396964
Si Si8 0.362980 0.111321 0.532253
O O1 0.367443 0.322479 0.308054
O O2 0.563572 0.266050 0.224977
O O3 0.290047 0.173175 0.184512
O O4 0.562373 0.175192 0.366884
O O5 0.500000 0.632968 0.500000
O O6 0.334448 0.500000 0.367018
O O7 0.178546 0.637700 0.398296
O O8 0.738151 0.201362 0.140656
O O9 0.857229 0.343545 0.294743
O O10 0.854290 0.169784 0.322651
O O11 0.259297 0.000000 0.874430
O O12 0.500000 0.106403 0.000000
O O13 0.253179 0.106070 0.012899
O O14 0.000337 0.500000 0.599566
O O15 0.000000 0.349036 0.500000
O O16 0.848164 0.000000 0.888344
O O17 0.000000 0.154391 0.000000
O O18 0.190551 0.145988 0.437416
O O19 0.000000 0.099813 0.500000
O O20 0.999910 0.000000 0.354559
O O21 0.500000 0.110423 0.500000
O O22 0.336331 0.000000 0.554197
#
# Coordination Sequence:
#
# PCOD9148562 Si02
#       8
#     4   4   4   4   4   4   4   4
#     4  12  23  36  61  87 116 158 203 246 296 357
#     4  10  23  42  63  89 122 159 197 243 303 366
#     4  12  23  34  60  89 115 157 205 245 296 353
#     4  10  21  39  60  86 121 161 206 252 298 350
#     4  10  23  42  64  91 123 155 194 247 301 362
#     4  10  23  41  61  88 122 160 206 257 303 350
#     4  10  20  33  49  78 119 155 189 230 283 353
#     4  10  22  35  49  78 121 158 189 231 286 353
#
# _framework density 18.830400000000001
#
# number of rings (size 3 to 8) (size 9 to 14) (size 15 to 20)
#    0.000    1.500    2.500    2.250    5.250    2.500 
#    0.000    3.750    0.000    1.500    0.000    0.000 
#    0.000    0.000    0.000    0.000    0.000    0.000 
#
# Total GULP energy -178296.722917 kJ/mol
# GULP energy per Si atom -5571.772591 kJ/mol
# Density = 1.878754 g / cm^3
# Si number density = 18.830400 Si / 1000 Ang^3
#
#
#
# Elastic Constant Matrix: (Units=GPa)
#
#
# Indices 1 2 3 4 5 6 
#
# 1 92.8792 29.8509 14.8285 0.0000 13.8174 0.0000
# 2 29.8509 93.6889 35.7210 0.0000 -0.6085 0.0000
# 3 14.8285 35.7210 69.5135 0.0000 7.1324 0.0000
# 4 0.0000 0.0000 0.0000 43.0838 0.0000 -1.5925
# 5 13.8174 -0.6085 7.1324 0.0000 29.6491 0.0000
# 6 0.0000 0.0000 0.0000 -1.5925 0.0000 34.7400
#
#
#
# Elastic Compliance Matrix: (Units=1/GPa)
#
#
# Indices 1 2 3 4 5 6 
#
# 1 0.013030 -0.004195 0.000008 0.000000 -0.006160 0.000000
# 2 -0.004195 0.014737 -0.007085 0.000000 0.003962 0.000000
# 3 0.000008 -0.007085 0.018496 0.000000 -0.004599 0.000000
# 4 0.000000 0.000000 0.000000 0.023250 0.000000 0.001066
# 5 -0.006160 0.003962 -0.004599 0.000000 0.037786 0.000000
# 6 0.000000 0.000000 0.000000 0.001066 0.000000 0.028834
#
#
# Mechanical properties :
#
#
# Convention : Reuss Voigt Hill
#
# Bulk Modulus (GPa) = 42.15672 46.32025 44.23849
# Shear Modulus (GPa) = 30.01500 33.20664 31.61082
#
# Velocity S-wave (km/s) = 3.99678 4.20391 4.10165
# Velocity P-wave (km/s) = 6.61326 6.94377 6.78053
#
# Compressibility (1/GPa) = 0.02372101
#
# Stress axis : x y z
#
# Youngs Moduli (GPa) = 76.74597 67.85631 54.06455
#
# Poissons Ratio (x) = 0.28464 -0.00044
# Poissons Ratio (y) = 0.32192 0.38303
# Poissons Ratio (z) = -0.00062 0.48074
#
# Static dielectric constant tensor:
#      x y z
#    x 1.743260 0.000000 0.101120 
#    y 0.000000 1.704170 0.000000 
#    z 0.101120 0.000000 1.798380 
# 
# From -- ./inp_files/61878.got.cif
#   From: 2010.05.17/outbox.cif.g08.bks.cpg/sg10_31_cif.got.tgz:61878.got - 2010.06.03 11:33:40.
