data_PCOD9148540
_publ_section_title
;
Structure prediction by ZEFSAII (Michael W. Deem and Ramdas Pophale) SiO2 
 PCOD9148540
Probable space group: P 2/M
;
_chemical_formula_sum "Si O2"
_cell_formula_units_Z 32
_cell_length_a 21.231675
_cell_length_b 9.341930
_cell_length_c 24.386608
_cell_angle_alpha 90.000000
_cell_angle_beta 162.956567
_cell_angle_gamma 90.000000
_cell_volume 1417.695513
_symmetry_space_group_name_H-M "P 2/M"
_symmetry_group_IT_number 10
_symmetry_cell_setting 'monoclinic'
loop_
_space_group_symop_operation_xyz
x,y,z
-x,y,-z
-x,-y,-z
x,-y,z
loop_
_atom_site_type_symbol
_atom_site_label
_atom_site_fract_x
_atom_site_fract_y
_atom_site_fract_z
Si Si1 0.824598 0.163507 0.304089
Si Si2 0.847169 0.159745 0.700840
Si Si3 0.530019 0.336651 0.748733
Si Si4 0.655478 0.161966 0.749076
Si Si5 0.535682 0.669424 0.137045
Si Si6 0.245182 0.337682 0.272448
Si Si7 0.785894 0.828672 0.443061
Si Si8 0.860797 0.340643 0.126605
O O1 0.637640 0.270914 0.166191
O O2 0.000000 0.167237 0.500000
O O3 0.967614 0.196096 0.369665
O O4 0.745330 0.000000 0.234952
O O5 0.594833 0.153507 0.477552
O O6 0.868766 0.261229 0.771473
O O7 0.924575 0.000000 0.777451
O O8 0.970243 0.223909 0.751440
O O9 0.484623 0.500000 0.694281
O O10 0.644581 0.250640 0.795792
O O11 0.314992 0.254922 0.589701
O O12 0.688546 0.341584 0.933006
O O13 0.769142 0.246304 0.794615
O O14 0.735923 0.000000 0.822659
O O15 0.585160 0.500000 0.184930
O O16 0.650724 0.764718 0.279513
O O17 0.283604 0.685797 0.940032
O O18 0.500000 0.342859 0.500000
O O19 0.169342 0.500000 0.202391
O O20 0.754084 0.000000 0.421689
O O21 0.956827 0.500000 0.209535
#
# Coordination Sequence:
#
# PCOD9148540 Si02
#       8
#     4   4   4   4   4   4   4   4
#     4   8  14  23  36  57  85 118 155 192 233 280
#     4  10  20  33  52  76  98 124 159 196 235 281
#     4  10  20  33  49  71  98 129 163 196 237 286
#     4  10  20  34  52  75 100 124 156 197 236 280
#     4   9  16  25  39  61  89 121 157 196 236 278
#     4   9  17  31  52  74  96 124 156 193 237 279
#     4   9  16  26  40  60  89 123 156 193 237 281
#     4   9  19  33  47  68  99 130 160 196 237 282
#
# _framework density 22.571843000000001
#
# number of rings (size 3 to 8) (size 9 to 14) (size 15 to 20)
#    0.000    2.750    0.000    3.750    0.000    8.750 
#    0.000    0.625    0.000    3.750    0.000    0.875 
#    0.000    7.000    0.000    0.000    0.000    0.000 
#
# Total GULP energy -178770.572402 kJ/mol
# GULP energy per Si atom -5586.580388 kJ/mol
# Density = 2.252047 g / cm^3
# Si number density = 22.571843 Si / 1000 Ang^3
#
#
#
# Elastic Constant Matrix: (Units=GPa)
#
#
# Indices 1 2 3 4 5 6 
#
# 1 -4.6548 22.2923 53.8578 0.0000 -41.3810 0.0000
# 2 22.2923 152.9432 55.0654 0.0000 -3.3885 0.0000
# 3 53.8578 55.0654 49.8925 0.0000 23.1072 0.0000
# 4 0.0000 0.0000 0.0000 20.4869 0.0000 15.3356
# 5 -41.3810 -3.3885 23.1072 0.0000 4.4846 0.0000
# 6 0.0000 0.0000 0.0000 15.3356 0.0000 33.5627
#
#
#
# Elastic Compliance Matrix: (Units=1/GPa)
#
#
# Indices 1 2 3 4 5 6 
#
# 1 0.003122 -0.003738 0.008137 0.000000 -0.015940 0.000000
# 2 -0.003738 0.008891 -0.005111 0.000000 -0.001441 0.000000
# 3 0.008137 -0.005111 0.011604 0.000000 0.011434 0.000000
# 4 0.000000 0.000000 0.000000 0.074186 0.000000 -0.033897
# 5 -0.015940 -0.001441 0.011434 0.000000 0.015898 0.000000
# 6 0.000000 0.000000 0.000000 -0.033897 0.000000 0.045284
#
#
# Mechanical properties :
#
#
# Convention : Reuss Voigt Hill
#
# Bulk Modulus (GPa) = 45.05503 51.17912 48.11707
# Shear Modulus (GPa) = 29.79621 16.17120 22.98370
#
# Velocity S-wave (km/s) = 3.63721 2.67953 3.19446
# Velocity P-wave (km/s) = 6.13540 5.68298 5.91352
#
# Compressibility (1/GPa) = 0.02219508
#
# Stress axis : x y z
#
# Youngs Moduli (GPa) = 320.25745 112.46973 86.17781
#
# Poissons Ratio (x) = 0.42041 -0.70125
# Poissons Ratio (y) = 1.19712 0.44042
# Poissons Ratio (z) = -2.60603 0.57479
#
# Static dielectric constant tensor:
#      x y z
#    x 1.844050 0.000000 -0.020470 
#    y 0.000000 1.784400 0.000000 
#    z -0.020470 0.000000 1.887830 
# 
# From -- ./inp_files/75983.got.cif
#   From: 2010.05.17/outbox.cif.g08.bks.cpg/sg10_38_cif.got.tgz:75983.got - 2010.06.03 11:33:40.
