data_PCOD9148199
_publ_section_title
;
Structure prediction by ZEFSAII (Michael W. Deem and Ramdas Pophale) SiO2 
 PCOD9148199
Probable space group: P 2/M
;
_chemical_formula_sum "Si O2"
_cell_formula_units_Z 26
_cell_length_a 15.155095
_cell_length_b 11.937035
_cell_length_c 9.499016
_cell_angle_alpha 90.000000
_cell_angle_beta 51.140812
_cell_angle_gamma 90.000000
_cell_volume 1338.130554
_symmetry_space_group_name_H-M "P 2/M"
_symmetry_group_IT_number 10
_symmetry_cell_setting 'monoclinic'
loop_
_space_group_symop_operation_xyz
x,y,z
-x,y,-z
-x,-y,-z
x,-y,z
loop_
_atom_site_type_symbol
_atom_site_label
_atom_site_fract_x
_atom_site_fract_y
_atom_site_fract_z
Si Si1 0.875211 0.000000 0.293396
Si Si2 0.450722 0.129540 0.394035
Si Si3 0.864797 0.000000 0.874627
Si Si4 0.255707 0.000000 0.282354
Si Si5 0.603899 0.796439 0.985847
Si Si6 0.777019 0.766303 0.325204
Si Si7 0.791259 0.750502 0.993250
Si Si8 0.018366 0.629533 0.811543
O O1 0.801610 0.000000 0.509436
O O2 0.842533 0.114380 0.247357
O O3 0.007683 0.000000 0.197624
O O4 0.500000 0.150836 0.500000
O O5 0.543053 0.146939 0.181638
O O6 0.342445 0.208331 0.484358
O O7 0.414171 0.000000 0.429086
O O8 0.848679 0.000000 0.722727
O O9 0.803582 0.114649 0.979554
O O10 0.333678 0.108023 0.169673
O O11 0.700892 0.721599 0.962490
O O12 0.500000 0.746126 0.000000
O O13 0.757046 0.719920 0.187358
O O14 0.860443 0.687584 0.329901
O O15 0.914734 0.696750 0.846463
O O16 0.017018 0.500000 0.772345
O O17 0.000000 0.636440 0.000000
#
# Coordination Sequence:
#
# PCOD9148199 Si02
#       8
#     2   4   2   2   4   4   4   4
#     4  12  20  31  48  82 115 152 178 227 282 333
#     4  11  21  32  51  80 117 155 182 223 269 326
#     4  10  20  31  49  76 115 151 174 224 278 335
#     4  10  22  34  47  72 115 160 191 215 262 337
#     4  11  21  35  51  74 113 159 191 216 263 332
#     4  11  20  31  54  82 116 145 181 226 279 337
#     4  10  20  34  52  83 112 147 184 227 277 334
#     4   9  19  36  58  81 108 143 184 234 288 335
#
# _framework density 19.430091999999998
#
# number of rings (size 3 to 8) (size 9 to 14) (size 15 to 20)
#    0.000    1.538    4.615    1.846    0.000    0.615 
#    0.000    0.000    0.000    1.846    0.000   18.308 
#    0.000    0.000    0.000    0.000    0.000    0.000 
#
# Total GULP energy -145117.768798 kJ/mol
# GULP energy per Si atom -5581.452646 kJ/mol
# Density = 1.938587 g / cm^3
# Si number density = 19.430092 Si / 1000 Ang^3
#
#
#
# Elastic Constant Matrix: (Units=GPa)
#
#
# Indices 1 2 3 4 5 6 
#
# 1 149.6083 25.8917 26.4868 0.0000 -3.6742 0.0000
# 2 25.8917 57.0188 -4.9931 0.0000 -9.0629 0.0000
# 3 26.4868 -4.9931 63.3914 0.0000 -4.2481 0.0000
# 4 0.0000 0.0000 0.0000 3.7120 0.0000 -4.3589
# 5 -3.6742 -9.0629 -4.2481 0.0000 36.3218 0.0000
# 6 0.0000 0.0000 0.0000 -4.3589 0.0000 0.5991
#
#
#
# Elastic Compliance Matrix: (Units=1/GPa)
#
#
# Indices 1 2 3 4 5 6 
#
# 1 0.008032 -0.004075 -0.003720 0.000000 -0.000639 0.000000
# 2 -0.004075 0.020526 0.003664 0.000000 0.005138 0.000000
# 3 -0.003720 0.003664 0.017793 0.000000 0.002619 0.000000
# 4 0.000000 0.000000 0.000000 -0.035712 0.000000 -0.259830
# 5 -0.000639 0.005138 0.002619 0.000000 0.029055 0.000000
# 6 0.000000 0.000000 0.000000 -0.259830 0.000000 -0.221272
#
#
# Mechanical properties :
#
#
# Convention : Reuss Voigt Hill
#
# Bulk Modulus (GPa) = 26.25407 40.53215 33.39311
# Shear Modulus (GPa) = -31.12959 22.96880 -4.08039
#
# Velocity S-wave (km/s) = -4.00701 3.44193 -1.45072
# Velocity P-wave (km/s) = 2.80477 6.05819 3.79703
#
# Compressibility (1/GPa) = 0.03808933
#
# Stress axis : x y z
#
# Youngs Moduli (GPa) = 124.49944 48.71921 56.20082
#
# Poissons Ratio (x) = 0.19851 0.20906
# Poissons Ratio (y) = 0.50729 -0.20590
# Poissons Ratio (z) = 0.46312 -0.17849
#
# Static dielectric constant tensor:
#      x y z
#    x 1.752520 0.000000 0.015870 
#    y 0.000000 1.642840 0.000000 
#    z 0.015870 0.000000 1.676890 
# 
# From -- ./inp_files/28162.got.cif
#   From: 2010.05.17/outbox.cif.g08.bks.cpg/sg10_15_cif.got.tgz:28162.got - 2010.06.03 11:33:40.
