data_PCOD9148329
_publ_section_title
;
Structure prediction by ZEFSAII (Michael W. Deem and Ramdas Pophale) SiO2 
 PCOD9148329
Probable space group: P 2/M
;
_chemical_formula_sum "Si O2"
_cell_formula_units_Z 32
_cell_length_a 21.069483
_cell_length_b 9.289718
_cell_length_c 23.739961
_cell_angle_alpha 90.000000
_cell_angle_beta 156.876004
_cell_angle_gamma 90.000000
_cell_volume 1824.828212
_symmetry_space_group_name_H-M "P 2/M"
_symmetry_group_IT_number 10
_symmetry_cell_setting 'monoclinic'
loop_
_space_group_symop_operation_xyz
x,y,z
-x,y,-z
-x,-y,-z
x,-y,z
loop_
_atom_site_type_symbol
_atom_site_label
_atom_site_fract_x
_atom_site_fract_y
_atom_site_fract_z
Si Si1 0.323229 0.669152 0.939789
Si Si2 0.312890 0.667866 0.719997
Si Si3 0.154689 0.166029 0.496707
Si Si4 0.825415 0.834601 0.889076
Si Si5 0.677702 0.671785 0.669082
Si Si6 0.967041 0.827227 0.840609
Si Si7 0.965035 0.171988 0.234006
Si Si8 0.197262 0.167542 0.732046
O O1 0.289577 0.500000 0.903893
O O2 0.500264 0.684267 0.110436
O O3 0.189643 0.740271 0.871095
O O4 0.307713 0.750174 0.867561
O O5 0.269759 0.500000 0.687380
O O6 0.275632 0.731792 0.628405
O O7 0.213250 0.756587 0.685193
O O8 0.110045 0.204284 0.396092
O O9 0.983228 0.175167 0.389826
O O10 0.209107 0.000000 0.543552
O O11 0.708620 0.736507 0.756620
O O12 0.767964 0.000000 0.842063
O O13 0.000000 0.832250 0.000000
O O14 0.875257 0.789764 0.992850
O O15 0.500000 0.704195 0.500000
O O16 0.699501 0.500000 0.687960
O O17 0.813569 0.744388 0.740489
O O18 0.992820 0.797865 0.796044
O O19 0.942846 0.000000 0.828276
O O20 0.932447 0.000000 0.213477
O O21 0.241794 0.000000 0.763894
#
# Coordination Sequence:
#
# PCOD9148329 Si02
#       8
#     4   4   4   4   4   4   4   4
#     4  10  21  35  50  72 101 130 163 204 249 299
#     4  11  22  33  48  73 102 130 162 203 252 303
#     4   9  19  34  51  72  98 128 164 205 248 297
#     4   8  15  29  50  75 100 128 164 203 242 285
#     4  10  20  32  48  76 111 140 166 199 242 291
#     4   9  18  34  56  78  99 128 169 210 246 291
#     4   9  19  37  57  75  96 127 169 210 247 293
#     4  10  20  34  53  75  97 126 166 208 252 303
#
# _framework density 17.535898
#
# number of rings (size 3 to 8) (size 9 to 14) (size 15 to 20)
#    0.000    2.500    0.000    3.750    0.000   11.250 
#    0.000    1.250    0.000    7.500    0.000    0.000 
#    0.000    0.000    0.000    0.000    0.000    0.000 
#
# Total GULP energy -178501.088836 kJ/mol
# GULP energy per Si atom -5578.159026 kJ/mol
# Density = 1.749599 g / cm^3
# Si number density = 17.535898 Si / 1000 Ang^3
#
#
#
# Elastic Constant Matrix: (Units=GPa)
#
#
# Indices 1 2 3 4 5 6 
#
# 1 70.2571 36.5178 44.9399 0.0000 -33.1667 0.0000
# 2 36.5178 82.3253 67.1580 0.0000 -18.0403 0.0000
# 3 44.9399 67.1580 107.7613 0.0000 -32.9783 0.0000
# 4 0.0000 0.0000 0.0000 32.8870 0.0000 -5.7986
# 5 -33.1667 -18.0403 -32.9783 0.0000 29.5043 0.0000
# 6 0.0000 0.0000 0.0000 -5.7986 0.0000 20.9216
#
#
#
# Elastic Compliance Matrix: (Units=1/GPa)
#
#
# Indices 1 2 3 4 5 6 
#
# 1 0.034395 -0.009444 0.002443 0.000000 0.035621 0.000000
# 2 -0.009444 0.027502 -0.017181 0.000000 -0.013004 0.000000
# 3 0.002443 -0.017181 0.025221 0.000000 0.020431 0.000000
# 4 0.000000 0.000000 0.000000 0.031969 0.000000 0.008861
# 5 0.035621 -0.013004 0.020431 0.000000 0.088822 0.000000
# 6 0.000000 0.000000 0.000000 0.008861 0.000000 0.050253
#
#
# Mechanical properties :
#
#
# Convention : Reuss Voigt Hill
#
# Bulk Modulus (GPa) = 25.80357 61.95278 43.87818
# Shear Modulus (GPa) = 15.65217 24.11111 19.88164
#
# Velocity S-wave (km/s) = 2.99085 3.71206 3.37080
# Velocity P-wave (km/s) = 5.16464 7.33337 6.34239
#
# Compressibility (1/GPa) = 0.03875432
#
# Stress axis : x y z
#
# Youngs Moduli (GPa) = 29.07361 36.36135 39.64979
#
# Poissons Ratio (x) = 0.34340 -0.09685
# Poissons Ratio (y) = 0.27457 0.68120
# Poissons Ratio (z) = -0.07102 0.62471
#
# Static dielectric constant tensor:
#      x y z
#    x 1.588940 0.000000 -0.023380 
#    y 0.000000 1.587340 0.000000 
#    z -0.023380 0.000000 1.608430 
# 
# From -- ./inp_files/90652.got.cif
#   From: 2010.05.17/outbox.cif.g08.bks.cpg/sg10_46_cif.got.tgz:90652.got - 2010.06.03 11:33:40.
