data_PCOD9148141
_publ_section_title
;
Structure prediction by ZEFSAII (Michael W. Deem and Ramdas Pophale) SiO2 
 PCOD9148141
Probable space group: P 2/M
;
_chemical_formula_sum "Si O2"
_cell_formula_units_Z 30
_cell_length_a 20.332473
_cell_length_b 13.794063
_cell_length_c 12.894350
_cell_angle_alpha 90.000000
_cell_angle_beta 28.706259
_cell_angle_gamma 90.000000
_cell_volume 1737.048379
_symmetry_space_group_name_H-M "P 2/M"
_symmetry_group_IT_number 10
_symmetry_cell_setting 'monoclinic'
loop_
_space_group_symop_operation_xyz
x,y,z
-x,y,-z
-x,-y,-z
x,-y,z
loop_
_atom_site_type_symbol
_atom_site_label
_atom_site_fract_x
_atom_site_fract_y
_atom_site_fract_z
Si Si1 0.574504 0.384004 0.503433
Si Si2 0.500000 0.268308 0.000000
Si Si3 0.027603 0.888320 0.632875
Si Si4 0.774325 0.887316 0.842729
Si Si5 0.206237 0.262873 0.476339
Si Si6 0.157265 0.384316 0.751608
Si Si7 0.867791 0.387077 0.624233
Si Si8 0.391996 0.305520 0.936867
O O1 0.500000 0.355003 0.500000
O O2 0.556599 0.500000 0.538043
O O3 0.735400 0.365064 0.302840
O O4 0.493476 0.331299 0.706444
O O5 0.357178 0.220260 0.236824
O O6 0.540768 0.327640 0.045024
O O7 0.132036 0.880911 0.390241
O O8 0.090957 0.819686 0.631842
O O9 0.877853 0.864392 0.794397
O O10 0.025049 0.000000 0.668794
O O11 0.729606 0.000000 0.913386
O O12 0.657163 0.806544 0.997322
O O13 0.202032 0.322162 0.589079
O O14 0.165901 0.332771 0.435795
O O15 0.166266 0.500000 0.715134
O O16 0.000000 0.363743 0.000000
O O17 0.888241 0.500000 0.574643
O O18 0.000000 0.346357 0.500000
O O19 0.744116 0.369677 0.874761
#
# Coordination Sequence:
#
# PCOD9148141 Si02
#       8
#     4   2   4   4   4   4   4   4
#     4  10  22  39  57  78 107 146 191 232 271 322
#     4  10  20  30  50  80 108 138 174 216 268 340
#     4   9  17  30  50  76 106 139 175 217 271 333
#     4   9  17  30  50  76 106 139 175 217 271 333
#     4  11  19  34  52  76 108 142 177 221 275 334
#     4  10  22  39  57  78 107 146 191 232 271 322
#     4  10  20  30  45  76 109 137 172 218 273 328
#     4  11  19  34  52  76 108 142 177 221 275 334
#
# _framework density 17.270676000000002
#
# number of rings (size 3 to 8) (size 9 to 14) (size 15 to 20)
#    0.000    2.000    4.000    2.400    0.000    2.133 
#    0.000    6.000    0.000    0.800    0.000    0.000 
#    0.000    0.000    0.000    0.000    0.000    0.000 
#
# Total GULP energy -167059.256749 kJ/mol
# GULP energy per Si atom -5568.641892 kJ/mol
# Density = 1.723137 g / cm^3
# Si number density = 17.270676 Si / 1000 Ang^3
#
#
#
# Elastic Constant Matrix: (Units=GPa)
#
#
# Indices 1 2 3 4 5 6 
#
# 1 106.8018 36.9710 48.9605 0.0000 -14.4785 0.0000
# 2 36.9710 45.9832 12.7781 0.0000 -3.8626 0.0000
# 3 48.9605 12.7781 74.8420 0.0000 -10.8478 0.0000
# 4 0.0000 0.0000 0.0000 11.7363 0.0000 0.5075
# 5 -14.4785 -3.8626 -10.8478 0.0000 23.8474 0.0000
# 6 0.0000 0.0000 0.0000 0.5075 0.0000 11.9768
#
#
#
# Elastic Compliance Matrix: (Units=1/GPa)
#
#
# Indices 1 2 3 4 5 6 
#
# 1 0.018375 -0.011772 -0.009282 0.000000 0.005027 0.000000
# 2 -0.011772 0.030467 0.002332 0.000000 -0.001151 0.000000
# 3 -0.009282 0.002332 0.019563 0.000000 0.003641 0.000000
# 4 0.000000 0.000000 0.000000 0.085362 0.000000 -0.003617
# 5 0.005027 -0.001151 0.003641 0.000000 0.046455 0.000000
# 6 0.000000 0.000000 0.000000 -0.003617 0.000000 0.083648
#
#
# Mechanical properties :
#
#
# Convention : Reuss Voigt Hill
#
# Bulk Modulus (GPa) = 32.29784 47.22739 39.76261
# Shear Modulus (GPa) = 15.07684 18.10657 16.59171
#
# Velocity S-wave (km/s) = 2.95782 3.24141 3.10286
# Velocity P-wave (km/s) = 5.51421 6.43535 5.99251
#
# Compressibility (1/GPa) = 0.03096183
#
# Stress axis : x y z
#
# Youngs Moduli (GPa) = 54.42268 32.82245 51.11642
#
# Poissons Ratio (x) = 0.38638 0.47446
# Poissons Ratio (y) = 0.64066 -0.11922
# Poissons Ratio (z) = 0.50515 -0.07655
#
# Static dielectric constant tensor:
#      x y z
#    x 1.612170 0.000000 -0.041180 
#    y 0.000000 1.591770 0.000000 
#    z -0.041180 0.000000 1.598240 
# 
# From -- ./inp_files/53897.got.cif
#   From: 2010.05.17/outbox.cif.g08.bks.cpg/sg10_27_cif.got.tgz:53897.got - 2010.06.03 11:33:40.
