data_PCOD9148956
_publ_section_title
;
Structure prediction by ZEFSAII (Michael W. Deem and Ramdas Pophale) SiO2 
 PCOD9148956
Probable space group: P 2/M
;
_chemical_formula_sum "Si O2"
_cell_formula_units_Z 32
_cell_length_a 20.188135
_cell_length_b 7.648209
_cell_length_c 28.404521
_cell_angle_alpha 90.000000
_cell_angle_beta 159.664984
_cell_angle_gamma 90.000000
_cell_volume 1524.085003
_symmetry_space_group_name_H-M "P 2/M"
_symmetry_group_IT_number 10
_symmetry_cell_setting 'monoclinic'
loop_
_space_group_symop_operation_xyz
x,y,z
-x,y,-z
-x,-y,-z
x,-y,z
loop_
_atom_site_type_symbol
_atom_site_label
_atom_site_fract_x
_atom_site_fract_y
_atom_site_fract_z
Si Si1 0.930723 0.289456 0.880416
Si Si2 0.531683 0.204432 0.867840
Si Si3 0.035251 0.795184 0.848156
Si Si4 0.592553 0.287542 0.012668
Si Si5 0.024367 0.294282 0.293169
Si Si6 0.701431 0.286622 0.816574
Si Si7 0.149405 0.297589 0.562420
Si Si8 0.272905 0.715329 0.545140
O O1 0.931315 0.500000 0.881490
O O2 0.767674 0.232687 0.808315
O O3 0.923702 0.233690 0.821980
O O4 0.132261 0.229789 0.037044
O O5 0.361383 0.291454 0.725616
O O6 0.529567 0.000000 0.853839
O O7 0.746677 0.277139 0.002508
O O8 0.496948 0.224905 0.900643
O O9 0.931799 0.725160 0.732739
O O10 0.058996 0.000000 0.855983
O O11 0.589300 0.500000 0.008816
O O12 0.810693 0.223586 0.156852
O O13 0.500000 0.232937 0.000000
O O14 0.011004 0.500000 0.294096
O O15 0.170426 0.225269 0.429039
O O16 0.701416 0.500000 0.817165
O O17 0.492441 0.227483 0.691372
O O18 0.090627 0.500000 0.517170
O O19 0.164665 0.223816 0.519951
O O20 0.000000 0.217809 0.500000
O O21 0.276015 0.500000 0.548227
#
# Coordination Sequence:
#
# PCOD9148956 Si02
#       8
#     4   4   4   4   4   4   4   4
#     4   9  16  29  53  79 102 129 167 208 251 301
#     4  10  21  35  50  71 102 135 169 205 249 307
#     4  10  20  34  51  73 102 134 169 212 255 295
#     4   9  18  31  52  75  96 124 166 219 261 295
#     4   9  18  32  51  73  96 131 172 208 252 304
#     4   8  15  28  49  79 106 130 162 206 253 301
#     4  10  21  34  54  80 105 133 168 212 257 301
#     4   9  17  31  51  75 104 132 164 208 256 304
#
# _framework density 20.996203000000001
#
# number of rings (size 3 to 8) (size 9 to 14) (size 15 to 20)
#    0.000    2.750    0.000    2.250    1.750    3.000 
#    0.000    2.500    0.000    6.000    0.000    0.000 
#    0.000    0.000    0.000    0.000    0.000    0.000 
#
# Total GULP energy -178546.917577 kJ/mol
# GULP energy per Si atom -5579.591174 kJ/mol
# Density = 2.094841 g / cm^3
# Si number density = 20.996203 Si / 1000 Ang^3
#
#
#
# Elastic Constant Matrix: (Units=GPa)
#
#
# Indices 1 2 3 4 5 6 
#
# 1 149.1028 -5.0271 42.4187 0.0000 -13.3453 0.0000
# 2 -5.0271 37.8306 -1.7363 0.0000 5.4436 0.0000
# 3 42.4187 -1.7363 61.5974 0.0000 -10.2452 0.0000
# 4 0.0000 0.0000 0.0000 -51.5939 0.0000 82.0563
# 5 -13.3453 5.4436 -10.2452 0.0000 21.8937 0.0000
# 6 0.0000 0.0000 0.0000 82.0563 0.0000 -114.1119
#
#
#
# Elastic Compliance Matrix: (Units=1/GPa)
#
#
# Indices 1 2 3 4 5 6 
#
# 1 0.008489 0.000518 -0.005414 0.000000 0.002513 0.000000
# 2 0.000518 0.027455 -0.000722 0.000000 -0.006848 0.000000
# 3 -0.005414 -0.000722 0.021062 0.000000 0.006736 0.000000
# 4 0.000000 0.000000 0.000000 0.134922 0.000000 0.097021
# 5 0.002513 -0.006848 0.006736 0.000000 0.052062 0.000000
# 6 0.000000 0.000000 0.000000 0.097021 0.000000 0.061003
#
#
# Mechanical properties :
#
#
# Convention : Reuss Voigt Hill
#
# Bulk Modulus (GPa) = 21.84759 35.53794 28.69276
# Shear Modulus (GPa) = 15.08362 -14.57071 0.25645
#
# Velocity S-wave (km/s) = 2.68320 -2.63719 0.34987
# Velocity P-wave (km/s) = 4.47521 2.77302 3.72271
#
# Compressibility (1/GPa) = 0.04577165
#
# Stress axis : x y z
#
# Youngs Moduli (GPa) = 117.79589 36.42356 47.47775
#
# Poissons Ratio (x) = -0.01887 0.25702
# Poissons Ratio (y) = -0.06103 0.03428
# Poissons Ratio (z) = 0.63770 0.02630
#
# Static dielectric constant tensor:
#      x y z
#    x 1.763630 0.000000 -0.003620 
#    y 0.000000 1.781720 0.000000 
#    z -0.003620 0.000000 1.731080 
# 
# From -- ./inp_files/49923.got.cif
#   From: 2010.05.17/outbox.cif.g08.bks.cpg/sg10_25_cif.got.tgz:49923.got - 2010.06.03 11:33:40.
