data_PCOD9148992
_publ_section_title
;
Structure prediction by ZEFSAII (Michael W. Deem and Ramdas Pophale) SiO2 
 PCOD9148992
Probable space group: P 2/M
;
_chemical_formula_sum "Si O2"
_cell_formula_units_Z 32
_cell_length_a 22.219130
_cell_length_b 7.482652
_cell_length_c 22.196804
_cell_angle_alpha 90.000000
_cell_angle_beta 24.419065
_cell_angle_gamma 90.000000
_cell_volume 1525.637402
_symmetry_space_group_name_H-M "P 2/M"
_symmetry_group_IT_number 10
_symmetry_cell_setting 'monoclinic'
loop_
_space_group_symop_operation_xyz
x,y,z
-x,y,-z
-x,-y,-z
x,-y,z
loop_
_atom_site_type_symbol
_atom_site_label
_atom_site_fract_x
_atom_site_fract_y
_atom_site_fract_z
Si Si1 0.310813 0.217903 0.616691
Si Si2 0.546471 0.211251 0.892347
Si Si3 0.341636 0.793630 0.974615
Si Si4 0.919121 0.215761 0.271367
Si Si5 0.645895 0.217700 0.291850
Si Si6 0.017894 0.708517 0.309749
Si Si7 0.118277 0.716134 0.441548
Si Si8 0.242150 0.218903 0.939188
O O1 0.204627 0.280772 0.661027
O O2 0.476869 0.268146 0.451782
O O3 0.276758 0.274115 0.716406
O O4 0.305615 0.000000 0.621165
O O5 0.450672 0.286837 0.924412
O O6 0.717890 0.229560 0.724015
O O7 0.511358 0.000000 0.926381
O O8 0.500000 0.285300 0.000000
O O9 0.333036 0.717791 0.914676
O O10 0.385646 0.000000 0.926644
O O11 0.175843 0.790823 0.150959
O O12 0.917447 0.272670 0.342324
O O13 0.914760 0.000000 0.275683
O O14 0.076034 0.270814 0.102873
O O15 0.707347 0.279815 0.172244
O O16 0.651463 0.000000 0.286012
O O17 0.048327 0.500000 0.292008
O O18 0.937581 0.778836 0.442206
O O19 0.118828 0.500000 0.441558
O O20 0.000000 0.774772 0.500000
O O21 0.247002 0.000000 0.935112
#
# Coordination Sequence:
#
# PCOD9148992 Si02
#       8
#     4   4   4   4   4   4   4   4
#     4   8  14  23  37  60  90 121 151 187 235 286
#     4  10  21  35  53  79 106 131 162 200 243 291
#     4   9  18  33  51  73 100 128 161 200 244 293
#     4   9  17  29  45  67  93 121 153 191 240 290
#     4   8  13  22  36  59  90 118 149 192 236 279
#     4  10  20  34  52  73  97 128 165 202 241 286
#     4  10  22  38  54  74 100 131 168 204 239 284
#     4   8  14  24  39  60  88 119 149 187 233 278
#
# _framework density 20.974838999999999
#
# number of rings (size 3 to 8) (size 9 to 14) (size 15 to 20)
#    0.000    3.000    0.000    2.625    0.000    3.500 
#    0.000    5.000    0.000    0.000    0.000    8.750 
#    0.000    0.000    0.000    0.000    0.000    0.000 
#
# Total GULP energy -178500.549096 kJ/mol
# GULP energy per Si atom -5578.142159 kJ/mol
# Density = 2.092710 g / cm^3
# Si number density = 20.974839 Si / 1000 Ang^3
#
#
#
# Elastic Constant Matrix: (Units=GPa)
#
#
# Indices 1 2 3 4 5 6 
#
# 1 209.6184 -8.1189 85.1579 0.0000 8.5033 0.0000
# 2 -8.1189 54.9021 -14.6211 0.0000 0.6895 0.0000
# 3 85.1579 -14.6211 73.9355 0.0000 19.0337 0.0000
# 4 0.0000 0.0000 0.0000 26.6206 0.0000 9.1937
# 5 8.5033 0.6895 19.0337 0.0000 45.5793 0.0000
# 6 0.0000 0.0000 0.0000 9.1937 0.0000 20.0058
#
#
#
# Elastic Compliance Matrix: (Units=1/GPa)
#
#
# Indices 1 2 3 4 5 6 
#
# 1 0.009515 -0.001882 -0.012193 0.000000 0.003345 0.000000
# 2 -0.001882 0.019781 0.006797 0.000000 -0.002786 0.000000
# 3 -0.012193 0.006797 0.031769 0.000000 -0.011095 0.000000
# 4 0.000000 0.000000 0.000000 0.044652 0.000000 -0.020520
# 5 0.003345 -0.002786 -0.011095 0.000000 0.025991 0.000000
# 6 0.000000 0.000000 0.000000 -0.020520 0.000000 0.059415
#
#
# Mechanical properties :
#
#
# Convention : Reuss Voigt Hill
#
# Bulk Modulus (GPa) = 21.50111 51.47689 36.48900
# Shear Modulus (GPa) = 22.60566 36.84368 29.72467
#
# Velocity S-wave (km/s) = 3.28647 4.19569 3.76860
# Velocity P-wave (km/s) = 4.96733 6.93305 6.03082
#
# Compressibility (1/GPa) = 0.04650922
#
# Stress axis : x y z
#
# Youngs Moduli (GPa) = 105.09233 50.55360 31.47684
#
# Poissons Ratio (x) = 0.09514 0.38380
# Poissons Ratio (y) = 0.19779 -0.21394
# Poissons Ratio (z) = 1.28140 -0.34360
#
# Static dielectric constant tensor:
#      x y z
#    x 1.772970 0.000000 0.011830 
#    y 0.000000 1.803380 0.000000 
#    z 0.011830 0.000000 1.692430 
# 
# From -- ./inp_files/90532.got.cif
#   From: 2010.05.17/outbox.cif.g08.bks.cpg/sg10_46_cif.got.tgz:90532.got - 2010.06.03 11:33:40.
