data_PCOD9148617
_publ_section_title
;
Structure prediction by ZEFSAII (Michael W. Deem and Ramdas Pophale) SiO2 
 PCOD9148617
Probable space group: P 2/M
;
_chemical_formula_sum "Si O2"
_cell_formula_units_Z 24
_cell_length_a 11.036697
_cell_length_b 12.417632
_cell_length_c 9.304580
_cell_angle_alpha 90.000000
_cell_angle_beta 92.526904
_cell_angle_gamma 90.000000
_cell_volume 1273.949400
_symmetry_space_group_name_H-M "P 2/M"
_symmetry_group_IT_number 10
_symmetry_cell_setting 'monoclinic'
loop_
_space_group_symop_operation_xyz
x,y,z
-x,y,-z
-x,-y,-z
x,-y,z
loop_
_atom_site_type_symbol
_atom_site_label
_atom_site_fract_x
_atom_site_fract_y
_atom_site_fract_z
Si Si1 0.486145 0.624563 0.336676
Si Si2 0.358085 0.872128 0.954727
Si Si3 0.271987 0.721765 0.706090
Si Si4 0.745530 0.704005 0.838119
Si Si5 0.865442 0.630398 0.560999
Si Si6 0.889709 0.379952 0.082479
O O1 0.500000 0.667542 0.500000
O O2 0.452599 0.500000 0.345042
O O3 0.616325 0.639305 0.270461
O O4 0.381892 0.682805 0.244384
O O5 0.273430 0.813418 0.070383
O O6 0.342858 0.000000 0.958024
O O7 0.500000 0.847865 0.000000
O O8 0.321828 0.826313 0.794089
O O9 0.226629 0.701671 0.541619
O O10 0.154061 0.686546 0.786851
O O11 0.844926 0.680090 0.718825
O O12 0.778658 0.620091 0.965203
O O13 0.835915 0.500000 0.559644
O O14 0.000000 0.639095 0.500000
O O15 0.924771 0.500000 0.129890
O O16 0.000000 0.330619 0.000000
#
# Coordination Sequence:
#
# PCOD9148617 Si02
#       6
#     4   4   4   4   4   4
#     4  11  20  31  51  84 124 154 175 223 289 354
#     4  10  22  42  61  81 110 149 200 251 297 341
#     4  11  21  35  57  83 113 151 192 236 284 342
#     4  11  21  35  57  83 113 151 192 236 284 342
#     4  11  22  37  60  89 124 161 189 220 274 352
#     4  10  20  33  50  76 113 153 191 225 265 333
#
# _framework density 18.839053
#
# number of rings (size 3 to 8) (size 9 to 14) (size 15 to 20)
#    0.000    1.333    3.333    4.000    0.000    2.667 
#    0.000    3.333    0.000   22.000    0.000    0.000 
#    0.000    0.000    0.000    0.000    0.000    0.000 
#
# Total GULP energy -133603.827941 kJ/mol
# GULP energy per Si atom -5566.826164 kJ/mol
# Density = 1.879617 g / cm^3
# Si number density = 18.839053 Si / 1000 Ang^3
#
#
#
# Elastic Constant Matrix: (Units=GPa)
#
#
# Indices 1 2 3 4 5 6 
#
# 1 70.6752 19.9643 9.8718 0.0000 -9.2750 0.0000
# 2 19.9643 79.7060 38.0815 0.0000 -1.9385 0.0000
# 3 9.8718 38.0815 94.8599 0.0000 9.8919 0.0000
# 4 0.0000 0.0000 0.0000 12.8615 0.0000 -13.5043
# 5 -9.2750 -1.9385 9.8919 0.0000 38.1193 0.0000
# 6 0.0000 0.0000 0.0000 -13.5043 0.0000 -7.5523
#
#
#
# Elastic Compliance Matrix: (Units=1/GPa)
#
#
# Indices 1 2 3 4 5 6 
#
# 1 0.015739 -0.003560 -0.000605 0.000000 0.003806 0.000000
# 2 -0.003560 0.016559 -0.006449 0.000000 0.001649 0.000000
# 3 -0.000605 -0.006449 0.013612 0.000000 -0.004007 0.000000
# 4 0.000000 0.000000 0.000000 0.027021 0.000000 -0.048316
# 5 0.003806 0.001649 -0.004007 0.000000 0.028283 0.000000
# 6 0.000000 0.000000 0.000000 -0.048316 0.000000 -0.046016
#
#
# Mechanical properties :
#
#
# Convention : Reuss Voigt Hill
#
# Bulk Modulus (GPa) = 40.51865 42.34182 41.43023
# Shear Modulus (GPa) = 59.06339 20.50725 39.78532
#
# Velocity S-wave (km/s) = 5.60532 3.30290 4.60048
# Velocity P-wave (km/s) = 7.96538 6.08850 7.08933
#
# Compressibility (1/GPa) = 0.02468000
#
# Stress axis : x y z
#
# Youngs Moduli (GPa) = 63.53658 60.38921 73.46575
#
# Poissons Ratio (x) = 0.21501 0.04448
# Poissons Ratio (y) = 0.22621 0.47379
# Poissons Ratio (z) = 0.03847 0.38946
#
# Static dielectric constant tensor:
#      x y z
#    x 1.714170 0.000000 0.010930 
#    y 0.000000 1.619910 0.000000 
#    z 0.010930 0.000000 1.726730 
# 
# From -- ./inp_files/24018.got.cif
#   From: 2010.05.17/outbox.cif.g08.bks.cpg/sg10_13_cif.got.tgz:24018.got - 2010.06.03 11:33:40.
