data_PCOD9148980
_publ_section_title
;
Structure prediction by ZEFSAII (Michael W. Deem and Ramdas Pophale) SiO2 
 PCOD9148980
Probable space group: P 2/M
;
_chemical_formula_sum "Si O2"
_cell_formula_units_Z 32
_cell_length_a 15.387781
_cell_length_b 8.771723
_cell_length_c 15.289614
_cell_angle_alpha 90.000000
_cell_angle_beta 79.085736
_cell_angle_gamma 90.000000
_cell_volume 2026.421667
_symmetry_space_group_name_H-M "P 2/M"
_symmetry_group_IT_number 10
_symmetry_cell_setting 'monoclinic'
loop_
_space_group_symop_operation_xyz
x,y,z
-x,y,-z
-x,-y,-z
x,-y,z
loop_
_atom_site_type_symbol
_atom_site_label
_atom_site_fract_x
_atom_site_fract_y
_atom_site_fract_z
Si Si1 0.563614 0.816846 0.116994
Si Si2 0.288930 0.682134 0.575434
Si Si3 0.894274 0.181975 0.433153
Si Si4 0.739739 0.318755 0.747124
Si Si5 0.431822 0.681379 0.695920
Si Si6 0.920079 0.317556 0.621222
Si Si7 0.367034 0.182819 0.082665
Si Si8 0.378529 0.181644 0.385105
O O1 0.587151 0.734163 0.201851
O O2 0.461702 0.782219 0.110335
O O3 0.568895 0.000000 0.127552
O O4 0.621974 0.775119 0.021173
O O5 0.278001 0.500000 0.570750
O O6 0.193272 0.760043 0.598143
O O7 0.351529 0.716665 0.645806
O O8 0.337124 0.742275 0.479017
O O9 0.892396 0.250613 0.531945
O O10 0.985450 0.244121 0.375004
O O11 0.896091 0.000000 0.438080
O O12 0.726898 0.500000 0.740326
O O13 0.841259 0.284140 0.703529
O O14 0.708538 0.264675 0.848030
O O15 0.677992 0.235610 0.687733
O O16 0.447566 0.500000 0.690382
O O17 0.520842 0.764934 0.647441
O O18 0.929496 0.500000 0.611311
O O19 0.355813 0.000000 0.089580
O O20 0.374131 0.000000 0.393362
#
# Coordination Sequence:
#
# PCOD9148980 Si02
#       8
#     4   4   4   4   4   4   4   4
#     4   9  18  33  51  73 101 133 169 209 254 299
#     4  11  23  38  52  70 101 138 174 212 254 300
#     4  11  21  33  52  76  99 129 172 214 250 299
#     4  11  21  32  51  77 104 136 170 204 250 305
#     4  11  23  36  52  73 100 136 176 213 251 299
#     4  10  20  34  52  72 103 137 164 206 258 303
#     4   9  18  32  51  74 102 134 166 207 256 300
#     4  12  23  34  50  72 102 137 175 214 247 292
#
# _framework density 15.791383
#
# number of rings (size 3 to 8) (size 9 to 14) (size 15 to 20)
#    0.000    1.500    2.500    5.625    0.000    5.500 
#    0.000    1.250    0.000    0.000    0.000    0.875 
#    0.000    7.000    0.000    0.000    0.000    0.000 
#
# Total GULP energy -178734.126487 kJ/mol
# GULP energy per Si atom -5585.441453 kJ/mol
# Density = 1.575544 g / cm^3
# Si number density = 15.791383 Si / 1000 Ang^3
#
#
#
# Elastic Constant Matrix: (Units=GPa)
#
#
# Indices 1 2 3 4 5 6 
#
# 1 110.7014 53.1467 56.0748 0.0000 -13.8550 0.0000
# 2 53.1467 70.4792 38.2811 0.0000 -7.9153 0.0000
# 3 56.0748 38.2811 71.3088 0.0000 -13.6478 0.0000
# 4 0.0000 0.0000 0.0000 24.8862 0.0000 -14.1194
# 5 -13.8550 -7.9153 -13.6478 0.0000 23.7191 0.0000
# 6 0.0000 0.0000 0.0000 -14.1194 0.0000 -11.6731
#
#
#
# Elastic Compliance Matrix: (Units=1/GPa)
#
#
# Indices 1 2 3 4 5 6 
#
# 1 0.017990 -0.008275 -0.009240 0.000000 0.002431 0.000000
# 2 -0.008275 0.023841 -0.006399 0.000000 -0.000559 0.000000
# 3 -0.009240 -0.006399 0.026164 0.000000 0.007522 0.000000
# 4 0.000000 0.000000 0.000000 0.023830 0.000000 -0.028823
# 5 0.002431 -0.000559 0.007522 0.000000 0.047722 0.000000
# 6 0.000000 0.000000 0.000000 -0.028823 0.000000 -0.050803
#
#
# Mechanical properties :
#
#
# Convention : Reuss Voigt Hill
#
# Bulk Modulus (GPa) = 49.58059 60.83275 55.20667
# Shear Modulus (GPa) = 34.89351 14.38557 24.63954
#
# Velocity S-wave (km/s) = 4.70580 3.02151 3.95437
# Velocity P-wave (km/s) = 7.80970 7.12594 7.47564
#
# Compressibility (1/GPa) = 0.02016919
#
# Stress axis : x y z
#
# Youngs Moduli (GPa) = 55.58537 41.94455 38.22030
#
# Poissons Ratio (x) = 0.34707 0.35314
# Poissons Ratio (y) = 0.45994 0.24457
# Poissons Ratio (z) = 0.51359 0.26840
#
# Static dielectric constant tensor:
#      x y z
#    x 1.518830 0.000000 -0.013110 
#    y 0.000000 1.528020 0.000000 
#    z -0.013110 0.000000 1.514980 
# 
# From -- ./inp_files/66053.got.cif
#   From: 2010.05.17/outbox.cif.g08.bks.cpg/sg10_34_cif.got.tgz:66053.got - 2010.06.03 11:33:40.
