data_PCOD9148807
_publ_section_title
;
Structure prediction by ZEFSAII (Michael W. Deem and Ramdas Pophale) SiO2 
 PCOD9148807
Probable space group: P 2/M
;
_chemical_formula_sum "Si O2"
_cell_formula_units_Z 24
_cell_length_a 9.216679
_cell_length_b 15.744849
_cell_length_c 12.331985
_cell_angle_alpha 90.000000
_cell_angle_beta 37.090676
_cell_angle_gamma 90.000000
_cell_volume 1079.243817
_symmetry_space_group_name_H-M "P 2/M"
_symmetry_group_IT_number 10
_symmetry_cell_setting 'monoclinic'
loop_
_space_group_symop_operation_xyz
x,y,z
-x,y,-z
-x,-y,-z
x,-y,z
loop_
_atom_site_type_symbol
_atom_site_label
_atom_site_fract_x
_atom_site_fract_y
_atom_site_fract_z
Si Si1 0.881347 0.315664 0.182286
Si Si2 0.787023 0.907691 0.458204
Si Si3 0.236268 0.125461 0.783803
Si Si4 0.642374 0.593715 0.802733
Si Si5 0.014965 0.276282 0.652035
Si Si6 0.550485 0.406052 0.618714
O O1 0.748004 0.226956 0.236860
O O2 0.051433 0.291436 0.181030
O O3 0.681845 0.387410 0.315288
O O4 0.000000 0.339683 0.000000
O O5 0.795493 0.906122 0.320907
O O6 0.503764 0.902435 0.660521
O O7 0.929486 0.821943 0.405829
O O8 0.881696 0.000000 0.437599
O O9 0.000000 0.106172 0.000000
O O10 0.766825 0.500000 0.726878
O O11 0.487530 0.596101 0.785549
O O12 0.820371 0.673816 0.698142
O O13 0.500000 0.596447 0.000000
O O14 0.258741 0.330689 0.503889
O O15 0.649325 0.500000 0.540401
#
# Coordination Sequence:
#
# PCOD9148807 Si02
#       6
#     4   4   4   4   4   4
#     4  10  20  34  54  84 119 149 185 228 288 344
#     4  10  20  33  53  83 115 151 195 239 286 343
#     4   9  17  32  54  81 116 154 191 236 287 339
#     4  10  22  40  62  85 109 146 197 240 284 347
#     4  11  21  37  57  83 116 151 186 240 291 339
#     4  11  22  36  57  83 111 149 190 231 284 345
#
# _framework density 22.23779
#
# number of rings (size 3 to 8) (size 9 to 14) (size 15 to 20)
#    0.000    1.833    1.667    3.500    0.000    5.000 
#    0.000    0.000    0.000    2.500    0.000    0.000 
#    0.000    0.000    0.000    0.000    0.000    0.000 
#
# Total GULP energy -133805.480052 kJ/mol
# GULP energy per Si atom -5575.228336 kJ/mol
# Density = 2.218718 g / cm^3
# Si number density = 22.237790 Si / 1000 Ang^3
#
#
#
# Elastic Constant Matrix: (Units=GPa)
#
#
# Indices 1 2 3 4 5 6 
#
# 1 80.1729 31.7233 6.2346 0.0000 1.2424 0.0000
# 2 31.7233 174.9617 36.9676 0.0000 -22.1770 0.0000
# 3 6.2346 36.9676 79.4895 0.0000 19.5948 0.0000
# 4 0.0000 0.0000 0.0000 -25.1955 0.0000 5.5748
# 5 1.2424 -22.1770 19.5948 0.0000 23.3590 0.0000
# 6 0.0000 0.0000 0.0000 5.5748 0.0000 8.3061
#
#
#
# Elastic Compliance Matrix: (Units=1/GPa)
#
#
# Indices 1 2 3 4 5 6 
#
# 1 0.013883 -0.003748 0.002160 0.000000 -0.006108 0.000000
# 2 -0.003748 0.010542 -0.008982 0.000000 0.017743 0.000000
# 3 0.002160 -0.008982 0.023598 0.000000 -0.028438 0.000000
# 4 0.000000 0.000000 0.000000 -0.034558 0.000000 0.023194
# 5 -0.006108 0.017743 -0.028438 0.000000 0.083835 0.000000
# 6 0.000000 0.000000 0.000000 0.023194 0.000000 0.104826
#
#
# Mechanical properties :
#
#
# Convention : Reuss Voigt Hill
#
# Bulk Modulus (GPa) = 37.19909 53.83056 45.51482
# Shear Modulus (GPa) = 21.53055 18.60716 20.06885
#
# Velocity S-wave (km/s) = 3.11496 2.89578 3.00737
# Velocity P-wave (km/s) = 5.44991 5.95315 5.70708
#
# Compressibility (1/GPa) = 0.02688238
#
# Stress axis : x y z
#
# Youngs Moduli (GPa) = 72.03235 94.85983 42.37558
#
# Poissons Ratio (x) = 0.35551 -0.09152
# Poissons Ratio (y) = 0.26996 0.38063
# Poissons Ratio (z) = -0.15557 0.85207
#
# Static dielectric constant tensor:
#      x y z
#    x 1.839450 0.000000 0.062880 
#    y 0.000000 1.852140 0.000000 
#    z 0.062880 0.000000 1.926700 
# 
# From -- ./inp_files/51686.got.cif
#   From: 2010.05.17/outbox.cif.g08.bks.cpg/sg10_26_cif.got.tgz:51686.got - 2010.06.03 11:33:40.
