data_PCOD9148981
_publ_section_title
;
Structure prediction by ZEFSAII (Michael W. Deem and Ramdas Pophale) SiO2 
 PCOD9148981
Probable space group: P 2/M
;
_chemical_formula_sum "Si O2"
_cell_formula_units_Z 20
_cell_length_a 13.164396
_cell_length_b 8.640212
_cell_length_c 10.607975
_cell_angle_alpha 90.000000
_cell_angle_beta 75.946966
_cell_angle_gamma 90.000000
_cell_volume 1170.473316
_symmetry_space_group_name_H-M "P 2/M"
_symmetry_group_IT_number 10
_symmetry_cell_setting 'monoclinic'
loop_
_space_group_symop_operation_xyz
x,y,z
-x,y,-z
-x,-y,-z
x,-y,z
loop_
_atom_site_type_symbol
_atom_site_label
_atom_site_fract_x
_atom_site_fract_y
_atom_site_fract_z
Si Si1 0.767529 0.682988 0.693053
Si Si2 0.785195 0.812298 0.404877
Si Si3 0.014098 0.820846 0.343403
Si Si4 0.430985 0.188477 0.641135
Si Si5 0.446069 0.812675 0.146591
O O1 0.759639 0.500000 0.684947
O O2 0.763233 0.755133 0.553470
O O3 0.880390 0.729078 0.715939
O O4 0.670509 0.749320 0.800239
O O5 0.688818 0.763665 0.346245
O O6 0.901707 0.761602 0.328699
O O7 0.788024 0.000000 0.409102
O O8 0.000000 0.818293 0.500000
O O9 0.028537 0.000000 0.301869
O O10 0.500000 0.237780 0.500000
O O11 0.484654 0.239076 0.754297
O O12 0.431835 0.000000 0.641325
O O13 0.441172 0.000000 0.150649
O O14 0.500000 0.765401 0.000000
#
# Coordination Sequence:
#
# PCOD9148981 Si02
#       5
#     4   4   4   4   4
#     4  11  20  29  45  69 100 130 159 196 238 284
#     4   9  16  29  49  72  97 125 158 197 242 283
#     4   8  15  27  45  68  94 124 159 198 238 281
#     4   9  15  27  51  75  96 121 154 200 243 279
#     4  10  20  34  52  72  95 127 164 197 235 286
#
# _framework density 17.087105999999999
#
# number of rings (size 3 to 8) (size 9 to 14) (size 15 to 20)
#    0.000    2.600    2.000    3.000    0.000    4.000 
#    0.000    2.000    0.000    1.200    0.000    8.400 
#    0.000    0.000    0.000    0.000    0.000    0.000 
#
# Total GULP energy -111442.033289 kJ/mol
# GULP energy per Si atom -5572.101664 kJ/mol
# Density = 1.704821 g / cm^3
# Si number density = 17.087106 Si / 1000 Ang^3
#
#
#
# Elastic Constant Matrix: (Units=GPa)
#
#
# Indices 1 2 3 4 5 6 
#
# 1 175.4901 26.4876 71.1641 0.0000 -22.7539 0.0000
# 2 26.4876 18.5988 19.9425 0.0000 -7.2928 0.0000
# 3 71.1641 19.9425 91.5281 0.0000 -10.9122 0.0000
# 4 0.0000 0.0000 0.0000 -2.4278 0.0000 6.1303
# 5 -22.7539 -7.2928 -10.9122 0.0000 22.2689 0.0000
# 6 0.0000 0.0000 0.0000 6.1303 0.0000 -8.2572
#
#
#
# Elastic Compliance Matrix: (Units=1/GPa)
#
#
# Indices 1 2 3 4 5 6 
#
# 1 0.009434 -0.005499 -0.005525 0.000000 0.005131 0.000000
# 2 -0.005499 0.079533 -0.011277 0.000000 0.014901 0.000000
# 3 -0.005525 -0.011277 0.017593 0.000000 -0.000718 0.000000
# 4 0.000000 0.000000 0.000000 0.470935 0.000000 0.349629
# 5 0.005131 0.014901 -0.000718 0.000000 0.054677 0.000000
# 6 0.000000 0.000000 0.000000 0.349629 0.000000 0.138463
#
#
# Mechanical properties :
#
#
# Convention : Reuss Voigt Hill
#
# Bulk Modulus (GPa) = 16.13997 57.86728 37.00362
# Shear Modulus (GPa) = 5.98164 13.51831 9.74997
#
# Velocity S-wave (km/s) = 1.87304 2.81577 2.39132
# Velocity P-wave (km/s) = 3.76084 6.67166 5.41548
#
# Compressibility (1/GPa) = 0.06195800
#
# Stress axis : x y z
#
# Youngs Moduli (GPa) = 105.99640 12.57335 56.84090
#
# Poissons Ratio (x) = 0.06915 0.31406
# Poissons Ratio (y) = 0.58292 0.64097
# Poissons Ratio (z) = 0.58566 0.14178
#
# Static dielectric constant tensor:
#      x y z
#    x 1.623760 0.000000 -0.002780 
#    y 0.000000 1.564150 0.000000 
#    z -0.002780 0.000000 1.544550 
# 
# From -- ./inp_files/31332.got.cif
#   From: 2010.05.17/outbox.cif.g08.bks.cpg/sg10_16_cif.got.tgz:31332.got - 2010.06.03 11:33:40.
