data_PCOD9148538
_publ_section_title
;
Structure prediction by ZEFSAII (Michael W. Deem and Ramdas Pophale) SiO2 
 PCOD9148538
Probable space group: P 2/M
;
_chemical_formula_sum "Si O2"
_cell_formula_units_Z 24
_cell_length_a 11.564644
_cell_length_b 16.455110
_cell_length_c 9.000913
_cell_angle_alpha 90.000000
_cell_angle_beta 134.276590
_cell_angle_gamma 90.000000
_cell_volume 1226.363794
_symmetry_space_group_name_H-M "P 2/M"
_symmetry_group_IT_number 10
_symmetry_cell_setting 'monoclinic'
loop_
_space_group_symop_operation_xyz
x,y,z
-x,y,-z
-x,-y,-z
x,-y,z
loop_
_atom_site_type_symbol
_atom_site_label
_atom_site_fract_x
_atom_site_fract_y
_atom_site_fract_z
Si Si1 0.807176 0.000000 0.340594
Si Si2 0.680992 0.697988 0.886407
Si Si3 0.378507 0.409975 0.683185
Si Si4 0.816418 0.591496 0.778795
Si Si5 0.452271 0.000000 0.636576
Si Si6 0.857960 0.407129 0.267740
Si Si7 0.624087 0.863906 0.986006
O O1 0.725934 0.000000 0.435717
O O2 0.000000 0.000000 0.500000
O O3 0.740857 0.078130 0.188459
O O4 0.507591 0.659551 0.770379
O O5 0.716893 0.667897 0.753025
O O6 0.692631 0.789601 0.952450
O O7 0.819300 0.648967 0.097235
O O8 0.453264 0.500000 0.728227
O O9 0.226179 0.406061 0.433698
O O10 0.303694 0.406776 0.778632
O O11 0.759680 0.500000 0.775799
O O12 0.000000 0.596760 0.000000
O O13 0.500000 0.000000 0.500000
O O14 0.535177 0.077928 0.787946
O O15 0.894914 0.500000 0.257867
O O16 0.000000 0.376734 0.500000
O O17 0.500000 0.831294 0.000000
#
# Coordination Sequence:
#
# PCOD9148538 Si02
#       7
#     2   4   4   4   2   4   4
#     4   9  19  41  68  88 112 151 191 227 280 354
#     4  12  21  33  54  80 107 139 185 235 275 326
#     4  10  20  33  50  73 101 139 187 230 271 322
#     4  10  21  37  53  72 108 156 196 235 288 337
#     4   9  19  39  64  88 114 149 187 225 282 352
#     4  10  20  33  49  71 102 140 181 226 275 323
#     4   9  20  38  58  83 116 148 178 220 288 359
#
# _framework density 19.570049999999998
#
# number of rings (size 3 to 8) (size 9 to 14) (size 15 to 20)
#    0.000    2.000    0.000    5.500    0.000    7.333 
#    0.000    6.667    0.000    0.000    0.000    0.000 
#    0.000    0.000    0.000    0.000    0.000    0.000 
#
# Total GULP energy -133716.885578 kJ/mol
# GULP energy per Si atom -5571.536899 kJ/mol
# Density = 1.952551 g / cm^3
# Si number density = 19.570050 Si / 1000 Ang^3
#
#
#
# Elastic Constant Matrix: (Units=GPa)
#
#
# Indices 1 2 3 4 5 6 
#
# 1 94.7268 34.7186 23.4133 0.0000 -11.8346 0.0000
# 2 34.7186 81.2335 13.3166 0.0000 -8.7568 0.0000
# 3 23.4133 13.3166 76.6962 0.0000 -3.5330 0.0000
# 4 0.0000 0.0000 0.0000 5.8659 0.0000 -11.5366
# 5 -11.8346 -8.7568 -3.5330 0.0000 38.9723 0.0000
# 6 0.0000 0.0000 0.0000 -11.5366 0.0000 -6.2887
#
#
#
# Elastic Compliance Matrix: (Units=1/GPa)
#
#
# Indices 1 2 3 4 5 6 
#
# 1 0.013485 -0.004959 -0.003131 0.000000 0.002697 0.000000
# 2 -0.004959 0.014775 -0.000972 0.000000 0.001726 0.000000
# 3 -0.003131 -0.000972 0.014168 0.000000 0.000115 0.000000
# 4 0.000000 0.000000 0.000000 0.036996 0.000000 -0.067869
# 5 0.002697 0.001726 0.000115 0.000000 0.026876 0.000000
# 6 0.000000 0.000000 0.000000 -0.067869 0.000000 -0.034509
#
#
# Mechanical properties :
#
#
# Convention : Reuss Voigt Hill
#
# Bulk Modulus (GPa) = 41.14645 43.95038 42.54841
# Shear Modulus (GPa) = 51.01055 19.79044 35.40050
#
# Velocity S-wave (km/s) = 5.11099 3.18348 4.25774
# Velocity P-wave (km/s) = 7.47666 6.00162 6.77938
#
# Compressibility (1/GPa) = 0.02430343
#
# Stress axis : x y z
#
# Youngs Moduli (GPa) = 74.15498 67.68107 70.57949
#
# Poissons Ratio (x) = 0.33566 0.22101
# Poissons Ratio (y) = 0.36777 0.06860
# Poissons Ratio (z) = 0.23221 0.06578
#
# Static dielectric constant tensor:
#      x y z
#    x 1.764940 0.000000 -0.017870 
#    y 0.000000 1.684450 0.000000 
#    z -0.017870 0.000000 1.697430 
# 
# From -- ./inp_files/25754.got.cif
#   From: 2010.05.17/outbox.cif.g08.bks.cpg/sg10_13_cif.got.tgz:25754.got - 2010.06.03 11:33:40.
