data_PCOD9148628
_publ_section_title
;
Structure prediction by ZEFSAII (Michael W. Deem and Ramdas Pophale) SiO2 
 PCOD9148628
Probable space group: P 2/M
;
_chemical_formula_sum "Si O2"
_cell_formula_units_Z 32
_cell_length_a 29.845974
_cell_length_b 9.895969
_cell_length_c 5.368873
_cell_angle_alpha 90.000000
_cell_angle_beta 89.118036
_cell_angle_gamma 90.000000
_cell_volume 1585.534726
_symmetry_space_group_name_H-M "P 2/M"
_symmetry_group_IT_number 10
_symmetry_cell_setting 'monoclinic'
loop_
_space_group_symop_operation_xyz
x,y,z
-x,y,-z
-x,-y,-z
x,-y,z
loop_
_atom_site_type_symbol
_atom_site_label
_atom_site_fract_x
_atom_site_fract_y
_atom_site_fract_z
Si Si1 0.272976 0.150512 0.942599
Si Si2 0.949081 0.164842 0.563048
Si Si3 0.817720 0.149556 0.754388
Si Si4 0.098946 0.837354 0.930136
Si Si5 0.449081 0.335158 0.063039
Si Si6 0.317719 0.649556 0.254383
Si Si7 0.772977 0.349488 0.442604
Si Si8 0.598946 0.337354 0.430145
O O1 0.250000 0.250000 0.749997
O O2 0.283503 0.000000 0.846246
O O3 0.232970 0.134121 0.146638
O O4 0.314578 0.229887 0.058509
O O5 0.931754 0.209971 0.835135
O O6 0.000000 0.204549 0.500000
O O7 0.948232 0.000000 0.569264
O O8 0.917482 0.211152 0.337303
O O9 0.850477 0.185661 0.979035
O O10 0.814578 0.270113 0.558514
O O11 0.832034 0.000000 0.654280
O O12 0.094234 0.000000 0.918847
O O13 0.448231 0.500000 0.069253
O O14 0.417482 0.288848 0.837291
O O15 0.500000 0.295452 0.000000
O O16 0.431753 0.290030 0.335124
O O17 0.332033 0.500000 0.154275
O O18 0.267029 0.634121 0.353357
O O19 0.350476 0.685660 0.479031
O O20 0.783504 0.500000 0.346250
O O21 0.594235 0.500000 0.418857
#
# Coordination Sequence:
#
# PCOD9148628 Si02
#       8
#     4   4   4   4   4   4   4   4
#     4  10  20  33  51  72 100 135 171 213 259 304
#     4   9  16  26  41  65  98 133 164 200 252 310
#     4   9  19  33  49  71  99 135 174 211 255 306
#     4   9  17  27  44  67  96 132 168 205 250 306
#     4   9  16  26  41  65  98 133 164 200 252 310
#     4   9  19  33  49  71  99 135 174 211 255 306
#     4  10  20  33  51  72 100 135 171 213 259 304
#     4   9  17  27  44  67  96 132 168 205 250 306
#
# _framework density 20.182464
#
# number of rings (size 3 to 8) (size 9 to 14) (size 15 to 20)
#    0.000    2.750    0.000    1.500    3.500    4.000 
#    0.000    0.000    0.000    0.000    0.000    0.000 
#    0.000    6.000    0.000    0.000    0.000    0.000 
#
# Total GULP energy -178240.326903 kJ/mol
# GULP energy per Si atom -5570.010216 kJ/mol
# Density = 2.013653 g / cm^3
# Si number density = 20.182464 Si / 1000 Ang^3
#
#
#
# Elastic Constant Matrix: (Units=GPa)
#
#
# Indices 1 2 3 4 5 6 
#
# 1 75.4827 6.7992 6.1187 0.0000 9.6616 0.0000
# 2 6.7992 93.1055 25.5927 0.0000 19.6600 0.0000
# 3 6.1187 25.5927 64.9175 0.0000 13.6336 0.0000
# 4 0.0000 0.0000 0.0000 16.8000 0.0000 9.8540
# 5 9.6616 19.6600 13.6336 0.0000 34.9513 0.0000
# 6 0.0000 0.0000 0.0000 9.8540 0.0000 10.4671
#
#
#
# Elastic Compliance Matrix: (Units=1/GPa)
#
#
# Indices 1 2 3 4 5 6 
#
# 1 0.013753 -0.000118 -0.000507 0.000000 -0.003538 0.000000
# 2 -0.000118 0.013046 -0.003919 0.000000 -0.005777 0.000000
# 3 -0.000507 -0.003919 0.017977 0.000000 -0.004668 0.000000
# 4 0.000000 0.000000 0.000000 0.132924 0.000000 -0.125138
# 5 -0.003538 -0.005777 -0.004668 0.000000 0.034660 0.000000
# 6 0.000000 0.000000 0.000000 -0.125138 0.000000 0.213346
#
#
# Mechanical properties :
#
#
# Convention : Reuss Voigt Hill
#
# Bulk Modulus (GPa) = 28.02002 34.50299 31.26150
# Shear Modulus (GPa) = 11.19345 25.44335 18.31840
#
# Velocity S-wave (km/s) = 2.35758 3.55444 3.01597
# Velocity P-wave (km/s) = 4.61783 5.82907 5.25844
#
# Compressibility (1/GPa) = 0.03568877
#
# Stress axis : x y z
#
# Youngs Moduli (GPa) = 72.71365 76.65047 55.62594
#
# Poissons Ratio (x) = 0.00905 0.02819
# Poissons Ratio (y) = 0.00858 0.21799
# Poissons Ratio (z) = 0.03685 0.30038
#
# Static dielectric constant tensor:
#      x y z
#    x 1.744390 0.000000 -0.030810 
#    y 0.000000 1.776130 0.000000 
#    z -0.030810 0.000000 1.783500 
# 
# From -- ./inp_files/13645.got.cif
#   From: 2010.05.17/outbox.cif.g08.bks.cpg/sg10_7_cif.got.tgz:13645.got - 2010.06.03 11:33:40.
