data_PCOD9148196
_publ_section_title
;
Structure prediction by ZEFSAII (Michael W. Deem and Ramdas Pophale) SiO2 
 PCOD9148196
Probable space group: P 2/M
;
_chemical_formula_sum "Si O2"
_cell_formula_units_Z 28
_cell_length_a 13.040122
_cell_length_b 8.043987
_cell_length_c 12.209303
_cell_angle_alpha 90.000000
_cell_angle_beta 69.580504
_cell_angle_gamma 90.000000
_cell_volume 1200.215336
_symmetry_space_group_name_H-M "P 2/M"
_symmetry_group_IT_number 10
_symmetry_cell_setting 'monoclinic'
loop_
_space_group_symop_operation_xyz
x,y,z
-x,y,-z
-x,-y,-z
x,-y,z
loop_
_atom_site_type_symbol
_atom_site_label
_atom_site_fract_x
_atom_site_fract_y
_atom_site_fract_z
Si Si1 0.532291 0.500000 0.355714
Si Si2 0.083891 0.698278 0.876351
Si Si3 0.200571 0.195795 0.511429
Si Si4 0.022545 0.690026 0.321665
Si Si5 0.625715 0.186531 0.989474
Si Si6 0.256940 0.189004 0.268635
Si Si7 0.691098 0.187907 0.290656
Si Si8 0.450810 0.500000 0.891170
O O1 0.500000 0.500000 0.500000
O O2 0.602691 0.331829 0.318962
O O3 0.479382 0.500000 0.248394
O O4 0.102779 0.500000 0.884339
O O5 0.201160 0.784898 0.824105
O O6 0.023031 0.720204 0.783161
O O7 0.000000 0.757188 0.000000
O O8 0.272646 0.261818 0.383738
O O9 0.261256 0.206702 0.603494
O O10 0.083615 0.283226 0.563809
O O11 0.180185 0.000000 0.499443
O O12 0.060581 0.500000 0.316165
O O13 0.126045 0.804515 0.304576
O O14 0.620912 0.331270 0.080302
O O15 0.666359 0.000000 0.004041
O O16 0.500000 0.164921 0.000000
O O17 0.690733 0.258488 0.860572
O O18 0.299920 0.000000 0.254208
O O19 0.648416 0.000000 0.291731
O O20 0.500000 0.500000 0.000000
#
# Coordination Sequence:
#
# PCOD9148196 Si02
#       8
#     2   4   4   4   4   4   4   2
#     4  12  28  48  71 101 135 170 219 279 331 390
#     4   9  18  36  60  85 122 171 215 263 323 390
#     4   9  19  36  58  83 120 168 211 258 317 385
#     4  10  20  31  48  82 122 159 205 260 317 382
#     4   9  20  40  64  90 124 164 210 262 317 382
#     4  10  20  34  54  85 123 165 211 263 322 385
#     4  10  22  42  66  95 130 170 219 271 327 391
#     4  10  24  46  70  97 127 164 207 259 326 386
#
# _framework density 23.329146999999999
#
# number of rings (size 3 to 8) (size 9 to 14) (size 15 to 20)
#    0.000    2.286    0.714    0.857    2.000    7.429 
#    0.000    2.857    0.000    0.000    0.000    0.000 
#    0.000    0.000    0.000    0.000    0.000    0.000 
#
# Total GULP energy -156140.970504 kJ/mol
# GULP energy per Si atom -5576.463232 kJ/mol
# Density = 2.327605 g / cm^3
# Si number density = 23.329147 Si / 1000 Ang^3
#
#
#
# Elastic Constant Matrix: (Units=GPa)
#
#
# Indices 1 2 3 4 5 6 
#
# 1 30.6259 21.3454 27.9564 0.0000 5.1828 0.0000
# 2 21.3454 81.7120 41.3139 0.0000 4.7278 0.0000
# 3 27.9564 41.3139 197.2542 0.0000 -6.5957 0.0000
# 4 0.0000 0.0000 0.0000 30.8600 0.0000 -11.8732
# 5 5.1828 4.7278 -6.5957 0.0000 23.9828 0.0000
# 6 0.0000 0.0000 0.0000 -11.8732 0.0000 -4.0493
#
#
#
# Elastic Compliance Matrix: (Units=1/GPa)
#
#
# Indices 1 2 3 4 5 6 
#
# 1 0.044684 -0.008699 -0.004821 0.000000 -0.009267 0.000000
# 2 -0.008699 0.015682 -0.002112 0.000000 -0.001792 0.000000
# 3 -0.004821 -0.002112 0.006302 0.000000 0.003191 0.000000
# 4 0.000000 0.000000 0.000000 0.015227 0.000000 -0.044647
# 5 -0.009267 -0.001792 0.003191 0.000000 0.044930 0.000000
# 6 0.000000 0.000000 0.000000 -0.044647 0.000000 -0.116044
#
#
# Mechanical properties :
#
#
# Convention : Reuss Voigt Hill
#
# Bulk Modulus (GPa) = 28.24469 54.53596 41.39032
# Shear Modulus (GPa) = 92.85813 24.75712 58.80762
#
# Velocity S-wave (km/s) = 6.31584 3.26116 5.02618
# Velocity P-wave (km/s) = 8.08207 6.13251 7.17382
#
# Compressibility (1/GPa) = 0.03540489
#
# Stress axis : x y z
#
# Youngs Moduli (GPa) = 22.37928 63.76818 158.68472
#
# Poissons Ratio (x) = 0.55472 0.76500
# Poissons Ratio (y) = 0.19468 0.33506
# Poissons Ratio (z) = 0.10789 0.13465
#
# Static dielectric constant tensor:
#      x y z
#    x 1.855780 0.000000 0.053570 
#    y 0.000000 1.871470 0.000000 
#    z 0.053570 0.000000 1.978060 
# 
# From -- ./inp_files/49664.got.cif
#   From: 2010.05.17/outbox.cif.g08.bks.cpg/sg10_25_cif.got.tgz:49664.got - 2010.06.03 11:33:40.
