data_PCOD9148793
_publ_section_title
;
Structure prediction by ZEFSAII (Michael W. Deem and Ramdas Pophale) SiO2 
 PCOD9148793
Probable space group: P 2/M
;
_chemical_formula_sum "Si O2"
_cell_formula_units_Z 28
_cell_length_a 18.833816
_cell_length_b 9.557341
_cell_length_c 10.259494
_cell_angle_alpha 90.000000
_cell_angle_beta 44.099139
_cell_angle_gamma 90.000000
_cell_volume 1285.137021
_symmetry_space_group_name_H-M "P 2/M"
_symmetry_group_IT_number 10
_symmetry_cell_setting 'monoclinic'
loop_
_space_group_symop_operation_xyz
x,y,z
-x,y,-z
-x,-y,-z
x,-y,z
loop_
_atom_site_type_symbol
_atom_site_label
_atom_site_fract_x
_atom_site_fract_y
_atom_site_fract_z
Si Si1 0.720337 0.837846 0.008074
Si Si2 0.475329 0.338229 0.684103
Si Si3 0.005031 0.656848 0.821450
Si Si4 0.897517 0.657307 0.689713
Si Si5 0.167518 0.844507 0.863559
Si Si6 0.598760 0.337108 0.780655
Si Si7 0.792694 0.161824 0.480924
O O1 0.612210 0.763878 0.151041
O O2 0.762573 0.827788 0.101622
O O3 0.715889 0.000000 0.978493
O O4 0.799355 0.753013 0.814713
O O5 0.500000 0.306970 0.500000
O O6 0.438593 0.500000 0.735329
O O7 0.564784 0.329231 0.673175
O O8 0.039045 0.500000 0.812741
O O9 0.101445 0.751233 0.651118
O O10 0.930842 0.641433 0.794656
O O11 0.922528 0.732000 0.023406
O O12 0.883257 0.500000 0.652071
O O13 0.000000 0.725457 0.500000
O O14 0.227068 0.839676 0.649712
O O15 0.119655 0.000000 0.937597
O O16 0.624023 0.500000 0.775812
O O17 0.696630 0.239381 0.671344
O O18 0.500000 0.301334 0.000000
O O19 0.804707 0.000000 0.506771
#
# Coordination Sequence:
#
# PCOD9148793 Si02
#       7
#     4   4   4   4   4   4   4
#     4  10  20  34  55  82 111 141 176 225 279 328
#     4  10  21  38  61  86 110 141 185 234 279 326
#     4  10  20  33  53  81 109 140 180 223 268 323
#     4   9  19  36  55  75 104 143 183 221 264 321
#     4   9  19  35  53  79 114 146 176 216 271 329
#     4  10  23  42  60  80 110 147 187 232 279 328
#     4  11  22  36  56  79 108 146 182 221 271 328
#
# _framework density 21.787559999999999
#
# number of rings (size 3 to 8) (size 9 to 14) (size 15 to 20)
#    0.000    2.143    0.000    2.571    0.000    6.571 
#    0.000    5.714    0.000    0.000    0.000    0.000 
#    0.000    0.000    0.000    0.000    0.000    0.000 
#
# Total GULP energy -156274.156845 kJ/mol
# GULP energy per Si atom -5581.219887 kJ/mol
# Density = 2.173797 g / cm^3
# Si number density = 21.787560 Si / 1000 Ang^3
#
#
#
# Elastic Constant Matrix: (Units=GPa)
#
#
# Indices 1 2 3 4 5 6 
#
# 1 50.6677 31.4595 10.3965 0.0000 -1.2645 0.0000
# 2 31.4595 151.0898 74.8191 0.0000 -44.4275 0.0000
# 3 10.3965 74.8191 101.8249 0.0000 -23.1560 0.0000
# 4 0.0000 0.0000 0.0000 52.0137 0.0000 4.0559
# 5 -1.2645 -44.4275 -23.1560 0.0000 34.4340 0.0000
# 6 0.0000 0.0000 0.0000 4.0559 0.0000 23.3877
#
#
#
# Elastic Compliance Matrix: (Units=1/GPa)
#
#
# Indices 1 2 3 4 5 6 
#
# 1 0.024519 -0.008662 0.001800 0.000000 -0.009066 0.000000
# 2 -0.008662 0.017275 -0.008042 0.000000 0.016562 0.000000
# 3 0.001800 -0.008042 0.015585 0.000000 0.000170 0.000000
# 4 0.000000 0.000000 0.000000 0.019489 0.000000 -0.003380
# 5 -0.009066 0.016562 0.000170 0.000000 0.050191 0.000000
# 6 0.000000 0.000000 0.000000 -0.003380 0.000000 0.043344
#
#
# Mechanical properties :
#
#
# Convention : Reuss Voigt Hill
#
# Bulk Modulus (GPa) = 36.27198 59.65917 47.96558
# Shear Modulus (GPa) = 23.87741 34.42756 29.15248
#
# Velocity S-wave (km/s) = 3.31406 3.97942 3.66188
# Velocity P-wave (km/s) = 5.59716 6.96822 6.31998
#
# Compressibility (1/GPa) = 0.02756949
#
# Stress axis : x y z
#
# Youngs Moduli (GPa) = 40.78413 57.88784 64.16361
#
# Poissons Ratio (x) = 0.50145 -0.11549
# Poissons Ratio (y) = 0.35329 0.51603
# Poissons Ratio (z) = -0.07341 0.46556
#
# Static dielectric constant tensor:
#      x y z
#    x 1.865020 0.000000 0.085920 
#    y 0.000000 1.787660 0.000000 
#    z 0.085920 0.000000 1.804310 
# 
# From -- ./inp_files/55124.got.cif
#   From: 2010.05.17/outbox.cif.g08.bks.cpg/sg10_28_cif.got.tgz:55124.got - 2010.06.03 11:33:40.
