data_PCOD9148588
_publ_section_title
;
Structure prediction by ZEFSAII (Michael W. Deem and Ramdas Pophale) SiO2 
 PCOD9148588
Probable space group: P 2/M
;
_chemical_formula_sum "Si O2"
_cell_formula_units_Z 20
_cell_length_a 25.071687
_cell_length_b 9.266711
_cell_length_c 9.474653
_cell_angle_alpha 90.000000
_cell_angle_beta 29.745060
_cell_angle_gamma 90.000000
_cell_volume 1092.139647
_symmetry_space_group_name_H-M "P 2/M"
_symmetry_group_IT_number 10
_symmetry_cell_setting 'monoclinic'
loop_
_space_group_symop_operation_xyz
x,y,z
-x,y,-z
-x,-y,-z
x,-y,z
loop_
_atom_site_type_symbol
_atom_site_label
_atom_site_fract_x
_atom_site_fract_y
_atom_site_fract_z
Si Si1 0.445543 0.668222 0.851679
Si Si2 0.324006 0.167748 0.365267
Si Si3 0.890058 0.829858 0.327592
Si Si4 0.663244 0.171128 0.332201
Si Si5 0.769484 0.668760 0.843787
O O1 0.474906 0.500000 0.793276
O O2 0.547029 0.759682 0.568168
O O3 0.405621 0.731077 0.092989
O O4 0.343390 0.681861 0.982870
O O5 0.208429 0.184658 0.556204
O O6 0.317116 0.197165 0.546789
O O7 0.357882 0.000000 0.268676
O O8 0.858116 0.740479 0.539225
O O9 0.899028 0.000000 0.342883
O O10 0.000000 0.783912 0.000000
O O11 0.662007 0.000000 0.309746
O O12 0.750318 0.247012 0.032785
O O13 0.790320 0.500000 0.818650
#
# Coordination Sequence:
#
# PCOD9148588 Si02
#       5
#     4   4   4   4   4
#     4  10  20  33  50  73 102 137 172 203 240 290
#     4   9  19  34  51  75 103 130 166 207 246 293
#     4   9  18  36  60  78  94 124 166 209 252 298
#     4  11  21  32  49  74 105 137 166 202 246 291
#     4  10  21  35  51  74 103 133 167 206 246 292
#
# _framework density 18.312676
#
# number of rings (size 3 to 8) (size 9 to 14) (size 15 to 20)
#    0.000    2.200    0.000    3.000    0.000    9.200 
#    0.000    1.000    0.000    6.000    0.000    0.000 
#    0.000    0.000    0.000    0.000    0.000    0.000 
#
# Total GULP energy -111697.916734 kJ/mol
# GULP energy per Si atom -5584.895837 kJ/mol
# Density = 1.827100 g / cm^3
# Si number density = 18.312676 Si / 1000 Ang^3
#
#
#
# Elastic Constant Matrix: (Units=GPa)
#
#
# Indices 1 2 3 4 5 6 
#
# 1 22.1952 27.7916 17.5916 0.0000 18.2945 0.0000
# 2 27.7916 90.6431 72.0230 0.0000 25.1137 0.0000
# 3 17.5916 72.0230 141.9131 0.0000 20.3084 0.0000
# 4 0.0000 0.0000 0.0000 -79.3050 0.0000 -78.3634
# 5 18.2945 25.1137 20.3084 0.0000 27.2519 0.0000
# 6 0.0000 0.0000 0.0000 -78.3634 0.0000 -43.9688
#
#
#
# Elastic Compliance Matrix: (Units=1/GPa)
#
#
# Indices 1 2 3 4 5 6 
#
# 1 0.126823 -0.026071 0.007003 0.000000 -0.066331 0.000000
# 2 -0.026071 0.027540 -0.010766 0.000000 0.000146 0.000000
# 3 0.007003 -0.010766 0.012196 0.000000 -0.003868 0.000000
# 4 0.000000 0.000000 0.000000 0.016568 0.000000 -0.029528
# 5 -0.066331 0.000146 -0.003868 0.000000 0.083972 0.000000
# 6 0.000000 0.000000 0.000000 -0.029528 0.000000 0.029883
#
#
# Mechanical properties :
#
#
# Convention : Reuss Voigt Hill
#
# Bulk Modulus (GPa) = 9.35542 54.39599 31.87571
# Shear Modulus (GPa) = 12.74601 -10.04804 1.34899
#
# Velocity S-wave (km/s) = 2.64108 -2.34496 0.85921
# Velocity P-wave (km/s) = 3.79740 4.73674 4.29284
#
# Compressibility (1/GPa) = 0.10688996
#
# Stress axis : x y z
#
# Youngs Moduli (GPa) = 7.88501 36.31104 81.99440
#
# Poissons Ratio (x) = 0.94667 -0.57418
# Poissons Ratio (y) = 0.20557 0.88275
# Poissons Ratio (z) = -0.05522 0.39092
#
# Static dielectric constant tensor:
#      x y z
#    x 1.634480 0.000000 0.004560 
#    y 0.000000 1.613310 0.000000 
#    z 0.004560 0.000000 1.611700 
# 
# From -- ./inp_files/22104.got.cif
#   From: 2010.05.17/outbox.cif.g08.bks.cpg/sg10_12_cif.got.tgz:22104.got - 2010.06.03 11:33:40.
