data_PCOD9148719
_publ_section_title
;
Structure prediction by ZEFSAII (Michael W. Deem and Ramdas Pophale) SiO2 
 PCOD9148719
Probable space group: P 2/M
;
_chemical_formula_sum "Si O2"
_cell_formula_units_Z 28
_cell_length_a 7.430942
_cell_length_b 13.879727
_cell_length_c 18.375663
_cell_angle_alpha 90.000000
_cell_angle_beta 38.262390
_cell_angle_gamma 90.000000
_cell_volume 1173.663169
_symmetry_space_group_name_H-M "P 2/M"
_symmetry_group_IT_number 10
_symmetry_cell_setting 'monoclinic'
loop_
_space_group_symop_operation_xyz
x,y,z
-x,y,-z
-x,-y,-z
x,-y,z
loop_
_atom_site_type_symbol
_atom_site_label
_atom_site_fract_x
_atom_site_fract_y
_atom_site_fract_z
Si Si1 0.102324 0.392037 0.275905
Si Si2 0.390672 0.696096 0.958627
Si Si3 0.179688 0.894298 0.876961
Si Si4 0.462345 0.215797 0.341559
Si Si5 0.835509 0.388896 0.197225
Si Si6 0.698156 0.106295 0.821148
Si Si7 0.085433 0.794092 0.591146
O O1 0.090646 0.500000 0.307306
O O2 0.435337 0.354970 0.161633
O O3 0.972553 0.389061 0.235345
O O4 0.926812 0.315778 0.378554
O O5 0.533266 0.804448 0.913206
O O6 0.500000 0.651515 0.000000
O O7 0.052679 0.669018 0.073623
O O8 0.256385 0.841907 0.778146
O O9 0.484492 0.906117 0.820338
O O10 0.045937 0.000000 0.906435
O O11 0.000000 0.845973 0.000000
O O12 0.545947 0.326523 0.300697
O O13 0.371664 0.190214 0.452336
O O14 0.182702 0.194656 0.380410
O O15 0.801195 0.500000 0.185700
O O16 0.997027 0.142563 0.689481
O O17 0.720640 0.000000 0.849220
#
# Coordination Sequence:
#
# PCOD9148719 Si02
#       7
#     4   4   4   4   4   4   4
#     4   9  18  34  54  73  98 134 170 206 252 303
#     4   9  17  31  51  76 104 133 164 205 255 303
#     4   9  17  30  50  74  99 128 161 202 253 304
#     4  10  20  34  51  74 103 133 168 211 252 293
#     4  10  20  33  52  77 102 132 172 212 250 299
#     4   9  17  30  50  74  99 131 170 206 244 299
#     4   9  20  35  50  71 102 137 170 208 253 294
#
# _framework density 23.856929000000001
#
# number of rings (size 3 to 8) (size 9 to 14) (size 15 to 20)
#    0.000    2.714    0.000    1.286    0.000    4.286 
#    0.000    5.714    0.000   12.429    0.000   10.000 
#    0.000    0.000    0.000    0.000    0.000    0.000 
#
# Total GULP energy -156009.026656 kJ/mol
# GULP energy per Si atom -5571.750952 kJ/mol
# Density = 2.380263 g / cm^3
# Si number density = 23.856929 Si / 1000 Ang^3
#
#
#
# Elastic Constant Matrix: (Units=GPa)
#
#
# Indices 1 2 3 4 5 6 
#
# 1 32.8349 -6.6720 21.1047 0.0000 5.2941 0.0000
# 2 -6.6720 92.7310 64.9201 0.0000 17.3018 0.0000
# 3 21.1047 64.9201 166.5550 0.0000 14.8726 0.0000
# 4 0.0000 0.0000 0.0000 -2.3701 0.0000 -23.6851
# 5 5.2941 17.3018 14.8726 0.0000 32.2299 0.0000
# 6 0.0000 0.0000 0.0000 -23.6851 0.0000 -37.7902
#
#
#
# Elastic Compliance Matrix: (Units=1/GPa)
#
#
# Indices 1 2 3 4 5 6 
#
# 1 0.038994 0.009984 -0.008117 0.000000 -0.008020 0.000000
# 2 0.009984 0.018394 -0.007725 0.000000 -0.007950 0.000000
# 3 -0.008117 -0.007725 0.009965 0.000000 0.000882 0.000000
# 4 0.000000 0.000000 0.000000 0.080163 0.000000 -0.050242
# 5 -0.008020 -0.007950 0.000882 0.000000 0.036205 0.000000
# 6 0.000000 0.000000 0.000000 -0.050242 0.000000 0.005028
#
#
# Mechanical properties :
#
#
# Convention : Reuss Voigt Hill
#
# Bulk Modulus (GPa) = 17.97323 50.09184 34.03253
# Shear Modulus (GPa) = 22.83024 12.59847 17.71435
#
# Velocity S-wave (km/s) = 3.09684 2.30050 2.72789
# Velocity P-wave (km/s) = 4.50969 5.30083 4.92118
#
# Compressibility (1/GPa) = 0.05563830
#
# Stress axis : x y z
#
# Youngs Moduli (GPa) = 25.64484 54.36698 100.35387
#
# Poissons Ratio (x) = -0.54282 0.81454
# Poissons Ratio (y) = -0.25605 0.77521
# Poissons Ratio (z) = 0.20815 0.41997
#
# Static dielectric constant tensor:
#      x y z
#    x 1.983590 0.000000 -0.054180 
#    y 0.000000 1.954400 0.000000 
#    z -0.054180 0.000000 1.933180 
# 
# From -- ./inp_files/82908.got.cif
#   From: 2010.05.17/outbox.cif.g08.bks.cpg/sg10_42_cif.got.tgz:82908.got - 2010.06.03 11:33:40.
