data_PCOD9148649
_publ_section_title
;
Structure prediction by ZEFSAII (Michael W. Deem and Ramdas Pophale) SiO2 
 PCOD9148649
Probable space group: P 2/M
;
_chemical_formula_sum "Si O2"
_cell_formula_units_Z 28
_cell_length_a 9.623339
_cell_length_b 8.913684
_cell_length_c 26.086949
_cell_angle_alpha 90.000000
_cell_angle_beta 40.825431
_cell_angle_gamma 90.000000
_cell_volume 1462.925976
_symmetry_space_group_name_H-M "P 2/M"
_symmetry_group_IT_number 10
_symmetry_cell_setting 'monoclinic'
loop_
_space_group_symop_operation_xyz
x,y,z
-x,y,-z
-x,-y,-z
x,-y,z
loop_
_atom_site_type_symbol
_atom_site_label
_atom_site_fract_x
_atom_site_fract_y
_atom_site_fract_z
Si Si1 0.069658 0.178374 0.423109
Si Si2 0.150275 0.820926 0.234000
Si Si3 0.271588 0.180283 0.083731
Si Si4 0.403606 0.680298 0.257293
Si Si5 0.340881 0.323376 0.496782
Si Si6 0.276501 0.676726 0.676062
Si Si7 0.847453 0.323207 0.170919
O O1 0.274356 0.259042 0.342485
O O2 0.000000 0.224623 0.500000
O O3 0.869623 0.225505 0.443770
O O4 0.101984 0.000000 0.413438
O O5 0.235869 0.778229 0.153344
O O6 0.285343 0.742798 0.240463
O O7 0.906072 0.767252 0.302228
O O8 0.161671 0.000000 0.236499
O O9 0.072953 0.241430 0.106673
O O10 0.267212 0.000000 0.082426
O O11 0.500000 0.233341 0.000000
O O12 0.397959 0.500000 0.259686
O O13 0.650834 0.728407 0.190944
O O14 0.500000 0.304793 0.500000
O O15 0.281766 0.500000 0.510490
O O16 0.487978 0.281121 0.407245
O O17 0.251139 0.500000 0.670502
O O18 0.237361 0.695744 0.747133
O O19 0.881914 0.500000 0.152711
#
# Coordination Sequence:
#
# PCOD9148649 Si02
#       7
#     4   4   4   4   4   4   4
#     4  11  24  38  53  77 108 142 182 228 275 319
#     4  10  20  34  55  82 110 141 177 219 267 316
#     4   9  19  37  60  85 112 142 175 211 258 319
#     4  11  22  37  56  78 108 144 182 222 266 320
#     4  10  20  33  51  75 102 137 180 224 271 319
#     4   9  17  32  52  74 102 136 178 223 266 317
#     4   9  19  34  54  79 104 137 179 219 260 308
#
# _framework density 19.139724000000001
#
# number of rings (size 3 to 8) (size 9 to 14) (size 15 to 20)
#    0.000    2.143    0.000    3.000    0.000    6.286 
#    0.000    3.571    0.000    4.286    0.000    0.000 
#    0.000    0.000    0.000    0.000    0.000    0.000 
#
# Total GULP energy -156347.611838 kJ/mol
# GULP energy per Si atom -5583.843280 kJ/mol
# Density = 1.909616 g / cm^3
# Si number density = 19.139724 Si / 1000 Ang^3
#
#
#
# Elastic Constant Matrix: (Units=GPa)
#
#
# Indices 1 2 3 4 5 6 
#
# 1 93.5614 31.3140 24.7635 0.0000 -21.5520 0.0000
# 2 31.3140 28.7655 19.2026 0.0000 -8.4056 0.0000
# 3 24.7635 19.2026 77.3570 0.0000 -25.9298 0.0000
# 4 0.0000 0.0000 0.0000 24.5249 0.0000 3.7356
# 5 -21.5520 -8.4056 -25.9298 0.0000 28.0727 0.0000
# 6 0.0000 0.0000 0.0000 3.7356 0.0000 219.7734
#
#
#
# Elastic Compliance Matrix: (Units=1/GPa)
#
#
# Indices 1 2 3 4 5 6 
#
# 1 0.018964 -0.018981 0.002341 0.000000 0.011038 0.000000
# 2 -0.018981 0.061018 -0.011343 0.000000 -0.006779 0.000000
# 3 0.002341 -0.011343 0.020941 0.000000 0.017743 0.000000
# 4 0.000000 0.000000 0.000000 0.040881 0.000000 -0.000695
# 5 0.011038 -0.006779 0.017743 0.000000 0.058455 0.000000
# 6 0.000000 0.000000 0.000000 -0.000695 0.000000 0.004562
#
#
# Mechanical properties :
#
#
# Convention : Reuss Voigt Hill
#
# Bulk Modulus (GPa) = 22.24382 38.91602 30.57992
# Shear Modulus (GPa) = 18.13091 62.76778 40.44934
#
# Velocity S-wave (km/s) = 3.08115 5.73286 4.60213
# Velocity P-wave (km/s) = 4.93001 8.01234 6.65217
#
# Compressibility (1/GPa) = 0.04495631
#
# Stress axis : x y z
#
# Youngs Moduli (GPa) = 52.73133 16.38862 47.75368
#
# Poissons Ratio (x) = 0.31108 -0.11179
# Poissons Ratio (y) = 1.00092 0.54165
# Poissons Ratio (z) = -0.12344 0.18589
#
# Static dielectric constant tensor:
#      x y z
#    x 1.678590 0.000000 0.017940 
#    y 0.000000 1.638340 0.000000 
#    z 0.017940 0.000000 1.678610 
# 
# From -- ./inp_files/37223.got.cif
#   From: 2010.05.17/outbox.cif.g08.bks.cpg/sg10_19_cif.got.tgz:37223.got - 2010.06.03 11:33:40.
