data_PCOD9148418
_publ_section_title
;
Structure prediction by ZEFSAII (Michael W. Deem and Ramdas Pophale) SiO2 
 PCOD9148418
Probable space group: P 2/M
;
_chemical_formula_sum "Si O2"
_cell_formula_units_Z 28
_cell_length_a 12.391875
_cell_length_b 7.741494
_cell_length_c 12.780752
_cell_angle_alpha 90.000000
_cell_angle_beta 68.873387
_cell_angle_gamma 90.000000
_cell_volume 1143.668963
_symmetry_space_group_name_H-M "P 2/M"
_symmetry_group_IT_number 10
_symmetry_cell_setting 'monoclinic'
loop_
_space_group_symop_operation_xyz
x,y,z
-x,y,-z
-x,-y,-z
x,-y,z
loop_
_atom_site_type_symbol
_atom_site_label
_atom_site_fract_x
_atom_site_fract_y
_atom_site_fract_z
Si Si1 0.185590 0.789937 0.801610
Si Si2 0.855827 0.297684 0.957187
Si Si3 0.217623 0.704425 0.327844
Si Si4 0.573627 0.803848 0.330483
Si Si5 0.626963 0.709433 0.921174
Si Si6 0.995545 0.193495 0.285449
Si Si7 0.336922 0.302504 0.481536
O O1 0.317298 0.728632 0.768121
O O2 0.123525 0.726182 0.716741
O O3 0.187128 0.000000 0.796318
O O4 0.123149 0.733287 0.928795
O O5 0.873391 0.500000 0.925389
O O6 0.723128 0.252942 0.975480
O O7 0.932825 0.192751 0.848894
O O8 0.238548 0.500000 0.328732
O O9 0.309286 0.771398 0.208480
O O10 0.086567 0.726181 0.333714
O O11 0.241839 0.772067 0.435891
O O12 0.626594 0.803912 0.429778
O O13 0.456125 0.699427 0.372363
O O14 0.548832 0.000000 0.306906
O O15 0.618621 0.500000 0.914651
O O16 0.500000 0.772982 0.000000
O O17 0.972184 0.000000 0.329603
O O18 0.313878 0.500000 0.520985
#
# Coordination Sequence:
#
# PCOD9148418 Si02
#       7
#     4   4   4   4   4   4   4
#     4  10  22  37  53  76 107 143 181 222 264 309
#     4  10  20  32  52  79 107 142 180 217 263 313
#     4   9  19  34  54  78 105 137 174 217 265 317
#     4  10  21  37  56  79 108 139 178 222 263 314
#     4   8  15  28  46  71 103 134 166 204 250 307
#     4  10  20  36  55  75 106 145 181 217 261 314
#     4  10  20  36  58  82 109 137 172 217 274 326
#
# _framework density 24.482607000000002
#
# number of rings (size 3 to 8) (size 9 to 14) (size 15 to 20)
#    0.000    2.429    0.000    3.857    2.000    5.143 
#    0.000    0.714    0.000    6.429    0.000    0.000 
#    0.000    0.000    0.000    0.000    0.000    0.000 
#
# Total GULP energy -156317.070032 kJ/mol
# GULP energy per Si atom -5582.752501 kJ/mol
# Density = 2.442688 g / cm^3
# Si number density = 24.482607 Si / 1000 Ang^3
#
#
#
# Elastic Constant Matrix: (Units=GPa)
#
#
# Indices 1 2 3 4 5 6 
#
# 1 65.7324 12.0566 -2.4638 0.0000 12.3489 0.0000
# 2 12.0566 56.9715 1.5052 0.0000 -4.1679 0.0000
# 3 -2.4638 1.5052 32.8009 0.0000 11.4917 0.0000
# 4 0.0000 0.0000 0.0000 31.7486 0.0000 1.0106
# 5 12.3489 -4.1679 11.4917 0.0000 49.8108 0.0000
# 6 0.0000 0.0000 0.0000 1.0106 0.0000 13.6608
#
#
#
# Elastic Compliance Matrix: (Units=1/GPa)
#
#
# Indices 1 2 3 4 5 6 
#
# 1 0.017096 -0.004098 0.003348 0.000000 -0.005354 0.000000
# 2 -0.004098 0.018706 -0.002253 0.000000 0.003101 0.000000
# 3 0.003348 -0.002253 0.033942 0.000000 -0.008849 0.000000
# 4 0.000000 0.000000 0.000000 0.031572 0.000000 -0.002336
# 5 -0.005354 0.003101 -0.008849 0.000000 0.023704 0.000000
# 6 0.000000 0.000000 0.000000 -0.002336 0.000000 0.073375
#
#
# Mechanical properties :
#
#
# Convention : Reuss Voigt Hill
#
# Bulk Modulus (GPa) = 15.68903 19.74453 17.71678
# Shear Modulus (GPa) = 22.15846 28.67116 25.41481
#
# Velocity S-wave (km/s) = 3.01170 3.42582 3.22541
# Velocity P-wave (km/s) = 4.30301 4.87140 4.59600
#
# Compressibility (1/GPa) = 0.06373880
#
# Stress axis : x y z
#
# Youngs Moduli (GPa) = 58.49282 53.45804 29.46193
#
# Poissons Ratio (x) = 0.21908 -0.09863
# Poissons Ratio (y) = 0.23971 0.06637
# Poissons Ratio (z) = -0.19583 0.12042
#
# Static dielectric constant tensor:
#      x y z
#    x 2.004690 0.000000 -0.035260 
#    y 0.000000 1.875700 0.000000 
#    z -0.035260 0.000000 2.002770 
# 
# From -- ./inp_files/63404.got.cif
#   From: 2010.05.17/outbox.cif.g08.bks.cpg/sg10_32_cif.got.tgz:63404.got - 2010.06.03 11:33:40.
