data_PCOD9148073
_publ_section_title
;
Structure prediction by ZEFSAII (Michael W. Deem and Ramdas Pophale) SiO2 
 PCOD9148073
Probable space group: P 2/M
;
_chemical_formula_sum "Si O2"
_cell_formula_units_Z 24
_cell_length_a 15.102114
_cell_length_b 8.448520
_cell_length_c 15.405448
_cell_angle_alpha 90.000000
_cell_angle_beta 139.885185
_cell_angle_gamma 90.000000
_cell_volume 1266.471046
_symmetry_space_group_name_H-M "P 2/M"
_symmetry_group_IT_number 10
_symmetry_cell_setting 'monoclinic'
loop_
_space_group_symop_operation_xyz
x,y,z
-x,y,-z
-x,-y,-z
x,-y,z
loop_
_atom_site_type_symbol
_atom_site_label
_atom_site_fract_x
_atom_site_fract_y
_atom_site_fract_z
Si Si1 0.162195 0.311836 0.838161
Si Si2 0.664234 0.311434 0.378785
Si Si3 0.847050 0.309081 0.850819
Si Si4 0.348282 0.692975 0.138329
Si Si5 0.869077 0.814283 0.676794
Si Si6 0.844104 0.188096 0.358864
O O1 0.178496 0.500000 0.838613
O O2 0.181526 0.229051 0.760346
O O3 0.008642 0.277598 0.757053
O O4 0.268308 0.256294 0.991614
O O5 0.666161 0.500000 0.394253
O O6 0.506262 0.256835 0.259275
O O7 0.752159 0.231354 0.520602
O O8 0.738551 0.272245 0.344043
O O9 0.839117 0.500000 0.835305
O O10 0.737437 0.258111 0.841102
O O11 0.826379 0.231768 0.741957
O O12 0.000000 0.271784 0.000000
O O13 0.345946 0.500000 0.135791
O O14 0.898407 0.000000 0.692522
O O15 0.000000 0.237775 0.500000
O O16 0.834886 0.000000 0.365917
#
# Coordination Sequence:
#
# PCOD9148073 Si02
#       6
#     4   4   4   4   4   4
#     4  11  21  39  66  92 117 156 206 250 297 355
#     4  11  23  41  64  89 120 160 203 248 300 355
#     4  10  19  38  66  91 118 157 205 251 295 350
#     4   9  21  40  63  93 122 151 200 259 299 343
#     4  12  24  38  58  91 127 159 200 248 299 359
#     4  11  23  39  60  90 126 158 196 248 301 359
#
# _framework density 18.950295000000001
#
# number of rings (size 3 to 8) (size 9 to 14) (size 15 to 20)
#    0.000    1.333    3.333    3.000    0.000    2.333 
#    0.000   11.667    0.000    0.000    0.000    0.000 
#    0.000    0.000    0.000    0.000    0.000    0.000 
#
# Total GULP energy -134173.161311 kJ/mol
# GULP energy per Si atom -5590.548388 kJ/mol
# Density = 1.890716 g / cm^3
# Si number density = 18.950295 Si / 1000 Ang^3
#
#
#
# Elastic Constant Matrix: (Units=GPa)
#
#
# Indices 1 2 3 4 5 6 
#
# 1 106.8198 -9.9761 41.3293 0.0000 -1.6595 0.0000
# 2 -9.9761 14.9254 -11.1435 0.0000 1.9977 0.0000
# 3 41.3293 -11.1435 103.7519 0.0000 -1.9177 0.0000
# 4 0.0000 0.0000 0.0000 -92.0485 0.0000 88.5849
# 5 -1.6595 1.9977 -1.9177 0.0000 41.7056 0.0000
# 6 0.0000 0.0000 0.0000 88.5849 0.0000 -105.3439
#
#
#
# Elastic Compliance Matrix: (Units=1/GPa)
#
#
# Indices 1 2 3 4 5 6 
#
# 1 0.011348 0.004571 -0.004029 0.000000 0.000047 0.000000
# 2 0.004571 0.075093 0.006187 0.000000 -0.003131 0.000000
# 3 -0.004029 0.006187 0.011909 0.000000 0.000091 0.000000
# 4 0.000000 0.000000 0.000000 -0.056959 0.000000 -0.047897
# 5 0.000047 -0.003131 0.000091 0.000000 0.024134 0.000000
# 6 0.000000 0.000000 0.000000 -0.047897 0.000000 -0.049770
#
#
# Mechanical properties :
#
#
# Convention : Reuss Voigt Hill
#
# Bulk Modulus (GPa) = 8.94387 29.54628 19.24508
# Shear Modulus (GPa) = 126.36973 -17.45155 54.45909
#
# Velocity S-wave (km/s) = 8.17494 -3.03794 5.36659
# Velocity P-wave (km/s) = 9.68690 1.82204 6.96979
#
# Compressibility (1/GPa) = 0.11180839
#
# Stress axis : x y z
#
# Youngs Moduli (GPa) = 88.12241 13.31677 83.96776
#
# Poissons Ratio (x) = -0.06087 0.33827
# Poissons Ratio (y) = -0.40279 -0.51949
# Poissons Ratio (z) = 0.35501 -0.08239
#
# Static dielectric constant tensor:
#      x y z
#    x 1.628030 0.000000 0.002480 
#    y 0.000000 1.639640 0.000000 
#    z 0.002480 0.000000 1.632420 
# 
# From -- ./inp_files/60359.got.cif
#   From: 2010.05.17/outbox.cif.g08.bks.cpg/sg10_31_cif.got.tgz:60359.got - 2010.06.03 11:33:40.
