data_PCOD9148771
_publ_section_title
;
Structure prediction by ZEFSAII (Michael W. Deem and Ramdas Pophale) SiO2 
 PCOD9148771
Probable space group: P 2/M
;
_chemical_formula_sum "Si O2"
_cell_formula_units_Z 28
_cell_length_a 9.719179
_cell_length_b 18.012134
_cell_length_c 14.267556
_cell_angle_alpha 90.000000
_cell_angle_beta 40.359604
_cell_angle_gamma 90.000000
_cell_volume 1617.482744
_symmetry_space_group_name_H-M "P 2/M"
_symmetry_group_IT_number 10
_symmetry_cell_setting 'monoclinic'
loop_
_space_group_symop_operation_xyz
x,y,z
-x,y,-z
-x,-y,-z
x,-y,z
loop_
_atom_site_type_symbol
_atom_site_label
_atom_site_fract_x
_atom_site_fract_y
_atom_site_fract_z
Si Si1 0.752717 0.913278 0.882184
Si Si2 0.385345 0.338013 0.955700
Si Si3 0.251984 0.267115 0.620270
Si Si4 0.816953 0.641648 0.672731
Si Si5 0.965653 0.196274 0.624419
Si Si6 0.995102 0.582671 0.240100
Si Si7 0.912578 0.798828 0.940223
O O1 0.865568 0.866577 0.741101
O O2 0.826437 0.875136 0.940677
O O3 0.807771 0.000000 0.850111
O O4 0.500000 0.905728 0.000000
O O5 0.565039 0.368859 0.791635
O O6 0.500000 0.330921 0.000000
O O7 0.184790 0.392657 0.072353
O O8 0.276334 0.261447 0.978423
O O9 0.500000 0.258839 0.500000
O O10 0.178033 0.228693 0.561912
O O11 0.181315 0.353081 0.663717
O O12 0.109466 0.227592 0.773319
O O13 0.823798 0.728922 0.698625
O O14 0.892921 0.589152 0.716757
O O15 0.000000 0.634459 0.500000
O O16 0.000000 0.172659 0.500000
O O17 0.918341 0.500000 0.261403
O O18 0.000000 0.802768 0.000000
#
# Coordination Sequence:
#
# PCOD9148771 Si02
#       7
#     4   4   4   4   4   4   4
#     4  10  20  34  53  78 106 133 164 203 246 297
#     4   9  17  32  52  71  97 131 169 209 250 300
#     4   9  19  34  51  74  99 129 172 215 252 294
#     4   9  17  28  47  74 100 123 160 212 252 287
#     4   9  18  33  53  75 101 130 164 207 251 295
#     4   9  18  31  47  69  98 134 167 199 252 309
#     4  10  20  33  53  75 100 135 171 209 252 299
#
# _framework density 17.310849999999999
#
# number of rings (size 3 to 8) (size 9 to 14) (size 15 to 20)
#    0.000    2.714    0.000    3.857    0.000    8.286 
#    0.000    0.000    0.000   13.714    0.000    0.000 
#    0.000    0.000    0.000    0.000    0.000    0.000 
#
# Total GULP energy -155889.646008 kJ/mol
# GULP energy per Si atom -5567.487357 kJ/mol
# Density = 1.727145 g / cm^3
# Si number density = 17.310850 Si / 1000 Ang^3
#
#
#
# Elastic Constant Matrix: (Units=GPa)
#
#
# Indices 1 2 3 4 5 6 
#
# 1 83.3356 28.2789 33.7847 0.0000 3.4812 0.0000
# 2 28.2789 93.1802 21.3989 0.0000 6.6438 0.0000
# 3 33.7847 21.3989 98.5054 0.0000 -11.1226 0.0000
# 4 0.0000 0.0000 0.0000 1.7902 0.0000 7.7096
# 5 3.4812 6.6438 -11.1226 0.0000 28.4707 0.0000
# 6 0.0000 0.0000 0.0000 7.7096 0.0000 -2.8320
#
#
#
# Elastic Compliance Matrix: (Units=1/GPa)
#
#
# Indices 1 2 3 4 5 6 
#
# 1 0.015201 -0.003290 -0.004835 0.000000 -0.002980 0.000000
# 2 -0.003290 0.012406 -0.001933 0.000000 -0.003248 0.000000
# 3 -0.004835 -0.001933 0.012918 0.000000 0.006089 0.000000
# 4 0.000000 0.000000 0.000000 0.043902 0.000000 0.119514
# 5 -0.002980 -0.003248 0.006089 0.000000 0.038625 0.000000
# 6 0.000000 0.000000 0.000000 0.119514 0.000000 -0.027752
#
#
# Mechanical properties :
#
#
# Convention : Reuss Voigt Hill
#
# Bulk Modulus (GPa) = 49.00316 49.10512 49.05414
# Shear Modulus (GPa) = 40.91029 18.25637 29.58333
#
# Velocity S-wave (km/s) = 4.86663 3.25101 4.13843
# Velocity P-wave (km/s) = 7.74261 6.52077 7.15780
#
# Compressibility (1/GPa) = 0.02040685
#
# Stress axis : x y z
#
# Youngs Moduli (GPa) = 65.78558 80.60599 77.41404
#
# Poissons Ratio (x) = 0.26523 0.37431
# Poissons Ratio (y) = 0.21646 0.14966
# Poissons Ratio (z) = 0.31808 0.15583
#
# Static dielectric constant tensor:
#      x y z
#    x 1.611550 0.000000 0.007500 
#    y 0.000000 1.581620 0.000000 
#    z 0.007500 0.000000 1.629320 
# 
# From -- ./inp_files/30148.got.cif
#   From: 2010.05.17/outbox.cif.g08.bks.cpg/sg10_16_cif.got.tgz:30148.got - 2010.06.03 11:33:40.
