data_PCOD9148834
_publ_section_title
;
Structure prediction by ZEFSAII (Michael W. Deem and Ramdas Pophale) SiO2 
 PCOD9148834
Probable space group: P 2/M
;
_chemical_formula_sum "Si O2"
_cell_formula_units_Z 28
_cell_length_a 21.848742
_cell_length_b 7.901899
_cell_length_c 24.238575
_cell_angle_alpha 90.000000
_cell_angle_beta 161.384599
_cell_angle_gamma 90.000000
_cell_volume 1335.817108
_symmetry_space_group_name_H-M "P 2/M"
_symmetry_group_IT_number 10
_symmetry_cell_setting 'monoclinic'
loop_
_space_group_symop_operation_xyz
x,y,z
-x,y,-z
-x,-y,-z
x,-y,z
loop_
_atom_site_type_symbol
_atom_site_label
_atom_site_fract_x
_atom_site_fract_y
_atom_site_fract_z
Si Si1 0.554554 0.197900 0.671072
Si Si2 0.169419 0.300795 0.183325
Si Si3 0.735232 0.200891 0.938988
Si Si4 0.959766 0.293177 0.528843
Si Si5 0.530816 0.295075 0.187643
Si Si6 0.347124 0.706707 0.916064
Si Si7 0.160682 0.300861 0.300072
O O1 0.637156 0.281417 0.686261
O O2 0.662164 0.267287 0.817101
O O3 0.326600 0.220700 0.478717
O O4 0.597927 0.000000 0.703896
O O5 0.127782 0.500000 0.154830
O O6 0.175565 0.229234 0.250155
O O7 0.000000 0.228168 0.000000
O O8 0.577789 0.238135 0.850599
O O9 0.758395 0.000000 0.953887
O O10 0.941933 0.275013 0.130998
O O11 0.958885 0.500000 0.528010
O O12 0.750920 0.237513 0.370478
O O13 0.000000 0.241845 0.500000
O O14 0.135842 0.237958 0.717473
O O15 0.532321 0.500000 0.188530
O O16 0.417078 0.237811 0.035797
O O17 0.347296 0.500000 0.916439
O O18 0.500000 0.758240 0.000000
O O19 0.202591 0.500000 0.335026
#
# Coordination Sequence:
#
# PCOD9148834 Si02
#       7
#     4   4   4   4   4   4   4
#     4  11  24  40  61  88 121 161 201 243 294 354
#     4  10  20  37  62  92 122 152 192 248 304 349
#     4  11  25  43  59  80 118 164 204 242 290 350
#     4   9  15  26  48  80 112 139 171 224 287 340
#     4  10  20  33  54  83 112 145 189 238 289 343
#     4   9  15  26  48  81 114 139 173 228 290 341
#     4  11  23  40  65  91 118 153 197 249 301 351
#
# _framework density 20.960954000000001
#
# number of rings (size 3 to 8) (size 9 to 14) (size 15 to 20)
#    0.000    1.857    2.857    1.714    0.000    6.000 
#    0.000    1.429    0.000    0.857    0.000    0.000 
#    0.000    0.000    0.000    0.000    0.000    0.000 
#
# Total GULP energy -156443.323531 kJ/mol
# GULP energy per Si atom -5587.261555 kJ/mol
# Density = 2.091325 g / cm^3
# Si number density = 20.960954 Si / 1000 Ang^3
#
#
#
# Elastic Constant Matrix: (Units=GPa)
#
#
# Indices 1 2 3 4 5 6 
#
# 1 68.4756 -4.3991 18.5378 0.0000 19.8832 0.0000
# 2 -4.3991 22.8632 -3.9182 0.0000 -5.5685 0.0000
# 3 18.5378 -3.9182 139.1137 0.0000 12.3511 0.0000
# 4 0.0000 0.0000 0.0000 -11.7683 0.0000 -48.6098
# 5 19.8832 -5.5685 12.3511 0.0000 29.1015 0.0000
# 6 0.0000 0.0000 0.0000 -48.6098 0.0000 -95.1277
#
#
#
# Elastic Compliance Matrix: (Units=1/GPa)
#
#
# Indices 1 2 3 4 5 6 
#
# 1 0.018478 0.000405 -0.001389 0.000000 -0.011958 0.000000
# 2 0.000405 0.045923 0.000503 0.000000 0.008297 0.000000
# 3 -0.001389 0.000503 0.007580 0.000000 -0.002172 0.000000
# 4 0.000000 0.000000 0.000000 0.076505 0.000000 -0.039094
# 5 -0.011958 0.008297 -0.002172 0.000000 0.045042 0.000000
# 6 0.000000 0.000000 0.000000 -0.039094 0.000000 0.009464
#
#
# Mechanical properties :
#
#
# Convention : Reuss Voigt Hill
#
# Bulk Modulus (GPa) = 14.08077 27.87706 20.97891
# Shear Modulus (GPa) = 21.96553 -0.87677 10.54438
#
# Velocity S-wave (km/s) = 3.24068 -0.64745 2.24531
# Velocity P-wave (km/s) = 4.55356 3.57344 4.09294
#
# Compressibility (1/GPa) = 0.07101884
#
# Stress axis : x y z
#
# Youngs Moduli (GPa) = 54.11835 21.77537 131.91781
#
# Poissons Ratio (x) = -0.00882 0.18327
# Poissons Ratio (y) = -0.02191 -0.06633
# Poissons Ratio (z) = 0.07518 -0.01095
#
# Static dielectric constant tensor:
#      x y z
#    x 1.724370 0.000000 -0.012940 
#    y 0.000000 1.766820 0.000000 
#    z -0.012940 0.000000 1.764350 
# 
# From -- ./inp_files/90412.got.cif
#   From: 2010.05.17/outbox.cif.g08.bks.cpg/sg10_46_cif.got.tgz:90412.got - 2010.06.03 11:33:40.
