data_PCOD9148629
_publ_section_title
;
Structure prediction by ZEFSAII (Michael W. Deem and Ramdas Pophale) SiO2 
 PCOD9148629
Probable space group: P 2/M
;
_chemical_formula_sum "Si O2"
_cell_formula_units_Z 32
_cell_length_a 5.439763
_cell_length_b 9.981817
_cell_length_c 30.939113
_cell_angle_alpha 90.000000
_cell_angle_beta 98.545954
_cell_angle_gamma 90.000000
_cell_volume 1661.301656
_symmetry_space_group_name_H-M "P 2/M"
_symmetry_group_IT_number 10
_symmetry_cell_setting 'monoclinic'
loop_
_space_group_symop_operation_xyz
x,y,z
-x,y,-z
-x,-y,-z
x,-y,z
loop_
_atom_site_type_symbol
_atom_site_label
_atom_site_fract_x
_atom_site_fract_y
_atom_site_fract_z
Si Si1 0.071777 0.163160 0.599076
Si Si2 0.661151 0.354853 0.960896
Si Si3 0.906272 0.148414 0.915640
Si Si4 0.740658 0.349313 0.125998
Si Si5 0.473316 0.851690 0.171206
Si Si6 0.217062 0.836433 0.699946
Si Si7 0.241617 0.839133 0.254567
Si Si8 0.468784 0.836653 0.449358
O O1 0.798428 0.206633 0.576368
O O2 0.130780 0.202706 0.649760
O O3 0.296003 0.206086 0.573418
O O4 0.069538 0.000000 0.598162
O O5 0.792623 0.500000 0.965111
O O6 0.827024 0.225614 0.956610
O O7 0.484415 0.361553 0.914238
O O8 0.500000 0.342970 0.000000
O O9 0.672104 0.133220 0.877478
O O10 0.076593 0.250798 0.894154
O O11 0.013793 0.000000 0.925090
O O12 0.835287 0.500000 0.136383
O O13 0.657250 0.270426 0.166803
O O14 0.282028 0.818613 0.204537
O O15 0.587473 0.000000 0.184297
O O16 0.498171 0.791367 0.717505
O O17 0.009765 0.790185 0.729219
O O18 0.223368 0.000000 0.701273
O O19 0.235803 0.000000 0.260429
O O20 0.500000 0.795871 0.500000
O O21 0.468390 0.000000 0.448620
#
# Coordination Sequence:
#
# PCOD9148629 Si02
#       8
#     4   4   4   4   4   4   4   4
#     4   9  15  22  31  43  65  93 128 177 233 288
#     4   9  19  36  54  72  97 129 165 201 238 289
#     4  10  20  33  51  74 100 128 159 197 246 297
#     4  10  20  34  53  74  97 126 160 197 241 291
#     4   9  19  33  50  70  94 124 156 197 243 294
#     4   9  16  25  37  56  79 107 140 183 241 300
#     4   9  17  27  42  62  85 111 146 187 237 298
#     4   9  15  21  29  41  59  90 133 180 231 285
#
# _framework density 19.262004999999998
#
# number of rings (size 3 to 8) (size 9 to 14) (size 15 to 20)
#    0.000    2.750    0.000    1.875    1.750    6.250 
#    0.000    2.500    0.000    0.000    0.000    0.000 
#    0.000    0.000    0.000    0.000    0.000    0.000 
#
# Total GULP energy -178252.331845 kJ/mol
# GULP energy per Si atom -5570.385370 kJ/mol
# Density = 1.921816 g / cm^3
# Si number density = 19.262005 Si / 1000 Ang^3
#
#
#
# Elastic Constant Matrix: (Units=GPa)
#
#
# Indices 1 2 3 4 5 6 
#
# 1 73.9357 24.5236 21.2992 0.0000 -9.0573 0.0000
# 2 24.5236 94.3951 15.6292 0.0000 -19.1065 0.0000
# 3 21.2992 15.6292 90.5963 0.0000 -10.5312 0.0000
# 4 0.0000 0.0000 0.0000 73.2489 0.0000 -44.0877
# 5 -9.0573 -19.1065 -10.5312 0.0000 37.5311 0.0000
# 6 0.0000 0.0000 0.0000 -44.0877 0.0000 35.5325
#
#
#
# Elastic Compliance Matrix: (Units=1/GPa)
#
#
# Indices 1 2 3 4 5 6 
#
# 1 0.015631 -0.003318 -0.002957 0.000000 0.001254 0.000000
# 2 -0.003318 0.012685 -0.000776 0.000000 0.005439 0.000000
# 3 -0.002957 -0.000776 0.012134 0.000000 0.002296 0.000000
# 4 0.000000 0.000000 0.000000 0.053920 0.000000 0.066903
# 5 0.001254 0.005439 0.002296 0.000000 0.030361 0.000000
# 6 0.000000 0.000000 0.000000 0.066903 0.000000 0.111154
#
#
# Mechanical properties :
#
#
# Convention : Reuss Voigt Hill
#
# Bulk Modulus (GPa) = 37.95196 42.42565 40.18881
# Shear Modulus (GPa) = 19.32227 42.42750 30.87488
#
# Velocity S-wave (km/s) = 3.17066 4.69833 4.00795
# Velocity P-wave (km/s) = 5.75759 7.17676 6.50599
#
# Compressibility (1/GPa) = 0.02634910
#
# Stress axis : x y z
#
# Youngs Moduli (GPa) = 63.97537 78.83227 82.41360
#
# Poissons Ratio (x) = 0.26153 0.24368
# Poissons Ratio (y) = 0.21224 0.06396
# Poissons Ratio (z) = 0.18916 0.06118
#
# Static dielectric constant tensor:
#      x y z
#    x 1.738670 0.000000 0.012080 
#    y 0.000000 1.697060 0.000000 
#    z 0.012080 0.000000 1.675680 
# 
# From -- ./inp_files/13630.got.cif
#   From: 2010.05.17/outbox.cif.g08.bks.cpg/sg10_7_cif.got.tgz:13630.got - 2010.06.03 11:33:40.
