data_PCOD9148059
_publ_section_title
;
Structure prediction by ZEFSAII (Michael W. Deem and Ramdas Pophale) SiO2 
 PCOD9148059
Probable space group: P 2/M
;
_chemical_formula_sum "Si O2"
_cell_formula_units_Z 19
_cell_length_a 5.282994
_cell_length_b 26.895974
_cell_length_c 5.159801
_cell_angle_alpha 90.000000
_cell_angle_beta 92.522757
_cell_angle_gamma 90.000000
_cell_volume 732.452105
_symmetry_space_group_name_H-M "P 2/M"
_symmetry_group_IT_number 10
_symmetry_cell_setting 'monoclinic'
loop_
_space_group_symop_operation_xyz
x,y,z
-x,y,-z
-x,-y,-z
x,-y,z
loop_
_atom_site_type_symbol
_atom_site_label
_atom_site_fract_x
_atom_site_fract_y
_atom_site_fract_z
Si Si1 0.262410 0.891124 0.672883
Si Si2 0.500000 0.500000 0.500000
Si Si3 0.743102 0.320678 0.322037
Si Si4 0.755660 0.569366 0.152803
Si Si5 0.257049 0.214039 0.681684
Si Si6 0.173892 0.000000 0.763501
O O1 0.500000 0.884275 0.500000
O O2 0.253752 0.839077 0.830645
O O3 0.000000 0.893483 0.500000
O O4 0.306037 0.946415 0.783009
O O5 0.709474 0.543780 0.426649
O O6 0.500000 0.323029 0.500000
O O7 0.748285 0.371064 0.162020
O O8 0.740027 0.267277 0.176456
O O9 0.000000 0.321508 0.500000
O O10 0.500000 0.551516 0.000000
O O11 0.000000 0.554651 0.000000
O O12 0.500000 0.215570 0.500000
O O13 0.000000 0.213387 0.500000
O O14 0.000000 0.000000 0.500000
O O15 0.000000 0.000000 0.000000
#
# Coordination Sequence:
#
# PCOD9148059 Si02
#       6
#     4   1   4   4   4   2
#     4   9  17  33  55  86 121 162 209 261 314 379
#     4  12  28  50  72  92 134 172 210 264 322 374
#     4  10  19  38  64  91 126 169 203 254 318 374
#     4  12  27  45  69 100 129 167 215 262 320 389
#     4   8  15  28  55  86 117 160 206 248 308 375
#     4  10  21  38  60  88 124 170 216 274 332 398
#
# _framework density 25.940262000000001
#
# number of rings (size 3 to 8) (size 9 to 14) (size 15 to 20)
#    0.000    2.105    1.053    2.211    0.000    0.842 
#    0.000    9.474    0.000    7.579    0.000    0.000 
#    0.000    0.000    0.000    0.000    0.000    0.000 
#
# Total GULP energy -105885.253734 kJ/mol
# GULP energy per Si atom -5572.908091 kJ/mol
# Density = 2.588122 g / cm^3
# Si number density = 25.940262 Si / 1000 Ang^3
#
#
#
# Elastic Constant Matrix: (Units=GPa)
#
#
# Indices 1 2 3 4 5 6 
#
# 1 229.9308 17.5218 50.0912 0.0000 -15.7114 0.0000
# 2 17.5218 346.7882 15.8422 0.0000 -17.2791 0.0000
# 3 50.0912 15.8422 56.5978 0.0000 -6.0878 0.0000
# 4 0.0000 0.0000 0.0000 9.9937 0.0000 -44.8509
# 5 -15.7114 -17.2791 -6.0878 0.0000 65.9852 0.0000
# 6 0.0000 0.0000 0.0000 -44.8509 0.0000 33.4720
#
#
#
# Elastic Compliance Matrix: (Units=1/GPa)
#
#
# Indices 1 2 3 4 5 6 
#
# 1 0.005436 -0.000017 -0.004714 0.000000 0.000855 0.000000
# 2 -0.000017 0.002953 -0.000736 0.000000 0.000701 0.000000
# 3 -0.004714 -0.000736 0.022125 0.000000 0.000726 0.000000
# 4 0.000000 0.000000 0.000000 -0.019958 0.000000 -0.026743
# 5 0.000855 0.000701 0.000726 0.000000 0.015609 0.000000
# 6 0.000000 0.000000 0.000000 -0.026743 0.000000 -0.005959
#
#
# Mechanical properties :
#
#
# Convention : Reuss Voigt Hill
#
# Bulk Modulus (GPa) = 51.07449 88.91413 69.99431
# Shear Modulus (GPa) = 132.74220 58.54762 95.64491
#
# Velocity S-wave (km/s) = 7.16124 4.75596 6.07876
# Velocity P-wave (km/s) = 9.38668 8.03180 8.73555
#
# Compressibility (1/GPa) = 0.01957925
#
# Stress axis : x y z
#
# Youngs Moduli (GPa) = 183.96375 338.63484 45.19760
#
# Poissons Ratio (x) = 0.00565 0.21308
# Poissons Ratio (y) = 0.00307 0.03328
# Poissons Ratio (z) = 0.86726 0.24936
#
# Static dielectric constant tensor:
#      x y z
#    x 2.015730 0.000000 0.054450 
#    y 0.000000 1.554550 0.000000 
#    z 0.054450 0.000000 2.142770 
# 
# From -- ./inp_files/2149.got.cif
#   From: 2010.05.17/outbox.cif.g08.bks.cpg/sg10_2_cif.got.tgz:2149.got - 2010.06.03 11:33:40.
