data_PCOD9148908
_publ_section_title
;
Structure prediction by ZEFSAII (Michael W. Deem and Ramdas Pophale) SiO2 
 PCOD9148908
Probable space group: P 2/M
;
_chemical_formula_sum "Si O2"
_cell_formula_units_Z 28
_cell_length_a 13.503083
_cell_length_b 15.572631
_cell_length_c 20.036863
_cell_angle_alpha 90.000000
_cell_angle_beta 20.167143
_cell_angle_gamma 90.000000
_cell_volume 1452.584714
_symmetry_space_group_name_H-M "P 2/M"
_symmetry_group_IT_number 10
_symmetry_cell_setting 'monoclinic'
loop_
_space_group_symop_operation_xyz
x,y,z
-x,y,-z
-x,-y,-z
x,-y,z
loop_
_atom_site_type_symbol
_atom_site_label
_atom_site_fract_x
_atom_site_fract_y
_atom_site_fract_z
Si Si1 0.695328 0.895303 0.439145
Si Si2 0.611563 0.603772 0.035356
Si Si3 0.049883 0.603245 0.302962
Si Si4 0.272242 0.340233 0.371170
Si Si5 0.690878 0.144329 0.682686
Si Si6 0.353843 0.103052 0.021365
Si Si7 0.316590 0.098837 0.798395
O O1 0.500000 0.871534 0.500000
O O2 0.534355 0.863198 0.606852
O O3 0.710433 0.000000 0.431318
O O4 0.024636 0.867942 0.228188
O O5 0.619516 0.500000 0.033758
O O6 0.879020 0.631924 0.818391
O O7 0.548726 0.635786 0.150601
O O8 0.329807 0.628743 0.169937
O O9 0.045020 0.500000 0.303893
O O10 0.779317 0.630716 0.519934
O O11 0.252632 0.237686 0.383309
O O12 0.000000 0.375472 0.500000
O O13 0.534570 0.151568 0.851776
O O14 0.474058 0.098858 0.769433
O O15 0.000000 0.101823 0.500000
O O16 0.366118 0.000000 0.998973
O O17 0.500000 0.115791 0.000000
O O18 0.272898 0.000000 0.803980
O O19 0.000000 0.139118 0.000000
#
# Coordination Sequence:
#
# PCOD9148908 Si02
#       7
#     4   4   4   4   4   4   4
#     4   9  17  31  51  73  91 111 151 204 252 292
#     4   8  13  23  40  62  85 122 168 200 235 284
#     4   8  13  23  41  61  86 123 165 203 236 281
#     4   9  17  28  38  61  96 130 160 199 245 297
#     4  11  22  34  46  72 103 134 166 200 257 312
#     4  10  20  34  49  66  91 126 166 205 245 295
#     4  10  20  35  56  75  93 124 167 215 255 296
#
# _framework density 19.275984999999999
#
# number of rings (size 3 to 8) (size 9 to 14) (size 15 to 20)
#    0.000    2.714    0.000    3.429    0.000    6.286 
#   10.286    0.000    0.000    0.000    0.000    0.000 
#    0.000    2.286    0.000    3.143    0.000    2.857 
#
# Total GULP energy -155893.620073 kJ/mol
# GULP energy per Si atom -5567.629288 kJ/mol
# Density = 1.923211 g / cm^3
# Si number density = 19.275985 Si / 1000 Ang^3
#
#
#
# Elastic Constant Matrix: (Units=GPa)
#
#
# Indices 1 2 3 4 5 6 
#
# 1 63.5689 5.3527 56.6903 0.0000 13.0647 0.0000
# 2 5.3527 22.5253 11.5225 0.0000 6.7539 0.0000
# 3 56.6903 11.5225 143.6804 0.0000 20.4513 0.0000
# 4 0.0000 0.0000 0.0000 -10.9198 0.0000 -5.7372
# 5 13.0647 6.7539 20.4513 0.0000 46.1812 0.0000
# 6 0.0000 0.0000 0.0000 -5.7372 0.0000 -3.4365
#
#
#
# Elastic Compliance Matrix: (Units=1/GPa)
#
#
# Indices 1 2 3 4 5 6 
#
# 1 0.024617 -0.000253 -0.009292 0.000000 -0.002812 0.000000
# 2 -0.000253 0.047629 -0.002923 0.000000 -0.005600 0.000000
# 3 -0.009292 -0.002923 0.011127 0.000000 -0.001871 0.000000
# 4 0.000000 0.000000 0.000000 -0.745354 0.000000 1.244349
# 5 -0.002812 -0.005600 -0.001871 0.000000 0.024097 0.000000
# 6 0.000000 0.000000 0.000000 1.244349 0.000000 -2.368400
#
#
# Mechanical properties :
#
#
# Convention : Reuss Voigt Hill
#
# Bulk Modulus (GPa) = 17.11265 41.87840 29.49552
# Shear Modulus (GPa) = -1.68812 16.77892 7.54540
#
# Velocity S-wave (km/s) = -0.93684 2.95355 1.98063
# Velocity P-wave (km/s) = 2.77970 5.77963 4.53491
#
# Compressibility (1/GPa) = 0.05843632
#
# Stress axis : x y z
#
# Youngs Moduli (GPa) = 40.62236 20.99579 89.87163
#
# Poissons Ratio (x) = 0.00532 0.83511
# Poissons Ratio (y) = 0.01029 0.26266
# Poissons Ratio (z) = 0.37747 0.06136
#
# Static dielectric constant tensor:
#      x y z
#    x 1.682580 0.000000 0.031970 
#    y 0.000000 1.678810 0.000000 
#    z 0.031970 0.000000 1.737950 
# 
# From -- ./inp_files/77206.got.cif
#   From: 2010.05.17/outbox.cif.g08.bks.cpg/sg10_39_cif.got.tgz:77206.got - 2010.06.03 11:33:40.
