data_PCOD9148524
_publ_section_title
;
Structure prediction by ZEFSAII (Michael W. Deem and Ramdas Pophale) SiO2 
 PCOD9148524
Probable space group: P 2/M
;
_chemical_formula_sum "Si O2"
_cell_formula_units_Z 32
_cell_length_a 22.401123
_cell_length_b 13.576894
_cell_length_c 10.045007
_cell_angle_alpha 90.000000
_cell_angle_beta 144.287381
_cell_angle_gamma 90.000000
_cell_volume 1783.302732
_symmetry_space_group_name_H-M "P 2/M"
_symmetry_group_IT_number 10
_symmetry_cell_setting 'monoclinic'
loop_
_space_group_symop_operation_xyz
x,y,z
-x,y,-z
-x,-y,-z
x,-y,z
loop_
_atom_site_type_symbol
_atom_site_label
_atom_site_fract_x
_atom_site_fract_y
_atom_site_fract_z
Si Si1 0.775369 0.888481 0.525276
Si Si2 0.902547 0.390031 0.236995
Si Si3 0.428563 0.115394 0.241127
Si Si4 0.211849 0.807122 0.932795
Si Si5 0.566193 0.887007 0.253100
Si Si6 0.871472 0.822542 0.944927
Si Si7 0.908660 0.391223 0.940869
Si Si8 0.085894 0.881099 0.459673
O O1 0.674523 0.841332 0.407630
O O2 0.858276 0.890529 0.793303
O O3 0.826279 0.846712 0.485202
O O4 0.744708 0.000000 0.432439
O O5 0.867846 0.500000 0.211403
O O6 0.817193 0.307471 0.102053
O O7 0.000000 0.362606 0.500000
O O8 0.940574 0.394907 0.153554
O O9 0.500000 0.118662 0.500000
O O10 0.496218 0.156629 0.242231
O O11 0.402732 0.000000 0.166593
O O12 0.322496 0.170557 0.074236
O O13 0.126211 0.853101 0.679118
O O14 0.204030 0.847723 0.069910
O O15 0.587812 0.000000 0.337845
O O16 0.500000 0.890387 0.000000
O O17 0.852324 0.714033 0.845659
O O18 0.981763 0.832494 0.216021
O O19 0.859503 0.500000 0.826039
O O20 0.000000 0.382228 0.000000
O O21 0.074010 0.000000 0.430562
#
# Coordination Sequence:
#
# PCOD9148524 Si02
#       8
#     4   4   4   4   4   4   4   4
#     4  10  20  33  49  69  96 130 164 200 242 290
#     4   9  18  33  52  74 100 129 162 201 245 294
#     4  10  20  33  49  70  96 126 164 210 252 290
#     4  11  21  33  50  72  98 130 167 204 244 290
#     4   9  17  31  49  67  88 118 160 207 248 281
#     4  11  21  32  47  70 101 133 162 192 237 297
#     4   9  17  30  48  68  91 121 158 199 237 274
#     4  11  22  33  46  69 102 136 166 196 235 290
#
# _framework density 17.944233000000001
#
# number of rings (size 3 to 8) (size 9 to 14) (size 15 to 20)
#    0.000    2.000    0.000    5.250    0.000    6.500 
#    0.000    0.000    0.000    0.375    0.000    0.875 
#    0.000    2.000    0.000    0.000    0.000    0.000 
#
# Total GULP energy -178181.813480 kJ/mol
# GULP energy per Si atom -5568.181671 kJ/mol
# Density = 1.790339 g / cm^3
# Si number density = 17.944233 Si / 1000 Ang^3
#
#
#
# Elastic Constant Matrix: (Units=GPa)
#
#
# Indices 1 2 3 4 5 6 
#
# 1 106.4357 13.8459 12.5442 0.0000 0.3089 0.0000
# 2 13.8459 58.3761 12.9593 0.0000 -0.3545 0.0000
# 3 12.5442 12.9593 45.2105 0.0000 0.8880 0.0000
# 4 0.0000 0.0000 0.0000 1388.0806 0.0000 1570.5442
# 5 0.3089 -0.3545 0.8880 0.0000 25.2890 0.0000
# 6 0.0000 0.0000 0.0000 1570.5442 0.0000 1815.4809
#
#
#
# Elastic Compliance Matrix: (Units=1/GPa)
#
#
# Indices 1 2 3 4 5 6 
#
# 1 0.009898 -0.001857 -0.002213 0.000000 -0.000069 0.000000
# 2 -0.001857 0.018648 -0.004839 0.000000 0.000454 0.000000
# 3 -0.002213 -0.004839 0.024137 0.000000 -0.000888 0.000000
# 4 0.000000 0.000000 0.000000 0.033982 0.000000 -0.029397
# 5 -0.000069 0.000454 -0.000888 0.000000 0.039581 0.000000
# 6 0.000000 0.000000 0.000000 -0.029397 0.000000 0.025982
#
#
# Mechanical properties :
#
#
# Convention : Reuss Voigt Hill
#
# Bulk Modulus (GPa) = 28.68139 32.08013 30.38076
# Shear Modulus (GPa) = 27.52288 657.14829 342.33559
#
# Velocity S-wave (km/s) = 3.92063 19.15756 13.82721
# Velocity P-wave (km/s) = 6.04263 22.52256 16.48908
#
# Compressibility (1/GPa) = 0.03486581
#
# Stress axis : x y z
#
# Youngs Moduli (GPa) = 101.03180 53.62591 41.42981
#
# Poissons Ratio (x) = 0.09957 0.09167
# Poissons Ratio (y) = 0.18760 0.20048
# Poissons Ratio (z) = 0.22355 0.25949
#
# Static dielectric constant tensor:
#      x y z
#    x 1.658000 0.000000 0.006740 
#    y 0.000000 1.672180 0.000000 
#    z 0.006740 0.000000 1.631740 
# 
# From -- ./inp_files/29051.got.cif
#   From: 2010.05.17/outbox.cif.g08.bks.cpg/sg10_15_cif.got.tgz:29051.got - 2010.06.03 11:33:40.
