data_PCOD9148163
_publ_section_title
;
Structure prediction by ZEFSAII (Michael W. Deem and Ramdas Pophale) SiO2 
 PCOD9148163
Probable space group: P 2/M
;
_chemical_formula_sum "Si O2"
_cell_formula_units_Z 32
_cell_length_a 20.656963
_cell_length_b 15.461476
_cell_length_c 9.238265
_cell_angle_alpha 90.000000
_cell_angle_beta 47.868515
_cell_angle_gamma 90.000000
_cell_volume 2188.173957
_symmetry_space_group_name_H-M "P 2/M"
_symmetry_group_IT_number 10
_symmetry_cell_setting 'monoclinic'
loop_
_space_group_symop_operation_xyz
x,y,z
-x,y,-z
-x,-y,-z
x,-y,z
loop_
_atom_site_type_symbol
_atom_site_label
_atom_site_fract_x
_atom_site_fract_y
_atom_site_fract_z
Si Si1 0.734132 0.396966 0.976984
Si Si2 0.395577 0.270008 0.985657
Si Si3 0.394082 0.903391 0.491126
Si Si4 0.394082 0.903391 0.826627
Si Si5 0.734132 0.603034 0.320620
Si Si6 0.604423 0.270008 0.672387
Si Si7 0.912898 0.394803 0.547564
Si Si8 0.912898 0.394803 0.213741
O O1 0.722037 0.500000 0.972379
O O2 0.738599 0.381781 0.142101
O O3 0.656523 0.343242 0.021638
O O4 0.825092 0.371077 0.764427
O O5 0.378865 0.276038 0.181703
O O6 0.367442 0.176258 0.966436
O O7 0.500000 0.278497 0.806130
O O8 0.368753 0.888816 0.696870
O O9 0.500000 0.904852 0.329427
O O10 0.367442 0.823741 0.431238
O O11 0.364836 0.000000 0.491288
O O12 0.364836 0.000000 0.914205
O O13 0.722037 0.500000 0.361510
O O14 0.656523 0.656758 0.508793
O O15 0.825092 0.628923 0.260298
O O16 0.915371 0.500000 0.542477
O O17 0.911187 0.366143 0.383219
O O18 0.000000 0.365622 0.500000
O O19 0.915371 0.500000 0.211409
O O20 0.000000 0.365622 0.000000
#
# Coordination Sequence:
#
# PCOD9148163 Si02
#       8
#     4   4   4   4   4   4   4   4
#     4  10  20  32  45  61  83 114 151 186 218 254
#     4  10  20  31  43  61  86 116 148 182 219 258
#     4   8  14  26  44  63  82 106 137 174 216 259
#     4   8  14  26  44  63  82 106 137 174 216 259
#     4  10  20  32  45  61  83 114 151 186 218 254
#     4  10  20  31  43  61  86 116 148 182 219 258
#     4   9  16  27  44  64  85 108 136 173 217 261
#     4   9  16  27  44  64  85 108 136 173 217 261
#
# _framework density 14.624065
#
# number of rings (size 3 to 8) (size 9 to 14) (size 15 to 20)
#    0.000    2.750    0.000    3.000    0.000    7.000 
#    0.000    5.000    0.000    0.000    0.000    0.000 
#    0.000    1.000    0.000    3.750    0.000    5.750 
#
# Total GULP energy -178245.591613 kJ/mol
# GULP energy per Si atom -5570.174738 kJ/mol
# Density = 1.459078 g / cm^3
# Si number density = 14.624065 Si / 1000 Ang^3
#
#
#
# Elastic Constant Matrix: (Units=GPa)
#
#
# Indices 1 2 3 4 5 6 
#
# 1 102.5810 53.4310 51.3758 0.0000 16.5610 0.0000
# 2 53.4310 62.1141 53.5904 0.0000 11.3906 0.0000
# 3 51.3758 53.5904 103.0426 0.0000 16.4071 0.0000
# 4 0.0000 0.0000 0.0000 9.6179 0.0000 11.0531
# 5 16.5610 11.3906 16.4071 0.0000 14.7204 0.0000
# 6 0.0000 0.0000 0.0000 11.0531 0.0000 9.4632
#
#
#
# Elastic Compliance Matrix: (Units=1/GPa)
#
#
# Indices 1 2 3 4 5 6 
#
# 1 0.018889 -0.013918 -0.000621 0.000000 -0.009789 0.000000
# 2 -0.013918 0.040045 -0.013916 0.000000 0.000182 0.000000
# 3 -0.000621 -0.013916 0.018754 0.000000 -0.009436 0.000000
# 4 0.000000 0.000000 0.000000 -0.303748 0.000000 0.354780
# 5 -0.009789 0.000182 -0.009436 0.000000 0.089323 0.000000
# 6 0.000000 0.000000 0.000000 0.354780 0.000000 -0.308713
#
#
# Mechanical properties :
#
#
# Convention : Reuss Voigt Hill
#
# Bulk Modulus (GPa) = 48.12648 64.94800 56.53724
# Shear Modulus (GPa) = -13.10222 14.04967 0.47373
#
# Velocity S-wave (km/s) = -2.99647 3.10292 0.56977
# Velocity P-wave (km/s) = 4.58354 7.57269 6.25917
#
# Compressibility (1/GPa) = 0.02077858
#
# Stress axis : x y z
#
# Youngs Moduli (GPa) = 52.94104 24.97218 53.32099
#
# Poissons Ratio (x) = 0.34755 0.03310
# Poissons Ratio (y) = 0.73681 0.74203
# Poissons Ratio (z) = 0.03287 0.34752
#
# Static dielectric constant tensor:
#      x y z
#    x 1.476760 0.000000 0.010080 
#    y 0.000000 1.477010 0.000000 
#    z 0.010080 0.000000 1.476900 
# 
# From -- ./inp_files/29113.got.cif
#   From: 2010.05.17/outbox.cif.g08.bks.cpg/sg10_15_cif.got.tgz:29113.got - 2010.06.03 11:33:40.
