data_PCOD9148605
_publ_section_title
;
Structure prediction by ZEFSAII (Michael W. Deem and Ramdas Pophale) SiO2 
 PCOD9148605
Probable space group: P 2/M
;
_chemical_formula_sum "Si O2"
_cell_formula_units_Z 24
_cell_length_a 25.408919
_cell_length_b 7.587599
_cell_length_c 12.232157
_cell_angle_alpha 90.000000
_cell_angle_beta 23.105689
_cell_angle_gamma 90.000000
_cell_volume 925.452400
_symmetry_space_group_name_H-M "P 2/M"
_symmetry_group_IT_number 10
_symmetry_cell_setting 'monoclinic'
loop_
_space_group_symop_operation_xyz
x,y,z
-x,y,-z
-x,-y,-z
x,-y,z
loop_
_atom_site_type_symbol
_atom_site_label
_atom_site_fract_x
_atom_site_fract_y
_atom_site_fract_z
Si Si1 0.147887 0.803166 0.597062
Si Si2 0.266924 0.288080 0.587377
Si Si3 0.559376 0.285846 0.049415
Si Si4 0.057715 0.299324 0.545126
Si Si5 0.341925 0.284916 0.911639
Si Si6 0.235209 0.716711 0.895741
O O1 0.157021 0.761730 0.707740
O O2 0.067847 0.696224 0.658302
O O3 0.100028 0.000000 0.673401
O O4 0.303924 0.785120 0.262236
O O5 0.268154 0.500000 0.586826
O O6 0.418509 0.231848 0.267049
O O7 0.249059 0.223932 0.744882
O O8 0.569522 0.500000 0.022002
O O9 0.558612 0.237037 0.180194
O O10 0.059732 0.500000 0.502413
O O11 0.196482 0.223681 0.235649
O O12 0.914872 0.225613 0.783713
O O13 0.347757 0.500000 0.898623
O O14 0.340861 0.229478 0.787196
O O15 0.237645 0.500000 0.888292
#
# Coordination Sequence:
#
# PCOD9148605 Si02
#       6
#     4   4   4   4   4   4
#     4  11  22  35  52  72  96 130 172 214 251 290
#     4  10  20  33  50  75 105 134 164 200 245 296
#     4   9  18  33  54  77 101 129 162 204 249 293
#     4   9  17  32  54  77 101 130 165 205 246 289
#     4   8  14  27  50  79 104 127 160 201 243 288
#     4   9  17  29  50  79 106 132 162 198 243 296
#
# _framework density 25.933264000000001
#
# number of rings (size 3 to 8) (size 9 to 14) (size 15 to 20)
#    0.000    2.667    0.000    3.500    0.000    6.000 
#    0.000    7.500    0.000   12.000    0.000    5.833 
#    0.000    0.000    0.000    0.000    0.000    0.000 
#
# Total GULP energy -134082.411092 kJ/mol
# GULP energy per Si atom -5586.767129 kJ/mol
# Density = 2.587424 g / cm^3
# Si number density = 25.933264 Si / 1000 Ang^3
#
#
#
# Elastic Constant Matrix: (Units=GPa)
#
#
# Indices 1 2 3 4 5 6 
#
# 1 208.2950 0.4623 11.8069 0.0000 -1.7837 0.0000
# 2 0.4623 61.3549 -4.5785 0.0000 -0.8483 0.0000
# 3 11.8069 -4.5785 42.9182 0.0000 -3.5988 0.0000
# 4 0.0000 0.0000 0.0000 21.9539 0.0000 12.1258
# 5 -1.7837 -0.8483 -3.5988 0.0000 47.8197 0.0000
# 6 0.0000 0.0000 0.0000 12.1258 0.0000 -43.0499
#
#
#
# Elastic Compliance Matrix: (Units=1/GPa)
#
#
# Indices 1 2 3 4 5 6 
#
# 1 0.004878 -0.000136 -0.001350 0.000000 0.000078 0.000000
# 2 -0.000136 0.016442 0.001827 0.000000 0.000424 0.000000
# 3 -0.001350 0.001827 0.024016 0.000000 0.001789 0.000000
# 4 0.000000 0.000000 0.000000 0.039418 0.000000 0.011103
# 5 0.000078 0.000424 0.001789 0.000000 0.021057 0.000000
# 6 0.000000 0.000000 0.000000 0.011103 0.000000 -0.020102
#
#
# Mechanical properties :
#
#
# Convention : Reuss Voigt Hill
#
# Bulk Modulus (GPa) = 21.73066 36.43884 29.08475
# Shear Modulus (GPa) = 49.81677 25.66990 37.74334
#
# Velocity S-wave (km/s) = 4.38763 3.14959 3.81911
# Velocity P-wave (km/s) = 5.83661 5.22571 5.53959
#
# Compressibility (1/GPa) = 0.04601792
#
# Stress axis : x y z
#
# Youngs Moduli (GPa) = 204.98604 60.82043 41.63805
#
# Poissons Ratio (x) = 0.00830 0.05621
# Poissons Ratio (y) = 0.02797 -0.07608
# Poissons Ratio (z) = 0.27675 -0.11113
#
# Static dielectric constant tensor:
#      x y z
#    x 2.037790 0.000000 0.075340 
#    y 0.000000 2.016890 0.000000 
#    z 0.075340 0.000000 2.085210 
# 
# From -- ./inp_files/45149.got.cif
#   From: 2010.05.17/outbox.cif.g08.bks.cpg/sg10_23_cif.got.tgz:45149.got - 2010.06.03 11:33:40.
