data_PCOD9148444
_publ_section_title
;
Structure prediction by ZEFSAII (Michael W. Deem and Ramdas Pophale) SiO2 
 PCOD9148444
Probable space group: P 2/M
;
_chemical_formula_sum "Si O2"
_cell_formula_units_Z 30
_cell_length_a 14.906304
_cell_length_b 17.301165
_cell_length_c 5.374508
_cell_angle_alpha 90.000000
_cell_angle_beta 80.541366
_cell_angle_gamma 90.000000
_cell_volume 1367.222140
_symmetry_space_group_name_H-M "P 2/M"
_symmetry_group_IT_number 10
_symmetry_cell_setting 'monoclinic'
loop_
_space_group_symop_operation_xyz
x,y,z
-x,y,-z
-x,-y,-z
x,-y,z
loop_
_atom_site_type_symbol
_atom_site_label
_atom_site_fract_x
_atom_site_fract_y
_atom_site_fract_z
Si Si1 0.574374 0.778890 0.276566
Si Si2 0.038198 0.688957 0.734730
Si Si3 0.233786 0.087666 0.615252
Si Si4 0.651446 0.911713 0.930906
Si Si5 0.035650 0.865108 0.732377
Si Si6 0.500000 0.359568 0.000000
Si Si7 0.253351 0.679690 0.697027
Si Si8 0.697445 0.411834 0.823827
O O1 0.500000 0.813464 0.500000
O O2 0.590899 0.839843 0.047590
O O3 0.673965 0.751074 0.331594
O O4 0.529073 0.699504 0.203726
O O5 0.998585 0.776908 0.751256
O O6 0.146653 0.694946 0.704984
O O7 0.000000 0.652184 0.500000
O O8 0.000000 0.649974 0.000000
O O9 0.279797 0.086247 0.865031
O O10 0.143659 0.137405 0.668773
O O11 0.202890 0.000000 0.576330
O O12 0.300679 0.105643 0.354300
O O13 0.613026 0.000000 0.931117
O O14 0.000000 0.903679 0.500000
O O15 0.000000 0.902710 0.000000
O O16 0.411822 0.408076 0.104998
O O17 0.279753 0.626500 0.450659
O O18 0.265469 0.637791 0.959241
O O19 0.729261 0.500000 0.823252
#
# Coordination Sequence:
#
# PCOD9148444 Si02
#       8
#     4   4   4   4   4   2   4   4
#     4  11  23  40  63  93 132 161 215 267 313 379
#     4  10  21  38  61  90 123 159 208 262 309 365
#     4  10  21  38  55  78 113 157 209 256 311 381
#     4  10  23  39  59  82 116 168 213 255 308 361
#     4  10  20  32  53  84 114 148 195 256 326 377
#     4  10  23  40  61  98 128 168 206 254 315 376
#     4  11  23  40  66  95 126 170 208 254 315 368
#     4  11  23  41  65  94 132 166 204 250 308 381
#
# _framework density 21.942299999999999
#
# number of rings (size 3 to 8) (size 9 to 14) (size 15 to 20)
#    0.000    1.600    1.333    3.000    1.867    5.067 
#    0.000    2.333    0.000    8.000    0.000    0.000 
#    0.000    0.000    0.000    0.000    0.000    0.000 
#
# Total GULP energy -167454.094271 kJ/mol
# GULP energy per Si atom -5581.803142 kJ/mol
# Density = 2.189236 g / cm^3
# Si number density = 21.942300 Si / 1000 Ang^3
#
#
#
# Elastic Constant Matrix: (Units=GPa)
#
#
# Indices 1 2 3 4 5 6 
#
# 1 126.2278 2.6478 36.2240 0.0000 5.7477 0.0000
# 2 2.6478 74.6188 16.4542 0.0000 1.2740 0.0000
# 3 36.2240 16.4542 128.7890 0.0000 11.8854 0.0000
# 4 0.0000 0.0000 0.0000 29.1916 0.0000 0.5839
# 5 5.7477 1.2740 11.8854 0.0000 34.6178 0.0000
# 6 0.0000 0.0000 0.0000 0.5839 0.0000 14.4756
#
#
#
# Elastic Compliance Matrix: (Units=1/GPa)
#
#
# Indices 1 2 3 4 5 6 
#
# 1 0.008635 0.000234 -0.002401 0.000000 -0.000618 0.000000
# 2 0.000234 0.013797 -0.001836 0.000000 0.000084 0.000000
# 3 -0.002401 -0.001836 0.008914 0.000000 -0.002594 0.000000
# 4 0.000000 0.000000 0.000000 0.034284 0.000000 -0.001383
# 5 -0.000618 0.000084 -0.002594 0.000000 0.029877 0.000000
# 6 0.000000 0.000000 0.000000 -0.001383 0.000000 0.069138
#
#
# Mechanical properties :
#
#
# Convention : Reuss Voigt Hill
#
# Bulk Modulus (GPa) = 42.84957 48.92086 45.88521
# Shear Modulus (GPa) = 27.71145 33.94430 30.82787
#
# Velocity S-wave (km/s) = 3.55762 3.93743 3.75234
# Velocity P-wave (km/s) = 6.03707 6.55857 6.30321
#
# Compressibility (1/GPa) = 0.02333746
#
# Stress axis : x y z
#
# Youngs Moduli (GPa) = 115.81353 72.48155 112.18202
#
# Poissons Ratio (x) = -0.01694 0.26940
# Poissons Ratio (y) = -0.02707 0.20598
# Poissons Ratio (z) = 0.27812 0.13309
#
# Static dielectric constant tensor:
#      x y z
#    x 1.825410 0.000000 0.006620 
#    y 0.000000 1.794520 0.000000 
#    z 0.006620 0.000000 1.715540 
# 
# From -- ./inp_files/9787.got.cif
#   From: 2010.05.17/outbox.cif.g08.bks.cpg/sg10_5_cif.got.tgz:9787.got - 2010.06.03 11:33:40.
