data_PCOD9148823
_publ_section_title
;
Structure prediction by ZEFSAII (Michael W. Deem and Ramdas Pophale) SiO2 
 PCOD9148823
Probable space group: P 2/M
;
_chemical_formula_sum "Si O2"
_cell_formula_units_Z 28
_cell_length_a 15.259302
_cell_length_b 12.945485
_cell_length_c 9.509850
_cell_angle_alpha 90.000000
_cell_angle_beta 47.171555
_cell_angle_gamma 90.000000
_cell_volume 1377.726783
_symmetry_space_group_name_H-M "P 2/M"
_symmetry_group_IT_number 10
_symmetry_cell_setting 'monoclinic'
loop_
_space_group_symop_operation_xyz
x,y,z
-x,y,-z
-x,-y,-z
x,-y,z
loop_
_atom_site_type_symbol
_atom_site_label
_atom_site_fract_x
_atom_site_fract_y
_atom_site_fract_z
Si Si1 0.258848 0.673389 0.579344
Si Si2 0.095953 0.303187 0.496758
Si Si3 0.807215 0.885114 0.223529
Si Si4 0.245813 0.373716 0.095875
Si Si5 0.901153 0.614494 0.010881
Si Si6 0.978260 0.115338 0.784870
Si Si7 0.515881 0.622162 0.323443
O O1 0.154674 0.656761 0.577518
O O2 0.265443 0.790885 0.630256
O O3 0.215340 0.611949 0.764079
O O4 0.388502 0.639647 0.388491
O O5 0.210783 0.306434 0.269000
O O6 0.028456 0.198333 0.619157
O O7 0.000000 0.361077 0.500000
O O8 0.917717 0.891520 0.211495
O O9 0.752072 0.000000 0.278864
O O10 0.861642 0.861091 0.009226
O O11 0.246766 0.500000 0.121355
O O12 0.144009 0.351336 0.090079
O O13 0.371191 0.341270 0.889416
O O14 0.949031 0.500000 0.932509
O O15 0.000000 0.671293 0.000000
O O16 0.961834 0.000000 0.742023
O O17 0.500000 0.664456 0.500000
O O18 0.536016 0.500000 0.315765
#
# Coordination Sequence:
#
# PCOD9148823 Si02
#       7
#     4   4   4   4   4   4   4
#     4  11  21  33  61  84 108 150 195 232 280 335
#     4  11  24  35  52  84 121 151 181 228 287 349
#     4   8  16  31  55  85 112 142 186 238 284 332
#     4  10  22  39  55  77 115 152 184 234 284 326
#     4  10  20  33  54  81 110 145 184 228 282 339
#     4   8  16  33  55  80 113 150 186 227 280 341
#     4  10  20  38  62  84 105 140 200 251 275 317
#
# _framework density 20.323333000000002
#
# number of rings (size 3 to 8) (size 9 to 14) (size 15 to 20)
#    0.000    2.286    1.429    2.143    6.000    2.286 
#    0.000    1.429    0.000    1.286    0.000    4.000 
#    0.000    0.000    0.000    0.000    0.000    0.000 
#
# Total GULP energy -155876.489327 kJ/mol
# GULP energy per Si atom -5567.017476 kJ/mol
# Density = 2.027708 g / cm^3
# Si number density = 20.323333 Si / 1000 Ang^3
#
#
#
# Elastic Constant Matrix: (Units=GPa)
#
#
# Indices 1 2 3 4 5 6 
#
# 1 61.3578 1.0374 24.8555 0.0000 8.1057 0.0000
# 2 1.0374 66.2084 28.7471 0.0000 6.6326 0.0000
# 3 24.8555 28.7471 139.9220 0.0000 9.9805 0.0000
# 4 0.0000 0.0000 0.0000 17.4777 0.0000 1.0841
# 5 8.1057 6.6326 9.9805 0.0000 33.8176 0.0000
# 6 0.0000 0.0000 0.0000 1.0841 0.0000 14.9853
#
#
#
# Elastic Compliance Matrix: (Units=1/GPa)
#
#
# Indices 1 2 3 4 5 6 
#
# 1 0.018076 0.001498 -0.003257 0.000000 -0.003665 0.000000
# 2 0.001498 0.016884 -0.003548 0.000000 -0.002623 0.000000
# 3 -0.003257 -0.003548 0.008529 0.000000 -0.001040 0.000000
# 4 0.000000 0.000000 0.000000 0.057474 0.000000 -0.004158
# 5 -0.003665 -0.002623 -0.001040 0.000000 0.031271 0.000000
# 6 0.000000 0.000000 0.000000 -0.004158 0.000000 0.067033
#
#
# Mechanical properties :
#
#
# Convention : Reuss Voigt Hill
#
# Bulk Modulus (GPa) = 30.41862 41.86314 36.14088
# Shear Modulus (GPa) = 22.64105 27.44598 25.04351
#
# Velocity S-wave (km/s) = 3.34135 3.67886 3.51416
# Velocity P-wave (km/s) = 5.46681 6.22001 5.85553
#
# Compressibility (1/GPa) = 0.03287460
#
# Stress axis : x y z
#
# Youngs Moduli (GPa) = 55.32113 59.22921 117.25265
#
# Poissons Ratio (x) = -0.08874 0.38194
# Poissons Ratio (y) = -0.08289 0.41599
# Poissons Ratio (z) = 0.18020 0.21013
#
# Static dielectric constant tensor:
#      x y z
#    x 1.765950 0.000000 -0.002330 
#    y 0.000000 1.808610 0.000000 
#    z -0.002330 0.000000 1.776510 
# 
# From -- ./inp_files/32769.got.cif
#   From: 2010.05.17/outbox.cif.g08.bks.cpg/sg10_17_cif.got.tgz:32769.got - 2010.06.03 11:33:40.
