data_PCOD9148284
_publ_section_title
;
Structure prediction by ZEFSAII (Michael W. Deem and Ramdas Pophale) SiO2 
 PCOD9148284
Probable space group: P 2/M
;
_chemical_formula_sum "Si O2"
_cell_formula_units_Z 24
_cell_length_a 10.342226
_cell_length_b 16.741994
_cell_length_c 7.014718
_cell_angle_alpha 90.000000
_cell_angle_beta 134.699178
_cell_angle_gamma 90.000000
_cell_volume 863.345611
_symmetry_space_group_name_H-M "P 2/M"
_symmetry_group_IT_number 10
_symmetry_cell_setting 'monoclinic'
loop_
_space_group_symop_operation_xyz
x,y,z
-x,y,-z
-x,-y,-z
x,-y,z
loop_
_atom_site_type_symbol
_atom_site_label
_atom_site_fract_x
_atom_site_fract_y
_atom_site_fract_z
Si Si1 0.269768 0.500000 0.508956
Si Si2 0.688648 0.500000 0.988055
Si Si3 0.146839 0.675051 0.363048
Si Si4 0.439865 0.211121 0.690861
Si Si5 0.845379 0.091745 0.554670
Si Si6 0.773435 0.676377 0.099671
Si Si7 0.756147 0.908814 0.914987
O O1 0.277710 0.500000 0.748256
O O2 0.178424 0.582254 0.346275
O O3 0.484591 0.500000 0.697588
O O4 0.765209 0.585715 0.017321
O O5 0.293226 0.734945 0.424341
O O6 0.185270 0.675830 0.631949
O O7 0.942088 0.708209 0.149682
O O8 0.300035 0.156463 0.672592
O O9 0.584655 0.146833 0.768680
O O10 0.580981 0.280581 0.893439
O O11 0.805667 0.093161 0.742111
O O12 0.815561 0.000000 0.461003
O O13 0.061702 0.109580 0.772279
O O14 0.705086 0.000000 0.905707
#
# Coordination Sequence:
#
# PCOD9148284 Si02
#       7
#     2   2   4   4   4   4   4
#     4   9  15  29  49  68  93 131 173 209 244 279
#     4   9  15  29  49  68  93 131 173 209 244 279
#     4  10  20  32  47  70 103 139 171 204 240 280
#     4  12  19  28  49  79 105 126 158 201 247 296
#     4   9  19  36  56  77  99 122 153 198 252 305
#     4  10  20  32  47  70 103 139 171 204 240 280
#     4   9  19  36  56  77  99 122 153 198 252 305
#
# _framework density 27.798832000000001
#
# number of rings (size 3 to 8) (size 9 to 14) (size 15 to 20)
#    0.000    2.167    1.667    4.000    0.000    3.333 
#    0.000    0.000    0.000    8.000    0.000   28.000 
#    0.000   21.333    0.000    0.000    0.000    0.000 
#
# Total GULP energy -134237.992336 kJ/mol
# GULP energy per Si atom -5593.249681 kJ/mol
# Density = 2.773556 g / cm^3
# Si number density = 27.798832 Si / 1000 Ang^3
#
#
#
# Elastic Constant Matrix: (Units=GPa)
#
#
# Indices 1 2 3 4 5 6 
#
# 1 112.8664 39.4120 64.3437 0.0000 12.1028 0.0000
# 2 39.4120 210.8829 59.2030 0.0000 25.8964 0.0000
# 3 64.3437 59.2030 165.1422 0.0000 26.7301 0.0000
# 4 0.0000 0.0000 0.0000 -68.6011 0.0000 34.2018
# 5 12.1028 25.8964 26.7301 0.0000 50.4856 0.0000
# 6 0.0000 0.0000 0.0000 34.2018 0.0000 31.6304
#
#
#
# Elastic Compliance Matrix: (Units=1/GPa)
#
#
# Indices 1 2 3 4 5 6 
#
# 1 0.011576 -0.000991 -0.004143 0.000000 -0.000073 0.000000
# 2 -0.000991 0.005523 -0.001284 0.000000 -0.001916 0.000000
# 3 -0.004143 -0.001284 0.008599 0.000000 -0.002901 0.000000
# 4 0.000000 0.000000 0.000000 -0.009471 0.000000 0.010241
# 5 -0.000073 -0.001916 -0.002901 0.000000 0.022344 0.000000
# 6 0.000000 0.000000 0.000000 0.010241 0.000000 0.020541
#
#
# Mechanical properties :
#
#
# Convention : Reuss Voigt Hill
#
# Bulk Modulus (GPa) = 77.74743 90.53432 84.14088
# Shear Modulus (GPa) = 65.58599 24.43186 45.00893
#
# Velocity S-wave (km/s) = 4.86254 2.96781 4.02816
# Velocity P-wave (km/s) = 7.71714 6.66200 7.20890
#
# Compressibility (1/GPa) = 0.01286216
#
# Stress axis : x y z
#
# Youngs Moduli (GPa) = 86.38608 181.06634 116.28677
#
# Poissons Ratio (x) = 0.17950 0.48179
# Poissons Ratio (y) = 0.08564 0.14927
# Poissons Ratio (z) = 0.35790 0.23242
#
# Static dielectric constant tensor:
#      x y z
#    x 2.335460 0.000000 -0.143860 
#    y 0.000000 2.105530 0.000000 
#    z -0.143860 0.000000 2.241250 
# 
# From -- ./inp_files/51478.got.cif
#   From: 2010.05.17/outbox.cif.g08.bks.cpg/sg10_26_cif.got.tgz:51478.got - 2010.06.03 11:33:40.
