data_PCOD9148741
_publ_section_title
;
Structure prediction by ZEFSAII (Michael W. Deem and Ramdas Pophale) SiO2 
 PCOD9148741
Probable space group: P 2/M
;
_chemical_formula_sum "Si O2"
_cell_formula_units_Z 32
_cell_length_a 12.202401
_cell_length_b 8.187264
_cell_length_c 31.510109
_cell_angle_alpha 90.000000
_cell_angle_beta 29.879387
_cell_angle_gamma 90.000000
_cell_volume 1568.254870
_symmetry_space_group_name_H-M "P 2/M"
_symmetry_group_IT_number 10
_symmetry_cell_setting 'monoclinic'
loop_
_space_group_symop_operation_xyz
x,y,z
-x,y,-z
-x,-y,-z
x,-y,z
loop_
_atom_site_type_symbol
_atom_site_label
_atom_site_fract_x
_atom_site_fract_y
_atom_site_fract_z
Si Si1 0.420476 0.187830 0.570351
Si Si2 0.930410 0.690429 0.956555
Si Si3 0.745878 0.802682 0.927712
Si Si4 0.445756 0.691153 0.338495
Si Si5 0.727807 0.811090 0.687817
Si Si6 0.665819 0.806322 0.124792
Si Si7 0.804015 0.311591 0.495488
Si Si8 0.155083 0.801362 0.736405
O O1 0.500000 0.268520 0.500000
O O2 0.635797 0.195847 0.527425
O O3 0.227706 0.256583 0.665078
O O4 0.358229 0.000000 0.581558
O O5 0.983136 0.500000 0.936034
O O6 0.750100 0.720302 0.053974
O O7 0.840475 0.749189 0.941544
O O8 0.148540 0.778275 0.901371
O O9 0.917884 0.752262 0.833416
O O10 0.740414 0.000000 0.929937
O O11 0.500000 0.743284 0.000000
O O12 0.450631 0.500000 0.325104
O O13 0.414499 0.796471 0.307290
O O14 0.242749 0.717417 0.439131
O O15 0.663418 0.735971 0.291555
O O16 0.569678 0.750084 0.778407
O O17 0.950984 0.716380 0.602839
O O18 0.782972 0.000000 0.677451
O O19 0.654129 0.000000 0.120500
O O20 0.738467 0.500000 0.509837
O O21 0.168444 0.000000 0.731789
#
# Coordination Sequence:
#
# PCOD9148741 Si02
#       8
#     4   4   4   4   4   4   4   4
#     4   9  18  35  57  79 105 138 182 233 272 313
#     4  11  22  37  59  84 112 144 183 232 285 336
#     4  10  21  38  58  81 112 150 190 234 283 334
#     4  10  20  33  52  78 109 145 179 219 270 324
#     4  11  22  34  52  80 109 142 181 222 267 319
#     4  10  21  38  59  82 110 147 189 228 275 339
#     4  10  21  35  51  75 110 145 178 218 270 329
#     4   9  18  34  56  80 104 139 185 226 270 323
#
# _framework density 20.404845999999999
#
# number of rings (size 3 to 8) (size 9 to 14) (size 15 to 20)
#    0.000    2.000    0.000    4.500    0.000    9.000 
#    2.250    0.000    0.000    0.000    0.000    0.000 
#    0.000    0.000    0.000    0.000    0.000    0.000 
#
# Total GULP energy -178610.702059 kJ/mol
# GULP energy per Si atom -5581.584439 kJ/mol
# Density = 2.035840 g / cm^3
# Si number density = 20.404846 Si / 1000 Ang^3
#
#
#
# Elastic Constant Matrix: (Units=GPa)
#
#
# Indices 1 2 3 4 5 6 
#
# 1 46.6753 -4.0452 33.5189 0.0000 16.0577 0.0000
# 2 -4.0452 24.0884 7.7954 0.0000 2.4033 0.0000
# 3 33.5189 7.7954 163.5359 0.0000 5.0527 0.0000
# 4 0.0000 0.0000 0.0000 13.4451 0.0000 -14.0511
# 5 16.0577 2.4033 5.0527 0.0000 22.9043 0.0000
# 6 0.0000 0.0000 0.0000 -14.0511 0.0000 77.1688
#
#
#
# Elastic Compliance Matrix: (Units=1/GPa)
#
#
# Indices 1 2 3 4 5 6 
#
# 1 0.036025 0.010835 -0.007133 0.000000 -0.024820 0.000000
# 2 0.010835 0.045791 -0.004048 0.000000 -0.011508 0.000000
# 3 -0.007133 -0.004048 0.007654 0.000000 0.003737 0.000000
# 4 0.000000 0.000000 0.000000 0.091856 0.000000 0.016725
# 5 -0.024820 -0.011508 0.003737 0.000000 0.061443 0.000000
# 6 0.000000 0.000000 0.000000 0.016725 0.000000 0.016004
#
#
# Mechanical properties :
#
#
# Convention : Reuss Voigt Hill
#
# Bulk Modulus (GPa) = 11.26417 34.31533 22.78975
# Shear Modulus (GPa) = 17.29743 35.83900 26.56821
#
# Velocity S-wave (km/s) = 2.91471 4.19549 3.61231
# Velocity P-wave (km/s) = 4.10605 6.35006 5.34710
#
# Compressibility (1/GPa) = 0.08877704
#
# Stress axis : x y z
#
# Youngs Moduli (GPa) = 27.75847 21.83822 130.64299
#
# Poissons Ratio (x) = -0.23661 0.93193
# Poissons Ratio (y) = -0.30075 0.52883
# Poissons Ratio (z) = 0.19801 0.08840
#
# Static dielectric constant tensor:
#      x y z
#    x 1.701100 0.000000 0.022140 
#    y 0.000000 1.699030 0.000000 
#    z 0.022140 0.000000 1.763150 
# 
# From -- ./inp_files/95005.got.cif
#   From: 2010.05.17/outbox.cif.g08.bks.cpg/sg10_48_cif.got.tgz:95005.got - 2010.06.03 11:33:40.
