data_PCOD9148356
_publ_section_title
;
Structure prediction by ZEFSAII (Michael W. Deem and Ramdas Pophale) SiO2 
 PCOD9148356
Probable space group: P 2/M
;
_chemical_formula_sum "Si O2"
_cell_formula_units_Z 24
_cell_length_a 15.638008
_cell_length_b 16.156367
_cell_length_c 9.097515
_cell_angle_alpha 90.000000
_cell_angle_beta 30.743120
_cell_angle_gamma 90.000000
_cell_volume 1174.979187
_symmetry_space_group_name_H-M "P 2/M"
_symmetry_group_IT_number 10
_symmetry_cell_setting 'monoclinic'
loop_
_space_group_symop_operation_xyz
x,y,z
-x,y,-z
-x,-y,-z
x,-y,z
loop_
_atom_site_type_symbol
_atom_site_label
_atom_site_fract_x
_atom_site_fract_y
_atom_site_fract_z
Si Si1 0.937824 0.592404 0.833439
Si Si2 0.271261 0.592404 0.166563
Si Si3 0.440756 0.750196 0.821285
Si Si4 0.237959 0.750196 0.821284
Si Si5 0.330078 0.091183 0.157063
Si Si6 0.012859 0.908817 0.157064
O O1 0.916992 0.500000 0.927346
O O2 0.830743 0.593513 0.838514
O O3 0.129085 0.604083 0.500001
O O4 0.872742 0.667642 0.027631
O O5 0.344337 0.500000 0.072656
O O6 0.400371 0.667642 0.972372
O O7 0.352478 0.737398 0.795044
O O8 0.637102 0.762942 0.500001
O O9 0.354080 0.830573 0.017787
O O10 0.128133 0.830573 0.017787
O O11 0.167323 0.101028 0.500000
O O12 0.315388 0.000000 0.105962
O O13 0.500000 0.089616 0.000000
O O14 0.078648 0.000000 0.105964
O O15 0.000000 0.910384 0.000000
#
# Coordination Sequence:
#
# PCOD9148356 Si02
#       6
#     4   4   4   4   4   4
#     4   8  14  26  45  69  98 132 168 205 245 290
#     4   8  14  26  45  69  98 132 168 205 245 290
#     4  10  20  32  49  76 107 136 167 206 249 292
#     4  10  20  32  49  76 107 136 167 206 249 292
#     4  10  21  37  56  75  97 129 168 208 251 302
#     4  10  21  37  56  75  97 129 168 208 251 302
#
# _framework density 20.425894
#
# number of rings (size 3 to 8) (size 9 to 14) (size 15 to 20)
#    0.000    2.667    0.000    3.000    0.000    5.333 
#    0.000    6.667    0.000    1.000    0.000    0.000 
#    0.000    0.000    0.000    0.000    0.000    0.000 
#
# Total GULP energy -133827.284583 kJ/mol
# GULP energy per Si atom -5576.136858 kJ/mol
# Density = 2.037940 g / cm^3
# Si number density = 20.425894 Si / 1000 Ang^3
#
#
#
# Elastic Constant Matrix: (Units=GPa)
#
#
# Indices 1 2 3 4 5 6 
#
# 1 11.8355 10.4253 6.3965 0.0000 2.4318 0.0000
# 2 10.4253 200.2467 117.4307 0.0000 8.0716 0.0000
# 3 6.3965 117.4307 145.0322 0.0000 7.6159 0.0000
# 4 0.0000 0.0000 0.0000 39.8135 0.0000 0.5712
# 5 2.4318 8.0716 7.6159 0.0000 19.2294 0.0000
# 6 0.0000 0.0000 0.0000 0.5712 0.0000 32.2238
#
#
#
# Elastic Compliance Matrix: (Units=1/GPa)
#
#
# Indices 1 2 3 4 5 6 
#
# 1 0.090263 -0.004329 0.000028 0.000000 -0.009609 0.000000
# 2 -0.004329 0.009734 -0.007664 0.000000 -0.000503 0.000000
# 3 0.000028 -0.007664 0.013205 0.000000 -0.002017 0.000000
# 4 0.000000 0.000000 0.000000 0.025123 0.000000 -0.000445
# 5 -0.009609 -0.000503 -0.002017 0.000000 0.054229 0.000000
# 6 0.000000 0.000000 0.000000 -0.000445 0.000000 0.031041
#
#
# Mechanical properties :
#
#
# Convention : Reuss Voigt Hill
#
# Bulk Modulus (GPa) = 11.20152 69.51327 40.35739
# Shear Modulus (GPa) = 18.03219 33.11080 25.57150
#
# Velocity S-wave (km/s) = 2.97444 4.03056 3.54208
# Velocity P-wave (km/s) = 4.15839 7.46769 6.04395
#
# Compressibility (1/GPa) = 0.08927362
#
# Stress axis : x y z
#
# Youngs Moduli (GPa) = 11.07872 102.73323 75.72775
#
# Poissons Ratio (x) = 0.44470 -0.00215
# Poissons Ratio (y) = 0.04796 0.58039
# Poissons Ratio (z) = -0.00032 0.78736
#
# Static dielectric constant tensor:
#      x y z
#    x 1.766290 0.000000 -0.004350 
#    y 0.000000 1.741560 0.000000 
#    z -0.004350 0.000000 1.708600 
# 
# From -- ./inp_files/56015.got.cif
#   From: 2010.05.17/outbox.cif.g08.bks.cpg/sg10_29_cif.got.tgz:56015.got - 2010.06.03 11:33:40.
