data_PCOD9148056
_publ_section_title
;
Structure prediction by ZEFSAII (Michael W. Deem and Ramdas Pophale) SiO2 
 PCOD9148056
Probable space group: P 2/M
;
_chemical_formula_sum "Si O2"
_cell_formula_units_Z 32
_cell_length_a 9.428253
_cell_length_b 20.218578
_cell_length_c 15.894132
_cell_angle_alpha 90.000000
_cell_angle_beta 150.543451
_cell_angle_gamma 90.000000
_cell_volume 1489.960758
_symmetry_space_group_name_H-M "P 2/M"
_symmetry_group_IT_number 10
_symmetry_cell_setting 'monoclinic'
loop_
_space_group_symop_operation_xyz
x,y,z
-x,y,-z
-x,-y,-z
x,-y,z
loop_
_atom_site_type_symbol
_atom_site_label
_atom_site_fract_x
_atom_site_fract_y
_atom_site_fract_z
Si Si1 0.100685 0.763149 0.468815
Si Si2 0.822265 0.580263 0.991021
Si Si3 0.828300 0.420475 0.664015
Si Si4 0.828897 0.178084 0.676692
Si Si5 0.291976 0.073959 0.971724
Si Si6 0.840310 0.378653 0.333749
Si Si7 0.653369 0.074115 0.814090
Si Si8 0.267173 0.221212 0.202133
O O1 0.081270 0.798433 0.369059
O O2 0.433388 0.740563 0.654922
O O3 0.000000 0.802475 0.500000
O O4 0.896275 0.699694 0.359706
O O5 0.811807 0.500000 0.983157
O O6 0.495279 0.604719 0.830872
O O7 0.000000 0.602142 0.000000
O O8 0.995470 0.601660 0.163261
O O9 0.500000 0.394342 0.500000
O O10 0.810749 0.500000 0.659638
O O11 0.001871 0.404552 0.668666
O O12 0.500000 0.154696 0.500000
O O13 0.829362 0.232261 0.751564
O O14 0.039234 0.123739 0.822158
O O15 0.172285 0.000000 0.916049
O O16 0.500000 0.077213 0.000000
O O17 0.444972 0.086174 0.140156
O O18 0.000000 0.404736 0.500000
O O19 0.620593 0.143791 0.748959
O O20 0.550178 0.000000 0.732838
O O21 0.000000 0.068912 0.000000
O O22 0.000000 0.230067 0.000000
#
# Coordination Sequence:
#
# PCOD9148056 Si02
#       8
#     4   4   4   4   4   4   4   4
#     4  10  25  43  57  80 119 161 209 265 309 359
#     4  10  21  40  69 104 136 170 213 258 317 389
#     4  10  21  38  65 101 137 171 206 252 314 377
#     4  10  21  38  60  84 114 153 197 249 312 371
#     4  10  20  33  54  89 124 149 188 247 312 387
#     4  11  23  42  62  88 131 174 217 271 317 364
#     4   9  16  30  57  89 119 147 191 251 315 389
#     4  10  19  38  64  88 110 155 210 258 309 378
#
# _framework density 21.477077000000001
#
# number of rings (size 3 to 8) (size 9 to 14) (size 15 to 20)
#    0.000    2.000    2.500    1.500    1.750    4.750 
#    0.000   13.125    0.000    0.750    0.000    0.000 
#    0.000    0.000    0.000    0.000    0.000    0.000 
#
# Total GULP energy -178524.421535 kJ/mol
# GULP energy per Si atom -5578.888173 kJ/mol
# Density = 2.142819 g / cm^3
# Si number density = 21.477077 Si / 1000 Ang^3
#
#
#
# Elastic Constant Matrix: (Units=GPa)
#
#
# Indices 1 2 3 4 5 6 
#
# 1 205.1809 19.3466 75.4015 0.0000 -11.2799 0.0000
# 2 19.3466 48.9908 22.1893 0.0000 5.0796 0.0000
# 3 75.4015 22.1893 129.8865 0.0000 3.2967 0.0000
# 4 0.0000 0.0000 0.0000 14.2866 0.0000 12.4048
# 5 -11.2799 5.0796 3.2967 0.0000 36.8955 0.0000
# 6 0.0000 0.0000 0.0000 12.4048 0.0000 39.4027
#
#
#
# Elastic Compliance Matrix: (Units=1/GPa)
#
#
# Indices 1 2 3 4 5 6 
#
# 1 0.006443 -0.001167 -0.003603 0.000000 0.002452 0.000000
# 2 -0.001167 0.022610 -0.003104 0.000000 -0.003192 0.000000
# 3 -0.003603 -0.003104 0.010362 0.000000 -0.001600 0.000000
# 4 0.000000 0.000000 0.000000 0.096327 0.000000 -0.030326
# 5 0.002452 -0.003192 -0.001600 0.000000 0.028436 0.000000
# 6 0.000000 0.000000 0.000000 -0.030326 0.000000 0.034926
#
#
# Mechanical properties :
#
#
# Convention : Reuss Voigt Hill
#
# Bulk Modulus (GPa) = 42.25450 68.65922 55.45686
# Shear Modulus (GPa) = 22.44780 35.92500 29.18640
#
# Velocity S-wave (km/s) = 3.23646 4.09432 3.69040
# Velocity P-wave (km/s) = 5.80372 7.37491 6.63598
#
# Compressibility (1/GPa) = 0.02366612
#
# Stress axis : x y z
#
# Youngs Moduli (GPa) = 155.21642 44.22882 96.51038
#
# Poissons Ratio (x) = 0.05160 0.34773
# Poissons Ratio (y) = 0.18107 0.29960
# Poissons Ratio (z) = 0.55925 0.13730
#
# Static dielectric constant tensor:
#      x y z
#    x 1.851150 0.000000 -0.018670 
#    y 0.000000 1.840580 0.000000 
#    z -0.018670 0.000000 1.757110 
# 
# From -- ./inp_files/62744.got.cif
#   From: 2010.05.17/outbox.cif.g08.bks.cpg/sg10_32_cif.got.tgz:62744.got - 2010.06.03 11:33:40.
