data_PCOD9148276
_publ_section_title
;
Structure prediction by ZEFSAII (Michael W. Deem and Ramdas Pophale) SiO2 
 PCOD9148276
Probable space group: P 2/M
;
_chemical_formula_sum "Si O2"
_cell_formula_units_Z 28
_cell_length_a 26.371073
_cell_length_b 7.590543
_cell_length_c 9.564335
_cell_angle_alpha 90.000000
_cell_angle_beta 139.089917
_cell_angle_gamma 90.000000
_cell_volume 1253.756085
_symmetry_space_group_name_H-M "P 2/M"
_symmetry_group_IT_number 10
_symmetry_cell_setting 'monoclinic'
loop_
_space_group_symop_operation_xyz
x,y,z
-x,y,-z
-x,-y,-z
x,-y,z
loop_
_atom_site_type_symbol
_atom_site_label
_atom_site_fract_x
_atom_site_fract_y
_atom_site_fract_z
Si Si1 0.674966 0.291228 0.158906
Si Si2 0.245171 0.788130 0.406380
Si Si3 0.996606 0.713909 0.654608
Si Si4 0.737002 0.786259 0.874020
Si Si5 0.827357 0.706817 0.326020
Si Si6 0.583323 0.793855 0.712121
Si Si7 0.077267 0.204223 0.092026
O O1 0.673714 0.500000 0.134942
O O2 0.685420 0.255672 0.343885
O O3 0.753983 0.214893 0.253974
O O4 0.604557 0.220143 0.920154
O O5 0.257041 0.725970 0.272929
O O6 0.238812 0.000000 0.387423
O O7 0.162625 0.718521 0.293475
O O8 0.000059 0.500000 0.666603
O O9 0.912441 0.776669 0.534081
O O10 0.000000 0.766270 0.500000
O O11 0.061478 0.786113 0.892789
O O12 0.657334 0.722011 0.781144
O O13 0.737671 0.000000 0.877439
O O14 0.806672 0.725872 0.119181
O O15 0.830119 0.500000 0.364219
O O16 0.500000 0.716442 0.500000
O O17 0.580574 0.000000 0.668980
O O18 0.079682 0.000000 0.140802
O O19 0.000000 0.286198 0.000000
#
# Coordination Sequence:
#
# PCOD9148276 Si02
#       7
#     4   4   4   4   4   4   4
#     4  10  20  33  52  76 100 130 165 198 237 288
#     4  10  20  34  50  71 101 132 165 205 244 287
#     4  10  20  32  47  69  96 127 165 208 252 295
#     4   9  18  32  52  76  98 126 164 202 243 290
#     4   9  18  32  48  69  97 128 165 206 246 291
#     4   9  18  35  58  80 101 126 157 195 241 292
#     4  10  21  34  48  69  97 131 170 209 248 287
#
# _framework density 22.332892000000001
#
# number of rings (size 3 to 8) (size 9 to 14) (size 15 to 20)
#    0.000    2.429    0.000    2.143    0.000    3.143 
#    0.000    0.714    0.000    4.286    0.000    0.000 
#    0.000    0.000    0.000    0.000    0.000    0.000 
#
# Total GULP energy -156370.942392 kJ/mol
# GULP energy per Si atom -5584.676514 kJ/mol
# Density = 2.228206 g / cm^3
# Si number density = 22.332892 Si / 1000 Ang^3
#
#
#
# Elastic Constant Matrix: (Units=GPa)
#
#
# Indices 1 2 3 4 5 6 
#
# 1 38.1795 1.1595 28.0112 0.0000 -6.5855 0.0000
# 2 1.1595 56.2040 -13.1019 0.0000 6.6002 0.0000
# 3 28.0112 -13.1019 144.9931 0.0000 3.3713 0.0000
# 4 0.0000 0.0000 0.0000 26.2932 0.0000 -11.0619
# 5 -6.5855 6.6002 3.3713 0.0000 38.4985 0.0000
# 6 0.0000 0.0000 0.0000 -11.0619 0.0000 8.1242
#
#
#
# Elastic Compliance Matrix: (Units=1/GPa)
#
#
# Indices 1 2 3 4 5 6 
#
# 1 0.032319 -0.002999 -0.006669 0.000000 0.006627 0.000000
# 2 -0.002999 0.018873 0.002377 0.000000 -0.003957 0.000000
# 3 -0.006669 0.002377 0.008453 0.000000 -0.002288 0.000000
# 4 0.000000 0.000000 0.000000 0.089036 0.000000 0.121231
# 5 0.006627 -0.003957 -0.002288 0.000000 0.027987 0.000000
# 6 0.000000 0.000000 0.000000 0.121231 0.000000 0.288156
#
#
# Mechanical properties :
#
#
# Convention : Reuss Voigt Hill
#
# Bulk Modulus (GPa) = 22.19155 30.16824 26.17989
# Shear Modulus (GPa) = 10.11269 29.47037 19.79153
#
# Velocity S-wave (km/s) = 2.13026 3.63656 2.98015
# Velocity P-wave (km/s) = 4.00112 5.58306 4.85693
#
# Compressibility (1/GPa) = 0.04506221
#
# Stress axis : x y z
#
# Youngs Moduli (GPa) = 30.94169 52.98589 118.29822
#
# Poissons Ratio (x) = 0.15893 0.78891
# Poissons Ratio (y) = 0.09281 -0.28118
# Poissons Ratio (z) = 0.20634 -0.12594
#
# Static dielectric constant tensor:
#      x y z
#    x 1.875490 0.000000 -0.009540 
#    y 0.000000 1.807050 0.000000 
#    z -0.009540 0.000000 1.820020 
# 
# From -- ./inp_files/37273.got.cif
#   From: 2010.05.17/outbox.cif.g08.bks.cpg/sg10_19_cif.got.tgz:37273.got - 2010.06.03 11:33:40.
