data_PCOD9148971
_publ_section_title
;
Structure prediction by ZEFSAII (Michael W. Deem and Ramdas Pophale) SiO2 
 PCOD9148971
Probable space group: P 2/M
;
_chemical_formula_sum "Si O2"
_cell_formula_units_Z 28
_cell_length_a 15.610997
_cell_length_b 8.434316
_cell_length_c 12.221151
_cell_angle_alpha 90.000000
_cell_angle_beta 116.619747
_cell_angle_gamma 90.000000
_cell_volume 1438.566926
_symmetry_space_group_name_H-M "P 2/M"
_symmetry_group_IT_number 10
_symmetry_cell_setting 'monoclinic'
loop_
_space_group_symop_operation_xyz
x,y,z
-x,y,-z
-x,-y,-z
x,-y,z
loop_
_atom_site_type_symbol
_atom_site_label
_atom_site_fract_x
_atom_site_fract_y
_atom_site_fract_z
Si Si1 0.633817 0.815086 0.001925
Si Si2 0.182666 0.692280 0.299921
Si Si3 0.798846 0.308295 0.938053
Si Si4 0.902402 0.191223 0.383328
Si Si5 0.277369 0.189704 0.570951
Si Si6 0.565851 0.315157 0.186018
Si Si7 0.962913 0.309461 0.187550
O O1 0.717445 0.758898 0.970233
O O2 0.531600 0.782920 0.885764
O O3 0.644579 0.000000 0.033822
O O4 0.628676 0.721629 0.113556
O O5 0.184190 0.500000 0.306977
O O6 0.211924 0.739749 0.194050
O O7 0.249330 0.759987 0.432915
O O8 0.072536 0.747349 0.254497
O O9 0.794416 0.500000 0.938984
O O10 0.901878 0.260086 0.046854
O O11 0.810980 0.241984 0.401457
O O12 0.906770 0.255523 0.263367
O O13 0.000000 0.242309 0.500000
O O14 0.902002 0.000000 0.378713
O O15 0.373059 0.266061 0.674104
O O16 0.284962 0.000000 0.582172
O O17 0.541237 0.500000 0.174082
O O18 0.967221 0.500000 0.188686
#
# Coordination Sequence:
#
# PCOD9148971 Si02
#       7
#     4   4   4   4   4   4   4
#     4  11  22  39  62  90 119 146 184 233 286 339
#     4  10  21  37  56  80 114 155 198 239 281 334
#     4  10  21  38  58  82 114 153 195 239 285 335
#     4  10  20  34  51  76 112 151 184 226 282 337
#     4  11  22  37  57  83 118 154 191 235 287 340
#     4  11  22  39  64  90 116 147 185 230 286 344
#     4  10  20  34  56  83 111 149 196 241 282 330
#
# _framework density 19.463815
#
# number of rings (size 3 to 8) (size 9 to 14) (size 15 to 20)
#    0.000    1.571    1.429    5.143    0.000    6.571 
#    0.000    0.714    0.000    6.857    0.000    0.000 
#    0.000    0.000    0.000    0.000    0.000    0.000 
#
# Total GULP energy -156506.939985 kJ/mol
# GULP energy per Si atom -5589.533571 kJ/mol
# Density = 1.941951 g / cm^3
# Si number density = 19.463815 Si / 1000 Ang^3
#
#
#
# Elastic Constant Matrix: (Units=GPa)
#
#
# Indices 1 2 3 4 5 6 
#
# 1 34.1039 -2.7429 23.2528 0.0000 -4.7024 0.0000
# 2 -2.7429 16.7836 -0.5884 0.0000 -0.4511 0.0000
# 3 23.2528 -0.5884 125.4679 0.0000 2.5037 0.0000
# 4 0.0000 0.0000 0.0000 67.2632 0.0000 -8.9782
# 5 -4.7024 -0.4511 2.5037 0.0000 21.4031 0.0000
# 6 0.0000 0.0000 0.0000 -8.9782 0.0000 23.2145
#
#
#
# Elastic Compliance Matrix: (Units=1/GPa)
#
#
# Indices 1 2 3 4 5 6 
#
# 1 0.035591 0.005815 -0.006743 0.000000 0.008731 0.000000
# 2 0.005815 0.060574 -0.000847 0.000000 0.002653 0.000000
# 3 -0.006743 -0.000847 0.009267 0.000000 -0.002583 0.000000
# 4 0.000000 0.000000 0.000000 0.015676 0.000000 0.006063
# 5 0.008731 0.002653 -0.002583 0.000000 0.048999 0.000000
# 6 0.000000 0.000000 0.000000 0.006063 0.000000 0.045421
#
#
# Mechanical properties :
#
#
# Convention : Reuss Voigt Hill
#
# Bulk Modulus (GPa) = 9.81516 24.02204 16.91860
# Shear Modulus (GPa) = 19.75979 32.80509 26.28244
#
# Velocity S-wave (km/s) = 3.18969 4.10986 3.67866
# Velocity P-wave (km/s) = 4.31500 5.90678 5.17248
#
# Compressibility (1/GPa) = 0.10188319
#
# Stress axis : x y z
#
# Youngs Moduli (GPa) = 28.09675 16.50878 107.90475
#
# Poissons Ratio (x) = -0.09600 0.72761
# Poissons Ratio (y) = -0.16338 0.09135
# Poissons Ratio (z) = 0.18946 0.01398
#
# Static dielectric constant tensor:
#      x y z
#    x 1.665200 0.000000 0.013650 
#    y 0.000000 1.662010 0.000000 
#    z 0.013650 0.000000 1.677060 
# 
# From -- ./inp_files/50114.got.cif
#   From: 2010.05.17/outbox.cif.g08.bks.cpg/sg10_26_cif.got.tgz:50114.got - 2010.06.03 11:33:40.
