data_PCOD9148634
_publ_section_title
;
Structure prediction by ZEFSAII (Michael W. Deem and Ramdas Pophale) SiO2 
 PCOD9148634
Probable space group: P 2/M
;
_chemical_formula_sum "Si O2"
_cell_formula_units_Z 32
_cell_length_a 14.343350
_cell_length_b 8.823657
_cell_length_c 15.658535
_cell_angle_alpha 90.000000
_cell_angle_beta 87.015429
_cell_angle_gamma 90.000000
_cell_volume 1979.068655
_symmetry_space_group_name_H-M "P 2/M"
_symmetry_group_IT_number 10
_symmetry_cell_setting 'monoclinic'
loop_
_space_group_symop_operation_xyz
x,y,z
-x,y,-z
-x,-y,-z
x,-y,z
loop_
_atom_site_type_symbol
_atom_site_label
_atom_site_fract_x
_atom_site_fract_y
_atom_site_fract_z
Si Si1 0.610913 0.820759 0.985128
Si Si2 0.387605 0.325469 0.518500
Si Si3 0.633278 0.180776 0.659122
Si Si4 0.586909 0.819859 0.304988
Si Si5 0.716709 0.680729 0.821837
Si Si6 0.908145 0.318697 0.907893
Si Si7 0.896229 0.818756 0.097763
Si Si8 0.294952 0.319800 0.852636
O O1 0.647648 0.757238 0.893763
O O2 0.631622 0.000000 0.990003
O O3 0.500000 0.800550 0.000000
O O4 0.662219 0.735059 0.059493
O O5 0.500000 0.324088 0.500000
O O6 0.358081 0.500000 0.528272
O O7 0.347549 0.249603 0.435126
O O8 0.371432 0.234614 0.606486
O O9 0.524210 0.212966 0.686891
O O10 0.695328 0.253367 0.730055
O O11 0.644023 0.000000 0.656456
O O12 0.636607 0.734279 0.225488
O O13 0.598176 0.000000 0.294091
O O14 0.702357 0.500000 0.823145
O O15 0.821573 0.711496 0.849809
O O16 0.916636 0.500000 0.918989
O O17 0.006435 0.249729 0.873353
O O18 0.887895 0.243330 0.000902
O O19 0.805905 0.758474 0.151245
O O20 0.899537 0.000000 0.096614
O O21 0.284823 0.500000 0.853400
#
# Coordination Sequence:
#
# PCOD9148634 Si02
#       8
#     4   4   4   4   4   4   4   4
#     4  11  23  36  49  68  99 137 174 210 248 296
#     4   9  17  31  51  74 100 131 169 212 256 301
#     4  10  20  33  51  74 104 138 172 212 253 298
#     4  10  20  34  51  74 103 136 173 212 255 301
#     4  11  22  34  51  74 101 135 171 209 252 301
#     4  10  20  35  53  74 100 129 166 213 260 303
#     4  11  21  34  54  75  97 129 168 212 259 305
#     4  12  23  35  51  73 101 135 172 211 254 302
#
# _framework density 16.169221
#
# number of rings (size 3 to 8) (size 9 to 14) (size 15 to 20)
#    0.000    1.500    1.250    6.000    0.000    8.500 
#    0.000    0.000    0.000    0.000    0.000    0.875 
#    0.000    7.000    0.000    0.000    0.000    0.000 
#
# Total GULP energy -178753.063546 kJ/mol
# GULP energy per Si atom -5586.033236 kJ/mol
# Density = 1.613242 g / cm^3
# Si number density = 16.169221 Si / 1000 Ang^3
#
#
#
# Elastic Constant Matrix: (Units=GPa)
#
#
# Indices 1 2 3 4 5 6 
#
# 1 55.3950 42.4465 12.1392 0.0000 17.4262 0.0000
# 2 42.4465 98.6678 20.4906 0.0000 16.7035 0.0000
# 3 12.1392 20.4906 61.0064 0.0000 26.6036 0.0000
# 4 0.0000 0.0000 0.0000 31.7201 0.0000 2.0306
# 5 17.4262 16.7035 26.6036 0.0000 18.7917 0.0000
# 6 0.0000 0.0000 0.0000 2.0306 0.0000 41.3386
#
#
#
# Elastic Compliance Matrix: (Units=1/GPa)
#
#
# Indices 1 2 3 4 5 6 
#
# 1 0.040232 -0.012188 0.019950 0.000000 -0.054718 0.000000
# 2 -0.012188 0.015683 -0.004422 0.000000 0.003621 0.000000
# 3 0.019950 -0.004422 0.052950 0.000000 -0.089532 0.000000
# 4 0.000000 0.000000 0.000000 0.031625 0.000000 -0.001553
# 5 -0.054718 0.003621 -0.089532 0.000000 0.227490 0.000000
# 6 0.000000 0.000000 0.000000 -0.001553 0.000000 0.024267
#
#
# Mechanical properties :
#
#
# Convention : Reuss Voigt Hill
#
# Bulk Modulus (GPa) = 8.65452 40.58022 24.61737
# Shear Modulus (GPa) = 11.79016 27.70296 19.74656
#
# Velocity S-wave (km/s) = 2.70325 4.14371 3.49842
# Velocity P-wave (km/s) = 3.88684 6.93148 5.61930
#
# Compressibility (1/GPa) = 0.11554660
#
# Stress axis : x y z
#
# Youngs Moduli (GPa) = 24.85556 63.76220 18.88566
#
# Poissons Ratio (x) = 0.77710 -0.37676
# Poissons Ratio (y) = 0.30293 0.08351
# Poissons Ratio (z) = -0.49586 0.28194
#
# Static dielectric constant tensor:
#      x y z
#    x 1.543380 0.000000 0.003500 
#    y 0.000000 1.538340 0.000000 
#    z 0.003500 0.000000 1.518350 
# 
# From -- ./inp_files/66113.got.cif
#   From: 2010.05.17/outbox.cif.g08.bks.cpg/sg10_34_cif.got.tgz:66113.got - 2010.06.03 11:33:40.
