data_PCOD9148920
_publ_section_title
;
Structure prediction by ZEFSAII (Michael W. Deem and Ramdas Pophale) SiO2 
 PCOD9148920
Probable space group: P 2/M
;
_chemical_formula_sum "Si O2"
_cell_formula_units_Z 24
_cell_length_a 17.055856
_cell_length_b 8.334149
_cell_length_c 6.998776
_cell_angle_alpha 90.000000
_cell_angle_beta 92.854955
_cell_angle_gamma 90.000000
_cell_volume 993.613548
_symmetry_space_group_name_H-M "P 2/M"
_symmetry_group_IT_number 10
_symmetry_cell_setting 'monoclinic'
loop_
_space_group_symop_operation_xyz
x,y,z
-x,y,-z
-x,-y,-z
x,-y,z
loop_
_atom_site_type_symbol
_atom_site_label
_atom_site_fract_x
_atom_site_fract_y
_atom_site_fract_z
Si Si1 0.334485 0.671337 0.969576
Si Si2 0.310674 0.318497 0.427359
Si Si3 0.179776 0.179458 0.883350
Si Si4 0.020006 0.683734 0.774126
Si Si5 0.408602 0.000000 0.007189
Si Si6 0.404987 0.000000 0.455714
Si Si7 0.144683 0.184538 0.336352
O O1 0.370854 0.500000 0.924873
O O2 0.324982 0.674792 0.198893
O O3 0.378783 0.832829 0.922017
O O4 0.248276 0.691938 0.868675
O O5 0.328083 0.500000 0.498947
O O6 0.362658 0.168244 0.509525
O O7 0.218229 0.276772 0.435709
O O8 0.099179 0.214465 0.764995
O O9 0.208866 0.000000 0.844916
O O10 0.160837 0.183768 0.108450
O O11 0.036883 0.500000 0.728970
O O12 0.941967 0.742032 0.658074
O O13 0.000000 0.690085 0.000000
O O14 0.388356 0.000000 0.227348
O O15 0.500000 0.000000 0.000000
O O16 0.500000 0.000000 0.500000
O O17 0.145818 0.000000 0.397719
#
# Coordination Sequence:
#
# PCOD9148920 Si02
#       7
#     4   4   4   4   2   2   4
#     4   9  16  27  43  61  83 113 147 181 219 266
#     4   9  16  27  43  61  83 113 147 181 219 266
#     4   9  14  21  32  48  73 107 145 180 213 253
#     4   9  15  19  25  43  71 105 145 181 211 248
#     4  10  20  34  50  69  91 115 147 186 228 272
#     4  10  20  34  50  69  91 115 147 186 228 272
#     4   9  14  21  32  48  73 107 145 180 213 253
#
# _framework density 24.154259
#
# number of rings (size 3 to 8) (size 9 to 14) (size 15 to 20)
#    0.000    2.833    1.667    1.500    0.000    6.667 
#    0.000    0.000    0.000    0.000    0.000    0.000 
#    0.000    0.000    0.000    3.000    0.000   11.000 
#
# Total GULP energy -134168.680830 kJ/mol
# GULP energy per Si atom -5590.361701 kJ/mol
# Density = 2.409928 g / cm^3
# Si number density = 24.154259 Si / 1000 Ang^3
#
#
#
# Elastic Constant Matrix: (Units=GPa)
#
#
# Indices 1 2 3 4 5 6 
#
# 1 112.1168 88.4956 13.7821 0.0000 32.9059 0.0000
# 2 88.4956 237.3147 24.9659 0.0000 30.1822 0.0000
# 3 13.7821 24.9659 123.9206 0.0000 3.3421 0.0000
# 4 0.0000 0.0000 0.0000 -4.4258 0.0000 17.2944
# 5 32.9059 30.1822 3.3421 0.0000 32.4326 0.0000
# 6 0.0000 0.0000 0.0000 17.2944 0.0000 0.3949
#
#
#
# Elastic Compliance Matrix: (Units=1/GPa)
#
#
# Indices 1 2 3 4 5 6 
#
# 1 0.015983 -0.004361 -0.000573 0.000000 -0.012099 0.000000
# 2 -0.004361 0.006059 -0.000705 0.000000 -0.001142 0.000000
# 3 -0.000573 -0.000705 0.008265 0.000000 0.000385 0.000000
# 4 0.000000 0.000000 0.000000 -0.001313 0.000000 0.057486
# 5 -0.012099 -0.001142 0.000385 0.000000 0.044131 0.000000
# 6 0.000000 0.000000 0.000000 0.057486 0.000000 0.014711
#
#
# Mechanical properties :
#
#
# Convention : Reuss Voigt Hill
#
# Bulk Modulus (GPa) = 52.54903 80.87106 66.71005
# Shear Modulus (GPa) = 47.41258 28.75426 38.08342
#
# Velocity S-wave (km/s) = 4.43528 3.45402 3.97504
# Velocity P-wave (km/s) = 6.93049 7.03284 6.98185
#
# Compressibility (1/GPa) = 0.01902985
#
# Stress axis : x y z
#
# Youngs Moduli (GPa) = 62.56717 165.03173 120.99209
#
# Poissons Ratio (x) = 0.71972 0.06929
# Poissons Ratio (y) = 0.27286 0.08529
# Poissons Ratio (z) = 0.03583 0.11634
#
# Static dielectric constant tensor:
#      x y z
#    x 1.863550 0.000000 -0.024820 
#    y 0.000000 1.848360 0.000000 
#    z -0.024820 0.000000 1.933410 
# 
# From -- ./inp_files/48910.got.cif
#   From: 2010.05.17/outbox.cif.g08.bks.cpg/sg10_25_cif.got.tgz:48910.got - 2010.06.03 11:33:40.
