data_PCOD9148818
_publ_section_title
;
Structure prediction by ZEFSAII (Michael W. Deem and Ramdas Pophale) SiO2 
 PCOD9148818
Probable space group: P 2/M
;
_chemical_formula_sum "Si O2"
_cell_formula_units_Z 32
_cell_length_a 29.147173
_cell_length_b 9.708910
_cell_length_c 11.815277
_cell_angle_alpha 90.000000
_cell_angle_beta 29.590231
_cell_angle_gamma 90.000000
_cell_volume 1651.035026
_symmetry_space_group_name_H-M "P 2/M"
_symmetry_group_IT_number 10
_symmetry_cell_setting 'monoclinic'
loop_
_space_group_symop_operation_xyz
x,y,z
-x,y,-z
-x,-y,-z
x,-y,z
loop_
_atom_site_type_symbol
_atom_site_label
_atom_site_fract_x
_atom_site_fract_y
_atom_site_fract_z
Si Si1 0.836734 0.854300 0.157325
Si Si2 0.751384 0.157145 0.093029
Si Si3 0.105505 0.648756 0.806633
Si Si4 0.636347 0.156629 0.703500
Si Si5 0.380797 0.665243 0.033758
Si Si6 0.096090 0.333321 0.358537
Si Si7 0.444407 0.163868 0.373480
Si Si8 0.826148 0.666313 0.573575
O O1 0.805507 0.849137 0.096184
O O2 0.893617 0.727033 0.078022
O O3 0.742320 0.846804 0.433195
O O4 0.884093 0.000000 0.078878
O O5 0.646037 0.194820 0.355217
O O6 0.750874 0.000000 0.047139
O O7 0.812295 0.263293 0.891306
O O8 0.152390 0.500000 0.721453
O O9 0.149159 0.722312 0.603628
O O10 0.000000 0.632126 0.000000
O O11 0.625735 0.265176 0.827103
O O12 0.581046 0.186539 0.705430
O O13 0.612286 0.000000 0.793054
O O14 0.392614 0.500000 0.016906
O O15 0.283706 0.693055 0.176710
O O16 0.467740 0.741048 0.789394
O O17 0.102064 0.500000 0.338284
O O18 0.106774 0.291899 0.467854
O O19 0.000000 0.292791 0.500000
O O20 0.462815 0.000000 0.346155
O O21 0.837001 0.500000 0.541794
#
# Coordination Sequence:
#
# PCOD9148818 Si02
#       8
#     4   4   4   4   4   4   4   4
#     4   9  18  33  53  78 110 144 179 223 274 327
#     4   9  20  39  59  81 112 145 182 234 282 319
#     4  10  20  33  54  79 110 148 182 222 276 333
#     4   9  17  31  50  73 107 150 185 215 262 323
#     4  11  20  31  51  78 112 148 181 226 275 324
#     4  10  22  40  64  85 105 142 189 234 278 332
#     4   9  19  35  54  77 110 149 184 223 271 325
#     4   9  20  38  53  79 118 146 179 231 283 326
#
# _framework density 19.381782000000001
#
# number of rings (size 3 to 8) (size 9 to 14) (size 15 to 20)
#    0.000    2.500    1.250    2.250    1.750    3.500 
#    0.000    5.000    0.000    3.750    0.000    0.000 
#    0.000    0.000    0.000    0.000    0.000    0.000 
#
# Total GULP energy -178187.574552 kJ/mol
# GULP energy per Si atom -5568.361705 kJ/mol
# Density = 1.933767 g / cm^3
# Si number density = 19.381782 Si / 1000 Ang^3
#
#
#
# Elastic Constant Matrix: (Units=GPa)
#
#
# Indices 1 2 3 4 5 6 
#
# 1 51.0537 16.0310 14.7611 0.0000 -9.8028 0.0000
# 2 16.0310 40.4417 15.8773 0.0000 -1.9820 0.0000
# 3 14.7611 15.8773 56.7286 0.0000 -2.6855 0.0000
# 4 0.0000 0.0000 0.0000 34.2094 0.0000 6.7375
# 5 -9.8028 -1.9820 -2.6855 0.0000 22.1634 0.0000
# 6 0.0000 0.0000 0.0000 6.7375 0.0000 -12.6968
#
#
#
# Elastic Compliance Matrix: (Units=1/GPa)
#
#
# Indices 1 2 3 4 5 6 
#
# 1 0.025100 -0.007958 -0.003834 0.000000 0.009926 0.000000
# 2 -0.007958 0.030356 -0.006501 0.000000 -0.001593 0.000000
# 3 -0.003834 -0.006501 0.020454 0.000000 0.000201 0.000000
# 4 0.000000 0.000000 0.000000 0.026466 0.000000 0.014044
# 5 0.009926 -0.001593 0.000201 0.000000 0.049391 0.000000
# 6 0.000000 0.000000 0.000000 0.014044 0.000000 -0.071308
#
#
# Mechanical properties :
#
#
# Convention : Reuss Voigt Hill
#
# Bulk Modulus (GPa) = 25.42923 26.84030 26.13476
# Shear Modulus (GPa) = 38.41613 15.50551 26.96082
#
# Velocity S-wave (km/s) = 4.45688 2.83150 3.73371
# Velocity P-wave (km/s) = 6.29553 4.95663 5.66577
#
# Compressibility (1/GPa) = 0.03932483
#
# Stress axis : x y z
#
# Youngs Moduli (GPa) = 39.83997 32.94283 48.88930
#
# Poissons Ratio (x) = 0.26216 0.18744
# Poissons Ratio (y) = 0.31705 0.31781
# Poissons Ratio (z) = 0.15275 0.21415
#
# Static dielectric constant tensor:
#      x y z
#    x 1.684770 0.000000 -0.006530 
#    y 0.000000 1.714060 0.000000 
#    z -0.006530 0.000000 1.724760 
# 
# From -- ./inp_files/58104.got.cif
#   From: 2010.05.17/outbox.cif.g08.bks.cpg/sg10_30_cif.got.tgz:58104.got - 2010.06.03 11:33:40.
