data_PCOD9148790
_publ_section_title
;
Structure prediction by ZEFSAII (Michael W. Deem and Ramdas Pophale) SiO2 
 PCOD9148790
Probable space group: P 2/M
;
_chemical_formula_sum "Si O2"
_cell_formula_units_Z 24
_cell_length_a 19.204270
_cell_length_b 16.748515
_cell_length_c 12.549878
_cell_angle_alpha 90.000000
_cell_angle_beta 19.692154
_cell_angle_gamma 90.000000
_cell_volume 1360.191711
_symmetry_space_group_name_H-M "P 2/M"
_symmetry_group_IT_number 10
_symmetry_cell_setting 'monoclinic'
loop_
_space_group_symop_operation_xyz
x,y,z
-x,y,-z
-x,-y,-z
x,-y,z
loop_
_atom_site_type_symbol
_atom_site_label
_atom_site_fract_x
_atom_site_fract_y
_atom_site_fract_z
Si Si1 0.741840 0.500000 0.132500
Si Si2 0.786790 0.799725 0.755790
Si Si3 0.178317 0.758507 0.545210
Si Si4 0.248658 0.500000 0.132406
Si Si5 0.576213 0.089775 0.767201
Si Si6 0.509516 0.660615 0.202024
Si Si7 0.854061 0.353632 0.111519
O O1 0.500000 0.500000 0.500000
O O2 0.841524 0.422440 0.042402
O O3 0.746048 0.500000 0.001627
O O4 0.813905 0.771406 0.593279
O O5 0.000000 0.823924 0.500000
O O6 0.621101 0.870518 0.004231
O O7 0.690762 0.724402 0.954849
O O8 0.242071 0.844795 0.501113
O O9 0.356986 0.697062 0.330086
O O10 0.965250 0.722972 0.898205
O O11 0.000000 0.500000 0.500000
O O12 0.377399 0.577380 0.986331
O O13 0.627040 0.000000 0.660088
O O14 0.500000 0.086861 0.000000
O O15 0.367731 0.656882 0.512250
O O16 0.000000 0.378928 0.000000
#
# Coordination Sequence:
#
# PCOD9148790 Si02
#       7
#     2   4   4   2   4   4   4
#     4  12  23  38  55  77 109 143 187 224 273 311
#     4  10  20  33  53  80 113 140 179 224 267 321
#     4   9  20  35  57  82 103 145 182 218 273 319
#     4  12  26  38  53  83 109 144 184 231 273 312
#     4   8  15  32  55  81 111 140 175 218 264 324
#     4  10  20  38  54  73 109 140 182 224 270 320
#     4  10  21  37  58  75 105 141 187 225 265 321
#
# _framework density 17.644570999999999
#
# number of rings (size 3 to 8) (size 9 to 14) (size 15 to 20)
#    0.000    2.167    1.667    2.250    4.667    2.333 
#    0.000    1.667    0.000   12.500    0.000    0.000 
#    0.000   27.333    0.000    0.000    0.000    0.000 
#
# Total GULP energy -133671.258655 kJ/mol
# GULP energy per Si atom -5569.635777 kJ/mol
# Density = 1.760441 g / cm^3
# Si number density = 17.644571 Si / 1000 Ang^3
#
#
#
# Elastic Constant Matrix: (Units=GPa)
#
#
# Indices 1 2 3 4 5 6 
#
# 1 48.9717 21.4532 -2.9008 0.0000 -3.3790 0.0000
# 2 21.4532 152.8718 45.8373 0.0000 -19.1927 0.0000
# 3 -2.9008 45.8373 83.8408 0.0000 -5.8755 0.0000
# 4 0.0000 0.0000 0.0000 20.5209 0.0000 4.7352
# 5 -3.3790 -19.1927 -5.8755 0.0000 14.8977 0.0000
# 6 0.0000 0.0000 0.0000 4.7352 0.0000 9.0253
#
#
#
# Elastic Compliance Matrix: (Units=1/GPa)
#
#
# Indices 1 2 3 4 5 6 
#
# 1 0.022382 -0.003877 0.002982 0.000000 0.001258 0.000000
# 2 -0.003877 0.009748 -0.004777 0.000000 0.009794 0.000000
# 3 0.002982 -0.004777 0.014664 0.000000 0.000305 0.000000
# 4 0.000000 0.000000 0.000000 0.055443 0.000000 -0.029088
# 5 0.001258 0.009794 0.000305 0.000000 0.080148 0.000000
# 6 0.000000 0.000000 0.000000 -0.029088 0.000000 0.126061
#
#
# Mechanical properties :
#
#
# Convention : Reuss Voigt Hill
#
# Bulk Modulus (GPa) = 28.20940 46.05152 37.13046
# Shear Modulus (GPa) = 15.07815 23.64176 19.35995
#
# Velocity S-wave (km/s) = 2.92644 3.66442 3.31602
# Velocity P-wave (km/s) = 5.23842 6.63778 5.97918
#
# Compressibility (1/GPa) = 0.03544918
#
# Stress axis : x y z
#
# Youngs Moduli (GPa) = 44.67897 102.59025 68.19618
#
# Poissons Ratio (x) = 0.39777 -0.20338
# Poissons Ratio (y) = 0.17323 0.32577
# Poissons Ratio (z) = -0.13325 0.49006
#
# Static dielectric constant tensor:
#      x y z
#    x 1.608710 0.000000 -0.014810 
#    y 0.000000 1.612880 0.000000 
#    z -0.014810 0.000000 1.611540 
# 
# From -- ./inp_files/19324.got.cif
#   From: 2010.05.17/outbox.cif.g08.bks.cpg/sg10_10_cif.got.tgz:19324.got - 2010.06.03 11:33:40.
