data_PCOD9148805
_publ_section_title
;
Structure prediction by ZEFSAII (Michael W. Deem and Ramdas Pophale) SiO2 
 PCOD9148805
Probable space group: P 2/M
;
_chemical_formula_sum "Si O2"
_cell_formula_units_Z 32
_cell_length_a 21.291716
_cell_length_b 9.058695
_cell_length_c 14.517141
_cell_angle_alpha 90.000000
_cell_angle_beta 35.916501
_cell_angle_gamma 90.000000
_cell_volume 1642.493343
_symmetry_space_group_name_H-M "P 2/M"
_symmetry_group_IT_number 10
_symmetry_cell_setting 'monoclinic'
loop_
_space_group_symop_operation_xyz
x,y,z
-x,y,-z
-x,-y,-z
x,-y,z
loop_
_atom_site_type_symbol
_atom_site_label
_atom_site_fract_x
_atom_site_fract_y
_atom_site_fract_z
Si Si1 0.707978 0.677378 0.209877
Si Si2 0.728721 0.324497 0.853253
Si Si3 0.945229 0.671378 0.922909
Si Si4 0.951443 0.670379 0.693441
Si Si5 0.396325 0.175880 0.842234
Si Si6 0.830234 0.175575 0.565659
Si Si7 0.375134 0.823919 0.518018
Si Si8 0.163891 0.176565 0.656183
O O1 0.707322 0.500000 0.202503
O O2 0.675153 0.749249 0.152398
O O3 0.628723 0.735003 0.382516
O O4 0.829019 0.725113 0.093468
O O5 0.712844 0.500000 0.868837
O O6 0.840082 0.295945 0.776232
O O7 0.747463 0.257150 0.730421
O O8 0.636851 0.246347 0.021514
O O9 0.956639 0.500000 0.934552
O O10 0.938130 0.680925 0.819625
O O11 0.052729 0.754817 0.823121
O O12 0.980444 0.500000 0.637687
O O13 0.049921 0.773651 0.549377
O O14 0.518790 0.203628 0.667239
O O15 0.378342 0.000000 0.864962
O O16 0.819771 0.218143 0.470611
O O17 0.819128 0.000000 0.587361
O O18 0.268919 0.781526 0.587860
O O19 0.371677 0.000000 0.542062
O O20 0.153461 0.000000 0.671591
#
# Coordination Sequence:
#
# PCOD9148805 Si02
#       8
#     4   4   4   4   4   4   4   4
#     4  11  22  38  60  88 118 147 182 230 288 344
#     4  11  21  35  55  81 114 150 185 227 284 340
#     4   9  18  34  55  82 116 149 182 224 278 337
#     4   9  17  32  51  75 112 152 181 217 276 337
#     4  11  23  39  60  84 113 147 189 238 283 333
#     4  10  20  33  53  83 112 145 189 231 275 332
#     4  10  23  42  60  81 110 150 194 237 284 331
#     4   9  20  39  59  80 113 152 192 234 277 329
#
# _framework density 19.482575000000001
#
# number of rings (size 3 to 8) (size 9 to 14) (size 15 to 20)
#    0.000    2.000    1.250    2.250    0.000    7.500 
#    0.000    3.125    0.000    3.750    0.000    0.000 
#    0.000    0.000    0.000    0.000    0.000    0.000 
#
# Total GULP energy -178780.027797 kJ/mol
# GULP energy per Si atom -5586.875869 kJ/mol
# Density = 1.943823 g / cm^3
# Si number density = 19.482575 Si / 1000 Ang^3
#
#
#
# Elastic Constant Matrix: (Units=GPa)
#
#
# Indices 1 2 3 4 5 6 
#
# 1 45.5184 17.4686 23.5374 0.0000 -11.2149 0.0000
# 2 17.4686 43.5176 54.3309 0.0000 -2.9549 0.0000
# 3 23.5374 54.3309 130.8531 0.0000 -0.2919 0.0000
# 4 0.0000 0.0000 0.0000 30.8107 0.0000 -2.9277
# 5 -11.2149 -2.9549 -0.2919 0.0000 25.6733 0.0000
# 6 0.0000 0.0000 0.0000 -2.9277 0.0000 41.1451
#
#
#
# Elastic Compliance Matrix: (Units=1/GPa)
#
#
# Indices 1 2 3 4 5 6 
#
# 1 0.029063 -0.009099 -0.001424 0.000000 0.011632 0.000000
# 2 -0.009099 0.051283 -0.019653 0.000000 0.001704 0.000000
# 3 -0.001424 -0.019653 0.016052 0.000000 -0.002701 0.000000
# 4 0.000000 0.000000 0.000000 0.032677 0.000000 0.002325
# 5 0.011632 0.001704 -0.002701 0.000000 0.044198 0.000000
# 6 0.000000 0.000000 0.000000 0.002325 0.000000 0.024470
#
#
# Mechanical properties :
#
#
# Convention : Reuss Voigt Hill
#
# Bulk Modulus (GPa) = 27.74086 45.61811 36.67949
# Shear Modulus (GPa) = 18.51098 27.82930 23.17014
#
# Velocity S-wave (km/s) = 3.08576 3.78354 3.45233
# Velocity P-wave (km/s) = 5.19284 6.52324 5.89569
#
# Compressibility (1/GPa) = 0.03604791
#
# Stress axis : x y z
#
# Youngs Moduli (GPa) = 34.40760 19.49959 62.29709
#
# Poissons Ratio (x) = 0.17742 0.08871
# Poissons Ratio (y) = 0.31307 1.22430
# Poissons Ratio (z) = 0.04900 0.38322
#
# Static dielectric constant tensor:
#      x y z
#    x 1.688450 0.000000 0.008120 
#    y 0.000000 1.650630 0.000000 
#    z 0.008120 0.000000 1.688870 
# 
# From -- ./inp_files/71446.got.cif
#   From: 2010.05.17/outbox.cif.g08.bks.cpg/sg10_36_cif.got.tgz:71446.got - 2010.06.03 11:33:40.
