data_PCOD9148394
_publ_section_title
;
Structure prediction by ZEFSAII (Michael W. Deem and Ramdas Pophale) SiO2 
 PCOD9148394
Probable space group: P 2/M
;
_chemical_formula_sum "Si O2"
_cell_formula_units_Z 24
_cell_length_a 20.050025
_cell_length_b 14.895385
_cell_length_c 11.471576
_cell_angle_alpha 90.000000
_cell_angle_beta 20.388586
_cell_angle_gamma 90.000000
_cell_volume 1193.574655
_symmetry_space_group_name_H-M "P 2/M"
_symmetry_group_IT_number 10
_symmetry_cell_setting 'monoclinic'
loop_
_space_group_symop_operation_xyz
x,y,z
-x,y,-z
-x,-y,-z
x,-y,z
loop_
_atom_site_type_symbol
_atom_site_label
_atom_site_fract_x
_atom_site_fract_y
_atom_site_fract_z
Si Si1 0.198824 0.736666 0.740954
Si Si2 0.495596 0.392865 0.368024
Si Si3 0.209566 0.737826 0.212682
Si Si4 0.673495 0.901459 0.624154
Si Si5 0.013411 0.157782 0.722046
Si Si6 0.323972 0.097483 0.879012
O O1 0.323034 0.652575 0.578516
O O2 0.307857 0.813138 0.486606
O O3 0.000000 0.714135 0.000000
O O4 0.139008 0.784758 0.957740
O O5 0.500000 0.367477 0.500000
O O6 0.488125 0.500000 0.375298
O O7 0.679597 0.352133 0.000283
O O8 0.163562 0.773561 0.416623
O O9 0.000000 0.731563 0.500000
O O10 0.325975 0.818367 0.960759
O O11 0.867874 0.900126 0.381612
O O12 0.660254 0.000000 0.586412
O O13 0.500000 0.894614 0.000000
O O14 0.884239 0.104220 0.842018
O O15 0.500000 0.103149 0.500000
O O16 0.335994 0.000000 0.917998
#
# Coordination Sequence:
#
# PCOD9148394 Si02
#       6
#     4   4   4   4   4   4
#     4  10  22  40  61  86 119 154 192 237 290 346
#     4  11  23  41  65  89 114 148 194 247 301 353
#     4  10  20  35  56  83 118 153 192 239 290 345
#     4  10  21  36  57  85 117 156 198 236 278 336
#     4  10  20  34  55  80 116 155 191 233 280 340
#     4  10  20  32  50  79 115 154 192 232 281 337
#
# _framework density 20.107666999999999
#
# number of rings (size 3 to 8) (size 9 to 14) (size 15 to 20)
#    0.000    1.833    0.000    5.000    0.000    8.000 
#    0.000    5.000    0.000   10.000    0.000    0.000 
#    0.000    0.000    0.000    0.000    0.000    0.000 
#
# Total GULP energy -133945.359404 kJ/mol
# GULP energy per Si atom -5581.056642 kJ/mol
# Density = 2.006190 g / cm^3
# Si number density = 20.107667 Si / 1000 Ang^3
#
#
#
# Elastic Constant Matrix: (Units=GPa)
#
#
# Indices 1 2 3 4 5 6 
#
# 1 76.2592 50.9219 18.9720 0.0000 -12.9459 0.0000
# 2 50.9219 136.7194 55.2860 0.0000 1.4892 0.0000
# 3 18.9720 55.2860 91.2943 0.0000 -1.0003 0.0000
# 4 0.0000 0.0000 0.0000 -181.8569 0.0000 -178.4680
# 5 -12.9459 1.4892 -1.0003 0.0000 41.8889 0.0000
# 6 0.0000 0.0000 0.0000 -178.4680 0.0000 -124.9593
#
#
#
# Elastic Compliance Matrix: (Units=1/GPa)
#
#
# Indices 1 2 3 4 5 6 
#
# 1 0.018913 -0.007348 0.000587 0.000000 0.006120 0.000000
# 2 -0.007348 0.012551 -0.006105 0.000000 -0.002863 0.000000
# 3 0.000587 -0.006105 0.014537 0.000000 0.000745 0.000000
# 4 0.000000 0.000000 0.000000 0.013693 0.000000 -0.019556
# 5 0.006120 -0.002863 0.000745 0.000000 0.025884 0.000000
# 6 0.000000 0.000000 0.000000 -0.019556 0.000000 0.019927
#
#
# Mechanical properties :
#
#
# Convention : Reuss Voigt Hill
#
# Bulk Modulus (GPa) = 49.33922 61.62585 55.48254
# Shear Modulus (GPa) = 36.23369 -41.04594 -2.40612
#
# Velocity S-wave (km/s) = 4.24958 -4.52299 -1.09509
# Velocity P-wave (km/s) = 6.97635 1.85417 5.10428
#
# Compressibility (1/GPa) = 0.02026785
#
# Stress axis : x y z
#
# Youngs Moduli (GPa) = 52.87389 79.67506 68.79051
#
# Poissons Ratio (x) = 0.58546 -0.04035
# Poissons Ratio (y) = 0.38852 0.41996
# Poissons Ratio (z) = -0.03102 0.48641
#
# Static dielectric constant tensor:
#      x y z
#    x 1.772630 0.000000 -0.010340 
#    y 0.000000 1.682120 0.000000 
#    z -0.010340 0.000000 1.745570 
# 
# From -- ./inp_files/56025.got.cif
#   From: 2010.05.17/outbox.cif.g08.bks.cpg/sg10_29_cif.got.tgz:56025.got - 2010.06.03 11:33:40.
