data_PCOD9148679
_publ_section_title
;
Structure prediction by ZEFSAII (Michael W. Deem and Ramdas Pophale) SiO2 
 PCOD9148679
Probable space group: P 2/M
;
_chemical_formula_sum "Si O2"
_cell_formula_units_Z 18
_cell_length_a 12.828793
_cell_length_b 7.740238
_cell_length_c 15.637381
_cell_angle_alpha 90.000000
_cell_angle_beta 133.965572
_cell_angle_gamma 90.000000
_cell_volume 1117.609474
_symmetry_space_group_name_H-M "P 2/M"
_symmetry_group_IT_number 10
_symmetry_cell_setting 'monoclinic'
loop_
_space_group_symop_operation_xyz
x,y,z
-x,y,-z
-x,-y,-z
x,-y,z
loop_
_atom_site_type_symbol
_atom_site_label
_atom_site_fract_x
_atom_site_fract_y
_atom_site_fract_z
Si Si1 0.792171 0.802730 0.860351
Si Si2 0.648076 0.000000 0.526987
Si Si3 0.826804 0.700818 0.070893
Si Si4 0.484509 0.000000 0.264011
Si Si5 0.850511 0.694447 0.706710
Si Si6 0.404719 0.000000 0.030124
O O1 0.820830 0.699052 0.791643
O O2 0.847762 0.000000 0.879241
O O3 0.620332 0.836550 0.775140
O O4 0.849550 0.727780 0.981630
O O5 0.500000 0.000000 0.500000
O O6 0.609027 0.000000 0.404567
O O7 0.743652 0.166354 0.605455
O O8 0.790294 0.500000 0.064980
O O9 0.701616 0.834019 0.025471
O O10 0.979288 0.739782 0.203808
O O11 0.502507 0.000000 0.172315
O O12 0.827248 0.500000 0.661361
O O13 0.500000 0.000000 0.000000
#
# Coordination Sequence:
#
# PCOD9148679 Si02
#       6
#     4   2   4   2   4   2
#     4   9  16  30  49  72 106 139 170 206 247 296
#     4  12  19  35  46  69 110 148 171 206 232 290
#     4  10  20  33  51  78 104 129 169 216 258 306
#     4   8  18  33  49  73 102 135 172 202 248 296
#     4  11  21  30  49  75 104 145 176 199 246 299
#     4  10  21  38  60  79  96 127 165 216 275 308
#
# _framework density 16.105803999999999
#
# number of rings (size 3 to 8) (size 9 to 14) (size 15 to 20)
#    0.667    1.333    4.444    2.000    0.000    3.556 
#    0.000    1.111    0.000    2.667    0.000    3.111 
#    0.000    0.000    0.000    0.000    0.000    0.000 
#
# Total GULP energy -100252.278909 kJ/mol
# GULP energy per Si atom -5569.571051 kJ/mol
# Density = 1.606915 g / cm^3
# Si number density = 16.105804 Si / 1000 Ang^3
#
#
#
# Elastic Constant Matrix: (Units=GPa)
#
#
# Indices 1 2 3 4 5 6 
#
# 1 65.7700 30.9239 45.6444 0.0000 -10.6130 0.0000
# 2 30.9239 104.5502 63.0531 0.0000 11.2354 0.0000
# 3 45.6444 63.0531 131.6357 0.0000 9.1928 0.0000
# 4 0.0000 0.0000 0.0000 -2.3299 0.0000 -8.6648
# 5 -10.6130 11.2354 9.1928 0.0000 15.2752 0.0000
# 6 0.0000 0.0000 0.0000 -8.6648 0.0000 4.4435
#
#
#
# Elastic Compliance Matrix: (Units=1/GPa)
#
#
# Indices 1 2 3 4 5 6 
#
# 1 0.029807 -0.006494 -0.009400 0.000000 0.031143 0.000000
# 2 -0.006494 0.015468 -0.004225 0.000000 -0.013347 0.000000
# 3 -0.009400 -0.004225 0.013694 0.000000 -0.011664 0.000000
# 4 0.000000 0.000000 0.000000 -0.052013 0.000000 -0.101424
# 5 0.031143 -0.013347 -0.011664 0.000000 0.103940 0.000000
# 6 0.000000 0.000000 0.000000 -0.101424 0.000000 0.027272
#
#
# Mechanical properties :
#
#
# Convention : Reuss Voigt Hill
#
# Bulk Modulus (GPa) = 53.38687 64.57765 58.98226
# Shear Modulus (GPa) = 27.07831 14.30006 20.68918
#
# Velocity S-wave (km/s) = 4.10479 2.98297 3.58799
# Velocity P-wave (km/s) = 7.46225 7.21437 7.33936
#
# Compressibility (1/GPa) = 0.01873120
#
# Stress axis : x y z
#
# Youngs Moduli (GPa) = 33.54965 64.64899 73.02213
#
# Poissons Ratio (x) = 0.41984 0.68637
# Poissons Ratio (y) = 0.21788 0.30854
# Poissons Ratio (z) = 0.31535 0.27316
#
# Static dielectric constant tensor:
#      x y z
#    x 1.528220 0.000000 0.018340 
#    y 0.000000 1.556250 0.000000 
#    z 0.018340 0.000000 1.555030 
# 
# From -- ./inp_files/63017.got.cif
#   From: 2010.05.17/outbox.cif.g08.bks.cpg/sg10_32_cif.got.tgz:63017.got - 2010.06.03 11:33:40.
