data_PCOD9148791
_publ_section_title
;
Structure prediction by ZEFSAII (Michael W. Deem and Ramdas Pophale) SiO2 
 PCOD9148791
Probable space group: P 2/M
;
_chemical_formula_sum "Si O2"
_cell_formula_units_Z 28
_cell_length_a 20.352025
_cell_length_b 7.443846
_cell_length_c 13.775583
_cell_angle_alpha 90.000000
_cell_angle_beta 35.899892
_cell_angle_gamma 90.000000
_cell_volume 1223.734918
_symmetry_space_group_name_H-M "P 2/M"
_symmetry_group_IT_number 10
_symmetry_cell_setting 'monoclinic'
loop_
_space_group_symop_operation_xyz
x,y,z
-x,y,-z
-x,-y,-z
x,-y,z
loop_
_atom_site_type_symbol
_atom_site_label
_atom_site_fract_x
_atom_site_fract_y
_atom_site_fract_z
Si Si1 0.877540 0.719213 0.612798
Si Si2 0.444548 0.707530 0.277555
Si Si3 0.394515 0.217764 0.559284
Si Si4 0.789584 0.278992 0.508967
Si Si5 0.801695 0.210656 0.068406
Si Si6 0.694507 0.717318 0.988474
Si Si7 0.036600 0.295039 0.853772
O O1 0.878145 0.500000 0.612585
O O2 0.846292 0.775239 0.541632
O O3 0.782988 0.777159 0.802088
O O4 0.000000 0.778606 0.500000
O O5 0.453801 0.500000 0.235736
O O6 0.411279 0.714412 0.430818
O O7 0.338408 0.783150 0.347207
O O8 0.568791 0.786144 0.120484
O O9 0.500000 0.271166 0.500000
O O10 0.280272 0.277844 0.748148
O O11 0.393579 0.000000 0.557168
O O12 0.790071 0.500000 0.506017
O O13 0.863115 0.215916 0.329326
O O14 0.819742 0.000000 0.062611
O O15 0.737943 0.233568 0.043260
O O16 0.923819 0.297101 0.924499
O O17 0.690730 0.500000 0.990759
O O18 0.070763 0.500000 0.835118
O O19 0.000000 0.210895 0.000000
#
# Coordination Sequence:
#
# PCOD9148791 Si02
#       7
#     4   4   4   4   4   4   4
#     4   9  17  31  53  78 105 140 179 219 266 320
#     4  10  20  33  53  82 110 137 176 225 269 312
#     4  10  20  35  52  73 106 146 179 208 258 323
#     4   9  18  33  53  79 111 143 174 216 272 323
#     4  11  22  35  54  78 107 142 179 221 267 316
#     4  10  20  33  53  81 106 135 180 225 264 311
#     4  10  20  35  56  80 108 141 178 219 265 318
#
# _framework density 22.880772
#
# number of rings (size 3 to 8) (size 9 to 14) (size 15 to 20)
#    0.000    2.143    1.429    2.143    0.000    5.714 
#    0.000    3.571    0.000    4.714    0.000    2.000 
#    0.000    0.000    0.000    0.000    0.000    0.000 
#
# Total GULP energy -156559.603580 kJ/mol
# GULP energy per Si atom -5591.414414 kJ/mol
# Density = 2.282869 g / cm^3
# Si number density = 22.880772 Si / 1000 Ang^3
#
#
#
# Elastic Constant Matrix: (Units=GPa)
#
#
# Indices 1 2 3 4 5 6 
#
# 1 147.7241 -2.5202 74.4362 0.0000 -20.6766 0.0000
# 2 -2.5202 75.7779 3.4382 0.0000 -1.5137 0.0000
# 3 74.4362 3.4382 173.8186 0.0000 -9.1643 0.0000
# 4 0.0000 0.0000 0.0000 -4.1365 0.0000 50.1394
# 5 -20.6766 -1.5137 -9.1643 0.0000 41.7345 0.0000
# 6 0.0000 0.0000 0.0000 50.1394 0.0000 389.3781
#
#
#
# Elastic Compliance Matrix: (Units=1/GPa)
#
#
# Indices 1 2 3 4 5 6 
#
# 1 0.009193 0.000551 -0.003750 0.000000 0.003751 0.000000
# 2 0.000551 0.013249 -0.000464 0.000000 0.000652 0.000000
# 3 -0.003750 -0.000464 0.007355 0.000000 -0.000260 0.000000
# 4 0.000000 0.000000 0.000000 -0.094404 0.000000 0.012156
# 5 0.003751 0.000652 -0.000260 0.000000 0.025786 0.000000
# 6 0.000000 0.000000 0.000000 0.012156 0.000000 0.001003
#
#
# Mechanical properties :
#
#
# Convention : Reuss Voigt Hill
#
# Bulk Modulus (GPa) = 44.50167 60.89212 52.69690
# Shear Modulus (GPa) = -217.37673 106.85965 -55.25854
#
# Velocity S-wave (km/s) = -9.75758 6.84136 -4.91966
# Velocity P-wave (km/s) = 10.36608 9.43802 3.03145
#
# Compressibility (1/GPa) = 0.02247106
#
# Stress axis : x y z
#
# Youngs Moduli (GPa) = 108.77274 75.47835 135.97007
#
# Poissons Ratio (x) = -0.04158 0.50991
# Poissons Ratio (y) = -0.05992 0.06304
# Poissons Ratio (z) = 0.40791 0.03499
#
# Static dielectric constant tensor:
#      x y z
#    x 1.809280 0.000000 -0.019210 
#    y 0.000000 1.849950 0.000000 
#    z -0.019210 0.000000 1.824740 
# 
# From -- ./inp_files/49380.got.cif
#   From: 2010.05.17/outbox.cif.g08.bks.cpg/sg10_25_cif.got.tgz:49380.got - 2010.06.03 11:33:40.
