data_PCOD9148661
_publ_section_title
;
Structure prediction by ZEFSAII (Michael W. Deem and Ramdas Pophale) SiO2 
 PCOD9148661
Probable space group: P 2/M
;
_chemical_formula_sum "Si O2"
_cell_formula_units_Z 28
_cell_length_a 30.322059
_cell_length_b 7.399290
_cell_length_c 9.534545
_cell_angle_alpha 90.000000
_cell_angle_beta 142.221895
_cell_angle_gamma 90.000000
_cell_volume 1310.476657
_symmetry_space_group_name_H-M "P 2/M"
_symmetry_group_IT_number 10
_symmetry_cell_setting 'monoclinic'
loop_
_space_group_symop_operation_xyz
x,y,z
-x,y,-z
-x,-y,-z
x,-y,z
loop_
_atom_site_type_symbol
_atom_site_label
_atom_site_fract_x
_atom_site_fract_y
_atom_site_fract_z
Si Si1 0.489649 0.208431 0.317681
Si Si2 0.931455 0.279859 0.414789
Si Si3 0.228282 0.720905 0.659124
Si Si4 0.356819 0.708082 0.791158
Si Si5 0.067725 0.719932 0.258759
Si Si6 0.369476 0.280526 0.507541
Si Si7 0.771033 0.280050 0.014405
O O1 0.500000 0.286339 0.500000
O O2 0.563539 0.218889 0.417390
O O3 0.468271 0.000000 0.282472
O O4 0.426561 0.290801 0.065304
O O5 0.931707 0.500000 0.409465
O O6 0.939669 0.228612 0.597646
O O7 0.000000 0.216246 0.500000
O O8 0.851047 0.223008 0.167873
O O9 0.230344 0.500000 0.665974
O O10 0.290253 0.786975 0.711330
O O11 0.147646 0.774938 0.412187
O O12 0.239755 0.775480 0.850291
O O13 0.336472 0.500000 0.713053
O O14 0.373222 0.783326 0.678133
O O15 0.067083 0.500000 0.252432
O O16 0.000000 0.784404 0.000000
O O17 0.372768 0.500000 0.513433
O O18 0.294627 0.222843 0.248063
O O19 0.770991 0.500000 0.013978
#
# Coordination Sequence:
#
# PCOD9148661 Si02
#       7
#     4   4   4   4   4   4   4
#     4  11  24  39  54  72  94 123 158 193 234 286
#     4   8  13  20  31  50  79 116 154 189 227 270
#     4   8  14  25  40  59  86 121 158 193 230 274
#     4  10  20  33  51  75  99 124 157 196 238 283
#     4   8  13  20  31  50  79 116 154 189 227 270
#     4  10  20  33  51  75  99 124 157 196 238 283
#     4   8  14  25  40  59  86 121 158 193 230 274
#
# _framework density 21.366271999999999
#
# number of rings (size 3 to 8) (size 9 to 14) (size 15 to 20)
#    0.000    3.000    0.000    3.429    0.000    5.714 
#    0.000    5.714    0.000    0.000    0.000    0.000 
#    0.000    1.143    0.000    3.714    0.000    7.429 
#
# Total GULP energy -156272.373170 kJ/mol
# GULP energy per Si atom -5581.156185 kJ/mol
# Density = 2.131764 g / cm^3
# Si number density = 21.366272 Si / 1000 Ang^3
#
#
#
# Elastic Constant Matrix: (Units=GPa)
#
#
# Indices 1 2 3 4 5 6 
#
# 1 194.6276 -6.0772 97.6404 0.0000 15.5452 0.0000
# 2 -6.0772 68.6071 -8.6694 0.0000 -3.8453 0.0000
# 3 97.6404 -8.6694 167.3499 0.0000 9.1437 0.0000
# 4 0.0000 0.0000 0.0000 -39.1249 0.0000 -27.2090
# 5 15.5452 -3.8453 9.1437 0.0000 29.6375 0.0000
# 6 0.0000 0.0000 0.0000 -27.2090 0.0000 -39.3128
#
#
#
# Elastic Compliance Matrix: (Units=1/GPa)
#
#
# Indices 1 2 3 4 5 6 
#
# 1 0.007458 -0.000018 -0.004209 0.000000 -0.002616 0.000000
# 2 -0.000018 0.014756 0.000681 0.000000 0.001714 0.000000
# 3 -0.004209 0.000681 0.008484 0.000000 -0.000321 0.000000
# 4 0.000000 0.000000 0.000000 -0.049278 0.000000 0.034106
# 5 -0.002616 0.001714 -0.000321 0.000000 0.035434 0.000000
# 6 0.000000 0.000000 0.000000 0.034106 0.000000 -0.049042
#
#
# Mechanical properties :
#
#
# Convention : Reuss Voigt Hill
#
# Bulk Modulus (GPa) = 42.36107 66.26356 54.31232
# Shear Modulus (GPa) = -290.26159 13.41934 -138.42112
#
# Velocity S-wave (km/s) = -11.66813 2.50884 -8.05764
# Velocity P-wave (km/s) = 12.71447 6.28274 7.81617
#
# Compressibility (1/GPa) = 0.02360658
#
# Stress axis : x y z
#
# Youngs Moduli (GPa) = 134.08102 67.76761 117.86370
#
# Poissons Ratio (x) = 0.00121 0.49615
# Poissons Ratio (y) = 0.00240 -0.08029
# Poissons Ratio (z) = 0.56441 -0.04616
#
# Static dielectric constant tensor:
#      x y z
#    x 1.743710 0.000000 0.000870 
#    y 0.000000 1.834670 0.000000 
#    z 0.000870 0.000000 1.734900 
# 
# From -- ./inp_files/38048.got.cif
#   From: 2010.05.17/outbox.cif.g08.bks.cpg/sg10_20_cif.got.tgz:38048.got - 2010.06.03 11:33:40.
