data_PCOD9148333
_publ_section_title
;
Structure prediction by ZEFSAII (Michael W. Deem and Ramdas Pophale) SiO2 
 PCOD9148333
Probable space group: P 2/M
;
_chemical_formula_sum "Si O2"
_cell_formula_units_Z 18
_cell_length_a 10.415594
_cell_length_b 16.782152
_cell_length_c 5.361528
_cell_angle_alpha 90.000000
_cell_angle_beta 75.344689
_cell_angle_gamma 90.000000
_cell_volume 906.683485
_symmetry_space_group_name_H-M "P 2/M"
_symmetry_group_IT_number 10
_symmetry_cell_setting 'monoclinic'
loop_
_space_group_symop_operation_xyz
x,y,z
-x,y,-z
-x,-y,-z
x,-y,z
loop_
_atom_site_type_symbol
_atom_site_label
_atom_site_fract_x
_atom_site_fract_y
_atom_site_fract_z
Si Si1 0.351775 0.596478 0.122397
Si Si2 0.803144 0.404517 0.296656
Si Si3 0.143239 0.842659 0.212582
Si Si4 0.842168 0.092833 0.294506
Si Si5 0.000000 0.304924 0.500000
O O1 0.356667 0.500000 0.105475
O O2 0.298863 0.613428 0.425493
O O3 0.500000 0.626914 0.000000
O O4 0.256101 0.619963 0.940601
O O5 0.826584 0.500000 0.281854
O O6 0.933679 0.358772 0.321486
O O7 0.215911 0.884253 0.407957
O O8 0.105571 0.754481 0.319490
O O9 0.999380 0.886530 0.249645
O O10 0.207373 0.853973 0.911590
O O11 0.826573 0.000000 0.247116
#
# Coordination Sequence:
#
# PCOD9148333 Si02
#       5
#     4   4   4   4   2
#     4   9  18  33  51  69  83 102 145 198 240 266
#     4  10  20  32  49  66  87 120 150 188 224 259
#     4   9  17  24  36  54  81 116 143 172 208 246
#     4   9  14  24  38  54  72 104 156 182 198 238
#     4  10  21  32  41  64  98 124 156 172 209 278
#
# _framework density 19.852571999999999
#
# number of rings (size 3 to 8) (size 9 to 14) (size 15 to 20)
#    0.000    2.889    0.000    4.333    0.000   10.667 
#    0.000    3.333    0.000    0.000    0.000    0.000 
#    0.000    0.000    0.000    0.000    0.000 1626.667 
#
# Total GULP energy -100328.358703 kJ/mol
# GULP energy per Si atom -5573.797706 kJ/mol
# Density = 1.980739 g / cm^3
# Si number density = 19.852572 Si / 1000 Ang^3
#
#
#
# Elastic Constant Matrix: (Units=GPa)
#
#
# Indices 1 2 3 4 5 6 
#
# 1 26.2955 15.4061 5.7485 0.0000 8.0799 0.0000
# 2 15.4061 69.1880 20.4887 0.0000 2.1143 0.0000
# 3 5.7485 20.4887 133.2792 0.0000 26.7463 0.0000
# 4 0.0000 0.0000 0.0000 -21.9751 0.0000 -16.7022
# 5 8.0799 2.1143 26.7463 0.0000 18.4654 0.0000
# 6 0.0000 0.0000 0.0000 -16.7022 0.0000 -8.6443
#
#
#
# Elastic Compliance Matrix: (Units=1/GPa)
#
#
# Indices 1 2 3 4 5 6 
#
# 1 0.053496 -0.012678 0.005707 0.000000 -0.030223 0.000000
# 2 -0.012678 0.018218 -0.004157 0.000000 0.009483 0.000000
# 3 0.005707 -0.004157 0.011703 0.000000 -0.018973 0.000000
# 4 0.000000 0.000000 0.000000 0.097126 0.000000 -0.187662
# 5 -0.030223 0.009483 -0.018973 0.000000 0.093776 0.000000
# 6 0.000000 0.000000 0.000000 -0.187662 0.000000 0.246908
#
#
# Mechanical properties :
#
#
# Convention : Reuss Voigt Hill
#
# Bulk Modulus (GPa) = 16.35039 34.67215 25.51127
# Shear Modulus (GPa) = 8.86728 10.04380 9.45554
#
# Velocity S-wave (km/s) = 2.11572 2.25171 2.18477
# Velocity P-wave (km/s) = 3.77122 4.92574 4.38663
#
# Compressibility (1/GPa) = 0.06116061
#
# Stress axis : x y z
#
# Youngs Moduli (GPa) = 18.69285 54.89182 85.44527
#
# Poissons Ratio (x) = 0.69594 -0.48761
# Poissons Ratio (y) = 0.23700 0.35517
# Poissons Ratio (z) = -0.10667 0.22817
#
# Static dielectric constant tensor:
#      x y z
#    x 1.714330 0.000000 -0.049860 
#    y 0.000000 1.697490 0.000000 
#    z -0.049860 0.000000 1.847880 
# 
# From -- ./inp_files/6563.got.cif
#   From: 2010.05.17/outbox.cif.g08.bks.cpg/sg10_4_cif.got.tgz:6563.got - 2010.06.03 11:33:40.
