data_PCOD9148142
_publ_section_title
;
Structure prediction by ZEFSAII (Michael W. Deem and Ramdas Pophale) SiO2 
 PCOD9148142
Probable space group: P 2/M
;
_chemical_formula_sum "Si O2"
_cell_formula_units_Z 25
_cell_length_a 13.827708
_cell_length_b 7.606347
_cell_length_c 12.251968
_cell_angle_alpha 90.000000
_cell_angle_beta 99.678688
_cell_angle_gamma 90.000000
_cell_volume 1270.299288
_symmetry_space_group_name_H-M "P 2/M"
_symmetry_group_IT_number 10
_symmetry_cell_setting 'monoclinic'
loop_
_space_group_symop_operation_xyz
x,y,z
-x,y,-z
-x,-y,-z
x,-y,z
loop_
_atom_site_type_symbol
_atom_site_label
_atom_site_fract_x
_atom_site_fract_y
_atom_site_fract_z
Si Si1 0.078076 0.707581 0.833858
Si Si2 0.850579 0.794746 0.480863
Si Si3 0.733513 0.289790 0.268178
Si Si4 0.139234 0.202030 0.271071
Si Si5 0.607346 0.791320 0.047169
Si Si6 0.000000 0.500000 0.500000
Si Si7 0.793296 0.786711 0.944026
O O1 0.066348 0.500000 0.813774
O O2 0.170711 0.775239 0.781344
O O3 0.975747 0.792019 0.780951
O O4 0.113230 0.736523 0.964565
O O5 0.750725 0.779935 0.392989
O O6 0.845406 0.725019 0.604668
O O7 0.926022 0.657182 0.441664
O O8 0.881664 0.000000 0.486545
O O9 0.734270 0.500000 0.269896
O O10 0.640867 0.234878 0.178368
O O11 0.194297 0.280095 0.176884
O O12 0.171123 0.000000 0.286151
O O13 0.604401 0.000000 0.026080
O O14 0.500000 0.718973 0.000000
O O15 0.695739 0.721716 0.987562
O O16 0.791508 0.000000 0.940657
#
# Coordination Sequence:
#
# PCOD9148142 Si02
#       7
#     4   4   4   4   4   1   4
#     4  10  20  30  46  72 102 138 178 220 262 311
#     4  11  23  36  53  77 109 150 192 231 271 317
#     4  10  20  35  53  77 110 143 181 230 278 322
#     4  10  21  33  48  71 102 145 184 216 262 319
#     4   9  18  34  59  85 105 133 176 228 286 339
#     4  12  22  36  52  78 108 150 196 232 264 306
#     4   9  18  34  51  71 104 137 174 222 271 326
#
# _framework density 19.680402999999998
#
# number of rings (size 3 to 8) (size 9 to 14) (size 15 to 20)
#    0.000    2.080    0.800    2.640    3.360    6.080 
#    0.000    0.000    0.000    0.960    0.000    6.720 
#    0.000    0.000    0.000    0.000    0.000    0.000 
#
# Total GULP energy -139238.060239 kJ/mol
# GULP energy per Si atom -5569.522410 kJ/mol
# Density = 1.963561 g / cm^3
# Si number density = 19.680403 Si / 1000 Ang^3
#
#
#
# Elastic Constant Matrix: (Units=GPa)
#
#
# Indices 1 2 3 4 5 6 
#
# 1 73.9156 2.3359 61.1679 0.0000 20.0745 0.0000
# 2 2.3359 76.4063 1.5470 0.0000 -3.0838 0.0000
# 3 61.1679 1.5470 134.4332 0.0000 17.6576 0.0000
# 4 0.0000 0.0000 0.0000 4.1162 0.0000 -2.9848
# 5 20.0745 -3.0838 17.6576 0.0000 25.0194 0.0000
# 6 0.0000 0.0000 0.0000 -2.9848 0.0000 -1.0604
#
#
#
# Elastic Compliance Matrix: (Units=1/GPa)
#
#
# Indices 1 2 3 4 5 6 
#
# 1 0.025286 -0.001124 -0.009709 0.000000 -0.013575 0.000000
# 2 -0.001124 0.013223 0.000030 0.000000 0.002511 0.000000
# 3 -0.009709 0.000030 0.011939 0.000000 -0.000632 0.000000
# 4 0.000000 0.000000 0.000000 0.079889 0.000000 -0.224861
# 5 -0.013575 0.002511 -0.000632 0.000000 0.051616 0.000000
# 6 0.000000 0.000000 0.000000 -0.224861 0.000000 -0.310093
#
#
# Mechanical properties :
#
#
# Convention : Reuss Voigt Hill
#
# Bulk Modulus (GPa) = 34.67407 46.09518 40.38463
# Shear Modulus (GPa) = -51.58976 20.26199 -15.66388
#
# Velocity S-wave (km/s) = -5.12549 3.21214 -2.82425
# Velocity P-wave (km/s) = 4.16782 6.10163 3.15112
#
# Compressibility (1/GPa) = 0.02883999
#
# Stress axis : x y z
#
# Youngs Moduli (GPa) = 39.54758 75.62554 83.75821
#
# Poissons Ratio (x) = 0.08503 0.81324
# Poissons Ratio (y) = 0.04447 -0.00248
# Poissons Ratio (z) = 0.38398 -0.00224
#
# Static dielectric constant tensor:
#      x y z
#    x 1.703820 0.000000 -0.032050 
#    y 0.000000 1.712470 0.000000 
#    z -0.032050 0.000000 1.780370 
# 
# From -- ./inp_files/48900.got.cif
#   From: 2010.05.17/outbox.cif.g08.bks.cpg/sg10_25_cif.got.tgz:48900.got - 2010.06.03 11:33:40.
