data_PCOD9148037
_publ_section_title
;
Structure prediction by ZEFSAII (Michael W. Deem and Ramdas Pophale) SiO2 
 PCOD9148037
Probable space group: P 2/M
;
_chemical_formula_sum "Si O2"
_cell_formula_units_Z 24
_cell_length_a 11.484290
_cell_length_b 18.001920
_cell_length_c 12.700859
_cell_angle_alpha 90.000000
_cell_angle_beta 152.373853
_cell_angle_gamma 90.000000
_cell_volume 1217.568909
_symmetry_space_group_name_H-M "P 2/M"
_symmetry_group_IT_number 10
_symmetry_cell_setting 'monoclinic'
loop_
_space_group_symop_operation_xyz
x,y,z
-x,y,-z
-x,-y,-z
x,-y,z
loop_
_atom_site_type_symbol
_atom_site_label
_atom_site_fract_x
_atom_site_fract_y
_atom_site_fract_z
Si Si1 0.843022 0.721730 0.469025
Si Si2 0.500000 0.154652 0.500000
Si Si3 0.999255 0.082352 0.871488
Si Si4 0.805131 0.500000 0.740753
Si Si5 0.674877 0.778333 0.850842
Si Si6 0.937103 0.358714 0.148695
Si Si7 0.570669 0.578173 0.178047
O O1 0.592990 0.764303 0.307538
O O2 0.743934 0.647191 0.335336
O O3 0.000000 0.760191 0.500000
O O4 0.986972 0.689684 0.687013
O O5 0.713550 0.104609 0.616725
O O6 0.376352 0.204408 0.311775
O O7 0.064910 0.000000 0.885411
O O8 0.000000 0.079531 0.000000
O O9 0.182655 0.149565 0.988430
O O10 0.500000 0.500000 0.500000
O O11 0.868782 0.421469 0.733052
O O12 0.000000 0.500000 0.000000
O O13 0.849320 0.706010 0.999681
O O14 0.687569 0.406520 0.969638
O O15 0.686103 0.500000 0.304841
O O16 0.500000 0.575065 0.000000
#
# Coordination Sequence:
#
# PCOD9148037 Si02
#       7
#     4   2   4   2   4   4   4
#     4  11  23  38  62  89 119 161 209 265 320 379
#     4  10  19  38  62  93 122 166 198 257 308 386
#     4   9  18  35  60  92 125 157 197 249 311 379
#     4  12  32  50  64  88 130 182 228 279 329 394
#     4  10  23  38  62  89 129 160 208 254 317 380
#     4  11  24  43  60  86 120 166 217 263 320 380
#     4  10  20  35  61  86 113 143 197 268 328 374
#
# _framework density 19.711410000000001
#
# number of rings (size 3 to 8) (size 9 to 14) (size 15 to 20)
#    0.000    1.667    2.500    1.250    5.833    4.333 
#    1.500    0.000    0.000    0.500    0.000    4.667 
#    0.000    0.000    0.000    0.000    0.000    0.000 
#
# Total GULP energy -133815.281143 kJ/mol
# GULP energy per Si atom -5575.636714 kJ/mol
# Density = 1.966655 g / cm^3
# Si number density = 19.711410 Si / 1000 Ang^3
#
#
#
# Elastic Constant Matrix: (Units=GPa)
#
#
# Indices 1 2 3 4 5 6 
#
# 1 74.3865 40.6209 18.6048 0.0000 22.9075 0.0000
# 2 40.6209 131.5342 24.4527 0.0000 8.5980 0.0000
# 3 18.6048 24.4527 64.5515 0.0000 3.0049 0.0000
# 4 0.0000 0.0000 0.0000 128.0581 0.0000 209.0004
# 5 22.9075 8.5980 3.0049 0.0000 35.0792 0.0000
# 6 0.0000 0.0000 0.0000 209.0004 0.0000 391.2549
#
#
#
# Elastic Compliance Matrix: (Units=1/GPa)
#
#
# Indices 1 2 3 4 5 6 
#
# 1 0.020741 -0.004961 -0.003539 0.000000 -0.012025 0.000000
# 2 -0.004961 0.009473 -0.002210 0.000000 0.001107 0.000000
# 3 -0.003539 -0.002210 0.017285 0.000000 0.001372 0.000000
# 4 0.000000 0.000000 0.000000 0.060923 0.000000 -0.032544
# 5 -0.012025 0.001107 0.001372 0.000000 0.035971 0.000000
# 6 0.000000 0.000000 0.000000 -0.032544 0.000000 0.019940
#
#
# Mechanical properties :
#
#
# Convention : Reuss Voigt Hill
#
# Bulk Modulus (GPa) = 38.34581 48.64767 43.49674
# Shear Modulus (GPa) = 25.71418 123.33135 74.52277
#
# Velocity S-wave (km/s) = 3.61575 7.91861 6.15540
# Velocity P-wave (km/s) = 6.07679 10.40862 8.52252
#
# Compressibility (1/GPa) = 0.02607847
#
# Stress axis : x y z
#
# Youngs Moduli (GPa) = 48.21417 105.56021 57.85436
#
# Poissons Ratio (x) = 0.52372 0.20473
# Poissons Ratio (y) = 0.23921 0.12787
# Poissons Ratio (z) = 0.17061 0.23330
#
# Static dielectric constant tensor:
#      x y z
#    x 1.741660 0.000000 0.019040 
#    y 0.000000 1.694030 0.000000 
#    z 0.019040 0.000000 1.769120 
# 
# From -- ./inp_files/47945.got.cif
#   From: 2010.05.17/outbox.cif.g08.bks.cpg/sg10_24_cif.got.tgz:47945.got - 2010.06.03 11:33:40.
