data_PCOD9148253
_publ_section_title
;
Structure prediction by ZEFSAII (Michael W. Deem and Ramdas Pophale) SiO2 
 PCOD9148253
Probable space group: P 2/M
;
_chemical_formula_sum "Si O2"
_cell_formula_units_Z 32
_cell_length_a 28.048396
_cell_length_b 8.837418
_cell_length_c 14.650791
_cell_angle_alpha 90.000000
_cell_angle_beta 152.464537
_cell_angle_gamma 90.000000
_cell_volume 1678.866177
_symmetry_space_group_name_H-M "P 2/M"
_symmetry_group_IT_number 10
_symmetry_cell_setting 'monoclinic'
loop_
_space_group_symop_operation_xyz
x,y,z
-x,y,-z
-x,-y,-z
x,-y,z
loop_
_atom_site_type_symbol
_atom_site_label
_atom_site_fract_x
_atom_site_fract_y
_atom_site_fract_z
Si Si1 0.420879 0.181844 0.579299
Si Si2 0.074904 0.172839 0.216244
Si Si3 0.097018 0.325632 0.965051
Si Si4 0.246579 0.677377 0.394070
Si Si5 0.376002 0.171801 0.303446
Si Si6 0.067513 0.177123 0.734847
Si Si7 0.865225 0.320236 0.340322
Si Si8 0.358454 0.679696 0.083542
O O1 0.354396 0.248203 0.548850
O O2 0.368060 0.231440 0.393109
O O3 0.538375 0.238744 0.775774
O O4 0.419056 0.000000 0.576255
O O5 0.183162 0.239161 0.365789
O O6 0.014292 0.276355 0.184774
O O7 0.083604 0.000000 0.263535
O O8 0.000000 0.170813 0.000000
O O9 0.096345 0.500000 0.934590
O O10 0.122190 0.221189 0.921660
O O11 0.174987 0.308832 0.181851
O O12 0.257675 0.500000 0.433180
O O13 0.500000 0.162425 0.500000
O O14 0.339036 0.269611 0.155572
O O15 0.335008 0.000000 0.227041
O O16 0.109243 0.273145 0.720664
O O17 0.947578 0.226922 0.538557
O O18 0.075694 0.000000 0.729094
O O19 0.880816 0.500000 0.378552
O O20 0.744737 0.284348 0.148291
O O21 0.374693 0.500000 0.109602
#
# Coordination Sequence:
#
# PCOD9148253 Si02
#       8
#     4   4   4   4   4   4   4   4
#     4  10  20  32  46  68  98 131 166 204 244 289
#     4   9  17  31  50  73 101 131 164 202 245 294
#     4  10  20  34  52  74 102 134 166 203 249 297
#     4  10  20  32  49  73 103 136 169 203 243 293
#     4   8  16  29  42  60  88 123 159 198 239 279
#     4  11  22  35  53  76  98 127 168 210 251 298
#     4  10  21  37  53  71  99 131 165 210 258 296
#     4  10  20  32  49  69  92 127 166 204 248 295
#
# _framework density 19.060483000000001
#
# number of rings (size 3 to 8) (size 9 to 14) (size 15 to 20)
#    0.000    2.250    0.000    4.875    1.750    7.750 
#    0.000    0.000    0.000    0.000    0.000    0.875 
#    0.000    7.000    0.000    0.000    0.000    0.000 
#
# Total GULP energy -178602.525556 kJ/mol
# GULP energy per Si atom -5581.328924 kJ/mol
# Density = 1.901710 g / cm^3
# Si number density = 19.060483 Si / 1000 Ang^3
#
#
#
# Elastic Constant Matrix: (Units=GPa)
#
#
# Indices 1 2 3 4 5 6 
#
# 1 35.5927 -2.1853 0.1351 0.0000 20.2173 0.0000
# 2 -2.1853 44.7803 17.2270 0.0000 10.3004 0.0000
# 3 0.1351 17.2270 64.8740 0.0000 20.5411 0.0000
# 4 0.0000 0.0000 0.0000 12.0416 0.0000 -6.6444
# 5 20.2173 10.3004 20.5411 0.0000 28.6616 0.0000
# 6 0.0000 0.0000 0.0000 -6.6444 0.0000 11.6709
#
#
#
# Elastic Compliance Matrix: (Units=1/GPa)
#
#
# Indices 1 2 3 4 5 6 
#
# 1 0.062114 0.010525 0.015711 0.000000 -0.058856 0.000000
# 2 0.010525 0.027329 -0.002352 0.000000 -0.015560 0.000000
# 3 0.015711 -0.002352 0.024898 0.000000 -0.028081 0.000000
# 4 0.000000 0.000000 0.000000 0.121081 0.000000 0.068933
# 5 -0.058856 -0.015560 -0.028081 0.000000 0.102122 0.000000
# 6 0.000000 0.000000 0.000000 0.068933 0.000000 0.124927
#
#
# Mechanical properties :
#
#
# Convention : Reuss Voigt Hill
#
# Bulk Modulus (GPa) = 6.16869 19.51118 12.83994
# Shear Modulus (GPa) = 10.66692 19.14617 14.90655
#
# Velocity S-wave (km/s) = 2.36823 3.17282 2.79958
# Velocity P-wave (km/s) = 3.27436 4.86632 4.14744
#
# Compressibility (1/GPa) = 0.16210885
#
# Stress axis : x y z
#
# Youngs Moduli (GPa) = 16.09952 36.59127 40.16459
#
# Poissons Ratio (x) = -0.38513 -0.63104
# Poissons Ratio (y) = -0.16945 0.09448
# Poissons Ratio (z) = -0.25295 0.08607
#
# Static dielectric constant tensor:
#      x y z
#    x 1.667660 0.000000 0.015600 
#    y 0.000000 1.640330 0.000000 
#    z 0.015600 0.000000 1.698340 
# 
# From -- ./inp_files/72227.got.cif
#   From: 2010.05.17/outbox.cif.g08.bks.cpg/sg10_37_cif.got.tgz:72227.got - 2010.06.03 11:33:40.
