data_PCOD9148046
_publ_section_title
;
Structure prediction by ZEFSAII (Michael W. Deem and Ramdas Pophale) SiO2 
 PCOD9148046
Probable space group: P 2/M
;
_chemical_formula_sum "Si O2"
_cell_formula_units_Z 28
_cell_length_a 9.873545
_cell_length_b 7.924974
_cell_length_c 28.857915
_cell_angle_alpha 90.000000
_cell_angle_beta 33.161651
_cell_angle_gamma 90.000000
_cell_volume 1235.166904
_symmetry_space_group_name_H-M "P 2/M"
_symmetry_group_IT_number 10
_symmetry_cell_setting 'monoclinic'
loop_
_space_group_symop_operation_xyz
x,y,z
-x,y,-z
-x,-y,-z
x,-y,z
loop_
_atom_site_type_symbol
_atom_site_label
_atom_site_fract_x
_atom_site_fract_y
_atom_site_fract_z
Si Si1 0.587750 0.795369 0.874137
Si Si2 0.856314 0.204222 0.937450
Si Si3 0.389151 0.806782 0.397941
Si Si4 0.344512 0.794061 0.847733
Si Si5 0.718216 0.304718 0.469557
Si Si6 0.079193 0.692611 0.775611
Si Si7 0.248337 0.199318 0.340429
O O1 0.453535 0.740158 0.865549
O O2 0.863719 0.728287 0.800437
O O3 0.599245 0.000000 0.871332
O O4 0.411445 0.742700 0.967346
O O5 0.951530 0.272862 0.861568
O O6 0.064094 0.251474 0.915958
O O7 0.852334 0.000000 0.934607
O O8 0.357425 0.711180 0.455072
O O9 0.248728 0.734409 0.393011
O O10 0.678063 0.803743 0.301210
O O11 0.306585 0.000000 0.430281
O O12 0.526008 0.732934 0.754862
O O13 0.351154 0.000000 0.846175
O O14 0.500000 0.231072 0.500000
O O15 0.747160 0.500000 0.448250
O O16 0.988895 0.223638 0.389166
O O17 0.161532 0.500000 0.749222
O O18 0.293701 0.000000 0.332824
#
# Coordination Sequence:
#
# PCOD9148046 Si02
#       7
#     4   4   4   4   4   4   4
#     4  10  21  36  61  91 121 162 207 255 308 357
#     4  10  19  38  63  89 120 158 209 259 302 358
#     4  11  23  43  69  93 119 156 208 255 299 355
#     4   9  18  36  62  93 122 153 202 258 307 353
#     4  11  26  44  63  94 133 163 193 238 298 364
#     4  12  25  39  58  87 126 166 205 250 307 363
#     4  10  21  40  66  94 122 157 205 254 299 355
#
# _framework density 22.668998999999999
#
# number of rings (size 3 to 8) (size 9 to 14) (size 15 to 20)
#    0.000    1.571    1.429    3.429    2.000    8.000 
#    0.000    0.714    0.000    1.714    0.000    0.000 
#    0.000    0.000    0.000    0.000    0.000    0.000 
#
# Total GULP energy -156597.838183 kJ/mol
# GULP energy per Si atom -5592.779935 kJ/mol
# Density = 2.261740 g / cm^3
# Si number density = 22.668999 Si / 1000 Ang^3
#
#
#
# Elastic Constant Matrix: (Units=GPa)
#
#
# Indices 1 2 3 4 5 6 
#
# 1 98.0868 -0.8965 3.5480 0.0000 -20.5302 0.0000
# 2 -0.8965 34.2872 -4.7069 0.0000 0.1541 0.0000
# 3 3.5480 -4.7069 57.5801 0.0000 -11.7601 0.0000
# 4 0.0000 0.0000 0.0000 -57.9034 0.0000 30.9695
# 5 -20.5302 0.1541 -11.7601 0.0000 36.6932 0.0000
# 6 0.0000 0.0000 0.0000 30.9695 0.0000 30.8073
#
#
#
# Elastic Compliance Matrix: (Units=1/GPa)
#
#
# Indices 1 2 3 4 5 6 
#
# 1 0.011575 0.000366 0.000684 0.000000 0.006694 0.000000
# 2 0.000366 0.029525 0.002576 0.000000 0.000907 0.000000
# 3 0.000684 0.002576 0.018845 0.000000 0.006412 0.000000
# 4 0.000000 0.000000 0.000000 -0.011231 0.000000 0.011291
# 5 0.006694 0.000907 0.006412 0.000000 0.033049 0.000000
# 6 0.000000 0.000000 0.000000 0.011291 0.000000 0.021110
#
#
# Mechanical properties :
#
#
# Convention : Reuss Voigt Hill
#
# Bulk Modulus (GPa) = 14.88160 20.64926 17.76543
# Shear Modulus (GPa) = 42.36627 14.72004 28.54316
#
# Velocity S-wave (km/s) = 4.32778 2.55099 3.55227
# Velocity P-wave (km/s) = 5.61710 4.21966 4.96777
#
# Compressibility (1/GPa) = 0.06719707
#
# Stress axis : x y z
#
# Youngs Moduli (GPa) = 86.39520 33.87010 53.06438
#
# Poissons Ratio (x) = -0.01241 -0.03629
# Poissons Ratio (y) = -0.03166 -0.13670
# Poissons Ratio (z) = -0.05908 -0.08725
#
# Static dielectric constant tensor:
#      x y z
#    x 1.846990 0.000000 0.012230 
#    y 0.000000 1.832380 0.000000 
#    z 0.012230 0.000000 1.811130 
# 
# From -- ./inp_files/91962.got.cif
#   From: 2010.05.17/outbox.cif.g08.bks.cpg/sg10_46_cif.got.tgz:91962.got - 2010.06.03 11:33:40.
