data_PCOD9148569
_publ_section_title
;
Structure prediction by ZEFSAII (Michael W. Deem and Ramdas Pophale) SiO2 
 PCOD9148569
Probable space group: P 2/M
;
_chemical_formula_sum "Si O2"
_cell_formula_units_Z 32
_cell_length_a 14.912075
_cell_length_b 8.162507
_cell_length_c 14.340355
_cell_angle_alpha 90.000000
_cell_angle_beta 75.992534
_cell_angle_gamma 90.000000
_cell_volume 1693.602762
_symmetry_space_group_name_H-M "P 2/M"
_symmetry_group_IT_number 10
_symmetry_cell_setting 'monoclinic'
loop_
_space_group_symop_operation_xyz
x,y,z
-x,y,-z
-x,-y,-z
x,-y,z
loop_
_atom_site_type_symbol
_atom_site_label
_atom_site_fract_x
_atom_site_fract_y
_atom_site_fract_z
Si Si1 0.717553 0.695964 0.869443
Si Si2 0.369063 0.301000 0.915339
Si Si3 0.468427 0.802069 0.609385
Si Si4 0.893002 0.303203 0.325995
Si Si5 0.897478 0.695083 0.730322
Si Si6 0.721318 0.302358 0.253576
Si Si7 0.887961 0.186930 0.530556
Si Si8 0.558722 0.804963 0.777664
O O1 0.725756 0.500000 0.878241
O O2 0.819317 0.761778 0.819112
O O3 0.648998 0.729718 0.801204
O O4 0.671313 0.758237 0.976349
O O5 0.374499 0.500000 0.915716
O O6 0.303716 0.251019 0.845247
O O7 0.470775 0.237066 0.864910
O O8 0.500000 0.742654 0.500000
O O9 0.364375 0.751298 0.660789
O O10 0.531942 0.745386 0.680378
O O11 0.472238 0.000000 0.608013
O O12 0.897615 0.500000 0.317469
O O13 0.817848 0.241384 0.271229
O O14 0.859750 0.263189 0.439260
O O15 0.997848 0.238507 0.286413
O O16 0.903439 0.500000 0.742573
O O17 0.863948 0.724726 0.632684
O O18 0.724107 0.500000 0.252944
O O19 0.000000 0.189208 0.500000
O O20 0.855925 0.000000 0.543326
O O21 0.570061 0.000000 0.771279
#
# Coordination Sequence:
#
# PCOD9148569 Si02
#       8
#     4   4   4   4   4   4   4   4
#     4  10  20  33  50  71  96 128 161 196 242 287
#     4   9  18  34  52  70  95 125 159 199 240 286
#     4   9  19  35  51  70  99 129 155 190 237 284
#     4   9  17  31  50  71  97 129 162 196 235 281
#     4   9  18  32  48  69  99 130 160 196 238 283
#     4   9  18  32  51  73  95 124 162 198 233 279
#     4   9  17  29  46  68  93 123 159 196 233 275
#     4  10  20  33  51  74  97 124 159 197 239 288
#
# _framework density 18.894631
#
# number of rings (size 3 to 8) (size 9 to 14) (size 15 to 20)
#    0.000    2.750    0.000    1.125    0.000    6.250 
#    0.000    3.125    0.000    3.750    0.000    0.000 
#    0.000    9.000    0.000    0.000    0.000    0.000 
#
# Total GULP energy -178389.073738 kJ/mol
# GULP energy per Si atom -5574.658554 kJ/mol
# Density = 1.885163 g / cm^3
# Si number density = 18.894631 Si / 1000 Ang^3
#
#
#
# Elastic Constant Matrix: (Units=GPa)
#
#
# Indices 1 2 3 4 5 6 
#
# 1 99.5538 -0.9610 46.2198 0.0000 5.6919 0.0000
# 2 -0.9610 4.8241 1.1095 0.0000 0.7159 0.0000
# 3 46.2198 1.1095 109.1373 0.0000 -4.0134 0.0000
# 4 0.0000 0.0000 0.0000 4.1802 0.0000 9.1171
# 5 5.6919 0.7159 -4.0134 0.0000 10.1707 0.0000
# 6 0.0000 0.0000 0.0000 9.1171 0.0000 5.1485
#
#
#
# Elastic Compliance Matrix: (Units=1/GPa)
#
#
# Indices 1 2 3 4 5 6 
#
# 1 0.013569 0.005675 -0.006188 0.000000 -0.010435 0.000000
# 2 0.005675 0.212649 -0.005309 0.000000 -0.020238 0.000000
# 3 -0.006188 -0.005309 0.012155 0.000000 0.008633 0.000000
# 4 0.000000 0.000000 0.000000 -0.083578 0.000000 0.148003
# 5 -0.010435 -0.020238 0.008633 0.000000 0.108993 0.000000
# 6 0.000000 0.000000 0.000000 0.148003 0.000000 -0.067859
#
#
# Mechanical properties :
#
#
# Convention : Reuss Voigt Hill
#
# Bulk Modulus (GPa) = 4.41057 34.02799 19.21928
# Shear Modulus (GPa) = 17.65848 15.04298 16.35073
#
# Velocity S-wave (km/s) = 3.06040 2.82468 2.94490
# Velocity P-wave (km/s) = 3.85064 5.35601 4.66445
#
# Compressibility (1/GPa) = 0.22672791
#
# Stress axis : x y z
#
# Youngs Moduli (GPa) = 73.69702 4.70258 82.27190
#
# Poissons Ratio (x) = -0.02669 0.50909
# Poissons Ratio (y) = -0.41821 0.43681
# Poissons Ratio (z) = 0.45603 0.02497
#
# Static dielectric constant tensor:
#      x y z
#    x 1.662530 0.000000 0.000100 
#    y 0.000000 1.666510 0.000000 
#    z 0.000100 0.000000 1.658630 
# 
# From -- ./inp_files/66508.got.cif
#   From: 2010.05.17/outbox.cif.g08.bks.cpg/sg10_34_cif.got.tgz:66508.got - 2010.06.03 11:33:40.
