data_PCOD9148321
_publ_section_title
;
Structure prediction by ZEFSAII (Michael W. Deem and Ramdas Pophale) SiO2 
 PCOD9148321
Probable space group: P 2/M
;
_chemical_formula_sum "Si O2"
_cell_formula_units_Z 28
_cell_length_a 8.356005
_cell_length_b 7.246517
_cell_length_c 22.838559
_cell_angle_alpha 90.000000
_cell_angle_beta 131.419920
_cell_angle_gamma 90.000000
_cell_volume 1037.024738
_symmetry_space_group_name_H-M "P 2/M"
_symmetry_group_IT_number 10
_symmetry_cell_setting 'monoclinic'
loop_
_space_group_symop_operation_xyz
x,y,z
-x,y,-z
-x,-y,-z
x,-y,z
loop_
_atom_site_type_symbol
_atom_site_label
_atom_site_fract_x
_atom_site_fract_y
_atom_site_fract_z
Si Si1 0.639506 0.276857 0.615525
Si Si2 0.736092 0.722810 0.764326
Si Si3 0.810716 0.274897 0.530001
Si Si4 0.808189 0.209669 0.096684
Si Si5 0.764109 0.224597 0.959334
Si Si6 0.260004 0.290368 0.664775
Si Si7 0.680016 0.222802 0.192659
O O1 0.639718 0.500000 0.614493
O O2 0.765200 0.220467 0.703447
O O3 0.735516 0.218683 0.577062
O O4 0.389693 0.220619 0.558476
O O5 0.740968 0.500000 0.770278
O O6 0.497383 0.789883 0.720313
O O7 0.935262 0.793193 0.849067
O O8 0.820010 0.500000 0.530575
O O9 0.053767 0.211084 0.582192
O O10 0.715353 0.286738 0.014092
O O11 0.766955 0.289791 0.150905
O O12 0.729608 0.000000 0.082029
O O13 0.768029 0.000000 0.961406
O O14 0.570827 0.276636 0.870184
O O15 0.000000 0.288008 0.000000
O O16 0.283402 0.500000 0.648221
O O17 0.209908 0.295136 0.722196
O O18 0.696847 0.000000 0.199396
#
# Coordination Sequence:
#
# PCOD9148321 Si02
#       7
#     4   4   4   4   4   4   4
#     4   8  14  26  45  68  94 126 163 200 238 283
#     4  10  20  32  48  73 103 132 162 199 244 290
#     4   8  14  26  45  68  94 126 163 200 238 283
#     4  10  20  34  53  75  98 127 164 202 240 286
#     4   9  17  31  52  75  98 125 158 198 242 287
#     4  10  20  32  48  73 103 132 162 199 244 290
#     4  10  20  34  53  75  98 127 164 202 240 286
#
# _framework density 27.000319000000001
#
# number of rings (size 3 to 8) (size 9 to 14) (size 15 to 20)
#    0.000    2.714    0.000    3.000    0.000    5.714 
#    0.000    3.571    0.000    5.143    0.000    6.000 
#    0.000    0.000    0.000    0.000    0.000    0.000 
#
# Total GULP energy -156654.069429 kJ/mol
# GULP energy per Si atom -5594.788194 kJ/mol
# Density = 2.693887 g / cm^3
# Si number density = 27.000319 Si / 1000 Ang^3
#
#
#
# Elastic Constant Matrix: (Units=GPa)
#
#
# Indices 1 2 3 4 5 6 
#
# 1 75.4033 -6.3968 7.4773 0.0000 10.8983 0.0000
# 2 -6.3968 131.9258 -6.2018 0.0000 2.4672 0.0000
# 3 7.4773 -6.2018 160.3369 0.0000 14.6839 0.0000
# 4 0.0000 0.0000 0.0000 2.4239 0.0000 0.0846
# 5 10.8983 2.4672 14.6839 0.0000 57.5171 0.0000
# 6 0.0000 0.0000 0.0000 0.0846 0.0000 -0.0339
#
#
#
# Elastic Compliance Matrix: (Units=1/GPa)
#
#
# Indices 1 2 3 4 5 6 
#
# 1 0.013725 0.000695 -0.000381 0.000000 -0.002533 0.000000
# 2 0.000695 0.007638 0.000312 0.000000 -0.000539 0.000000
# 3 -0.000381 0.000312 0.006411 0.000000 -0.001578 0.000000
# 4 0.000000 0.000000 0.000000 0.379494 0.000000 0.947369
# 5 -0.002533 -0.000539 -0.001578 0.000000 0.018292 0.000000
# 6 0.000000 0.000000 0.000000 0.947369 0.000000-27.142344
#
#
# Mechanical properties :
#
#
# Convention : Reuss Voigt Hill
#
# Bulk Modulus (GPa) = 34.45075 39.71370 37.08222
# Shear Modulus (GPa) = -0.18721 36.83391 18.32335
#
# Velocity S-wave (km/s) = -0.26360 3.69752 2.60789
# Velocity P-wave (km/s) = 3.56293 5.74190 4.77828
#
# Compressibility (1/GPa) = 0.02902694
#
# Stress axis : x y z
#
# Youngs Moduli (GPa) = 72.86035 130.91608 155.97607
#
# Poissons Ratio (x) = -0.09098 0.05946
# Poissons Ratio (y) = -0.05063 -0.04873
# Poissons Ratio (z) = 0.02777 -0.04090
#
# Static dielectric constant tensor:
#      x y z
#    x 2.176080 0.000000 0.025690 
#    y 0.000000 2.044980 0.000000 
#    z 0.025690 0.000000 2.001170 
# 
# From -- ./inp_files/37014.got.cif
#   From: 2010.05.17/outbox.cif.g08.bks.cpg/sg10_19_cif.got.tgz:37014.got - 2010.06.03 11:33:40.
