data_PCOD9148747
_publ_section_title
;
Structure prediction by ZEFSAII (Michael W. Deem and Ramdas Pophale) SiO2 
 PCOD9148747
Probable space group: P 2/M
;
_chemical_formula_sum "Si O2"
_cell_formula_units_Z 32
_cell_length_a 12.268058
_cell_length_b 7.586338
_cell_length_c 31.925306
_cell_angle_alpha 90.000000
_cell_angle_beta 29.318105
_cell_angle_gamma 90.000000
_cell_volume 1454.909322
_symmetry_space_group_name_H-M "P 2/M"
_symmetry_group_IT_number 10
_symmetry_cell_setting 'monoclinic'
loop_
_space_group_symop_operation_xyz
x,y,z
-x,y,-z
-x,-y,-z
x,-y,z
loop_
_atom_site_type_symbol
_atom_site_label
_atom_site_fract_x
_atom_site_fract_y
_atom_site_fract_z
Si Si1 0.263197 0.794919 0.566013
Si Si2 0.912361 0.204561 0.073673
Si Si3 0.428114 0.290554 0.387634
Si Si4 0.494274 0.788818 0.732363
Si Si5 0.705830 0.286373 0.989880
Si Si6 0.808649 0.286349 0.320163
Si Si7 0.772034 0.285611 0.872034
Si Si8 0.996498 0.209201 0.576396
O O1 0.500000 0.711935 0.500000
O O2 0.137982 0.783465 0.651883
O O3 0.124707 0.716767 0.574235
O O4 0.304384 0.000000 0.541683
O O5 0.698360 0.278760 0.171436
O O6 0.120776 0.212939 0.035308
O O7 0.855794 0.000000 0.083717
O O8 0.000000 0.282505 0.000000
O O9 0.426078 0.500000 0.390487
O O10 0.539234 0.243479 0.306054
O O11 0.577277 0.225068 0.376720
O O12 0.173712 0.231185 0.479376
O O13 0.746345 0.719618 0.655639
O O14 0.495316 0.000000 0.736904
O O15 0.718989 0.500000 0.987958
O O16 0.763501 0.231407 0.923154
O O17 0.447668 0.232754 0.080020
O O18 0.804710 0.500000 0.323315
O O19 0.002887 0.228467 0.224446
O O20 0.767865 0.500000 0.874177
O O21 0.968732 0.000000 0.591583
#
# Coordination Sequence:
#
# PCOD9148747 Si02
#       8
#     4   4   4   4   4   4   4   4
#     4  10  20  35  54  76 104 139 180 221 259 308
#     4  10  22  39  57  79 110 144 180 226 275 320
#     4  11  22  35  56  85 114 142 179 229 274 313
#     4  10  22  39  58  79 106 146 187 221 268 329
#     4   9  17  34  59  80 105 140 178 218 267 323
#     4  10  20  33  52  79 111 144 178 216 268 322
#     4   8  16  32  54  81 109 139 174 218 269 323
#     4  10  21  38  57  77 108 149 187 221 266 324
#
# _framework density 21.994496000000002
#
# number of rings (size 3 to 8) (size 9 to 14) (size 15 to 20)
#    0.000    2.250    1.250    2.250    0.000    6.000 
#    0.000    3.750    0.000    0.000    0.000    0.000 
#    0.000    0.000    0.000    0.000    0.000    0.000 
#
# Total GULP energy -178547.201084 kJ/mol
# GULP energy per Si atom -5579.600034 kJ/mol
# Density = 2.194444 g / cm^3
# Si number density = 21.994496 Si / 1000 Ang^3
#
#
#
# Elastic Constant Matrix: (Units=GPa)
#
#
# Indices 1 2 3 4 5 6 
#
# 1 77.7577 -0.9290 71.0012 0.0000 8.5787 0.0000
# 2 -0.9290 53.8732 1.3736 0.0000 -0.8059 0.0000
# 3 71.0012 1.3736 125.1274 0.0000 -0.7018 0.0000
# 4 0.0000 0.0000 0.0000 11.2931 0.0000 -0.2901
# 5 8.5787 -0.8059 -0.7018 0.0000 26.0492 0.0000
# 6 0.0000 0.0000 0.0000 -0.2901 0.0000 15.2066
#
#
#
# Elastic Compliance Matrix: (Units=1/GPa)
#
#
# Indices 1 2 3 4 5 6 
#
# 1 0.029123 0.000775 -0.016590 0.000000 -0.010014 0.000000
# 2 0.000775 0.018596 -0.000642 0.000000 0.000303 0.000000
# 3 -0.016590 -0.000642 0.017446 0.000000 0.005914 0.000000
# 4 0.000000 0.000000 0.000000 0.088593 0.000000 0.001690
# 5 -0.010014 0.000303 0.005914 0.000000 0.041855 0.000000
# 6 0.000000 0.000000 0.000000 0.001690 0.000000 0.065793
#
#
# Mechanical properties :
#
#
# Convention : Reuss Voigt Hill
#
# Bulk Modulus (GPa) = 31.00670 44.40554 37.70612
# Shear Modulus (GPa) = 16.38965 22.86395 19.62680
#
# Velocity S-wave (km/s) = 2.73274 3.22767 2.99046
# Velocity P-wave (km/s) = 4.90767 5.84155 5.39486
#
# Compressibility (1/GPa) = 0.03225109
#
# Stress axis : x y z
#
# Youngs Moduli (GPa) = 34.33721 53.77391 57.32064
#
# Poissons Ratio (x) = -0.04170 0.95095
# Poissons Ratio (y) = -0.02662 0.03682
# Poissons Ratio (z) = 0.56965 0.03455
#
# Static dielectric constant tensor:
#      x y z
#    x 1.799860 0.000000 0.001750 
#    y 0.000000 1.833820 0.000000 
#    z 0.001750 0.000000 1.850950 
# 
# From -- ./inp_files/58125.got.cif
#   From: 2010.05.17/outbox.cif.g08.bks.cpg/sg10_30_cif.got.tgz:58125.got - 2010.06.03 11:33:40.
