data_PCOD9148160
_publ_section_title
;
Structure prediction by ZEFSAII (Michael W. Deem and Ramdas Pophale) SiO2 
 PCOD9148160
Probable space group: P 2/M
;
_chemical_formula_sum "Si O2"
_cell_formula_units_Z 29
_cell_length_a 13.850276
_cell_length_b 7.394418
_cell_length_c 12.289863
_cell_angle_alpha 90.000000
_cell_angle_beta 57.207153
_cell_angle_gamma 90.000000
_cell_volume 1058.075199
_symmetry_space_group_name_H-M "P 2/M"
_symmetry_group_IT_number 10
_symmetry_cell_setting 'monoclinic'
loop_
_space_group_symop_operation_xyz
x,y,z
-x,y,-z
-x,-y,-z
x,-y,z
loop_
_atom_site_type_symbol
_atom_site_label
_atom_site_fract_x
_atom_site_fract_y
_atom_site_fract_z
Si Si1 0.363867 0.287968 0.969129
Si Si2 0.712233 0.792284 0.516357
Si Si3 0.714072 0.784161 0.757440
Si Si4 0.534703 0.715671 0.307254
Si Si5 0.968265 0.219062 0.689938
Si Si6 0.211121 0.215483 0.755773
Si Si7 0.887568 0.208294 0.965354
Si Si8 0.000000 0.500000 0.500000
O O1 0.354353 0.500000 0.953387
O O2 0.372762 0.267743 0.093037
O O3 0.241293 0.207901 0.006947
O O4 0.456575 0.220788 0.824980
O O5 0.706710 0.708990 0.640334
O O6 0.577108 0.795627 0.568437
O O7 0.782136 0.714746 0.371830
O O8 0.752438 0.000000 0.504222
O O9 0.839639 0.732231 0.725777
O O10 0.709018 0.000000 0.755167
O O11 0.520569 0.500000 0.322473
O O12 0.658641 0.761058 0.280113
O O13 0.966113 0.275654 0.818156
O O14 0.039697 0.339480 0.563733
O O15 0.982759 0.000000 0.672739
O O16 0.189667 0.000000 0.762024
O O17 0.129796 0.287196 0.903109
O O18 0.920223 0.000000 0.957813
#
# Coordination Sequence:
#
# PCOD9148160 Si02
#       8
#     4   4   4   4   4   4   4   1
#     4   9  17  28  45  64  88 128 169 206 249 299
#     4  10  20  32  47  67  92 130 175 212 253 300
#     4   9  19  34  49  68  98 130 163 206 247 293
#     4  10  20  31  42  64  97 128 167 221 268 292
#     4   9  19  35  54  82 113 134 159 198 245 302
#     4   9  17  31  50  69  91 127 175 217 252 291
#     4   8  15  29  49  71  97 126 159 204 246 281
#     4  12  22  32  60  90 110 134 154 188 248 314
#
# _framework density 27.408262000000001
#
# number of rings (size 3 to 8) (size 9 to 14) (size 15 to 20)
#    0.000    2.759    0.000    2.276    3.862    4.966 
#    0.000    2.759    0.000    0.000    0.000    1.931 
#    0.000    6.621    0.000    0.000    0.000    0.000 
#
# Total GULP energy -161914.600134 kJ/mol
# GULP energy per Si atom -5583.262074 kJ/mol
# Density = 2.734588 g / cm^3
# Si number density = 27.408262 Si / 1000 Ang^3
#
#
#
# Elastic Constant Matrix: (Units=GPa)
#
#
# Indices 1 2 3 4 5 6 
#
# 1 96.2595 -0.9532 76.6171 0.0000 8.5111 0.0000
# 2 -0.9532 102.9080 24.2678 0.0000 13.0405 0.0000
# 3 76.6171 24.2678 298.8908 0.0000 23.8599 0.0000
# 4 0.0000 0.0000 0.0000 32.8458 0.0000 -8.0262
# 5 8.5111 13.0405 23.8599 0.0000 66.8455 0.0000
# 6 0.0000 0.0000 0.0000 -8.0262 0.0000 -22.9472
#
#
#
# Elastic Compliance Matrix: (Units=1/GPa)
#
#
# Indices 1 2 3 4 5 6 
#
# 1 0.013166 0.001008 -0.003404 0.000000 -0.000658 0.000000
# 2 0.001008 0.010174 -0.000943 0.000000 -0.001777 0.000000
# 3 -0.003404 -0.000943 0.004370 0.000000 -0.000943 0.000000
# 4 0.000000 0.000000 0.000000 0.028048 0.000000 -0.009810
# 5 -0.000658 -0.001777 -0.000943 0.000000 0.015727 0.000000
# 6 0.000000 0.000000 0.000000 -0.009810 0.000000 -0.040147
#
#
# Mechanical properties :
#
#
# Convention : Reuss Voigt Hill
#
# Bulk Modulus (GPa) = 47.54436 77.54686 62.54561
# Shear Modulus (GPa) = 111.04356 41.89059 76.46708
#
# Velocity S-wave (km/s) = 6.37202 3.91371 5.28771
# Velocity P-wave (km/s) = 8.45702 6.98409 7.75560
#
# Compressibility (1/GPa) = 0.02103299
#
# Stress axis : x y z
#
# Youngs Moduli (GPa) = 75.95066 98.28783 228.82469
#
# Poissons Ratio (x) = -0.09909 0.77901
# Poissons Ratio (y) = -0.07657 0.21571
# Poissons Ratio (z) = 0.25857 0.09265
#
# Static dielectric constant tensor:
#      x y z
#    x 2.238340 0.000000 -0.009520 
#    y 0.000000 2.002860 0.000000 
#    z -0.009520 0.000000 2.225860 
# 
# From -- ./inp_files/54736.got.cif
#   From: 2010.05.17/outbox.cif.g08.bks.cpg/sg10_28_cif.got.tgz:54736.got - 2010.06.03 11:33:40.
