data_PCOD9148921
_publ_section_title
;
Structure prediction by ZEFSAII (Michael W. Deem and Ramdas Pophale) SiO2 
 PCOD9148921
Probable space group: P 2/M
;
_chemical_formula_sum "Si O2"
_cell_formula_units_Z 21
_cell_length_a 9.463074
_cell_length_b 7.388665
_cell_length_c 14.953616
_cell_angle_alpha 90.000000
_cell_angle_beta 94.688197
_cell_angle_gamma 90.000000
_cell_volume 1042.050958
_symmetry_space_group_name_H-M "P 2/M"
_symmetry_group_IT_number 10
_symmetry_cell_setting 'monoclinic'
loop_
_space_group_symop_operation_xyz
x,y,z
-x,y,-z
-x,-y,-z
x,-y,z
loop_
_atom_site_type_symbol
_atom_site_label
_atom_site_fract_x
_atom_site_fract_y
_atom_site_fract_z
Si Si1 0.399576 0.216556 0.614983
Si Si2 0.850298 0.219761 0.532231
Si Si3 0.199597 0.500000 0.928583
Si Si4 0.095828 0.785070 0.266188
Si Si5 0.500000 0.500000 0.500000
Si Si6 0.859706 0.500000 0.875376
Si Si7 0.237075 0.212919 0.786153
O O1 0.269917 0.275969 0.543045
O O2 0.518968 0.340573 0.579215
O O3 0.346651 0.255932 0.712329
O O4 0.425018 0.000000 0.608598
O O5 0.845325 0.274459 0.634913
O O6 0.000000 0.277944 0.500000
O O7 0.848085 0.000000 0.531703
O O8 0.255941 0.328311 0.876359
O O9 0.028371 0.500000 0.906961
O O10 0.223268 0.500000 0.035673
O O11 0.161914 0.674291 0.188178
O O12 0.924674 0.753717 0.256718
O O13 0.117406 0.000000 0.257001
O O14 0.247114 0.000000 0.804728
#
# Coordination Sequence:
#
# PCOD9148921 Si02
#       7
#     4   4   2   4   1   2   4
#     4  10  20  34  50  69  96 126 158 197 232 271
#     4   9  15  28  50  73  95 120 154 195 234 274
#     4   9  17  28  38  57  88 124 162 190 215 263
#     4   9  16  27  44  67  93 119 150 187 230 276
#     4  12  24  34  44  64  96 138 168 184 224 280
#     4   9  18  27  36  56  93 129 155 183 219 269
#     4   9  16  28  47  66  86 117 156 195 229 265
#
# _framework density 20.152566
#
# number of rings (size 3 to 8) (size 9 to 14) (size 15 to 20)
#    0.000    2.667    1.905    0.857    0.000    1.524 
#    0.000    4.762    0.000    0.000    0.000    0.000 
#    0.000   12.190    0.000   44.952    0.000    1.524 
#
# Total GULP energy -116907.147305 kJ/mol
# GULP energy per Si atom -5567.007015 kJ/mol
# Density = 2.010670 g / cm^3
# Si number density = 20.152566 Si / 1000 Ang^3
#
#
#
# Elastic Constant Matrix: (Units=GPa)
#
#
# Indices 1 2 3 4 5 6 
#
# 1 19.0433 4.5125 13.5542 0.0000 -7.2201 0.0000
# 2 4.5125 87.0768 67.3830 0.0000 -16.0012 0.0000
# 3 13.5542 67.3830 198.5078 0.0000 -22.2481 0.0000
# 4 0.0000 0.0000 0.0000 30.6755 0.0000 -5.1662
# 5 -7.2201 -16.0012 -22.2481 0.0000 23.5201 0.0000
# 6 0.0000 0.0000 0.0000 -5.1662 0.0000 -20.8930
#
#
#
# Elastic Compliance Matrix: (Units=1/GPa)
#
#
# Indices 1 2 3 4 5 6 
#
# 1 0.060683 0.002374 -0.002999 0.000000 0.017407 0.000000
# 2 0.002374 0.016538 -0.004959 0.000000 0.007289 0.000000
# 3 -0.002999 -0.004959 0.007209 0.000000 0.002525 0.000000
# 4 0.000000 0.000000 0.000000 0.031296 0.000000 -0.007739
# 5 0.017407 0.007289 0.002525 0.000000 0.055207 0.000000
# 6 0.000000 0.000000 0.000000 -0.007739 0.000000 -0.045949
#
#
# Mechanical properties :
#
#
# Convention : Reuss Voigt Hill
#
# Bulk Modulus (GPa) = 13.64933 52.83637 33.24285
# Shear Modulus (GPa) = 31.13882 21.27240 26.20561
#
# Velocity S-wave (km/s) = 3.93511 3.25248 3.60996
# Velocity P-wave (km/s) = 5.23779 6.35452 5.82299
#
# Compressibility (1/GPa) = 0.07326366
#
# Stress axis : x y z
#
# Youngs Moduli (GPa) = 16.47898 60.46710 138.72379
#
# Poissons Ratio (x) = -0.14357 0.41597
# Poissons Ratio (y) = -0.03913 0.68792
# Poissons Ratio (z) = 0.04941 0.29985
#
# Static dielectric constant tensor:
#      x y z
#    x 1.821530 0.000000 -0.039060 
#    y 0.000000 1.755380 0.000000 
#    z -0.039060 0.000000 1.693850 
# 
# From -- ./inp_files/44665.got.cif
#   From: 2010.05.17/outbox.cif.g08.bks.cpg/sg10_23_cif.got.tgz:44665.got - 2010.06.03 11:33:40.
