data_PCOD9148761
_publ_section_title
;
Structure prediction by ZEFSAII (Michael W. Deem and Ramdas Pophale) SiO2 
 PCOD9148761
Probable space group: P 2/M
;
_chemical_formula_sum "Si O2"
_cell_formula_units_Z 32
_cell_length_a 12.847186
_cell_length_b 7.509388
_cell_length_c 29.665508
_cell_angle_alpha 90.000000
_cell_angle_beta 150.754729
_cell_angle_gamma 90.000000
_cell_volume 1398.210877
_symmetry_space_group_name_H-M "P 2/M"
_symmetry_group_IT_number 10
_symmetry_cell_setting 'monoclinic'
loop_
_space_group_symop_operation_xyz
x,y,z
-x,y,-z
-x,-y,-z
x,-y,z
loop_
_atom_site_type_symbol
_atom_site_label
_atom_site_fract_x
_atom_site_fract_y
_atom_site_fract_z
Si Si1 0.252132 0.203500 0.858645
Si Si2 0.913357 0.217573 0.112152
Si Si3 0.667626 0.717246 0.500331
Si Si4 0.590467 0.785008 0.914959
Si Si5 0.201940 0.715695 0.350403
Si Si6 0.219285 0.705794 0.104147
Si Si7 0.634249 0.204510 0.741877
Si Si8 0.820679 0.705128 0.464286
O O1 0.231467 0.281468 0.901020
O O2 0.398469 0.280113 0.874344
O O3 0.009787 0.205469 0.750264
O O4 0.329068 0.000000 0.893315
O O5 0.157252 0.279852 0.204815
O O6 0.918576 0.000000 0.116299
O O7 0.801871 0.264042 0.023093
O O8 0.665246 0.500000 0.498457
O O9 0.419683 0.770905 0.407989
O O10 0.770644 0.767068 0.586858
O O11 0.786340 0.783829 0.500954
O O12 0.610419 0.715963 0.872016
O O13 0.579333 0.000000 0.907410
O O14 0.186867 0.500000 0.342495
O O15 0.177784 0.500000 0.099547
O O16 0.303772 0.790797 0.181902
O O17 0.000000 0.782779 0.000000
O O18 0.410474 0.294178 0.646634
O O19 0.608135 0.000000 0.718153
O O20 0.886703 0.500000 0.496869
O O21 0.000000 0.787330 0.500000
#
# Coordination Sequence:
#
# PCOD9148761 Si02
#       8
#     4   4   4   4   4   4   4   4
#     4  10  20  33  52  82 115 144 180 224 276 332
#     4   9  18  34  56  80 109 147 187 225 274 333
#     4   8  16  33  55  75  99 139 186 224 269 329
#     4  10  20  36  57  79 109 150 188 226 274 333
#     4   9  17  32  54  76 101 139 184 226 268 323
#     4  11  23  39  59  83 112 145 188 240 284 329
#     4  11  22  37  61  87 112 148 192 235 281 337
#     4  10  21  37  56  80 112 148 184 229 286 339
#
# _framework density 22.886389999999999
#
# number of rings (size 3 to 8) (size 9 to 14) (size 15 to 20)
#    0.000    2.250    1.250    2.625    0.000    3.750 
#    0.000    4.375    0.000    1.500    0.000    0.000 
#    0.000    0.000    0.000    0.000    0.000    0.000 
#
# Total GULP energy -178799.942985 kJ/mol
# GULP energy per Si atom -5587.498218 kJ/mol
# Density = 2.283430 g / cm^3
# Si number density = 22.886390 Si / 1000 Ang^3
#
#
#
# Elastic Constant Matrix: (Units=GPa)
#
#
# Indices 1 2 3 4 5 6 
#
# 1 166.8883 0.1846 9.3167 0.0000 14.1382 0.0000
# 2 0.1846 68.3664 -6.0245 0.0000 2.7442 0.0000
# 3 9.3167 -6.0245 27.7909 0.0000 4.0936 0.0000
# 4 0.0000 0.0000 0.0000 13.6749 0.0000 15.7559
# 5 14.1382 2.7442 4.0936 0.0000 30.5115 0.0000
# 6 0.0000 0.0000 0.0000 15.7559 0.0000 -68.4458
#
#
#
# Elastic Compliance Matrix: (Units=1/GPa)
#
#
# Indices 1 2 3 4 5 6 
#
# 1 0.006317 -0.000062 -0.001735 0.000000 -0.002689 0.000000
# 2 -0.000062 0.015011 0.003540 0.000000 -0.001796 0.000000
# 3 -0.001735 0.003540 0.038012 0.000000 -0.004614 0.000000
# 4 0.000000 0.000000 0.000000 0.057797 0.000000 0.013305
# 5 -0.002689 -0.001796 -0.004614 0.000000 0.034801 0.000000
# 6 0.000000 0.000000 0.000000 0.013305 0.000000 -0.011547
#
#
# Mechanical properties :
#
#
# Convention : Reuss Voigt Hill
#
# Bulk Modulus (GPa) = 15.91738 29.99993 22.95865
# Shear Modulus (GPa) = 31.67619 12.45269 22.06444
#
# Velocity S-wave (km/s) = 3.72433 2.33515 3.10834
# Velocity P-wave (km/s) = 5.04621 4.51743 4.78913
#
# Compressibility (1/GPa) = 0.06282443
#
# Stress axis : x y z
#
# Youngs Moduli (GPa) = 158.30964 66.61676 26.30777
#
# Poissons Ratio (x) = 0.00413 0.04565
# Poissons Ratio (y) = 0.00982 -0.09312
# Poissons Ratio (z) = 0.27468 -0.23579
#
# Static dielectric constant tensor:
#      x y z
#    x 1.878200 0.000000 0.015930 
#    y 0.000000 1.857270 0.000000 
#    z 0.015930 0.000000 1.812550 
# 
# From -- ./inp_files/58180.got.cif
#   From: 2010.05.17/outbox.cif.g08.bks.cpg/sg10_30_cif.got.tgz:58180.got - 2010.06.03 11:33:40.
