data_PCOD9148718
_publ_section_title
;
Structure prediction by ZEFSAII (Michael W. Deem and Ramdas Pophale) SiO2 
 PCOD9148718
Probable space group: P 2/M
;
_chemical_formula_sum "Si O2"
_cell_formula_units_Z 32
_cell_length_a 27.023105
_cell_length_b 7.535241
_cell_length_c 20.587854
_cell_angle_alpha 90.000000
_cell_angle_beta 158.805423
_cell_angle_gamma 90.000000
_cell_volume 1515.637752
_symmetry_space_group_name_H-M "P 2/M"
_symmetry_group_IT_number 10
_symmetry_cell_setting 'monoclinic'
loop_
_space_group_symop_operation_xyz
x,y,z
-x,y,-z
-x,-y,-z
x,-y,z
loop_
_atom_site_type_symbol
_atom_site_label
_atom_site_fract_x
_atom_site_fract_y
_atom_site_fract_z
Si Si1 0.799966 0.785005 0.710136
Si Si2 0.798610 0.713390 0.490349
Si Si3 0.345442 0.212348 0.821543
Si Si4 0.154293 0.784772 0.704808
Si Si5 0.895069 0.290102 0.110063
Si Si6 0.592285 0.293872 0.346484
Si Si7 0.100259 0.786496 0.030756
Si Si8 0.704917 0.708402 0.989327
O O1 0.675749 0.715856 0.515640
O O2 0.810118 0.728330 0.797736
O O3 0.795211 0.000000 0.702654
O O4 0.943634 0.728616 0.852855
O O5 0.804369 0.500000 0.505613
O O6 0.744383 0.751928 0.352225
O O7 0.689615 0.784283 0.409619
O O8 0.951697 0.782758 0.690699
O O9 0.263943 0.278228 0.785138
O O10 0.356836 0.000000 0.843193
O O11 0.500000 0.281826 0.000000
O O12 0.000000 0.726926 0.500000
O O13 0.154977 0.000000 0.704885
O O14 0.199273 0.724549 0.830815
O O15 0.904043 0.500000 0.134861
O O16 0.856541 0.269054 0.987785
O O17 0.784069 0.215055 0.024167
O O18 0.572308 0.500000 0.303570
O O19 0.442731 0.212842 0.173148
O O20 0.098754 0.000000 0.030559
O O21 0.680068 0.500000 0.944905
#
# Coordination Sequence:
#
# PCOD9148718 Si02
#       8
#     4   4   4   4   4   4   4   4
#     4   9  18  33  54  81 109 137 173 216 260 309
#     4  10  20  33  52  77 102 130 171 217 257 306
#     4  10  21  35  51  74 102 131 167 212 261 311
#     4  10  21  37  55  76 102 135 177 220 260 311
#     4  10  20  35  53  78 107 136 174 217 258 306
#     4  10  20  35  53  78 109 140 176 216 260 311
#     4   9  18  33  54  81 109 136 173 218 260 306
#     4  10  22  37  54  77 108 142 175 215 263 314
#
# _framework density 21.113223999999999
#
# number of rings (size 3 to 8) (size 9 to 14) (size 15 to 20)
#    0.000    2.250    1.250    2.250    0.000    3.500 
#    0.000    1.875    0.000    3.750    0.000    0.000 
#    0.000    0.000    0.000    0.000    0.000    0.000 
#
# Total GULP energy -178725.220156 kJ/mol
# GULP energy per Si atom -5585.163130 kJ/mol
# Density = 2.106517 g / cm^3
# Si number density = 21.113224 Si / 1000 Ang^3
#
#
#
# Elastic Constant Matrix: (Units=GPa)
#
#
# Indices 1 2 3 4 5 6 
#
# 1 138.9710 -5.0030 14.2579 0.0000 10.0447 0.0000
# 2 -5.0030 51.0711 -9.1145 0.0000 16.3835 0.0000
# 3 14.2579 -9.1145 10.9131 0.0000 5.1194 0.0000
# 4 0.0000 0.0000 0.0000 9.5545 0.0000 -17.3497
# 5 10.0447 16.3835 5.1194 0.0000 34.1271 0.0000
# 6 0.0000 0.0000 0.0000 -17.3497 0.0000 10.2659
#
#
#
# Elastic Compliance Matrix: (Units=1/GPa)
#
#
# Indices 1 2 3 4 5 6 
#
# 1 0.008386 -0.001319 -0.012045 0.000000 -0.000028 0.000000
# 2 -0.001319 0.033534 0.039909 0.000000 -0.021697 0.000000
# 3 -0.012045 0.039909 0.159232 0.000000 -0.039500 0.000000
# 4 0.000000 0.000000 0.000000 -0.050589 0.000000 -0.085498
# 5 -0.000028 -0.021697 -0.039500 0.000000 0.045652 0.000000
# 6 0.000000 0.000000 0.000000 -0.085498 0.000000 -0.047084
#
#
# Mechanical properties :
#
#
# Convention : Reuss Voigt Hill
#
# Bulk Modulus (GPa) = 3.93325 22.35957 13.14641
# Shear Modulus (GPa) = 27.65672 24.17717 25.91694
#
# Velocity S-wave (km/s) = 3.62321 3.38763 3.50740
# Velocity P-wave (km/s) = 4.40120 5.09065 4.75843
#
# Compressibility (1/GPa) = 0.25424296
#
# Stress axis : x y z
#
# Youngs Moduli (GPa) = 119.24564 29.82021 6.28016
#
# Poissons Ratio (x) = 0.03933 0.07564
# Poissons Ratio (y) = 0.15729 -0.25064
# Poissons Ratio (z) = 1.43629 -1.19010
#
# Static dielectric constant tensor:
#      x y z
#    x 1.755040 0.000000 0.034900 
#    y 0.000000 1.779170 0.000000 
#    z 0.034900 0.000000 1.738490 
# 
# From -- ./inp_files/86968.got.cif
#   From: 2010.05.17/outbox.cif.g08.bks.cpg/sg10_44_cif.got.tgz:86968.got - 2010.06.03 11:33:40.
