data_PCOD9148007
_publ_section_title
;
Structure prediction by ZEFSAII (Michael W. Deem and Ramdas Pophale) SiO2 
 PCOD9148007
Probable space group: P 2/M
;
_chemical_formula_sum "Si O2"
_cell_formula_units_Z 32
_cell_length_a 14.735454
_cell_length_b 17.587090
_cell_length_c 11.367025
_cell_angle_alpha 90.000000
_cell_angle_beta 28.753681
_cell_angle_gamma 90.000000
_cell_volume 1417.066110
_symmetry_space_group_name_H-M "P 2/M"
_symmetry_group_IT_number 10
_symmetry_cell_setting 'monoclinic'
loop_
_space_group_symop_operation_xyz
x,y,z
-x,y,-z
-x,-y,-z
x,-y,z
loop_
_atom_site_type_symbol
_atom_site_label
_atom_site_fract_x
_atom_site_fract_y
_atom_site_fract_z
Si Si1 0.810108 0.414519 0.138415
Si Si2 0.414182 0.722920 0.482838
Si Si3 0.122866 0.915660 0.514313
Si Si4 0.485760 0.086681 0.244227
Si Si5 0.042982 0.782826 0.831748
Si Si6 0.807643 0.310902 0.921684
Si Si7 0.789424 0.083414 0.068483
Si Si8 0.314675 0.785969 0.142401
O O1 0.730557 0.500000 0.224081
O O2 0.677936 0.354092 0.358310
O O3 0.844168 0.385650 0.963664
O O4 0.000000 0.419686 0.000000
O O5 0.500000 0.763101 0.500000
O O6 0.266580 0.773678 0.579152
O O7 0.591275 0.704782 0.201851
O O8 0.263813 0.912423 0.466982
O O9 0.182425 0.842942 0.370174
O O10 0.914090 0.914767 0.805197
O O11 0.153375 0.000000 0.424997
O O12 0.541416 0.000000 0.144807
O O13 0.574434 0.094678 0.272863
O O14 0.586429 0.151708 0.055089
O O15 0.899938 0.853074 0.013214
O O16 0.000000 0.736551 0.000000
O O17 0.956772 0.744988 0.814443
O O18 0.796745 0.281712 0.798439
O O19 0.808912 0.000000 0.099886
O O20 0.500000 0.754422 0.000000
#
# Coordination Sequence:
#
# PCOD9148007 Si02
#       8
#     4   4   4   4   4   4   4   4
#     4  10  19  37  65  96 123 146 182 227 277 338
#     4  10  20  35  59  85 113 151 180 227 283 338
#     4   9  19  36  54  76 107 142 194 255 301 333
#     4   9  17  32  50  71 101 138 182 242 295 326
#     4  12  21  37  56  79 115 151 191 237 296 343
#     4  11  21  37  55  86 121 150 184 227 287 337
#     4  10  22  35  54  78 106 151 203 245 292 348
#     4  10  20  33  53  81 112 148 191 237 286 336
#
# _framework density 22.581868
#
# number of rings (size 3 to 8) (size 9 to 14) (size 15 to 20)
#    0.000    1.875    5.000    0.375    3.500    4.500 
#    0.000    1.875    0.000    0.750    0.000    0.000 
#    0.000    3.000    0.000    0.000    0.000    0.000 
#
# Total GULP energy -178165.004690 kJ/mol
# GULP energy per Si atom -5567.656397 kJ/mol
# Density = 2.253047 g / cm^3
# Si number density = 22.581868 Si / 1000 Ang^3
#
#
#
# Elastic Constant Matrix: (Units=GPa)
#
#
# Indices 1 2 3 4 5 6 
#
# 1 145.3244 55.1257 25.2741 0.0000 -41.1108 0.0000
# 2 55.1257 118.1769 14.0823 0.0000 -4.6400 0.0000
# 3 25.2741 14.0823 47.1431 0.0000 -19.0002 0.0000
# 4 0.0000 0.0000 0.0000 9.7021 0.0000 -0.6157
# 5 -41.1108 -4.6400 -19.0002 0.0000 48.9170 0.0000
# 6 0.0000 0.0000 0.0000 -0.6157 0.0000 23.2209
#
#
#
# Elastic Compliance Matrix: (Units=1/GPa)
#
#
# Indices 1 2 3 4 5 6 
#
# 1 0.011354 -0.004818 -0.001169 0.000000 0.008631 0.000000
# 2 -0.004818 0.010821 -0.002214 0.000000 -0.003883 0.000000
# 3 -0.001169 -0.002214 0.026106 0.000000 0.008947 0.000000
# 4 0.000000 0.000000 0.000000 0.103244 0.000000 0.002738
# 5 0.008631 -0.003883 0.008947 0.000000 0.030803 0.000000
# 6 0.000000 0.000000 0.000000 0.002738 0.000000 0.043137
#
#
# Mechanical properties :
#
#
# Convention : Reuss Voigt Hill
#
# Bulk Modulus (GPa) = 31.36958 55.51205 43.44081
# Shear Modulus (GPa) = 19.80244 30.77882 25.29063
#
# Velocity S-wave (km/s) = 2.96449 3.69587 3.35020
# Velocity P-wave (km/s) = 5.06352 6.54588 5.85183
#
# Compressibility (1/GPa) = 0.03187802
#
# Stress axis : x y z
#
# Youngs Moduli (GPa) = 88.07798 92.41563 38.30480
#
# Poissons Ratio (x) = 0.44525 0.04479
# Poissons Ratio (y) = 0.42435 0.08481
# Poissons Ratio (z) = 0.10298 0.20463
#
# Static dielectric constant tensor:
#      x y z
#    x 1.921350 0.000000 -0.001490 
#    y 0.000000 1.897310 0.000000 
#    z -0.001490 0.000000 1.943240 
# 
# From -- ./inp_files/51939.got.cif
#   From: 2010.05.17/outbox.cif.g08.bks.cpg/sg10_26_cif.got.tgz:51939.got - 2010.06.03 11:33:40.
