data_PCOD9148743
_publ_section_title
;
Structure prediction by ZEFSAII (Michael W. Deem and Ramdas Pophale) SiO2 
 PCOD9148743
Probable space group: P 2/M
;
_chemical_formula_sum "Si O2"
_cell_formula_units_Z 28
_cell_length_a 29.995711
_cell_length_b 7.739517
_cell_length_c 9.480633
_cell_angle_alpha 90.000000
_cell_angle_beta 38.297186
_cell_angle_gamma 90.000000
_cell_volume 1364.018385
_symmetry_space_group_name_H-M "P 2/M"
_symmetry_group_IT_number 10
_symmetry_cell_setting 'monoclinic'
loop_
_space_group_symop_operation_xyz
x,y,z
-x,y,-z
-x,-y,-z
x,-y,z
loop_
_atom_site_type_symbol
_atom_site_label
_atom_site_fract_x
_atom_site_fract_y
_atom_site_fract_z
Si Si1 0.570132 0.700171 0.252748
Si Si2 0.867929 0.206180 0.670923
Si Si3 0.995784 0.211787 0.848228
Si Si4 0.728594 0.709052 0.836372
Si Si5 0.560031 0.201798 0.957885
Si Si6 0.142780 0.791853 0.983115
Si Si7 0.281539 0.294365 0.460265
O O1 0.500000 0.780100 0.500000
O O2 0.573321 0.500000 0.291444
O O3 0.649919 0.773959 0.081310
O O4 0.560183 0.707133 0.108964
O O5 0.794003 0.237342 0.771919
O O6 0.935241 0.271436 0.412445
O O7 0.878049 0.000000 0.656598
O O8 0.864769 0.274415 0.838358
O O9 0.996112 0.000000 0.848398
O O10 0.922750 0.268485 0.952747
O O11 0.000000 0.267850 0.000000
O O12 0.726170 0.500000 0.841255
O O13 0.738575 0.766247 0.648727
O O14 0.640449 0.218636 0.697287
O O15 0.544715 0.000000 0.022234
O O16 0.500000 0.269513 0.000000
O O17 0.218628 0.747537 0.724520
O O18 0.138139 0.000000 0.999539
O O19 0.290435 0.500000 0.431994
#
# Coordination Sequence:
#
# PCOD9148743 Si02
#       7
#     4   4   4   4   4   4   4
#     4   9  19  36  56  78 106 142 182 220 262 315
#     4  10  20  33  52  79 108 139 174 214 264 317
#     4   9  17  31  53  78 104 139 179 215 257 311
#     4   9  19  35  53  75 103 136 177 221 261 308
#     4  10  21  36  55  81 110 138 174 221 268 314
#     4  10  20  34  53  79 110 138 171 219 266 310
#     4  10  21  37  56  77 103 139 181 218 260 317
#
# _framework density 20.527581999999999
#
# number of rings (size 3 to 8) (size 9 to 14) (size 15 to 20)
#    0.000    2.429    0.000    3.000    0.000    8.857 
#    0.000    3.571    0.000    4.286    0.000    0.000 
#    0.000    0.000    0.000    0.000    0.000    0.000 
#
# Total GULP energy -156317.510686 kJ/mol
# GULP energy per Si atom -5582.768239 kJ/mol
# Density = 2.048086 g / cm^3
# Si number density = 20.527582 Si / 1000 Ang^3
#
#
#
# Elastic Constant Matrix: (Units=GPa)
#
#
# Indices 1 2 3 4 5 6 
#
# 1 147.9149 -6.2643 82.4652 0.0000 -9.8884 0.0000
# 2 -6.2643 31.6801 -4.4682 0.0000 3.7012 0.0000
# 3 82.4652 -4.4682 190.8306 0.0000 -2.8289 0.0000
# 4 0.0000 0.0000 0.0000 3.9086 0.0000 -0.7176
# 5 -9.8884 3.7012 -2.8289 0.0000 25.5192 0.0000
# 6 0.0000 0.0000 0.0000 -0.7176 0.0000 27.9573
#
#
#
# Elastic Compliance Matrix: (Units=1/GPa)
#
#
# Indices 1 2 3 4 5 6 
#
# 1 0.009172 0.000915 -0.003898 0.000000 0.002989 0.000000
# 2 0.000915 0.032290 0.000297 0.000000 -0.004296 0.000000
# 3 -0.003898 0.000297 0.006920 0.000000 -0.000786 0.000000
# 4 0.000000 0.000000 0.000000 0.257058 0.000000 0.006598
# 5 0.002989 -0.004296 -0.000786 0.000000 0.040880 0.000000
# 6 0.000000 0.000000 0.000000 0.006598 0.000000 0.035938
#
#
# Mechanical properties :
#
#
# Convention : Reuss Voigt Hill
#
# Bulk Modulus (GPa) = 23.25028 57.09900 40.17464
# Shear Modulus (GPa) = 12.43877 31.38987 21.91432
#
# Velocity S-wave (km/s) = 2.46428 3.91468 3.27089
# Velocity P-wave (km/s) = 4.40997 6.95048 5.82052
#
# Compressibility (1/GPa) = 0.04301023
#
# Stress axis : x y z
#
# Youngs Moduli (GPa) = 109.02199 30.96913 144.50780
#
# Poissons Ratio (x) = -0.02833 0.56330
# Poissons Ratio (y) = -0.09972 -0.04294
# Poissons Ratio (z) = 0.42497 -0.00920
#
# Static dielectric constant tensor:
#      x y z
#    x 1.701280 0.000000 -0.003590 
#    y 0.000000 1.766780 0.000000 
#    z -0.003590 0.000000 1.721550 
# 
# From -- ./inp_files/36924.got.cif
#   From: 2010.05.17/outbox.cif.g08.bks.cpg/sg10_19_cif.got.tgz:36924.got - 2010.06.03 11:33:40.
