data_PCOD9148574
_publ_section_title
;
Structure prediction by ZEFSAII (Michael W. Deem and Ramdas Pophale) SiO2 
 PCOD9148574
Probable space group: P 2/M
;
_chemical_formula_sum "Si O2"
_cell_formula_units_Z 32
_cell_length_a 9.006924
_cell_length_b 14.867073
_cell_length_c 14.034008
_cell_angle_alpha 90.000000
_cell_angle_beta 59.577313
_cell_angle_gamma 90.000000
_cell_volume 1620.498904
_symmetry_space_group_name_H-M "P 2/M"
_symmetry_group_IT_number 10
_symmetry_cell_setting 'monoclinic'
loop_
_space_group_symop_operation_xyz
x,y,z
-x,y,-z
-x,-y,-z
x,-y,z
loop_
_atom_site_type_symbol
_atom_site_label
_atom_site_fract_x
_atom_site_fract_y
_atom_site_fract_z
Si Si1 0.805086 0.599094 0.839718
Si Si2 0.679305 0.782144 0.834179
Si Si3 0.872843 0.399458 0.131452
Si Si4 0.960826 0.404593 0.401930
Si Si5 0.672588 0.781485 0.165154
Si Si6 0.187287 0.103830 0.720522
Si Si7 0.035157 0.793696 0.600763
Si Si8 0.180227 0.104099 0.051656
O O1 0.742278 0.500000 0.892071
O O2 0.692628 0.687563 0.887919
O O3 0.992273 0.614769 0.826620
O O4 0.856769 0.594627 0.712453
O O5 0.513734 0.782548 0.822113
O O6 0.849594 0.790569 0.713517
O O7 0.691698 0.861206 0.907493
O O8 0.796878 0.500000 0.163966
O O9 0.740719 0.318942 0.161942
O O10 0.000000 0.398855 0.000000
O O11 0.873176 0.500000 0.403039
O O12 0.000000 0.407052 0.500000
O O13 0.882605 0.306078 0.411770
O O14 0.683255 0.835318 0.260740
O O15 0.792576 0.832290 0.048085
O O16 0.147733 0.137773 0.626625
O O17 0.007357 0.112228 0.838574
O O18 0.238277 0.000000 0.704164
O O19 0.000000 0.811367 0.500000
O O20 0.207534 0.000000 0.016358
#
# Coordination Sequence:
#
# PCOD9148574 Si02
#       8
#     4   4   4   4   4   4   4   4
#     4   9  17  32  51  69  97 136 174 207 241 293
#     4  10  21  33  51  81 106 131 171 216 260 309
#     4  10  20  33  50  72 101 141 181 208 239 298
#     4   8  13  23  45  75  96 114 151 201 245 285
#     4  12  21  32  52  78 111 137 162 212 270 309
#     4  10  21  36  55  78 101 132 176 215 252 309
#     4   9  18  36  57  74 100 138 178 215 252 301
#     4  10  21  37  55  74 100 137 177 213 253 306
#
# _framework density 19.747005000000001
#
# number of rings (size 3 to 8) (size 9 to 14) (size 15 to 20)
#    0.000    2.250    0.000    4.875    0.000    3.250 
#    0.000    0.625    0.000    4.500    0.000    0.000 
#    0.000   29.000    0.000    0.000    0.000    0.000 
#
# Total GULP energy -178350.602679 kJ/mol
# GULP energy per Si atom -5573.456334 kJ/mol
# Density = 1.970206 g / cm^3
# Si number density = 19.747005 Si / 1000 Ang^3
#
#
#
# Elastic Constant Matrix: (Units=GPa)
#
#
# Indices 1 2 3 4 5 6 
#
# 1 98.2531 57.4735 3.4471 0.0000 17.3964 0.0000
# 2 57.4735 133.2743 11.3290 0.0000 17.6642 0.0000
# 3 3.4471 11.3290 47.5865 0.0000 22.4380 0.0000
# 4 0.0000 0.0000 0.0000 14.0301 0.0000 15.6287
# 5 17.3964 17.6642 22.4380 0.0000 21.9776 0.0000
# 6 0.0000 0.0000 0.0000 15.6287 0.0000 8.7804
#
#
#
# Elastic Compliance Matrix: (Units=1/GPa)
#
#
# Indices 1 2 3 4 5 6 
#
# 1 0.015922 -0.005378 0.007774 0.000000 -0.016218 0.000000
# 2 -0.005378 0.010345 -0.000308 0.000000 -0.003743 0.000000
# 3 0.007774 -0.000308 0.044947 0.000000 -0.051794 0.000000
# 4 0.000000 0.000000 0.000000 -0.072527 0.000000 0.129094
# 5 -0.016218 -0.003743 -0.051794 0.000000 0.114225 0.000000
# 6 0.000000 0.000000 0.000000 0.129094 0.000000 -0.115890
#
#
# Mechanical properties :
#
#
# Convention : Reuss Voigt Hill
#
# Bulk Modulus (GPa) = 13.26449 47.06815 30.16632
# Shear Modulus (GPa) = 278.14224 22.74857 150.44541
#
# Velocity S-wave (km/s) = 11.88102 3.39780 8.73795
# Velocity P-wave (km/s) = 13.96221 6.26743 10.82183
#
# Compressibility (1/GPa) = 0.07538924
#
# Stress axis : x y z
#
# Youngs Moduli (GPa) = 62.80543 96.66800 22.24864
#
# Poissons Ratio (x) = 0.51985 -0.17296
# Poissons Ratio (y) = 0.33774 0.00686
# Poissons Ratio (z) = -0.48824 0.02981
#
# Static dielectric constant tensor:
#      x y z
#    x 1.803920 0.000000 0.114500 
#    y 0.000000 1.769730 0.000000 
#    z 0.114500 0.000000 1.787980 
# 
# From -- ./inp_files/61825.got.cif
#   From: 2010.05.17/outbox.cif.g08.bks.cpg/sg10_31_cif.got.tgz:61825.got - 2010.06.03 11:33:40.
