data_PCOD9148041
_publ_section_title
;
Structure prediction by ZEFSAII (Michael W. Deem and Ramdas Pophale) SiO2 
 PCOD9148041
Probable space group: P 2/M
;
_chemical_formula_sum "Si O2"
_cell_formula_units_Z 30
_cell_length_a 12.024057
_cell_length_b 15.045958
_cell_length_c 9.199308
_cell_angle_alpha 90.000000
_cell_angle_beta 81.439561
_cell_angle_gamma 90.000000
_cell_volume 1645.737538
_symmetry_space_group_name_H-M "P 2/M"
_symmetry_group_IT_number 10
_symmetry_cell_setting 'monoclinic'
loop_
_space_group_symop_operation_xyz
x,y,z
-x,y,-z
-x,-y,-z
x,-y,z
loop_
_atom_site_type_symbol
_atom_site_label
_atom_site_fract_x
_atom_site_fract_y
_atom_site_fract_z
Si Si1 0.301705 0.098699 0.052206
Si Si2 0.241993 0.224843 0.525915
Si Si3 0.378099 0.401811 0.445951
Si Si4 0.962791 0.102985 0.842221
Si Si5 0.529437 0.600379 0.160811
Si Si6 0.577089 0.103412 0.667867
Si Si7 0.638400 0.217556 0.224365
Si Si8 0.000000 0.824892 0.500000
O O1 0.173093 0.109772 0.127655
O O2 0.384238 0.102960 0.172490
O O3 0.311460 0.000000 0.982756
O O4 0.337232 0.172002 0.931941
O O5 0.300375 0.319947 0.495503
O O6 0.319892 0.150285 0.435219
O O7 0.253150 0.206731 0.695145
O O8 0.118192 0.225194 0.486651
O O9 0.500000 0.393890 0.500000
O O10 0.333196 0.500000 0.489647
O O11 0.412807 0.397068 0.271245
O O12 0.996266 0.131520 0.667255
O O13 0.998443 0.000000 0.840587
O O14 0.000000 0.139350 0.000000
O O15 0.576087 0.500000 0.172329
O O16 0.605236 0.680182 0.205267
O O17 0.500000 0.614414 0.000000
O O18 0.466140 0.164845 0.680562
O O19 0.560430 0.000000 0.629448
#
# Coordination Sequence:
#
# PCOD9148041 Si02
#       8
#     4   4   4   4   4   4   4   2
#     4  10  21  37  55  81 116 155 196 240 300 362
#     4  12  24  39  56  87 116 157 203 245 300 357
#     4  10  19  38  63  86 117 151 187 240 298 358
#     4  10  21  40  62  83 111 160 221 265 300 350
#     4  10  20  33  56  90 121 151 188 233 292 362
#     4  11  22  37  56  83 121 154 189 240 301 367
#     4  12  22  35  58  86 120 154 192 240 303 371
#     4  12  25  40  61  84 122 158 210 262 306 352
#
# _framework density 18.228909000000002
#
# number of rings (size 3 to 8) (size 9 to 14) (size 15 to 20)
#    0.000    1.200    4.000    3.000    0.000    3.200 
#    0.000    0.333    0.000    0.000    0.000    0.000 
#    0.000    6.933    0.000    0.000    0.000    0.000 
#
# Total GULP energy -167125.731034 kJ/mol
# GULP energy per Si atom -5570.857701 kJ/mol
# Density = 1.818742 g / cm^3
# Si number density = 18.228909 Si / 1000 Ang^3
#
#
#
# Elastic Constant Matrix: (Units=GPa)
#
#
# Indices 1 2 3 4 5 6 
#
# 1 71.8166 34.0158 23.5667 0.0000 20.0861 0.0000
# 2 34.0158 117.6876 40.5093 0.0000 4.4813 0.0000
# 3 23.5667 40.5093 111.4172 0.0000 11.8834 0.0000
# 4 0.0000 0.0000 0.0000 30.4152 0.0000 -9.0576
# 5 20.0861 4.4813 11.8834 0.0000 28.0810 0.0000
# 6 0.0000 0.0000 0.0000 -9.0576 0.0000 20.3987
#
#
#
# Elastic Compliance Matrix: (Units=1/GPa)
#
#
# Indices 1 2 3 4 5 6 
#
# 1 0.020376 -0.005015 -0.001065 0.000000 -0.013323 0.000000
# 2 -0.005015 0.010947 -0.003263 0.000000 0.003221 0.000000
# 3 -0.001065 -0.003263 0.010735 0.000000 -0.003260 0.000000
# 4 0.000000 0.000000 0.000000 0.037888 0.000000 0.016824
# 5 -0.013323 0.003221 -0.003260 0.000000 0.046007 0.000000
# 6 0.000000 0.000000 0.000000 0.016824 0.000000 0.056493
#
#
# Mechanical properties :
#
#
# Convention : Reuss Voigt Hill
#
# Bulk Modulus (GPa) = 42.78901 55.23390 49.01145
# Shear Modulus (GPa) = 23.93226 29.30095 26.61661
#
# Velocity S-wave (km/s) = 3.62729 4.01358 3.82531
# Velocity P-wave (km/s) = 6.40836 7.20030 6.81584
#
# Compressibility (1/GPa) = 0.02337049
#
# Stress axis : x y z
#
# Youngs Moduli (GPa) = 49.07787 91.34810 93.15617
#
# Poissons Ratio (x) = 0.45814 0.09924
# Poissons Ratio (y) = 0.24614 0.30396
# Poissons Ratio (z) = 0.05228 0.29806
#
# Static dielectric constant tensor:
#      x y z
#    x 1.602430 0.000000 0.008310 
#    y 0.000000 1.635490 0.000000 
#    z 0.008310 0.000000 1.711390 
# 
# From -- ./inp_files/25003.got.cif
#   From: 2010.05.17/outbox.cif.g08.bks.cpg/sg10_13_cif.got.tgz:25003.got - 2010.06.03 11:33:40.
