data_PCOD9148530
_publ_section_title
;
Structure prediction by ZEFSAII (Michael W. Deem and Ramdas Pophale) SiO2 
 PCOD9148530
Probable space group: P 2/M
;
_chemical_formula_sum "Si O2"
_cell_formula_units_Z 32
_cell_length_a 18.494574
_cell_length_b 14.579571
_cell_length_c 21.715847
_cell_angle_alpha 90.000000
_cell_angle_beta 18.812207
_cell_angle_gamma 90.000000
_cell_volume 1888.215817
_symmetry_space_group_name_H-M "P 2/M"
_symmetry_group_IT_number 10
_symmetry_cell_setting 'monoclinic'
loop_
_space_group_symop_operation_xyz
x,y,z
-x,y,-z
-x,-y,-z
x,-y,z
loop_
_atom_site_type_symbol
_atom_site_label
_atom_site_fract_x
_atom_site_fract_y
_atom_site_fract_z
Si Si1 0.171836 0.292166 0.999316
Si Si2 0.328104 0.606411 0.994558
Si Si3 0.813319 0.106270 0.064902
Si Si4 0.428757 0.390503 0.377312
Si Si5 0.686698 0.611198 0.797223
Si Si6 0.047457 0.606722 0.594771
Si Si7 0.334069 0.892819 0.684828
Si Si8 0.276559 0.607521 0.639721
O O1 0.235869 0.334895 0.013241
O O2 0.921571 0.323322 0.183651
O O3 0.211349 0.183617 0.966313
O O4 0.337509 0.340199 0.817681
O O5 0.349634 0.500000 0.957669
O O6 0.145346 0.607255 0.196862
O O7 0.566710 0.638436 0.830404
O O8 0.676521 0.139234 0.235947
O O9 0.757301 0.000000 0.095890
O O10 0.077470 0.108135 0.869076
O O11 0.455956 0.500000 0.347883
O O12 0.265109 0.355843 0.454296
O O13 0.327062 0.377306 0.526850
O O14 0.702751 0.500000 0.781337
O O15 0.923523 0.645081 0.633758
O O16 0.500000 0.631808 0.000000
O O17 0.097752 0.500000 0.540361
O O18 0.500000 0.850814 0.500000
O O19 0.400079 0.000000 0.637568
O O20 0.500000 0.619348 0.500000
O O21 0.205136 0.500000 0.704301
#
# Coordination Sequence:
#
# PCOD9148530 Si02
#       8
#     4   4   4   4   4   4   4   4
#     4  12  22  32  50  70  94 130 167 199 240 289
#     4   9  15  27  46  69  98 130 161 190 229 284
#     4   9  20  34  48  72  98 118 151 202 251 298
#     4  10  20  33  49  70  96 126 162 202 239 280
#     4   7  11  20  41  69  93 123 156 186 231 287
#     4   8  13  26  46  67  96 127 154 193 241 283
#     4   8  15  33  57  72  86 110 142 193 261 311
#     4  10  22  38  51  66  95 134 172 206 234 270
#
# _framework density 16.947216000000001
#
# number of rings (size 3 to 8) (size 9 to 14) (size 15 to 20)
#    0.000    2.875    1.250    3.375    0.000    4.000 
#    0.000    2.500    0.000    3.000    0.000    0.000 
#    0.000    6.500    0.000    0.000    0.000    0.000 
#
# Total GULP energy -178230.451566 kJ/mol
# GULP energy per Si atom -5569.701611 kJ/mol
# Density = 1.690864 g / cm^3
# Si number density = 16.947216 Si / 1000 Ang^3
#
#
#
# Elastic Constant Matrix: (Units=GPa)
#
#
# Indices 1 2 3 4 5 6 
#
# 1 78.7986 36.9920 15.2383 0.0000 -10.8218 0.0000
# 2 36.9920 57.0676 25.2269 0.0000 0.2737 0.0000
# 3 15.2383 25.2269 75.2439 0.0000 -1.9128 0.0000
# 4 0.0000 0.0000 0.0000 -9.8616 0.0000 -14.5131
# 5 -10.8218 0.2737 -1.9128 0.0000 20.3193 0.0000
# 6 0.0000 0.0000 0.0000 -14.5131 0.0000 -7.4432
#
#
#
# Elastic Compliance Matrix: (Units=1/GPa)
#
#
# Indices 1 2 3 4 5 6 
#
# 1 0.020497 -0.013654 0.000711 0.000000 0.011167 0.000000
# 2 -0.013654 0.029685 -0.007400 0.000000 -0.008368 0.000000
# 3 0.000711 -0.007400 0.015677 0.000000 0.001954 0.000000
# 4 0.000000 0.000000 0.000000 0.054239 0.000000 -0.105759
# 5 0.011167 -0.008368 0.001954 0.000000 0.055458 0.000000
# 6 0.000000 0.000000 0.000000 -0.105759 0.000000 0.071862
#
#
# Mechanical properties :
#
#
# Convention : Reuss Voigt Hill
#
# Bulk Modulus (GPa) = 39.72666 40.66937 40.19802
# Shear Modulus (GPa) = 16.86367 9.51311 13.18839
#
# Velocity S-wave (km/s) = 3.15790 2.37183 2.79266
# Velocity P-wave (km/s) = 6.06537 5.61698 5.84548
#
# Compressibility (1/GPa) = 0.02517201
#
# Stress axis : x y z
#
# Youngs Moduli (GPa) = 48.78873 33.68708 63.78832
#
# Poissons Ratio (x) = 0.45996 -0.04533
# Poissons Ratio (y) = 0.66615 0.47203
# Poissons Ratio (z) = -0.03467 0.24928
#
# Static dielectric constant tensor:
#      x y z
#    x 1.620630 0.000000 0.009270 
#    y 0.000000 1.551310 0.000000 
#    z 0.009270 0.000000 1.646860 
# 
# From -- ./inp_files/85951.got.cif
#   From: 2010.05.17/outbox.cif.g08.bks.cpg/sg10_43_cif.got.tgz:85951.got - 2010.06.03 11:33:40.
