data_PCOD9148816
_publ_section_title
;
Structure prediction by ZEFSAII (Michael W. Deem and Ramdas Pophale) SiO2 
 PCOD9148816
Probable space group: P 2/M
;
_chemical_formula_sum "Si O2"
_cell_formula_units_Z 32
_cell_length_a 14.010484
_cell_length_b 21.954918
_cell_length_c 5.450863
_cell_angle_alpha 90.000000
_cell_angle_beta 107.686918
_cell_angle_gamma 90.000000
_cell_volume 1597.424952
_symmetry_space_group_name_H-M "P 2/M"
_symmetry_group_IT_number 10
_symmetry_cell_setting 'monoclinic'
loop_
_space_group_symop_operation_xyz
x,y,z
-x,y,-z
-x,-y,-z
x,-y,z
loop_
_atom_site_type_symbol
_atom_site_label
_atom_site_fract_x
_atom_site_fract_y
_atom_site_fract_z
Si Si1 0.942863 0.073352 0.204077
Si Si2 0.393701 0.568579 0.556853
Si Si3 0.286870 0.199237 0.520386
Si Si4 0.609882 0.308512 0.155752
Si Si5 0.117037 0.251238 0.136757
Si Si6 0.058252 0.572904 0.788530
Si Si7 0.242132 0.360568 0.104818
Si Si8 0.243117 0.843336 0.982784
O O1 0.831492 0.100037 0.094878
O O2 0.000000 0.092323 0.500000
O O3 0.940414 0.000000 0.202964
O O4 0.000000 0.093611 0.000000
O O5 0.500000 0.568452 0.500000
O O6 0.375737 0.500000 0.636211
O O7 0.399521 0.622373 0.757036
O O8 0.305593 0.591018 0.308266
O O9 0.343616 0.263149 0.606320
O O10 0.167021 0.213159 0.397236
O O11 0.304358 0.162744 0.782017
O O12 0.307260 0.163962 0.282569
O O13 0.500000 0.286204 0.000000
O O14 0.682359 0.316103 0.980147
O O15 0.166961 0.317368 0.196721
O O16 0.168497 0.215089 0.951390
O O17 0.000000 0.253462 0.000000
O O18 0.068639 0.500000 0.785072
O O19 0.000000 0.593602 0.500000
O O20 0.167032 0.603325 0.870389
O O21 0.000000 0.585826 0.000000
#
# Coordination Sequence:
#
# PCOD9148816 Si02
#       8
#     4   4   4   4   4   4   4   4
#     4  10  20  33  53  85 126 176 220 249 286 335
#     4  11  24  41  61  85 110 144 194 245 313 384
#     4  10  22  39  56  89 114 156 201 245 299 353
#     4  12  24  42  63  84 117 148 188 254 320 378
#     4  10  22  35  58  84 115 156 193 241 288 351
#     4  10  24  44  62  82 110 148 188 231 284 344
#     4  12  23  41  60  86 112 148 191 246 300 369
#     4  10  20  36  57  81 124 156 209 242 285 337
#
# _framework density 20.032240999999999
#
# number of rings (size 3 to 8) (size 9 to 14) (size 15 to 20)
#    0.750    0.625    3.750    1.875    3.500    2.250 
#    0.000    0.000    0.000    0.000    0.000    0.000 
#    0.000    3.000    0.000    0.000    0.000    0.000 
#
# Total GULP energy -178416.368796 kJ/mol
# GULP energy per Si atom -5575.511525 kJ/mol
# Density = 1.998665 g / cm^3
# Si number density = 20.032241 Si / 1000 Ang^3
#
#
#
# Elastic Constant Matrix: (Units=GPa)
#
#
# Indices 1 2 3 4 5 6 
#
# 1 47.8516 4.8600 25.1056 0.0000 11.6011 0.0000
# 2 4.8600 36.0317 18.4372 0.0000 -0.6825 0.0000
# 3 25.1056 18.4372 136.9226 0.0000 -0.6345 0.0000
# 4 0.0000 0.0000 0.0000 13.8896 0.0000 -5.7579
# 5 11.6011 -0.6825 -0.6345 0.0000 37.7477 0.0000
# 6 0.0000 0.0000 0.0000 -5.7579 0.0000 3.1856
#
#
#
# Elastic Compliance Matrix: (Units=1/GPa)
#
#
# Indices 1 2 3 4 5 6 
#
# 1 0.025298 -0.001256 -0.004506 0.000000 -0.007873 0.000000
# 2 -0.001256 0.029878 -0.003789 0.000000 0.000862 0.000000
# 3 -0.004506 -0.003789 0.008647 0.000000 0.001462 0.000000
# 4 0.000000 0.000000 0.000000 0.287151 0.000000 0.519015
# 5 -0.007873 0.000862 0.001462 0.000000 0.028952 0.000000
# 6 0.000000 0.000000 0.000000 0.519015 0.000000 1.252011
#
#
# Mechanical properties :
#
#
# Convention : Reuss Voigt Hill
#
# Bulk Modulus (GPa) = 22.36059 35.29017 28.82538
# Shear Modulus (GPa) = 3.00130 22.45813 12.72971
#
# Velocity S-wave (km/s) = 1.22535 3.35191 2.52357
# Velocity P-wave (km/s) = 3.63160 5.71274 4.78664
#
# Compressibility (1/GPa) = 0.04472154
#
# Stress axis : x y z
#
# Youngs Moduli (GPa) = 39.52811 33.46963 115.65265
#
# Poissons Ratio (x) = 0.04203 0.52113
# Poissons Ratio (y) = 0.04963 0.43820
# Poissons Ratio (z) = 0.17812 0.12681
#
# Static dielectric constant tensor:
#      x y z
#    x 1.732920 0.000000 -0.036910 
#    y 0.000000 1.720030 0.000000 
#    z -0.036910 0.000000 1.759620 
# 
# From -- ./inp_files/8105.got.cif
#   From: 2010.05.17/outbox.cif.g08.bks.cpg/sg10_5_cif.got.tgz:8105.got - 2010.06.03 11:33:40.
