data_PCOD9148042
_publ_section_title
;
Structure prediction by ZEFSAII (Michael W. Deem and Ramdas Pophale) SiO2 
 PCOD9148042
Probable space group: P 2/M
;
_chemical_formula_sum "Si O2"
_cell_formula_units_Z 24
_cell_length_a 21.228161
_cell_length_b 8.058924
_cell_length_c 9.690113
_cell_angle_alpha 90.000000
_cell_angle_beta 36.583287
_cell_angle_gamma 90.000000
_cell_volume 988.001800
_symmetry_space_group_name_H-M "P 2/M"
_symmetry_group_IT_number 10
_symmetry_cell_setting 'monoclinic'
loop_
_space_group_symop_operation_xyz
x,y,z
-x,y,-z
-x,-y,-z
x,-y,z
loop_
_atom_site_type_symbol
_atom_site_label
_atom_site_fract_x
_atom_site_fract_y
_atom_site_fract_z
Si Si1 0.497194 0.801438 0.846908
Si Si2 0.965891 0.308902 0.850516
Si Si3 0.270079 0.305077 0.247334
Si Si4 0.821119 0.296630 0.870486
Si Si5 0.157200 0.185848 0.694917
Si Si6 0.394958 0.699522 0.604726
O O1 0.589546 0.746934 0.582131
O O2 0.491495 0.000000 0.856952
O O3 0.500000 0.741994 0.000000
O O4 0.387000 0.727516 0.985334
O O5 0.000687 0.500000 0.774856
O O6 0.921436 0.245170 0.784163
O O7 0.868269 0.302829 0.131503
O O8 0.058084 0.210357 0.764569
O O9 0.254964 0.500000 0.294975
O O10 0.254010 0.219551 0.422767
O O11 0.189884 0.246389 0.269168
O O12 0.822541 0.500000 0.869001
O O13 0.714222 0.241059 0.136485
O O14 0.161286 0.000000 0.741360
O O15 0.500000 0.761954 0.500000
O O16 0.394550 0.500000 0.616003
#
# Coordination Sequence:
#
# PCOD9148042 Si02
#       6
#     4   4   4   4   4   4
#     4  11  25  41  56  86 125 158 194 240 292 347
#     4  10  20  39  64  90 115 153 201 241 289 352
#     4  11  22  41  64  87 115 154 198 244 292 346
#     4   9  20  37  61  91 117 146 197 252 290 335
#     4  11  23  40  59  87 124 156 190 242 296 348
#     4  10  19  38  63  87 116 154 198 242 285 342
#
# _framework density 24.291450999999999
#
# number of rings (size 3 to 8) (size 9 to 14) (size 15 to 20)
#    0.000    1.667    1.667    4.000    2.333    2.333 
#    0.000    7.500    0.000    0.000    0.000    0.000 
#    0.000    0.000    0.000    0.000    0.000    0.000 
#
# Total GULP energy -134272.876948 kJ/mol
# GULP energy per Si atom -5594.703206 kJ/mol
# Density = 2.423616 g / cm^3
# Si number density = 24.291451 Si / 1000 Ang^3
#
#
#
# Elastic Constant Matrix: (Units=GPa)
#
#
# Indices 1 2 3 4 5 6 
#
# 1 76.4059 -13.9137 -9.8882 0.0000 14.1056 0.0000
# 2 -13.9137 32.6376 -10.4144 0.0000 -6.7789 0.0000
# 3 -9.8882 -10.4144 90.1845 0.0000 7.5755 0.0000
# 4 0.0000 0.0000 0.0000 -457.0647 0.0000 -155.9137
# 5 14.1056 -6.7789 7.5755 0.0000 32.9674 0.0000
# 6 0.0000 0.0000 0.0000 -155.9137 0.0000 -25.9920
#
#
#
# Elastic Compliance Matrix: (Units=1/GPa)
#
#
# Indices 1 2 3 4 5 6 
#
# 1 0.015769 0.006404 0.002982 0.000000 -0.006116 0.000000
# 2 0.006404 0.035542 0.004510 0.000000 0.003532 0.000000
# 3 0.002982 0.004510 0.012201 0.000000 -0.003152 0.000000
# 4 0.000000 0.000000 0.000000 0.002091 0.000000 -0.012544
# 5 -0.006116 0.003532 -0.003152 0.000000 0.034400 0.000000
# 6 0.000000 0.000000 0.000000 -0.012544 0.000000 0.036774
#
#
# Mechanical properties :
#
#
# Convention : Reuss Voigt Hill
#
# Bulk Modulus (GPa) = 10.95240 14.53283 12.74261
# Shear Modulus (GPa) = 35.86271 -74.45491 -19.29610
#
# Velocity S-wave (km/s) = 3.84650 -5.54231 -2.82149
# Velocity P-wave (km/s) = 4.92402 5.91275 2.31459
#
# Compressibility (1/GPa) = 0.09130417
#
# Stress axis : x y z
#
# Youngs Moduli (GPa) = 63.41507 28.13554 81.96094
#
# Poissons Ratio (x) = -0.18018 -0.24442
# Poissons Ratio (y) = -0.40610 -0.36963
# Poissons Ratio (z) = -0.18912 -0.12689
#
# Static dielectric constant tensor:
#      x y z
#    x 1.977800 0.000000 -0.038240 
#    y 0.000000 1.846210 0.000000 
#    z -0.038240 0.000000 1.949860 
# 
# From -- ./inp_files/33727.got.cif
#   From: 2010.05.17/outbox.cif.g08.bks.cpg/sg10_17_cif.got.tgz:33727.got - 2010.06.03 11:33:40.
