data_PCOD9148049
_publ_section_title
;
Structure prediction by ZEFSAII (Michael W. Deem and Ramdas Pophale) SiO2 
 PCOD9148049
Probable space group: P 2/M
;
_chemical_formula_sum "Si O2"
_cell_formula_units_Z 32
_cell_length_a 20.956797
_cell_length_b 8.495068
_cell_length_c 26.039124
_cell_angle_alpha 90.000000
_cell_angle_beta 22.778552
_cell_angle_gamma 90.000000
_cell_volume 1794.817777
_symmetry_space_group_name_H-M "P 2/M"
_symmetry_group_IT_number 10
_symmetry_cell_setting 'monoclinic'
loop_
_space_group_symop_operation_xyz
x,y,z
-x,y,-z
-x,-y,-z
x,-y,z
loop_
_atom_site_type_symbol
_atom_site_label
_atom_site_fract_x
_atom_site_fract_y
_atom_site_fract_z
Si Si1 0.335257 0.316851 0.157800
Si Si2 0.353688 0.811543 0.875000
Si Si3 0.149544 0.190164 0.850400
Si Si4 0.019055 0.313291 0.840770
Si Si5 0.832151 0.811251 0.375413
Si Si6 0.546235 0.690528 0.091876
Si Si7 0.863470 0.691018 0.788296
Si Si8 0.468703 0.192042 0.677406
O O1 0.292622 0.500000 0.198573
O O2 0.397224 0.249933 0.166033
O O3 0.194149 0.250607 0.225314
O O4 0.500000 0.316442 0.000000
O O5 0.450390 0.749670 0.852831
O O6 0.427364 0.756408 0.765999
O O7 0.356082 0.000000 0.873651
O O8 0.164705 0.756826 0.019467
O O9 0.320784 0.240054 0.749396
O O10 0.115316 0.264131 0.820653
O O11 0.149719 0.000000 0.844814
O O12 0.000000 0.230317 0.000000
O O13 0.004974 0.500000 0.847554
O O14 0.108724 0.250277 0.723566
O O15 0.648147 0.756307 0.525724
O O16 0.964641 0.753961 0.318886
O O17 0.832705 0.000000 0.373931
O O18 0.541559 0.500000 0.094935
O O19 0.718475 0.736030 0.936157
O O20 0.866589 0.500000 0.784958
O O21 0.467783 0.000000 0.678396
#
# Coordination Sequence:
#
# PCOD9148049 Si02
#       8
#     4   4   4   4   4   4   4   4
#     4   7  12  24  44  71 105 143 174 209 264 318
#     4  11  20  35  57  81 107 141 183 224 267 316
#     4  10  19  38  64  83 104 138 180 223 267 317
#     4  12  24  37  55  83 113 141 176 220 269 319
#     4  11  22  37  56  79 109 145 182 219 264 318
#     4   9  16  28  49  79 110 138 175 222 268 314
#     4   9  16  29  50  76 108 143 178 217 264 316
#     4   9  21  39  58  80 106 140 180 220 267 324
#
# _framework density 17.829108000000002
#
# number of rings (size 3 to 8) (size 9 to 14) (size 15 to 20)
#    0.000    2.250    2.500    3.375    0.000    0.750 
#    0.000    6.875    0.000    3.000    0.000    5.250 
#    0.000    0.000    0.000    0.000    0.000    0.000 
#
# Total GULP energy -178471.146040 kJ/mol
# GULP energy per Si atom -5577.223314 kJ/mol
# Density = 1.778853 g / cm^3
# Si number density = 17.829108 Si / 1000 Ang^3
#
#
#
# Elastic Constant Matrix: (Units=GPa)
#
#
# Indices 1 2 3 4 5 6 
#
# 1 169.2331 16.0932 62.9116 0.0000 -13.3349 0.0000
# 2 16.0932 19.4761 10.2998 0.0000 -1.1679 0.0000
# 3 62.9116 10.2998 99.8902 0.0000 -2.5674 0.0000
# 4 0.0000 0.0000 0.0000 -8.0552 0.0000 -9.1333
# 5 -13.3349 -1.1679 -2.5674 0.0000 24.3270 0.0000
# 6 0.0000 0.0000 0.0000 -9.1333 0.0000 32.1905
#
#
#
# Elastic Compliance Matrix: (Units=1/GPa)
#
#
# Indices 1 2 3 4 5 6 
#
# 1 0.008377 -0.004179 -0.004745 0.000000 0.003890 0.000000
# 2 -0.004179 0.056491 -0.003191 0.000000 0.000085 0.000000
# 3 -0.004745 -0.003191 0.013294 0.000000 -0.001351 0.000000
# 4 0.000000 0.000000 0.000000 -0.093927 0.000000 -0.026650
# 5 0.003890 0.000085 -0.001351 0.000000 0.043101 0.000000
# 6 0.000000 0.000000 0.000000 -0.026650 0.000000 0.023504
#
#
# Mechanical properties :
#
#
# Convention : Reuss Voigt Hill
#
# Bulk Modulus (GPa) = 18.54193 51.91206 35.22700
# Shear Modulus (GPa) = 53.73724 22.97879 38.35801
#
# Velocity S-wave (km/s) = 5.49596 3.59393 4.64338
# Velocity P-wave (km/s) = 7.12015 6.81186 6.96771
#
# Compressibility (1/GPa) = 0.05393182
#
# Stress axis : x y z
#
# Youngs Moduli (GPa) = 119.37619 17.70204 75.22408
#
# Poissons Ratio (x) = 0.07398 0.35693
# Poissons Ratio (y) = 0.49890 0.24000
# Poissons Ratio (z) = 0.56643 0.05648
#
# Static dielectric constant tensor:
#      x y z
#    x 1.627460 0.000000 -0.013350 
#    y 0.000000 1.614890 0.000000 
#    z -0.013350 0.000000 1.586090 
# 
# From -- ./inp_files/93589.got.cif
#   From: 2010.05.17/outbox.cif.g08.bks.cpg/sg10_47_cif.got.tgz:93589.got - 2010.06.03 11:33:40.
