data_PCOD9148943
_publ_section_title
;
Structure prediction by ZEFSAII (Michael W. Deem and Ramdas Pophale) SiO2 
 PCOD9148943
Probable space group: P 2/M
;
_chemical_formula_sum "Si O2"
_cell_formula_units_Z 28
_cell_length_a 24.171602
_cell_length_b 9.344559
_cell_length_c 9.757299
_cell_angle_alpha 90.000000
_cell_angle_beta 45.398184
_cell_angle_gamma 90.000000
_cell_volume 1569.192286
_symmetry_space_group_name_H-M "P 2/M"
_symmetry_group_IT_number 10
_symmetry_cell_setting 'monoclinic'
loop_
_space_group_symop_operation_xyz
x,y,z
-x,y,-z
-x,-y,-z
x,-y,z
loop_
_atom_site_type_symbol
_atom_site_label
_atom_site_fract_x
_atom_site_fract_y
_atom_site_fract_z
Si Si1 0.178862 0.831112 0.665979
Si Si2 0.094143 0.840715 0.322326
Si Si3 0.048896 0.831590 0.108370
Si Si4 0.422520 0.335300 0.039676
Si Si5 0.349286 0.830558 0.411477
Si Si6 0.889574 0.668681 0.449812
Si Si7 0.504331 0.172553 0.654859
O O1 0.259378 0.805830 0.604983
O O2 0.173421 0.736819 0.540518
O O3 0.175716 0.000000 0.637697
O O4 0.102172 0.797764 0.887080
O O5 0.104289 0.815556 0.144511
O O6 0.124995 0.723039 0.371021
O O7 0.000000 0.842037 0.500000
O O8 0.121513 0.000000 0.313235
O O9 0.972841 0.736695 0.260987
O O10 0.025509 0.000000 0.143367
O O11 0.399480 0.500000 0.054084
O O12 0.365185 0.251418 0.241402
O O13 0.500000 0.337738 0.000000
O O14 0.443939 0.253483 0.861245
O O15 0.411570 0.793305 0.421574
O O16 0.359825 0.000000 0.367267
O O17 0.892634 0.500000 0.435405
O O18 0.500000 0.210157 0.500000
O O19 0.492786 0.000000 0.684576
#
# Coordination Sequence:
#
# PCOD9148943 Si02
#       7
#     4   4   4   4   4   4   4
#     4  10  20  34  51  70  95 129 167 207 249 293
#     4   8  15  30  50  69  90 119 158 203 247 291
#     4   9  18  33  52  71  93 126 169 212 251 293
#     4   9  17  30  50  74 100 131 163 193 231 285
#     4   9  18  33  52  73  98 130 166 202 244 292
#     4  11  21  31  47  72  99 128 165 207 251 300
#     4   9  17  31  53  80 106 129 160 204 246 286
#
# _framework density 17.843575000000001
#
# number of rings (size 3 to 8) (size 9 to 14) (size 15 to 20)
#    0.000    2.714    0.000    3.000    0.000    7.429 
#    0.000    1.429    0.000    5.143    0.000    0.000 
#    0.000    0.000    0.000    0.000    0.000    0.000 
#
# Total GULP energy -155938.561570 kJ/mol
# GULP energy per Si atom -5569.234342 kJ/mol
# Density = 1.780296 g / cm^3
# Si number density = 17.843575 Si / 1000 Ang^3
#
#
#
# Elastic Constant Matrix: (Units=GPa)
#
#
# Indices 1 2 3 4 5 6 
#
# 1 74.8759 34.2267 29.2863 0.0000 15.3102 0.0000
# 2 34.2267 42.7463 21.9249 0.0000 8.1807 0.0000
# 3 29.2863 21.9249 43.3511 0.0000 20.5027 0.0000
# 4 0.0000 0.0000 0.0000 5.6470 0.0000 2.2469
# 5 15.3102 8.1807 20.5027 0.0000 29.7273 0.0000
# 6 0.0000 0.0000 0.0000 2.2469 0.0000 -1.8663
#
#
#
# Elastic Compliance Matrix: (Units=1/GPa)
#
#
# Indices 1 2 3 4 5 6 
#
# 1 0.023370 -0.014560 -0.006867 0.000000 -0.003294 0.000000
# 2 -0.014560 0.040900 -0.013464 0.000000 0.005529 0.000000
# 3 -0.006867 -0.013464 0.046141 0.000000 -0.024582 0.000000
# 4 0.000000 0.000000 0.000000 0.119732 0.000000 0.144148
# 5 -0.003294 0.005529 -0.024582 0.000000 0.050768 0.000000
# 6 0.000000 0.000000 0.000000 0.144148 0.000000 -0.362282
#
#
# Mechanical properties :
#
#
# Convention : Reuss Voigt Hill
#
# Bulk Modulus (GPa) = 24.61228 36.87212 30.74220
# Shear Modulus (GPa) = 2559.71286 11.73727 1285.72507
#
# Velocity S-wave (km/s) = 37.91627 2.56752 26.87225
# Velocity P-wave (km/s) = 43.93952 5.43125 31.30639
#
# Compressibility (1/GPa) = 0.04063012
#
# Stress axis : x y z
#
# Youngs Moduli (GPa) = 42.78937 24.45013 21.67250
#
# Poissons Ratio (x) = 0.35600 0.14882
# Poissons Ratio (y) = 0.62302 0.29179
# Poissons Ratio (z) = 0.29382 0.32919
#
# Static dielectric constant tensor:
#      x y z
#    x 1.647250 0.000000 0.006360 
#    y 0.000000 1.597890 0.000000 
#    z 0.006360 0.000000 1.626490 
# 
# From -- ./inp_files/36680.got.cif
#   From: 2010.05.17/outbox.cif.g08.bks.cpg/sg10_19_cif.got.tgz:36680.got - 2010.06.03 11:33:40.
