data_PCOD9148859
_publ_section_title
;
Structure prediction by ZEFSAII (Michael W. Deem and Ramdas Pophale) SiO2 
 PCOD9148859
Probable space group: P 2/M
;
_chemical_formula_sum "Si O2"
_cell_formula_units_Z 24
_cell_length_a 15.076480
_cell_length_b 7.422806
_cell_length_c 9.897472
_cell_angle_alpha 90.000000
_cell_angle_beta 98.221357
_cell_angle_gamma 90.000000
_cell_volume 1096.240921
_symmetry_space_group_name_H-M "P 2/M"
_symmetry_group_IT_number 10
_symmetry_cell_setting 'monoclinic'
loop_
_space_group_symop_operation_xyz
x,y,z
-x,y,-z
-x,-y,-z
x,-y,z
loop_
_atom_site_type_symbol
_atom_site_label
_atom_site_fract_x
_atom_site_fract_y
_atom_site_fract_z
Si Si1 0.928139 0.291047 0.880896
Si Si2 0.545293 0.779617 0.371528
Si Si3 0.234235 0.218727 0.960249
Si Si4 0.915231 0.716266 0.569991
Si Si5 0.253442 0.785178 0.658179
Si Si6 0.570611 0.780893 0.903925
O O1 0.955049 0.500000 0.867306
O O2 0.918680 0.216723 0.726407
O O3 0.837651 0.283752 0.947364
O O4 0.000000 0.207073 0.000000
O O5 0.500000 0.722389 0.500000
O O6 0.647106 0.718801 0.362318
O O7 0.473847 0.723304 0.243976
O O8 0.549058 0.000000 0.372089
O O9 0.223924 0.279416 0.801684
O O10 0.230056 0.000000 0.959672
O O11 0.331119 0.277971 0.034338
O O12 0.921833 0.500000 0.576817
O O13 0.822839 0.753753 0.470367
O O14 0.000000 0.782465 0.500000
O O15 0.262744 0.000000 0.674038
O O16 0.573827 0.000000 0.903954
O O17 0.500000 0.725057 0.000000
#
# Coordination Sequence:
#
# PCOD9148859 Si02
#       6
#     4   4   4   4   4   4
#     4  10  22  40  60  80 103 137 181 224 268 324
#     4   9  17  28  46  75 110 145 179 214 257 312
#     4  10  20  33  55  85 113 142 178 222 268 312
#     4  10  22  40  60  79 103 140 181 219 269 329
#     4  10  20  34  54  84 115 142 177 221 268 315
#     4   9  15  28  48  73 108 145 178 213 255 308
#
# _framework density 21.892997000000001
#
# number of rings (size 3 to 8) (size 9 to 14) (size 15 to 20)
#    0.000    2.333    1.667    1.000    2.333    3.333 
#    0.000    0.000    0.000    2.000    0.000    0.000 
#    0.000    0.000    0.000    0.000    0.000    0.000 
#
# Total GULP energy -133969.660850 kJ/mol
# GULP energy per Si atom -5582.069202 kJ/mol
# Density = 2.184317 g / cm^3
# Si number density = 21.892997 Si / 1000 Ang^3
#
#
#
# Elastic Constant Matrix: (Units=GPa)
#
#
# Indices 1 2 3 4 5 6 
#
# 1 138.6190 -10.6571 94.3396 0.0000 9.5472 0.0000
# 2 -10.6571 70.0440 1.1181 0.0000 -0.3966 0.0000
# 3 94.3396 1.1181 249.6394 0.0000 6.0995 0.0000
# 4 0.0000 0.0000 0.0000 13.7952 0.0000 -1.6332
# 5 9.5472 -0.3966 6.0995 0.0000 40.7170 0.0000
# 6 0.0000 0.0000 0.0000 -1.6332 0.0000 20.7313
#
#
#
# Elastic Compliance Matrix: (Units=1/GPa)
#
#
# Indices 1 2 3 4 5 6 
#
# 1 0.010005 0.001572 -0.003745 0.000000 -0.001770 0.000000
# 2 0.001572 0.014526 -0.000656 0.000000 -0.000129 0.000000
# 3 -0.003745 -0.000656 0.005422 0.000000 0.000059 0.000000
# 4 0.000000 0.000000 0.000000 0.073171 0.000000 0.005764
# 5 -0.001770 -0.000129 0.000059 0.000000 0.024965 0.000000
# 6 0.000000 0.000000 0.000000 0.005764 0.000000 0.048690
#
#
# Mechanical properties :
#
#
# Convention : Reuss Voigt Hill
#
# Bulk Modulus (GPa) = 41.15918 69.76707 55.46313
# Shear Modulus (GPa) = 26.24174 39.94883 33.09529
#
# Velocity S-wave (km/s) = 3.46589 4.27632 3.89226
# Velocity P-wave (km/s) = 5.90402 7.50460 6.75191
#
# Compressibility (1/GPa) = 0.02429591
#
# Stress axis : x y z
#
# Youngs Moduli (GPa) = 99.94593 68.84368 184.41794
#
# Poissons Ratio (x) = -0.10823 0.69062
# Poissons Ratio (y) = -0.15712 0.12098
# Poissons Ratio (z) = 0.37429 0.04516
#
# Static dielectric constant tensor:
#      x y z
#    x 1.812030 0.000000 -0.115700 
#    y 0.000000 1.866250 0.000000 
#    z -0.115700 0.000000 1.955050 
# 
# From -- ./inp_files/27236.got.cif
#   From: 2010.05.17/outbox.cif.g08.bks.cpg/sg10_14_cif.got.tgz:27236.got - 2010.06.03 11:33:40.
