data_PCOD9148344
_publ_section_title
;
Structure prediction by ZEFSAII (Michael W. Deem and Ramdas Pophale) SiO2 
 PCOD9148344
Probable space group: P 2/M
;
_chemical_formula_sum "Si O2"
_cell_formula_units_Z 20
_cell_length_a 8.019168
_cell_length_b 8.450371
_cell_length_c 16.445072
_cell_angle_alpha 90.000000
_cell_angle_beta 132.919472
_cell_angle_gamma 90.000000
_cell_volume 816.087507
_symmetry_space_group_name_H-M "P 2/M"
_symmetry_group_IT_number 10
_symmetry_cell_setting 'monoclinic'
loop_
_space_group_symop_operation_xyz
x,y,z
-x,y,-z
-x,-y,-z
x,-y,z
loop_
_atom_site_type_symbol
_atom_site_label
_atom_site_fract_x
_atom_site_fract_y
_atom_site_fract_z
Si Si1 0.750778 0.189281 0.567188
Si Si2 0.343644 0.189369 0.641807
Si Si3 0.301252 0.310400 0.033939
Si Si4 0.790568 0.684633 0.228144
Si Si5 0.151652 0.185658 0.161499
O O1 0.500000 0.256826 0.500000
O O2 0.791427 0.225081 0.485313
O O3 0.960749 0.239333 0.692483
O O4 0.737126 0.000000 0.569353
O O5 0.277608 0.286175 0.699428
O O6 0.613131 0.217270 0.713219
O O7 0.319360 0.000000 0.651718
O O8 0.309286 0.500000 0.046609
O O9 0.561920 0.256993 0.106142
O O10 0.228994 0.230295 0.095120
O O11 0.088029 0.273439 0.904685
O O12 0.813764 0.500000 0.218960
O O13 0.104114 0.000000 0.151511
#
# Coordination Sequence:
#
# PCOD9148344 Si02
#       5
#     4   4   4   4   4
#     4  10  21  36  52  69  93 127 163 199 241 285
#     4   9  18  32  50  73  99 125 157 198 238 279
#     4   9  16  26  41  65  97 125 150 185 230 277
#     4  10  20  32  49  74 100 126 158 196 236 281
#     4   9  15  24  42  68  95 121 151 188 231 276
#
# _framework density 24.507176000000001
#
# number of rings (size 3 to 8) (size 9 to 14) (size 15 to 20)
#    0.000    2.600    0.000    3.600    0.000    6.800 
#    0.000    0.000    0.000    1.200    0.000    8.400 
#    0.000    0.000    0.000    0.000    0.000    0.000 
#
# Total GULP energy -111735.084840 kJ/mol
# GULP energy per Si atom -5586.754242 kJ/mol
# Density = 2.445140 g / cm^3
# Si number density = 24.507176 Si / 1000 Ang^3
#
#
#
# Elastic Constant Matrix: (Units=GPa)
#
#
# Indices 1 2 3 4 5 6 
#
# 1 91.3900 6.3478 31.4662 0.0000 30.7190 0.0000
# 2 6.3478 12.1677 16.8077 0.0000 1.6918 0.0000
# 3 31.4662 16.8077 192.7686 0.0000 14.1456 0.0000
# 4 0.0000 0.0000 0.0000 39.1409 0.0000 12.6480
# 5 30.7190 1.6918 14.1456 0.0000 51.1398 0.0000
# 6 0.0000 0.0000 0.0000 12.6480 0.0000 11.7229
#
#
#
# Elastic Compliance Matrix: (Units=1/GPa)
#
#
# Indices 1 2 3 4 5 6 
#
# 1 0.014472 -0.004524 -0.001369 0.000000 -0.008165 0.000000
# 2 -0.004524 0.094889 -0.007660 0.000000 0.001697 0.000000
# 3 -0.001369 -0.007660 0.006124 0.000000 -0.000618 0.000000
# 4 0.000000 0.000000 0.000000 0.039224 0.000000 -0.042319
# 5 -0.008165 0.001697 -0.000618 0.000000 0.024574 0.000000
# 6 0.000000 0.000000 0.000000 -0.042319 0.000000 0.130962
#
#
# Mechanical properties :
#
#
# Convention : Reuss Voigt Hill
#
# Bulk Modulus (GPa) = 11.31467 45.06331 28.18899
# Shear Modulus (GPa) = 13.63104 36.51437 25.07271
#
# Velocity S-wave (km/s) = 2.36096 3.86417 3.20203
# Velocity P-wave (km/s) = 3.47262 6.19167 5.01975
#
# Compressibility (1/GPa) = 0.08838086
#
# Stress axis : x y z
#
# Youngs Moduli (GPa) = 69.09852 10.53860 163.28635
#
# Poissons Ratio (x) = 0.04768 0.22349
# Poissons Ratio (y) = 0.31261 1.25070
# Poissons Ratio (z) = 0.09458 0.08072
#
# Static dielectric constant tensor:
#      x y z
#    x 2.038380 0.000000 0.012520 
#    y 0.000000 1.818080 0.000000 
#    z 0.012520 0.000000 1.991130 
# 
# From -- ./inp_files/26767.got.cif
#   From: 2010.05.17/outbox.cif.g08.bks.cpg/sg10_14_cif.got.tgz:26767.got - 2010.06.03 11:33:40.
