data_PCOD9148904
_publ_section_title
;
Structure prediction by ZEFSAII (Michael W. Deem and Ramdas Pophale) SiO2 
 PCOD9148904
Probable space group: P 2/M
;
_chemical_formula_sum "Si O2"
_cell_formula_units_Z 32
_cell_length_a 32.350527
_cell_length_b 7.723861
_cell_length_c 15.756499
_cell_angle_alpha 90.000000
_cell_angle_beta 152.252266
_cell_angle_gamma 90.000000
_cell_volume 1833.029285
_symmetry_space_group_name_H-M "P 2/M"
_symmetry_group_IT_number 10
_symmetry_cell_setting 'monoclinic'
loop_
_space_group_symop_operation_xyz
x,y,z
-x,y,-z
-x,-y,-z
x,-y,z
loop_
_atom_site_type_symbol
_atom_site_label
_atom_site_fract_x
_atom_site_fract_y
_atom_site_fract_z
Si Si1 0.194578 0.296958 0.323445
Si Si2 0.100262 0.700535 0.318613
Si Si3 0.125631 0.210576 0.664858
Si Si4 0.236271 0.203587 0.708861
Si Si5 0.091214 0.800238 0.970177
Si Si6 0.611574 0.711060 0.286765
Si Si7 0.582104 0.291177 0.036838
Si Si8 0.073560 0.788384 0.751355
O O1 0.203388 0.500000 0.360978
O O2 0.135092 0.224542 0.292517
O O3 0.294965 0.226694 0.506415
O O4 0.146008 0.282177 0.145948
O O5 0.074056 0.500000 0.258625
O O6 0.180566 0.710107 0.531674
O O7 0.013234 0.790547 0.197442
O O8 0.199947 0.267928 0.733448
O O9 0.127951 0.268185 0.767007
O O10 0.029099 0.260009 0.452269
O O11 0.127369 0.000000 0.670675
O O12 0.340435 0.227777 0.883393
O O13 0.215318 0.000000 0.665065
O O14 0.103261 0.725597 0.897544
O O15 0.118412 0.000000 0.017510
O O16 0.609589 0.500000 0.286724
O O17 0.606941 0.758491 0.178795
O O18 0.519139 0.768882 0.161227
O O19 0.583095 0.500000 0.035728
O O20 0.074810 0.000000 0.756132
#
# Coordination Sequence:
#
# PCOD9148904 Si02
#       8
#     4   4   4   4   4   4   4   4
#     4  10  20  34  48  64  88 126 164 187 215 265
#     4  11  21  33  47  63  91 130 164 186 212 266
#     4   8  14  26  45  65  88 119 150 181 222 278
#     4  11  19  28  46  73  98 119 147 189 235 272
#     4  11  21  32  47  69  93 119 154 197 232 261
#     4   8  15  30  50  66  85 120 162 188 212 268
#     4   9  16  30  50  68  88 119 155 188 223 272
#     4   8  14  27  45  64  87 118 153 183 221 273
#
# _framework density 17.457442
#
# number of rings (size 3 to 8) (size 9 to 14) (size 15 to 20)
#    0.000    2.500    2.500    3.000    0.000    2.500 
#    0.000    1.875    0.000    3.750    0.000    0.875 
#    0.000    7.000    0.000    0.000    0.000    0.000 
#
# Total GULP energy -178413.164689 kJ/mol
# GULP energy per Si atom -5575.411397 kJ/mol
# Density = 1.741771 g / cm^3
# Si number density = 17.457442 Si / 1000 Ang^3
#
#
#
# Elastic Constant Matrix: (Units=GPa)
#
#
# Indices 1 2 3 4 5 6 
#
# 1 154.5732 -2.5860 58.3744 0.0000 -2.5018 0.0000
# 2 -2.5860 25.5244 -3.5384 0.0000 -0.5189 0.0000
# 3 58.3744 -3.5384 62.5147 0.0000 -2.9648 0.0000
# 4 0.0000 0.0000 0.0000 1.1590 0.0000 5.7142
# 5 -2.5018 -0.5189 -2.9648 0.0000 24.4427 0.0000
# 6 0.0000 0.0000 0.0000 5.7142 0.0000 12.1514
#
#
#
# Elastic Compliance Matrix: (Units=1/GPa)
#
#
# Indices 1 2 3 4 5 6 
#
# 1 0.009996 -0.000287 -0.009356 0.000000 -0.000118 0.000000
# 2 -0.000287 0.039527 0.002558 0.000000 0.001120 0.000000
# 3 -0.009356 0.002558 0.024978 0.000000 0.002126 0.000000
# 4 0.000000 0.000000 0.000000 -0.654430 0.000000 0.307746
# 5 -0.000118 0.001120 0.002126 0.000000 0.041182 0.000000
# 6 0.000000 0.000000 0.000000 0.307746 0.000000 -0.062422
#
#
# Mechanical properties :
#
#
# Convention : Reuss Voigt Hill
#
# Bulk Modulus (GPa) = 16.57502 38.56805 27.57154
# Shear Modulus (GPa) = -8.82004 20.24143 5.71070
#
# Velocity S-wave (km/s) = -2.25017 3.40880 1.81061
# Velocity P-wave (km/s) = 1.66256 6.13464 4.49432
#
# Compressibility (1/GPa) = 0.06033174
#
# Stress axis : x y z
#
# Youngs Moduli (GPa) = 100.04111 25.29948 40.03530
#
# Poissons Ratio (x) = 0.00725 0.37456
# Poissons Ratio (y) = 0.02868 -0.10241
# Poissons Ratio (z) = 0.93595 -0.06472
#
# Static dielectric constant tensor:
#      x y z
#    x 1.617450 0.000000 0.008810 
#    y 0.000000 1.647300 0.000000 
#    z 0.008810 0.000000 1.570030 
# 
# From -- ./inp_files/66083.got.cif
#   From: 2010.05.17/outbox.cif.g08.bks.cpg/sg10_34_cif.got.tgz:66083.got - 2010.06.03 11:33:40.
