data_PCOD9148096
_publ_section_title
;
Structure prediction by ZEFSAII (Michael W. Deem and Ramdas Pophale) SiO2 
 PCOD9148096
Probable space group: P 2/M
;
_chemical_formula_sum "Si O2"
_cell_formula_units_Z 32
_cell_length_a 11.814889
_cell_length_b 8.661585
_cell_length_c 29.117648
_cell_angle_alpha 90.000000
_cell_angle_beta 30.712353
_cell_angle_gamma 90.000000
_cell_volume 1521.854821
_symmetry_space_group_name_H-M "P 2/M"
_symmetry_group_IT_number 10
_symmetry_cell_setting 'monoclinic'
loop_
_space_group_symop_operation_xyz
x,y,z
-x,y,-z
-x,-y,-z
x,-y,z
loop_
_atom_site_type_symbol
_atom_site_label
_atom_site_fract_x
_atom_site_fract_y
_atom_site_fract_z
Si Si1 0.660078 0.317177 0.985957
Si Si2 0.837047 0.321897 0.189395
Si Si3 0.160855 0.675527 0.404185
Si Si4 0.769520 0.315077 0.053633
Si Si5 0.568023 0.820401 0.209555
Si Si6 0.366560 0.177599 0.654186
Si Si7 0.757779 0.326135 0.393710
Si Si8 0.132096 0.169942 0.557557
O O1 0.604471 0.500000 0.009708
O O2 0.913234 0.302216 0.880393
O O3 0.500000 0.256653 0.000000
O O4 0.690179 0.261343 0.029616
O O5 0.807344 0.500000 0.185963
O O6 0.785775 0.217939 0.163452
O O7 0.670461 0.273519 0.287281
O O8 0.218094 0.500000 0.396806
O O9 0.372560 0.765873 0.311890
O O10 0.000000 0.743212 0.500000
O O11 0.999017 0.687758 0.417413
O O12 0.793975 0.500000 0.040653
O O13 0.584341 0.271352 0.156170
O O14 0.000000 0.262243 0.000000
O O15 0.549116 0.000000 0.206570
O O16 0.236104 0.263906 0.659637
O O17 0.621583 0.174611 0.549215
O O18 0.296844 0.000000 0.685062
O O19 0.500000 0.333105 0.500000
O O20 0.846457 0.500000 0.366583
O O21 0.861577 0.199910 0.390819
O O22 0.037884 0.000000 0.579658
#
# Coordination Sequence:
#
# PCOD9148096 Si02
#       8
#     4   4   4   4   4   4   4   4
#     4   9  19  38  65  95 125 159 202 256 319 379
#     4  11  21  37  61  89 121 156 206 258 309 374
#     4  11  24  41  61  86 118 159 209 262 315 372
#     4  10  19  39  69  97 126 164 211 265 320 380
#     4  12  25  40  62  93 128 166 213 260 318 386
#     4  10  20  34  54  83 118 158 200 249 313 374
#     4   9  17  31  52  76 104 145 199 249 294 356
#     4  10  20  35  55  79 113 154 197 251 316 377
#
# _framework density 21.026972000000001
#
# number of rings (size 3 to 8) (size 9 to 14) (size 15 to 20)
#    0.000    1.750    1.250    3.750    0.000    6.250 
#    2.250    0.000    0.000    2.625    0.000    0.000 
#    0.000    0.000    0.000    0.000    0.000    0.000 
#
# Total GULP energy -178236.064724 kJ/mol
# GULP energy per Si atom -5569.877023 kJ/mol
# Density = 2.097911 g / cm^3
# Si number density = 21.026972 Si / 1000 Ang^3
#
#
#
# Elastic Constant Matrix: (Units=GPa)
#
#
# Indices 1 2 3 4 5 6 
#
# 1 124.3342 6.7801 40.0461 0.0000 19.1783 0.0000
# 2 6.7801 42.0147 14.1505 0.0000 -7.4310 0.0000
# 3 40.0461 14.1505 55.0938 0.0000 11.6777 0.0000
# 4 0.0000 0.0000 0.0000 -14.9999 0.0000 -21.5989
# 5 19.1783 -7.4310 11.6777 0.0000 19.9981 0.0000
# 6 0.0000 0.0000 0.0000 -21.5989 0.0000 -5.0056
#
#
#
# Elastic Compliance Matrix: (Units=1/GPa)
#
#
# Indices 1 2 3 4 5 6 
#
# 1 0.011306 -0.001004 -0.006371 0.000000 -0.007495 0.000000
# 2 -0.001004 0.031172 -0.011339 0.000000 0.019168 0.000000
# 3 -0.006371 -0.011339 0.028865 0.000000 -0.014959 0.000000
# 4 0.000000 0.000000 0.000000 0.012788 0.000000 -0.055180
# 5 -0.007495 0.019168 -0.014959 0.000000 0.073050 0.000000
# 6 0.000000 0.000000 0.000000 -0.055180 0.000000 0.038321
#
#
# Mechanical properties :
#
#
# Convention : Reuss Voigt Hill
#
# Bulk Modulus (GPa) = 29.48664 38.15514 33.82089
# Shear Modulus (GPa) = 20.47196 10.69625 15.58411
#
# Velocity S-wave (km/s) = 3.12365 2.25787 2.72536
# Velocity P-wave (km/s) = 5.20224 4.99825 5.10126
#
# Compressibility (1/GPa) = 0.03391367
#
# Stress axis : x y z
#
# Youngs Moduli (GPa) = 88.45035 32.07959 34.64400
#
# Poissons Ratio (x) = 0.03222 0.22073
# Poissons Ratio (y) = 0.08883 0.39284
# Poissons Ratio (z) = 0.56354 0.36376
#
# Static dielectric constant tensor:
#      x y z
#    x 1.812730 0.000000 -0.003790 
#    y 0.000000 1.751430 0.000000 
#    z -0.003790 0.000000 1.826140 
# 
# From -- ./inp_files/94914.got.cif
#   From: 2010.05.17/outbox.cif.g08.bks.cpg/sg10_48_cif.got.tgz:94914.got - 2010.06.03 11:33:40.
