data_PCOD9148905
_publ_section_title
;
Structure prediction by ZEFSAII (Michael W. Deem and Ramdas Pophale) SiO2 
 PCOD9148905
Probable space group: P 2/M
;
_chemical_formula_sum "Si O2"
_cell_formula_units_Z 30
_cell_length_a 24.755447
_cell_length_b 13.606100
_cell_length_c 9.485799
_cell_angle_alpha 90.000000
_cell_angle_beta 30.718439
_cell_angle_gamma 90.000000
_cell_volume 1632.096789
_symmetry_space_group_name_H-M "P 2/M"
_symmetry_group_IT_number 10
_symmetry_cell_setting 'monoclinic'
loop_
_space_group_symop_operation_xyz
x,y,z
-x,y,-z
-x,-y,-z
x,-y,z
loop_
_atom_site_type_symbol
_atom_site_label
_atom_site_fract_x
_atom_site_fract_y
_atom_site_fract_z
Si Si1 0.889917 0.318634 0.674022
Si Si2 0.591499 0.606932 0.176645
Si Si3 0.540495 0.110527 0.249102
Si Si4 0.882514 0.500000 0.469003
Si Si5 0.537388 0.293413 0.758748
Si Si6 0.751314 0.782625 0.780790
Si Si7 0.229701 0.381661 0.778664
Si Si8 0.121824 0.684504 0.736072
O O1 0.901914 0.411995 0.543435
O O2 0.843945 0.226924 0.687364
O O3 0.000000 0.294108 0.500000
O O4 0.813581 0.351319 0.972011
O O5 0.500000 0.613311 0.500000
O O6 0.644669 0.500000 0.066063
O O7 0.534231 0.623786 0.156820
O O8 0.677680 0.690398 0.993952
O O9 0.500000 0.120834 0.500000
O O10 0.484564 0.195240 0.282900
O O11 0.517321 0.000000 0.252258
O O12 0.666814 0.130301 0.966036
O O13 0.869682 0.585529 0.375036
O O14 0.655759 0.332526 0.492779
O O15 0.500000 0.276257 0.000000
O O16 0.800025 0.760083 0.518347
O O17 0.235511 0.500000 0.755489
O O18 0.156471 0.340769 0.816851
O O19 0.000000 0.717372 0.000000
#
# Coordination Sequence:
#
# PCOD9148905 Si02
#       8
#     4   4   4   2   4   4   4   4
#     4  11  22  33  51  78 112 147 192 241 273 303
#     4  10  20  34  53  75 109 155 197 232 270 325
#     4  10  21  42  69  89 106 134 176 230 290 354
#     4  10  20  34  48  68 105 152 204 234 258 294
#     4  11  23  37  53  82 118 141 179 232 283 341
#     4  10  21  36  56  80 110 145 187 225 273 337
#     4  12  22  32  51  78 112 156 194 228 270 312
#     4  11  23  35  51  74 113 159 197 233 259 312
#
# _framework density 18.381263000000001
#
# number of rings (size 3 to 8) (size 9 to 14) (size 15 to 20)
#    0.000    1.333    1.333    7.200    5.600    3.467 
#    0.000    0.000    0.000    0.800    0.000    1.867 
#    0.000    0.000    0.000    0.000    0.000    0.000 
#
# Total GULP energy -167078.543314 kJ/mol
# GULP energy per Si atom -5569.284777 kJ/mol
# Density = 1.833943 g / cm^3
# Si number density = 18.381263 Si / 1000 Ang^3
#
#
#
# Elastic Constant Matrix: (Units=GPa)
#
#
# Indices 1 2 3 4 5 6 
#
# 1 88.4333 3.8439 3.9226 0.0000 5.5785 0.0000
# 2 3.8439 51.2203 12.3366 0.0000 4.3143 0.0000
# 3 3.9226 12.3366 51.4193 0.0000 3.6838 0.0000
# 4 0.0000 0.0000 0.0000 9.6355 0.0000 11.4091
# 5 5.5785 4.3143 3.6838 0.0000 35.6739 0.0000
# 6 0.0000 0.0000 0.0000 11.4091 0.0000 32.0963
#
#
#
# Elastic Compliance Matrix: (Units=1/GPa)
#
#
# Indices 1 2 3 4 5 6 
#
# 1 0.011465 -0.000572 -0.000619 0.000000 -0.001660 0.000000
# 2 -0.000572 0.020893 -0.004830 0.000000 -0.001939 0.000000
# 3 -0.000619 -0.004830 0.020759 0.000000 -0.001463 0.000000
# 4 0.000000 0.000000 0.000000 0.179213 0.000000 -0.063704
# 5 -0.001660 -0.001939 -0.001463 0.000000 0.028677 0.000000
# 6 0.000000 0.000000 0.000000 -0.063704 0.000000 0.053801
#
#
# Mechanical properties :
#
#
# Convention : Reuss Voigt Hill
#
# Bulk Modulus (GPa) = 24.34509 25.69768 25.02138
# Shear Modulus (GPa) = 14.68255 26.87914 20.78085
#
# Velocity S-wave (km/s) = 2.82933 3.82817 3.36601
# Velocity P-wave (km/s) = 4.89354 5.79228 5.36178
#
# Compressibility (1/GPa) = 0.04107605
#
# Stress axis : x y z
#
# Youngs Moduli (GPa) = 87.22243 47.86281 48.17240
#
# Poissons Ratio (x) = 0.02736 0.02980
# Poissons Ratio (y) = 0.04986 0.23268
# Poissons Ratio (z) = 0.05395 0.23119
#
# Static dielectric constant tensor:
#      x y z
#    x 1.661110 0.000000 -0.033150 
#    y 0.000000 1.608230 0.000000 
#    z -0.033150 0.000000 1.701170 
# 
# From -- ./inp_files/36294.got.cif
#   From: 2010.05.17/outbox.cif.g08.bks.cpg/sg10_19_cif.got.tgz:36294.got - 2010.06.03 11:33:40.
