data_PCOD9148224
_publ_section_title
;
Structure prediction by ZEFSAII (Michael W. Deem and Ramdas Pophale) SiO2 
 PCOD9148224
Probable space group: P 2/M
;
_chemical_formula_sum "Si O2"
_cell_formula_units_Z 28
_cell_length_a 22.044421
_cell_length_b 7.712643
_cell_length_c 17.357005
_cell_angle_alpha 90.000000
_cell_angle_beta 148.902110
_cell_angle_gamma 90.000000
_cell_volume 1524.223137
_symmetry_space_group_name_H-M "P 2/M"
_symmetry_group_IT_number 10
_symmetry_cell_setting 'monoclinic'
loop_
_space_group_symop_operation_xyz
x,y,z
-x,y,-z
-x,-y,-z
x,-y,z
loop_
_atom_site_type_symbol
_atom_site_label
_atom_site_fract_x
_atom_site_fract_y
_atom_site_fract_z
Si Si1 0.669215 0.709541 0.628661
Si Si2 0.076344 0.795204 0.153465
Si Si3 0.994222 0.788750 0.755056
Si Si4 0.845465 0.703843 0.275876
Si Si5 0.103283 0.197111 0.505898
Si Si6 0.585120 0.287860 0.703845
Si Si7 0.742352 0.705611 0.012063
O O1 0.671800 0.500000 0.630785
O O2 0.787585 0.774011 0.718891
O O3 0.549788 0.764734 0.455677
O O4 0.655773 0.764213 0.703465
O O5 0.043516 0.725466 0.201919
O O6 0.049118 0.000000 0.127871
O O7 0.000000 0.720352 0.000000
O O8 0.908682 0.726032 0.592822
O O9 0.127577 0.735166 0.881274
O O10 0.990791 0.000000 0.748815
O O11 0.867049 0.500000 0.285350
O O12 0.825593 0.723590 0.345297
O O13 0.750553 0.766151 0.109915
O O14 0.967152 0.796800 0.385960
O O15 0.143037 0.000000 0.542475
O O16 0.586108 0.500000 0.705511
O O17 0.647579 0.222525 0.848997
O O18 0.720583 0.500000 0.991620
#
# Coordination Sequence:
#
# PCOD9148224 Si02
#       7
#     4   4   4   4   4   4   4
#     4   9  17  30  48  65  82 109 143 173 201 242
#     4  10  20  32  44  61  88 115 137 169 210 244
#     4   9  18  29  40  58  85 115 142 168 203 245
#     4   9  15  22  35  57  82 105 131 166 205 242
#     4   9  15  24  37  52  76 110 140 164 196 242
#     4   8  15  29  46  64  86 109 135 171 211 243
#     4   9  16  26  42  63  86 111 137 168 207 248
#
# _framework density 18.370014000000001
#
# number of rings (size 3 to 8) (size 9 to 14) (size 15 to 20)
#    0.000    3.000    0.000    3.429    0.000    2.000 
#    0.000    2.143    0.000    0.000    0.000    1.000 
#    0.000    8.000    0.000    0.000    0.000    0.000 
#
# Total GULP energy -155891.110308 kJ/mol
# GULP energy per Si atom -5567.539654 kJ/mol
# Density = 1.832820 g / cm^3
# Si number density = 18.370014 Si / 1000 Ang^3
#
#
#
# Elastic Constant Matrix: (Units=GPa)
#
#
# Indices 1 2 3 4 5 6 
#
# 1 82.1400 -2.5416 59.9849 0.0000 -34.5159 0.0000
# 2 -2.5416 27.6896 0.1968 0.0000 -8.7104 0.0000
# 3 59.9849 0.1968 133.5537 0.0000 -51.7643 0.0000
# 4 0.0000 0.0000 0.0000 9.9092 0.0000 3.5932
# 5 -34.5159 -8.7104 -51.7643 0.0000 38.0498 0.0000
# 6 0.0000 0.0000 0.0000 3.5932 0.0000 12.1446
#
#
#
# Elastic Compliance Matrix: (Units=1/GPa)
#
#
# Indices 1 2 3 4 5 6 
#
# 1 0.022028 0.007520 -0.003158 0.000000 0.017408 0.000000
# 2 0.007520 0.045040 0.006762 0.000000 0.026332 0.000000
# 3 -0.003158 0.006762 0.017740 0.000000 0.022817 0.000000
# 4 0.000000 0.000000 0.000000 0.113044 0.000000 -0.033446
# 5 0.017408 0.026332 0.022817 0.000000 0.079142 0.000000
# 6 0.000000 0.000000 0.000000 -0.033446 0.000000 0.092237
#
#
# Mechanical properties :
#
#
# Convention : Reuss Voigt Hill
#
# Bulk Modulus (GPa) = 9.34085 39.85151 24.59618
# Shear Modulus (GPa) = 13.06621 24.40359 18.73490
#
# Velocity S-wave (km/s) = 2.66987 3.64874 3.19699
# Velocity P-wave (km/s) = 3.82102 6.28426 5.20058
#
# Compressibility (1/GPa) = 0.10705665
#
# Stress axis : x y z
#
# Youngs Moduli (GPa) = 45.39701 22.20241 56.37087
#
# Poissons Ratio (x) = -0.16697 0.17800
# Poissons Ratio (y) = -0.34140 -0.38117
# Poissons Ratio (z) = 0.14335 -0.15013
#
# Static dielectric constant tensor:
#      x y z
#    x 1.628120 0.000000 -0.072740 
#    y 0.000000 1.683630 0.000000 
#    z -0.072740 0.000000 1.668820 
# 
# From -- ./inp_files/79873.got.cif
#   From: 2010.05.17/outbox.cif.g08.bks.cpg/sg10_40_cif.got.tgz:79873.got - 2010.06.03 11:33:40.
