data_PCOD9148490
_publ_section_title
;
Structure prediction by ZEFSAII (Michael W. Deem and Ramdas Pophale) SiO2 
 PCOD9148490
Probable space group: P 2/M
;
_chemical_formula_sum "Si O2"
_cell_formula_units_Z 32
_cell_length_a 24.608233
_cell_length_b 8.453887
_cell_length_c 17.090926
_cell_angle_alpha 90.000000
_cell_angle_beta 28.956077
_cell_angle_gamma 90.000000
_cell_volume 1721.363245
_symmetry_space_group_name_H-M "P 2/M"
_symmetry_group_IT_number 10
_symmetry_cell_setting 'monoclinic'
loop_
_space_group_symop_operation_xyz
x,y,z
-x,y,-z
-x,-y,-z
x,-y,z
loop_
_atom_site_type_symbol
_atom_site_label
_atom_site_fract_x
_atom_site_fract_y
_atom_site_fract_z
Si Si1 0.311127 0.680780 0.729346
Si Si2 0.267734 0.191791 0.475878
Si Si3 0.972744 0.819041 0.266576
Si Si4 0.613754 0.311260 0.090487
Si Si5 0.509107 0.190791 0.899294
Si Si6 0.393007 0.691470 0.465217
Si Si7 0.788374 0.811483 0.986466
Si Si8 0.054159 0.676680 0.015262
O O1 0.347196 0.500000 0.700508
O O2 0.386279 0.748358 0.563919
O O3 0.285602 0.759888 0.844765
O O4 0.188096 0.678527 0.844176
O O5 0.373324 0.238308 0.289048
O O6 0.295011 0.252700 0.529145
O O7 0.152356 0.250342 0.581410
O O8 0.262428 0.000000 0.486581
O O9 0.011967 0.809143 0.127081
O O10 0.961334 0.000000 0.308264
O O11 0.083356 0.747128 0.168664
O O12 0.615993 0.500000 0.089205
O O13 0.587145 0.253025 0.037002
O O14 0.508432 0.258754 0.277698
O O15 0.725347 0.245144 0.988929
O O16 0.505082 0.000000 0.904139
O O17 0.500000 0.245657 0.000000
O O18 0.388602 0.500000 0.473985
O O19 0.795727 0.000000 0.979141
O O20 0.022384 0.500000 0.085398
O O21 0.000000 0.696285 0.000000
#
# Coordination Sequence:
#
# PCOD9148490 Si02
#       8
#     4   4   4   4   4   4   4   4
#     4   9  17  29  43  61  89 125 165 205 242 277
#     4   9  17  30  49  73  99 124 153 192 238 285
#     4   9  18  30  44  64  91 124 159 195 232 273
#     4  10  20  34  52  73  97 125 158 195 236 282
#     4   9  18  34  57  82 103 121 144 181 233 290
#     4   9  18  31  47  68  94 125 161 202 245 285
#     4  10  20  33  47  65  93 130 170 203 233 272
#     4   9  16  25  39  59  84 118 160 202 239 275
#
# _framework density 18.589917
#
# number of rings (size 3 to 8) (size 9 to 14) (size 15 to 20)
#    0.000    2.750    0.000    1.500    0.000    4.000 
#    0.000    5.000    0.000    0.750    0.000    5.250 
#    0.000    0.000    0.000    0.000    0.000    0.000 
#
# Total GULP energy -178238.362293 kJ/mol
# GULP energy per Si atom -5569.948822 kJ/mol
# Density = 1.854761 g / cm^3
# Si number density = 18.589917 Si / 1000 Ang^3
#
#
#
# Elastic Constant Matrix: (Units=GPa)
#
#
# Indices 1 2 3 4 5 6 
#
# 1 122.2130 17.5445 33.9682 0.0000 -17.6389 0.0000
# 2 17.5445 10.8605 6.8613 0.0000 -1.2884 0.0000
# 3 33.9682 6.8613 36.9592 0.0000 -10.7406 0.0000
# 4 0.0000 0.0000 0.0000 10.8858 0.0000 5.2620
# 5 -17.6389 -1.2884 -10.7406 0.0000 28.0754 0.0000
# 6 0.0000 0.0000 0.0000 5.2620 0.0000 12.4613
#
#
#
# Elastic Compliance Matrix: (Units=1/GPa)
#
#
# Indices 1 2 3 4 5 6 
#
# 1 0.013360 -0.016001 -0.007968 0.000000 0.004611 0.000000
# 2 -0.016001 0.123693 -0.010721 0.000000 -0.008478 0.000000
# 3 -0.007968 -0.010721 0.039122 0.000000 0.009469 0.000000
# 4 0.000000 0.000000 0.000000 0.115423 0.000000 -0.048739
# 5 0.004611 -0.008478 0.009469 0.000000 0.041748 0.000000
# 6 0.000000 0.000000 0.000000 -0.048739 0.000000 0.100830
#
#
# Mechanical properties :
#
#
# Convention : Reuss Voigt Hill
#
# Bulk Modulus (GPa) = 9.36374 31.86452 20.61413
# Shear Modulus (GPa) = 9.27380 17.72839 13.50110
#
# Velocity S-wave (km/s) = 2.23594 3.09148 2.69784
# Velocity P-wave (km/s) = 3.42255 5.47001 4.56261
#
# Compressibility (1/GPa) = 0.10679491
#
# Stress axis : x y z
#
# Youngs Moduli (GPa) = 74.85277 8.08454 25.56102
#
# Poissons Ratio (x) = 0.12936 0.20367
# Poissons Ratio (y) = 1.19769 0.27404
# Poissons Ratio (z) = 0.59643 0.08668
#
# Static dielectric constant tensor:
#      x y z
#    x 1.646510 0.000000 -0.033250 
#    y 0.000000 1.666440 0.000000 
#    z -0.033250 0.000000 1.679150 
# 
# From -- ./inp_files/79947.got.cif
#   From: 2010.05.17/outbox.cif.g08.bks.cpg/sg10_40_cif.got.tgz:79947.got - 2010.06.03 11:33:40.
