data_PCOD9148868
_publ_section_title
;
Structure prediction by ZEFSAII (Michael W. Deem and Ramdas Pophale) SiO2 
 PCOD9148868
Probable space group: P 2/M
;
_chemical_formula_sum "Si O2"
_cell_formula_units_Z 28
_cell_length_a 9.938800
_cell_length_b 14.627266
_cell_length_c 22.193283
_cell_angle_alpha 90.000000
_cell_angle_beta 28.442866
_cell_angle_gamma 90.000000
_cell_volume 1536.678451
_symmetry_space_group_name_H-M "P 2/M"
_symmetry_group_IT_number 10
_symmetry_cell_setting 'monoclinic'
loop_
_space_group_symop_operation_xyz
x,y,z
-x,y,-z
-x,-y,-z
x,-y,z
loop_
_atom_site_type_symbol
_atom_site_label
_atom_site_fract_x
_atom_site_fract_y
_atom_site_fract_z
Si Si1 0.679124 0.108109 0.609475
Si Si2 0.347593 0.784147 0.499192
Si Si3 0.299439 0.606285 0.348260
Si Si4 0.239861 0.604047 0.148153
Si Si5 0.709341 0.740336 0.761404
Si Si6 0.612427 0.394666 0.346655
Si Si7 0.663116 0.895123 0.132354
O O1 0.574534 0.161723 0.592057
O O2 0.477064 0.120552 0.746580
O O3 0.000000 0.137871 0.500000
O O4 0.692471 0.000000 0.590705
O O5 0.500000 0.816129 0.500000
O O6 0.432350 0.678436 0.454760
O O7 0.012207 0.789202 0.637618
O O8 0.304202 0.500000 0.326398
O O9 0.329201 0.675782 0.281860
O O10 0.536147 0.618793 0.306494
O O11 0.000000 0.621257 0.500000
O O12 0.232283 0.500000 0.175310
O O13 0.281314 0.675879 0.184571
O O14 0.940680 0.619103 0.232627
O O15 0.500000 0.610370 0.000000
O O16 0.472996 0.818122 0.855784
O O17 0.535562 0.500000 0.391536
O O18 0.591238 0.000000 0.143464
O O19 0.000000 0.887212 0.000000
#
# Coordination Sequence:
#
# PCOD9148868 Si02
#       7
#     4   4   4   4   4   4   4
#     4  10  21  40  66  89 118 156 196 251 313 365
#     4  12  23  35  56  93 124 157 198 250 303 368
#     4  10  20  33  55  89 125 155 197 255 309 359
#     4  10  23  42  59  80 121 172 214 248 299 371
#     4  12  22  36  62  93 117 159 205 261 301 365
#     4  10  21  36  55  82 121 162 198 246 303 358
#     4  10  23  43  67  94 122 160 206 253 314 379
#
# _framework density 18.221117
#
# number of rings (size 3 to 8) (size 9 to 14) (size 15 to 20)
#    0.000    1.429    4.286    1.286    0.000    3.429 
#    0.000    0.000    0.000    4.714    0.000    0.000 
#    0.000    0.000    0.000    0.000    0.000    0.000 
#
# Total GULP energy -156424.935097 kJ/mol
# GULP energy per Si atom -5586.604825 kJ/mol
# Density = 1.817965 g / cm^3
# Si number density = 18.221117 Si / 1000 Ang^3
#
#
#
# Elastic Constant Matrix: (Units=GPa)
#
#
# Indices 1 2 3 4 5 6 
#
# 1 121.4227 63.7314 26.1613 0.0000 -8.7078 0.0000
# 2 63.7314 79.9487 29.0295 0.0000 -10.9375 0.0000
# 3 26.1613 29.0295 67.3787 0.0000 -12.1770 0.0000
# 4 0.0000 0.0000 0.0000 25.7190 0.0000 -1.2091
# 5 -8.7078 -10.9375 -12.1770 0.0000 19.8211 0.0000
# 6 0.0000 0.0000 0.0000 -1.2091 0.0000 21.4824
#
#
#
# Elastic Compliance Matrix: (Units=1/GPa)
#
#
# Indices 1 2 3 4 5 6 
#
# 1 0.014195 -0.011073 -0.000808 0.000000 -0.000370 0.000000
# 2 -0.011073 0.023881 -0.005047 0.000000 0.005212 0.000000
# 3 -0.000808 -0.005047 0.018856 0.000000 0.008444 0.000000
# 4 0.000000 0.000000 0.000000 0.038985 0.000000 0.002194
# 5 -0.000370 0.005212 0.008444 0.000000 0.058352 0.000000
# 6 0.000000 0.000000 0.000000 0.002194 0.000000 0.046673
#
#
# Mechanical properties :
#
#
# Convention : Reuss Voigt Hill
#
# Bulk Modulus (GPa) = 43.33682 56.28828 49.81255
# Shear Modulus (GPa) = 20.61939 23.39303 22.00621
#
# Velocity S-wave (km/s) = 3.36761 3.58696 3.47901
# Velocity P-wave (km/s) = 6.24151 6.93642 6.59812
#
# Compressibility (1/GPa) = 0.02307506
#
# Stress axis : x y z
#
# Youngs Moduli (GPa) = 70.44680 41.87482 53.03410
#
# Poissons Ratio (x) = 0.46368 0.04284
# Poissons Ratio (y) = 0.78006 0.26769
# Poissons Ratio (z) = 0.05691 0.21136
#
# Static dielectric constant tensor:
#      x y z
#    x 1.626790 0.000000 -0.008080 
#    y 0.000000 1.644130 0.000000 
#    z -0.008080 0.000000 1.608620 
# 
# From -- ./inp_files/29579.got.cif
#   From: 2010.05.17/outbox.cif.g08.bks.cpg/sg10_15_cif.got.tgz:29579.got - 2010.06.03 11:33:40.
