data_PCOD9148283
_publ_section_title
;
Structure prediction by ZEFSAII (Michael W. Deem and Ramdas Pophale) SiO2 
 PCOD9148283
Probable space group: P 2/M
;
_chemical_formula_sum "Si O2"
_cell_formula_units_Z 32
_cell_length_a 16.209830
_cell_length_b 9.146734
_cell_length_c 16.209828
_cell_angle_alpha 90.000000
_cell_angle_beta 53.310081
_cell_angle_gamma 90.000000
_cell_volume 1927.226335
_symmetry_space_group_name_H-M "P 2/M"
_symmetry_group_IT_number 10
_symmetry_cell_setting 'monoclinic'
loop_
_space_group_symop_operation_xyz
x,y,z
-x,y,-z
-x,-y,-z
x,-y,z
loop_
_atom_site_type_symbol
_atom_site_label
_atom_site_fract_x
_atom_site_fract_y
_atom_site_fract_z
Si Si1 0.579669 0.174066 0.791823
Si Si2 0.328549 0.670301 0.107574
Si Si3 0.920056 0.174184 0.348800
Si Si4 0.791823 0.825934 0.579669
Si Si5 0.651200 0.174184 0.079944
Si Si6 0.107574 0.329699 0.328550
Si Si7 0.947702 0.675298 0.160217
Si Si8 0.160217 0.324702 0.947702
O O1 0.599988 0.261018 0.864142
O O2 0.674240 0.208185 0.674240
O O3 0.466803 0.206286 0.824621
O O4 0.584012 0.000000 0.807388
O O5 0.353178 0.500000 0.079233
O O6 0.212451 0.679388 0.212451
O O7 0.335693 0.759141 0.019087
O O8 0.824621 0.206286 0.466803
O O9 0.912998 0.245204 0.263350
O O10 0.019086 0.240859 0.335693
O O11 0.930746 0.000000 0.335261
O O12 0.864142 0.738982 0.599988
O O13 0.807388 0.000000 0.584012
O O14 0.736650 0.245204 0.087002
O O15 0.664739 0.000000 0.069254
O O16 0.079233 0.500000 0.353178
O O17 0.945616 0.500000 0.173340
O O18 0.878153 0.709171 0.121847
O O19 0.065081 0.714626 0.065081
O O20 0.173340 0.500000 0.945616
#
# Coordination Sequence:
#
# PCOD9148283 Si02
#       8
#     4   4   4   4   4   4   4   4
#     4   9  19  35  50  66  95 132 166 201 239 278
#     4  10  20  32  47  70 100 132 164 197 236 284
#     4  11  21  31  49  75  98 125 162 200 240 285
#     4   9  19  35  50  66  95 132 166 201 239 278
#     4  11  21  31  49  75  98 125 162 200 240 285
#     4  10  20  32  47  70 100 132 164 197 236 284
#     4   9  19  36  55  74  98 127 156 189 235 289
#     4   9  19  36  55  74  98 127 156 189 235 289
#
# _framework density 16.604174
#
# number of rings (size 3 to 8) (size 9 to 14) (size 15 to 20)
#    0.000    2.250    0.000    3.750    0.000   10.500 
#    0.000    1.250    0.000    0.750    0.000    5.250 
#    0.000    0.000    0.000    0.000    0.000    0.000 
#
# Total GULP energy -178629.893349 kJ/mol
# GULP energy per Si atom -5582.184167 kJ/mol
# Density = 1.656638 g / cm^3
# Si number density = 16.604174 Si / 1000 Ang^3
#
#
#
# Elastic Constant Matrix: (Units=GPa)
#
#
# Indices 1 2 3 4 5 6 
#
# 1 115.9480 55.6084 58.8128 0.0000 -6.5189 0.0000
# 2 55.6084 53.7062 53.8999 0.0000 1.4797 0.0000
# 3 58.8128 53.8999 107.4448 0.0000 13.8831 0.0000
# 4 0.0000 0.0000 0.0000 25.0998 0.0000 6.5905
# 5 -6.5189 1.4797 13.8831 0.0000 14.6627 0.0000
# 6 0.0000 0.0000 0.0000 6.5905 0.0000 32.7099
#
#
#
# Elastic Compliance Matrix: (Units=1/GPa)
#
#
# Indices 1 2 3 4 5 6 
#
# 1 0.019349 -0.015976 -0.004440 0.000000 0.014419 0.000000
# 2 -0.015976 0.054292 -0.019216 0.000000 0.005613 0.000000
# 3 -0.004440 -0.019216 0.024363 0.000000 -0.023102 0.000000
# 4 0.000000 0.000000 0.000000 0.042066 0.000000 -0.008476
# 5 0.014419 0.005613 -0.023102 0.000000 0.095918 0.000000
# 6 0.000000 0.000000 0.000000 -0.008476 0.000000 0.032280
#
#
# Mechanical properties :
#
#
# Convention : Reuss Voigt Hill
#
# Bulk Modulus (GPa) = 53.36281 68.19346 60.77814
# Shear Modulus (GPa) = 14.13307 21.74633 17.93970
#
# Velocity S-wave (km/s) = 2.92066 3.62289 3.29056
# Velocity P-wave (km/s) = 6.60164 7.65896 7.14987
#
# Compressibility (1/GPa) = 0.01873964
#
# Stress axis : x y z
#
# Youngs Moduli (GPa) = 51.68118 18.41877 41.04654
#
# Poissons Ratio (x) = 0.29425 0.18226
# Poissons Ratio (y) = 0.82564 0.78877
# Poissons Ratio (z) = 0.22948 0.35394
#
# Static dielectric constant tensor:
#      x y z
#    x 1.538120 0.000000 -0.023970 
#    y 0.000000 1.551850 0.000000 
#    z -0.023970 0.000000 1.565800 
# 
# From -- ./inp_files/66461.got.cif
#   From: 2010.05.17/outbox.cif.g08.bks.cpg/sg10_34_cif.got.tgz:66461.got - 2010.06.03 11:33:40.
