data_PCOD9148745
_publ_section_title
;
Structure prediction by ZEFSAII (Michael W. Deem and Ramdas Pophale) SiO2 
 PCOD9148745
Probable space group: P 2/M
;
_chemical_formula_sum "Si O2"
_cell_formula_units_Z 32
_cell_length_a 20.538760
_cell_length_b 9.391106
_cell_length_c 26.494664
_cell_angle_alpha 90.000000
_cell_angle_beta 161.607359
_cell_angle_gamma 90.000000
_cell_volume 1612.449530
_symmetry_space_group_name_H-M "P 2/M"
_symmetry_group_IT_number 10
_symmetry_cell_setting 'monoclinic'
loop_
_space_group_symop_operation_xyz
x,y,z
-x,y,-z
-x,-y,-z
x,-y,z
loop_
_atom_site_type_symbol
_atom_site_label
_atom_site_fract_x
_atom_site_fract_y
_atom_site_fract_z
Si Si1 0.329724 0.667245 0.996697
Si Si2 0.058106 0.169467 0.302390
Si Si3 0.045001 0.168264 0.474751
Si Si4 0.197500 0.335038 0.309711
Si Si5 0.333640 0.332430 0.837591
Si Si6 0.522970 0.169695 0.799666
Si Si7 0.667219 0.662930 0.697717
Si Si8 0.513002 0.170275 0.677052
O O1 0.284049 0.500000 0.965789
O O2 0.546509 0.684132 0.127237
O O3 0.355774 0.738496 0.070348
O O4 0.146751 0.746878 0.832169
O O5 0.092416 0.225987 0.270482
O O6 0.270629 0.205638 0.488006
O O7 0.028993 0.000000 0.283098
O O8 0.880829 0.252277 0.320894
O O9 0.000000 0.206797 0.500000
O O10 0.279743 0.193850 0.631426
O O11 0.006412 0.000000 0.441283
O O12 0.124125 0.500000 0.259812
O O13 0.196276 0.291022 0.250030
O O14 0.434550 0.337804 0.503744
O O15 0.300092 0.500000 0.822426
O O16 0.500000 0.278281 0.000000
O O17 0.567599 0.208288 0.774538
O O18 0.561614 0.000000 0.835202
O O19 0.721267 0.500000 0.749838
O O20 0.652333 0.756123 0.736902
O O21 0.528643 0.000000 0.683247
#
# Coordination Sequence:
#
# PCOD9148745 Si02
#       8
#     4   4   4   4   4   4   4   4
#     4  11  23  38  55  76 104 141 179 215 261 316
#     4  10  20  33  52  79 109 140 175 216 262 312
#     4  10  20  36  59  82 103 135 178 219 260 310
#     4   8  14  27  47  73 105 140 174 212 257 306
#     4  10  23  40  56  79 109 138 172 217 267 314
#     4  10  21  38  56  77 107 140 176 218 263 312
#     4   8  14  26  47  74 105 138 174 214 256 304
#     4   9  19  33  51  78 109 139 173 216 263 311
#
# _framework density 19.845583000000001
#
# number of rings (size 3 to 8) (size 9 to 14) (size 15 to 20)
#    0.000    2.500    1.250    1.500    1.750    3.000 
#    0.000    2.500    0.000    0.750    0.000    5.250 
#    0.000    0.000    0.000    0.000    0.000    0.000 
#
# Total GULP energy -178522.252236 kJ/mol
# GULP energy per Si atom -5578.820382 kJ/mol
# Density = 1.980041 g / cm^3
# Si number density = 19.845583 Si / 1000 Ang^3
#
#
#
# Elastic Constant Matrix: (Units=GPa)
#
#
# Indices 1 2 3 4 5 6 
#
# 1 63.2394 13.5171 -6.4670 0.0000 -22.0569 0.0000
# 2 13.5171 29.9137 17.8153 0.0000 -13.5051 0.0000
# 3 -6.4670 17.8153 36.8069 0.0000 -12.9456 0.0000
# 4 0.0000 0.0000 0.0000 21.6940 0.0000 -5.1097
# 5 -22.0569 -13.5051 -12.9456 0.0000 26.6170 0.0000
# 6 0.0000 0.0000 0.0000 -5.1097 0.0000 16.9347
#
#
#
# Elastic Compliance Matrix: (Units=1/GPa)
#
#
# Indices 1 2 3 4 5 6 
#
# 1 0.031946 -0.014633 0.023398 0.000000 0.030428 0.000000
# 2 -0.014633 0.059569 -0.030205 0.000000 0.003408 0.000000
# 3 0.023398 -0.030205 0.057096 0.000000 0.031833 0.000000
# 4 0.000000 0.000000 0.000000 0.049622 0.000000 0.014973
# 5 0.030428 0.003408 0.031833 0.000000 0.079997 0.000000
# 6 0.000000 0.000000 0.000000 0.014973 0.000000 0.063568
#
#
# Mechanical properties :
#
#
# Convention : Reuss Voigt Hill
#
# Bulk Modulus (GPa) = 9.45794 19.96564 14.71179
# Shear Modulus (GPa) = 11.90699 20.05545 15.98122
#
# Velocity S-wave (km/s) = 2.45211 3.18240 2.84082
# Velocity P-wave (km/s) = 3.57676 4.85653 4.26492
#
# Compressibility (1/GPa) = 0.10573129
#
# Stress axis : x y z
#
# Youngs Moduli (GPa) = 31.30258 16.78725 17.51450
#
# Poissons Ratio (x) = 0.24564 -0.40980
# Poissons Ratio (y) = 0.45804 0.52902
# Poissons Ratio (z) = -0.73241 0.50705
#
# Static dielectric constant tensor:
#      x y z
#    x 1.735720 0.000000 0.010760 
#    y 0.000000 1.660730 0.000000 
#    z 0.010760 0.000000 1.703650 
# 
# From -- ./inp_files/86948.got.cif
#   From: 2010.05.17/outbox.cif.g08.bks.cpg/sg10_44_cif.got.tgz:86948.got - 2010.06.03 11:33:40.
