data_PCOD9148600
_publ_section_title
;
Structure prediction by ZEFSAII (Michael W. Deem and Ramdas Pophale) SiO2 
 PCOD9148600
Probable space group: P 2/M
;
_chemical_formula_sum "Si O2"
_cell_formula_units_Z 28
_cell_length_a 14.867991
_cell_length_b 7.864999
_cell_length_c 13.723901
_cell_angle_alpha 90.000000
_cell_angle_beta 123.087800
_cell_angle_gamma 90.000000
_cell_volume 1344.581173
_symmetry_space_group_name_H-M "P 2/M"
_symmetry_group_IT_number 10
_symmetry_cell_setting 'monoclinic'
loop_
_space_group_symop_operation_xyz
x,y,z
-x,y,-z
-x,-y,-z
x,-y,z
loop_
_atom_site_type_symbol
_atom_site_label
_atom_site_fract_x
_atom_site_fract_y
_atom_site_fract_z
Si Si1 0.327735 0.208375 0.222681
Si Si2 0.444251 0.205843 0.705231
Si Si3 0.868213 0.301334 0.558116
Si Si4 0.673830 0.801877 0.559217
Si Si5 0.897199 0.208181 0.001930
Si Si6 0.089301 0.802049 0.768542
Si Si7 0.244640 0.299471 0.704712
O O1 0.431760 0.257204 0.221587
O O2 0.342180 0.269457 0.342623
O O3 0.325488 0.000000 0.224221
O O4 0.214508 0.264144 0.112138
O O5 0.392875 0.268291 0.571959
O O6 0.366750 0.266978 0.745193
O O7 0.438918 0.000000 0.702213
O O8 0.840074 0.500000 0.544929
O O9 0.797978 0.213110 0.600584
O O10 0.826788 0.234448 0.429415
O O11 0.993607 0.281889 0.650699
O O12 0.643453 0.000000 0.547287
O O13 0.905615 0.265496 0.118687
O O14 0.896108 0.000000 0.001675
O O15 0.000000 0.261693 0.000000
O O16 0.200271 0.782241 0.776443
O O17 0.061428 0.000000 0.757801
O O18 0.226784 0.500000 0.703323
#
# Coordination Sequence:
#
# PCOD9148600 Si02
#       7
#     4   4   4   4   4   4   4
#     4   9  16  29  51  77 105 135 167 208 254 295
#     4   9  17  30  51  79 105 130 167 211 250 294
#     4  10  20  33  50  74 104 136 166 201 253 309
#     4   9  16  28  50  79 106 132 165 206 251 298
#     4   9  18  32  51  77 105 131 162 202 249 298
#     4  11  21  33  53  77  99 130 172 212 248 291
#     4  10  21  36  52  72 102 136 166 203 255 308
#
# _framework density 20.824328000000001
#
# number of rings (size 3 to 8) (size 9 to 14) (size 15 to 20)
#    0.000    2.429    0.000    3.000    0.000    7.429 
#    0.000    1.429    0.000   17.143    0.000    0.000 
#    0.000    0.000    0.000    0.000    0.000    0.000 
#
# Total GULP energy -156311.505970 kJ/mol
# GULP energy per Si atom -5582.553785 kJ/mol
# Density = 2.077693 g / cm^3
# Si number density = 20.824328 Si / 1000 Ang^3
#
#
#
# Elastic Constant Matrix: (Units=GPa)
#
#
# Indices 1 2 3 4 5 6 
#
# 1 164.4696 -6.5055 65.9689 0.0000 -1.6690 0.0000
# 2 -6.5055 25.2473 4.6874 0.0000 -0.5297 0.0000
# 3 65.9689 4.6874 54.2205 0.0000 -6.9820 0.0000
# 4 0.0000 0.0000 0.0000 -0.9254 0.0000 14.6345
# 5 -1.6690 -0.5297 -6.9820 0.0000 36.4070 0.0000
# 6 0.0000 0.0000 0.0000 14.6345 0.0000 -25.9033
#
#
#
# Elastic Compliance Matrix: (Units=1/GPa)
#
#
# Indices 1 2 3 4 5 6 
#
# 1 0.013007 0.006400 -0.016703 0.000000 -0.002514 0.000000
# 2 0.006400 0.043403 -0.011709 0.000000 -0.001321 0.000000
# 3 -0.016703 -0.011709 0.040661 0.000000 0.006862 0.000000
# 4 0.000000 0.000000 0.000000 0.136191 0.000000 0.076944
# 5 -0.002514 -0.001321 0.006862 0.000000 0.028649 0.000000
# 6 0.000000 0.000000 0.000000 0.076944 0.000000 0.004865
#
#
# Mechanical properties :
#
#
# Convention : Reuss Voigt Hill
#
# Bulk Modulus (GPa) = 18.85080 41.35989 30.10534
# Shear Modulus (GPa) = 15.22150 13.90144 14.56147
#
# Velocity S-wave (km/s) = 2.70654 2.58652 2.64721
# Velocity P-wave (km/s) = 4.34040 5.36885 4.88178
#
# Compressibility (1/GPa) = 0.05304816
#
# Stress axis : x y z
#
# Youngs Moduli (GPa) = 76.88053 23.03965 24.59379
#
# Poissons Ratio (x) = -0.14745 0.41078
# Poissons Ratio (y) = -0.49202 0.28797
# Poissons Ratio (z) = 1.28410 0.26977
#
# Static dielectric constant tensor:
#      x y z
#    x 1.736360 0.000000 -0.005580 
#    y 0.000000 1.760250 0.000000 
#    z -0.005580 0.000000 1.731630 
# 
# From -- ./inp_files/49461.got.cif
#   From: 2010.05.17/outbox.cif.g08.bks.cpg/sg10_25_cif.got.tgz:49461.got - 2010.06.03 11:33:40.
