data_PCOD9148608
_publ_section_title
;
Structure prediction by ZEFSAII (Michael W. Deem and Ramdas Pophale) SiO2 
 PCOD9148608
Probable space group: P 2/M
;
_chemical_formula_sum "Si O2"
_cell_formula_units_Z 32
_cell_length_a 13.871161
_cell_length_b 13.522232
_cell_length_c 9.414714
_cell_angle_alpha 90.000000
_cell_angle_beta 116.552397
_cell_angle_gamma 90.000000
_cell_volume 1579.651433
_symmetry_space_group_name_H-M "P 2/M"
_symmetry_group_IT_number 10
_symmetry_cell_setting 'monoclinic'
loop_
_space_group_symop_operation_xyz
x,y,z
-x,y,-z
-x,-y,-z
x,-y,z
loop_
_atom_site_type_symbol
_atom_site_label
_atom_site_fract_x
_atom_site_fract_y
_atom_site_fract_z
Si Si1 0.351600 0.193442 0.103095
Si Si2 0.103730 0.792904 0.993692
Si Si3 0.408243 0.386741 0.318727
Si Si4 0.321450 0.885691 0.779038
Si Si5 0.460112 0.110923 0.619253
Si Si6 0.894071 0.201358 0.336431
Si Si7 0.123486 0.608213 0.530413
Si Si8 0.839484 0.387986 0.772080
O O1 0.396485 0.298632 0.193900
O O2 0.432984 0.112770 0.216701
O O3 0.229212 0.171384 0.075996
O O4 0.353940 0.180542 0.935232
O O5 0.078604 0.786407 0.810440
O O6 0.116046 0.689439 0.085601
O O7 0.000000 0.844373 0.000000
O O8 0.500000 0.374254 0.500000
O O9 0.421332 0.500000 0.269726
O O10 0.290213 0.383332 0.312994
O O11 0.368796 0.846043 0.661395
O O12 0.192434 0.883553 0.695531
O O13 0.358750 0.000000 0.819882
O O14 0.500000 0.159813 0.500000
O O15 0.423378 0.000000 0.558093
O O16 0.833743 0.301221 0.349968
O O17 0.000000 0.187589 0.500000
O O18 0.174795 0.500000 0.583905
O O19 0.124127 0.632483 0.364451
O O20 0.000000 0.600813 0.500000
O O21 0.871586 0.500000 0.830036
#
# Coordination Sequence:
#
# PCOD9148608 Si02
#       8
#     4   4   4   4   4   4   4   4
#     4  10  20  35  58  83 110 148 185 223 277 336
#     4  10  20  33  50  75 106 142 184 225 268 320
#     4   9  18  33  54  84 119 151 185 225 270 324
#     4  10  22  40  60  82 110 143 182 233 288 339
#     4  10  21  37  60  88 110 134 178 233 285 336
#     4  10  21  35  54  79 109 148 187 228 280 335
#     4   9  17  30  48  73 106 141 178 222 267 313
#     4   9  18  32  51  75 105 145 187 224 266 315
#
# _framework density 20.257633999999999
#
# number of rings (size 3 to 8) (size 9 to 14) (size 15 to 20)
#    0.000    2.375    0.000    2.625    0.000    6.000 
#    0.000    1.875    0.000   10.875    0.000    0.000 
#    0.000    0.000    0.000    0.000    0.000    0.000 
#
# Total GULP energy -178146.635359 kJ/mol
# GULP energy per Si atom -5567.082355 kJ/mol
# Density = 2.021153 g / cm^3
# Si number density = 20.257634 Si / 1000 Ang^3
#
#
#
# Elastic Constant Matrix: (Units=GPa)
#
#
# Indices 1 2 3 4 5 6 
#
# 1 104.2902 23.3456 56.2566 0.0000 -26.3769 0.0000
# 2 23.3456 69.3151 19.4252 0.0000 -10.5646 0.0000
# 3 56.2566 19.4252 107.1577 0.0000 -14.2839 0.0000
# 4 0.0000 0.0000 0.0000 15.9038 0.0000 1.2873
# 5 -26.3769 -10.5646 -14.2839 0.0000 45.5467 0.0000
# 6 0.0000 0.0000 0.0000 1.2873 0.0000 12.2769
#
#
#
# Elastic Compliance Matrix: (Units=1/GPa)
#
#
# Indices 1 2 3 4 5 6 
#
# 1 0.015354 -0.002314 -0.006812 0.000000 0.006219 0.000000
# 2 -0.002314 0.015892 -0.001412 0.000000 0.001903 0.000000
# 3 -0.006812 -0.001412 0.013144 0.000000 -0.000150 0.000000
# 4 0.000000 0.000000 0.000000 0.063416 0.000000 -0.006649
# 5 0.006219 0.001903 -0.000150 0.000000 0.025951 0.000000
# 6 0.000000 0.000000 0.000000 -0.006649 0.000000 0.082151
#
#
# Mechanical properties :
#
#
# Convention : Reuss Voigt Hill
#
# Bulk Modulus (GPa) = 42.89460 53.20196 48.04828
# Shear Modulus (GPa) = 20.42833 26.86117 23.64475
#
# Velocity S-wave (km/s) = 3.17902 3.64535 3.42014
# Velocity P-wave (km/s) = 5.89028 6.63610 6.27428
#
# Compressibility (1/GPa) = 0.02331296
#
# Stress axis : x y z
#
# Youngs Moduli (GPa) = 65.12849 62.92399 76.07824
#
# Poissons Ratio (x) = 0.14563 0.51827
# Poissons Ratio (y) = 0.15074 0.10744
# Poissons Ratio (z) = 0.44368 0.08886
#
# Static dielectric constant tensor:
#      x y z
#    x 1.747720 0.000000 0.001360 
#    y 0.000000 1.842060 0.000000 
#    z 0.001360 0.000000 1.747740 
# 
# From -- ./inp_files/29530.got.cif
#   From: 2010.05.17/outbox.cif.g08.bks.cpg/sg10_15_cif.got.tgz:29530.got - 2010.06.03 11:33:40.
