data_PCOD9148658
_publ_section_title
;
Structure prediction by ZEFSAII (Michael W. Deem and Ramdas Pophale) SiO2 
 PCOD9148658
Probable space group: P 2/M
;
_chemical_formula_sum "Si O2"
_cell_formula_units_Z 32
_cell_length_a 26.162148
_cell_length_b 9.084879
_cell_length_c 15.884276
_cell_angle_alpha 90.000000
_cell_angle_beta 29.800572
_cell_angle_gamma 90.000000
_cell_volume 1876.295232
_symmetry_space_group_name_H-M "P 2/M"
_symmetry_group_IT_number 10
_symmetry_cell_setting 'monoclinic'
loop_
_space_group_symop_operation_xyz
x,y,z
-x,y,-z
-x,-y,-z
x,-y,z
loop_
_atom_site_type_symbol
_atom_site_label
_atom_site_fract_x
_atom_site_fract_y
_atom_site_fract_z
Si Si1 0.541776 0.675374 0.575560
Si Si2 0.396564 0.330171 0.037733
Si Si3 0.851960 0.174634 0.877127
Si Si4 0.820833 0.327066 0.742135
Si Si5 0.912091 0.824764 0.448850
Si Si6 0.663872 0.324825 0.229322
Si Si7 0.729868 0.674803 0.611956
Si Si8 0.588304 0.174350 0.684712
O O1 0.543116 0.500000 0.591696
O O2 0.426876 0.712234 0.707370
O O3 0.616694 0.701911 0.389105
O O4 0.573485 0.764349 0.612015
O O5 0.433770 0.500000 0.980469
O O6 0.298321 0.316182 0.116523
O O7 0.351826 0.303183 0.194734
O O8 0.486405 0.223302 0.881331
O O9 0.837012 0.255517 0.809331
O O10 0.968360 0.201858 0.741021
O O11 0.839587 0.000000 0.882952
O O12 0.765809 0.236267 0.062667
O O13 0.847484 0.500000 0.704785
O O14 0.885830 0.244007 0.577637
O O15 0.834793 0.748551 0.494042
O O16 0.893654 0.000000 0.477582
O O17 0.682972 0.500000 0.194351
O O18 0.743108 0.500000 0.583347
O O19 0.683270 0.748545 0.596087
O O20 0.599843 0.000000 0.668810
#
# Coordination Sequence:
#
# PCOD9148658 Si02
#       8
#     4   4   4   4   4   4   4   4
#     4   9  19  37  57  78 105 135 168 209 255 301
#     4   9  19  34  50  72 103 137 173 213 254 296
#     4  11  22  33  50  77 108 139 169 209 261 309
#     4  10  20  33  51  75 104 140 180 216 249 295
#     4  10  21  36  51  72 105 139 172 214 261 304
#     4   9  19  36  58  80 103 134 171 210 252 302
#     4  10  21  37  55  73  98 137 179 217 255 297
#     4  12  23  32  50  79 106 136 171 208 255 309
#
# _framework density 17.054884999999999
#
# number of rings (size 3 to 8) (size 9 to 14) (size 15 to 20)
#    0.000    2.000    0.000    5.625    0.000   12.000 
#    0.000    1.250    0.000    0.750    0.000    5.250 
#    0.000    0.000    0.000    0.000    0.000    0.000 
#
# Total GULP energy -178773.241336 kJ/mol
# GULP energy per Si atom -5586.663792 kJ/mol
# Density = 1.701607 g / cm^3
# Si number density = 17.054885 Si / 1000 Ang^3
#
#
#
# Elastic Constant Matrix: (Units=GPa)
#
#
# Indices 1 2 3 4 5 6 
#
# 1 100.2820 70.2665 37.5796 0.0000 -1.1461 0.0000
# 2 70.2665 107.6471 63.9285 0.0000 -7.5182 0.0000
# 3 37.5796 63.9285 83.8092 0.0000 -14.7429 0.0000
# 4 0.0000 0.0000 0.0000 29.2208 0.0000 -3.3779
# 5 -1.1461 -7.5182 -14.7429 0.0000 7.2246 0.0000
# 6 0.0000 0.0000 0.0000 -3.3779 0.0000 29.9555
#
#
#
# Elastic Compliance Matrix: (Units=1/GPa)
#
#
# Indices 1 2 3 4 5 6 
#
# 1 0.019151 -0.012749 -0.001032 0.000000 -0.012336 0.000000
# 2 -0.012749 0.026382 -0.015496 0.000000 -0.006190 0.000000
# 3 -0.001032 -0.015496 0.033305 0.000000 0.051674 0.000000
# 4 0.000000 0.000000 0.000000 0.034674 0.000000 0.003910
# 5 -0.012336 -0.006190 0.051674 0.000000 0.235466 0.000000
# 6 0.000000 0.000000 0.000000 0.003910 0.000000 0.033824
#
#
# Mechanical properties :
#
#
# Convention : Reuss Voigt Hill
#
# Bulk Modulus (GPa) = 49.30289 70.58750 59.94519
# Shear Modulus (GPa) = 11.15777 21.27776 16.21777
#
# Velocity S-wave (km/s) = 2.56056 3.53598 3.08704
# Velocity P-wave (km/s) = 6.14110 7.62556 6.92323
#
# Compressibility (1/GPa) = 0.02028279
#
# Stress axis : x y z
#
# Youngs Moduli (GPa) = 52.21640 37.90443 30.02565
#
# Poissons Ratio (x) = 0.48326 0.03099
# Poissons Ratio (y) = 0.66573 0.46528
# Poissons Ratio (z) = 0.05389 0.58737
#
# Static dielectric constant tensor:
#      x y z
#    x 1.569280 0.000000 -0.009860 
#    y 0.000000 1.563350 0.000000 
#    z -0.009860 0.000000 1.565980 
# 
# From -- ./inp_files/66477.got.cif
#   From: 2010.05.17/outbox.cif.g08.bks.cpg/sg10_34_cif.got.tgz:66477.got - 2010.06.03 11:33:40.
