data_PCOD9148367
_publ_section_title
;
Structure prediction by ZEFSAII (Michael W. Deem and Ramdas Pophale) SiO2 
 PCOD9148367
Probable space group: P 2/M
;
_chemical_formula_sum "Si O2"
_cell_formula_units_Z 28
_cell_length_a 22.717498
_cell_length_b 7.762223
_cell_length_c 26.282046
_cell_angle_alpha 90.000000
_cell_angle_beta 15.869959
_cell_angle_gamma 90.000000
_cell_volume 1267.335314
_symmetry_space_group_name_H-M "P 2/M"
_symmetry_group_IT_number 10
_symmetry_cell_setting 'monoclinic'
loop_
_space_group_symop_operation_xyz
x,y,z
-x,y,-z
-x,-y,-z
x,-y,z
loop_
_atom_site_type_symbol
_atom_site_label
_atom_site_fract_x
_atom_site_fract_y
_atom_site_fract_z
Si Si1 0.790518 0.698485 0.372158
Si Si2 0.048311 0.706596 0.250627
Si Si3 0.309793 0.207284 0.121547
Si Si4 0.605953 0.000000 0.466984
Si Si5 0.352560 0.706596 0.348502
Si Si6 0.915565 0.207285 0.515775
Si Si7 0.360184 0.698485 0.802491
Si Si8 0.185792 0.000000 0.887144
O O1 0.822810 0.500000 0.329339
O O2 0.989165 0.759014 0.242629
O O3 0.741930 0.829888 0.367481
O O4 0.579620 0.697964 0.585190
O O5 0.032120 0.500000 0.263440
O O6 0.850854 0.777374 0.449573
O O7 0.268525 0.748957 0.096993
O O8 0.098158 0.273075 0.325921
O O9 0.318008 0.000000 0.116792
O O10 0.500000 0.270416 0.000000
O O11 0.500000 0.000000 0.500000
O O12 0.408274 0.000000 0.670863
O O13 0.349883 0.500000 0.354558
O O14 0.306452 0.748955 0.328030
O O15 0.561989 0.759013 0.206217
O O16 0.000000 0.270415 0.500000
O O17 0.921190 0.000000 0.513610
O O18 0.285783 0.500000 0.866365
O O19 0.195714 0.829888 0.913697
O O20 0.000000 0.000000 0.000000
#
# Coordination Sequence:
#
# PCOD9148367 Si02
#       8
#     4   4   4   2   4   4   4   2
#     4   8  15  28  46  70  96 119 150 193 231 263
#     4   8  14  25  42  64  86 109 144 188 224 252
#     4   9  17  27  40  60  86 114 144 179 220 262
#     4  10  20  32  50  74  97 122 152 182 223 276
#     4   8  14  25  42  64  86 109 144 188 224 252
#     4   9  17  27  40  60  86 114 144 179 220 262
#     4   8  15  28  46  70  96 119 150 193 231 263
#     4  10  20  32  50  74  97 122 152 182 223 276
#
# _framework density 22.093601
#
# number of rings (size 3 to 8) (size 9 to 14) (size 15 to 20)
#    0.000    3.429    0.000    1.714    2.000    1.143 
#    0.000    0.000    0.000    1.714    0.000    4.000 
#    0.000    0.000    0.000    0.000    0.000    0.000 
#
# Total GULP energy -155918.580333 kJ/mol
# GULP energy per Si atom -5568.520726 kJ/mol
# Density = 2.204331 g / cm^3
# Si number density = 22.093601 Si / 1000 Ang^3
#
#
#
# Elastic Constant Matrix: (Units=GPa)
#
#
# Indices 1 2 3 4 5 6 
#
# 1 194.5638 70.5581 48.4197 0.0000 -74.4781 0.0000
# 2 70.5581 79.2993 22.1408 0.0000 -32.8708 0.0000
# 3 48.4197 22.1408 50.8428 0.0000 -23.0923 0.0000
# 4 0.0000 0.0000 0.0000 9.7903 0.0000 -25.3299
# 5 -74.4781 -32.8708 -23.0923 0.0000 53.1047 0.0000
# 6 0.0000 0.0000 0.0000 -25.3299 0.0000 47.1009
#
#
#
# Elastic Compliance Matrix: (Units=1/GPa)
#
#
# Indices 1 2 3 4 5 6 
#
# 1 0.013183 -0.004905 -0.004237 0.000000 0.013610 0.000000
# 2 -0.004905 0.019233 -0.001772 0.000000 0.004255 0.000000
# 3 -0.004237 -0.001772 0.026515 0.000000 0.004491 0.000000
# 4 0.000000 0.000000 0.000000 -0.260987 0.000000 -0.140353
# 5 0.013610 0.004255 0.004491 0.000000 0.042505 0.000000
# 6 0.000000 0.000000 0.000000 -0.140353 0.000000 -0.054248
#
#
# Mechanical properties :
#
#
# Convention : Reuss Voigt Hill
#
# Bulk Modulus (GPa) = 26.95143 67.43812 47.19478
# Shear Modulus (GPa) = -27.83912 34.23832 3.19960
#
# Velocity S-wave (km/s) = -3.55357 3.94089 1.20472
# Velocity P-wave (km/s) = 2.14755 7.16223 4.83144
#
# Compressibility (1/GPa) = 0.03710378
#
# Stress axis : x y z
#
# Youngs Moduli (GPa) = 75.85664 51.99263 37.71485
#
# Poissons Ratio (x) = 0.25503 0.15979
# Poissons Ratio (y) = 0.37209 0.06681
# Poissons Ratio (z) = 0.32140 0.09211
#
# Static dielectric constant tensor:
#      x y z
#    x 1.876730 0.000000 0.003490 
#    y 0.000000 1.784380 0.000000 
#    z 0.003490 0.000000 1.881870 
# 
# From -- ./inp_files/93546.got.cif
#   From: 2010.05.17/outbox.cif.g08.bks.cpg/sg10_47_cif.got.tgz:93546.got - 2010.06.03 11:33:40.
