data_PCOD9148769
_publ_section_title
;
Structure prediction by ZEFSAII (Michael W. Deem and Ramdas Pophale) SiO2 
 PCOD9148769
Probable space group: P 2/M
;
_chemical_formula_sum "Si O2"
_cell_formula_units_Z 32
_cell_length_a 24.745808
_cell_length_b 9.247029
_cell_length_c 15.349245
_cell_angle_alpha 90.000000
_cell_angle_beta 28.320220
_cell_angle_gamma 90.000000
_cell_volume 1666.228485
_symmetry_space_group_name_H-M "P 2/M"
_symmetry_group_IT_number 10
_symmetry_cell_setting 'monoclinic'
loop_
_space_group_symop_operation_xyz
x,y,z
-x,y,-z
-x,-y,-z
x,-y,z
loop_
_atom_site_type_symbol
_atom_site_label
_atom_site_fract_x
_atom_site_fract_y
_atom_site_fract_z
Si Si1 0.544512 0.336836 0.030054
Si Si2 0.502776 0.327955 0.600396
Si Si3 0.956946 0.333720 0.960422
Si Si4 0.119195 0.172146 0.374655
Si Si5 0.820663 0.831374 0.399600
Si Si6 0.634597 0.173000 0.061738
Si Si7 0.734446 0.170852 0.324431
Si Si8 0.212052 0.659275 0.395862
O O1 0.495459 0.500000 0.114560
O O2 0.548401 0.235778 0.109309
O O3 0.500000 0.279642 0.000000
O O4 0.677345 0.355238 0.820477
O O5 0.500000 0.307781 0.500000
O O6 0.503081 0.500000 0.617853
O O7 0.400724 0.252246 0.798907
O O8 0.617949 0.252312 0.470313
O O9 0.946333 0.500000 0.946537
O O10 0.055523 0.243548 0.773664
O O11 0.837999 0.249321 0.127435
O O12 0.000000 0.337160 0.000000
O O13 0.127734 0.250378 0.455440
O O14 0.000000 0.214071 0.500000
O O15 0.118731 0.000000 0.389455
O O16 0.233869 0.201036 0.154494
O O17 0.766969 0.816529 0.380388
O O18 0.751861 0.745494 0.569661
O O19 0.828970 0.000000 0.408114
O O20 0.619945 0.000000 0.089314
O O21 0.727899 0.000000 0.313011
O O22 0.169676 0.500000 0.479188
#
# Coordination Sequence:
#
# PCOD9148769 Si02
#       8
#     4   4   4   4   4   4   4   4
#     4   9  19  35  55  83 118 157 193 230 283 352
#     4  11  25  44  63  84 115 157 203 253 303 357
#     4   9  17  32  54  80 111 148 188 231 281 340
#     4   9  19  39  63  85 115 154 193 236 293 356
#     4  10  20  34  54  83 119 153 190 236 291 350
#     4  10  21  38  62  90 117 151 194 247 302 352
#     4  10  21  37  59  85 113 151 194 241 298 354
#     4  10  20  33  52  83 118 151 190 235 284 340
#
# _framework density 19.205048999999999
#
# number of rings (size 3 to 8) (size 9 to 14) (size 15 to 20)
#    0.000    2.250    0.000    2.250    1.750    5.500 
#    2.250    0.000    0.000    0.000    0.000    0.000 
#    0.000    0.000    0.000    0.000    0.000    0.000 
#
# Total GULP energy -178393.815788 kJ/mol
# GULP energy per Si atom -5574.806743 kJ/mol
# Density = 1.916134 g / cm^3
# Si number density = 19.205049 Si / 1000 Ang^3
#
#
#
# Elastic Constant Matrix: (Units=GPa)
#
#
# Indices 1 2 3 4 5 6 
#
# 1 63.3411 49.9021 23.2862 0.0000 -1.6373 0.0000
# 2 49.9021 119.4338 53.9821 0.0000 9.7406 0.0000
# 3 23.2862 53.9821 66.7817 0.0000 2.6127 0.0000
# 4 0.0000 0.0000 0.0000 26.8869 0.0000 3.0623
# 5 -1.6373 9.7406 2.6127 0.0000 28.5558 0.0000
# 6 0.0000 0.0000 0.0000 3.0623 0.0000 23.4178
#
#
#
# Elastic Compliance Matrix: (Units=1/GPa)
#
#
# Indices 1 2 3 4 5 6 
#
# 1 0.024205 -0.010424 -0.000208 0.000000 0.004963 0.000000
# 2 -0.010424 0.018048 -0.010728 0.000000 -0.005772 0.000000
# 3 -0.000208 -0.010728 0.023661 0.000000 0.001483 0.000000
# 4 0.000000 0.000000 0.000000 0.037755 0.000000 -0.004937
# 5 0.004963 -0.005772 0.001483 0.000000 0.037137 0.000000
# 6 0.000000 0.000000 0.000000 -0.004937 0.000000 0.043348
#
#
# Mechanical properties :
#
#
# Convention : Reuss Voigt Hill
#
# Bulk Modulus (GPa) = 43.11675 55.98860 49.55268
# Shear Modulus (GPa) = 21.31241 23.93118 22.62180
#
# Velocity S-wave (km/s) = 3.33487 3.53383 3.43579
# Velocity P-wave (km/s) = 6.10966 6.77251 6.44961
#
# Compressibility (1/GPa) = 0.02319284
#
# Stress axis : x y z
#
# Youngs Moduli (GPa) = 41.31445 55.40795 42.26409
#
# Poissons Ratio (x) = 0.57757 0.00879
# Poissons Ratio (y) = 0.43066 0.45342
# Poissons Ratio (z) = 0.00860 0.59443
#
# Static dielectric constant tensor:
#      x y z
#    x 1.664480 0.000000 0.007340 
#    y 0.000000 1.672920 0.000000 
#    z 0.007340 0.000000 1.710450 
# 
# From -- ./inp_files/71556.got.cif
#   From: 2010.05.17/outbox.cif.g08.bks.cpg/sg10_36_cif.got.tgz:71556.got - 2010.06.03 11:33:40.
