data_PCOD9148381
_publ_section_title
;
Structure prediction by ZEFSAII (Michael W. Deem and Ramdas Pophale) SiO2 
 PCOD9148381
Probable space group: P 2/M
;
_chemical_formula_sum "Si O2"
_cell_formula_units_Z 24
_cell_length_a 7.454833
_cell_length_b 13.063007
_cell_length_c 14.076587
_cell_angle_alpha 90.000000
_cell_angle_beta 81.049156
_cell_angle_gamma 90.000000
_cell_volume 1354.120223
_symmetry_space_group_name_H-M "P 2/M"
_symmetry_group_IT_number 10
_symmetry_cell_setting 'monoclinic'
loop_
_space_group_symop_operation_xyz
x,y,z
-x,y,-z
-x,-y,-z
x,-y,z
loop_
_atom_site_type_symbol
_atom_site_label
_atom_site_fract_x
_atom_site_fract_y
_atom_site_fract_z
Si Si1 0.441902 0.121034 0.110639
Si Si2 0.874457 0.190821 0.738740
Si Si3 0.292073 0.120757 0.737106
Si Si4 0.359740 0.280590 0.576937
Si Si5 0.000481 0.616729 0.385390
Si Si6 0.209639 0.891628 0.450848
O O1 0.268250 0.182359 0.164606
O O2 0.611468 0.131500 0.169002
O O3 0.392379 0.000000 0.113345
O O4 0.500000 0.150905 0.000000
O O5 0.796160 0.119583 0.661354
O O6 0.887533 0.300485 0.684178
O O7 0.078754 0.153513 0.748641
O O8 0.396149 0.200757 0.659219
O O9 0.304488 0.000000 0.708627
O O10 0.291107 0.201429 0.501690
O O11 0.206280 0.357240 0.624940
O O12 0.052562 0.500000 0.363116
O O13 0.000000 0.633403 0.500000
O O14 0.500000 0.657963 0.500000
O O15 0.000000 0.892846 0.500000
O O16 0.294408 0.000000 0.470433
#
# Coordination Sequence:
#
# PCOD9148381 Si02
#       6
#     4   4   4   4   4   4
#     4  10  22  37  54  80 111 140 175 220 265 312
#     4  11  19  35  55  75 104 145 180 215 262 312
#     4  10  20  32  50  77 107 142 179 211 252 313
#     4  11  20  30  47  75 108 139 174 213 257 313
#     4  10  20  36  53  73 103 140 180 216 262 317
#     4  11  18  28  46  73 108 143 172 200 246 311
#
# _framework density 17.723685
#
# number of rings (size 3 to 8) (size 9 to 14) (size 15 to 20)
#    0.000    1.500    5.000    3.000    0.000    3.667 
#    0.000    2.500    0.000    0.500    0.000    4.667 
#    0.000    0.000    0.000    0.000    0.000    0.000 
#
# Total GULP energy -133740.720970 kJ/mol
# GULP energy per Si atom -5572.530040 kJ/mol
# Density = 1.768334 g / cm^3
# Si number density = 17.723685 Si / 1000 Ang^3
#
#
#
# Elastic Constant Matrix: (Units=GPa)
#
#
# Indices 1 2 3 4 5 6 
#
# 1 55.2052 11.8149 35.5282 0.0000 -2.8437 0.0000
# 2 11.8149 84.8102 31.8579 0.0000 -5.9225 0.0000
# 3 35.5282 31.8579 126.7736 0.0000 -12.4264 0.0000
# 4 0.0000 0.0000 0.0000 18.2536 0.0000 -3.9931
# 5 -2.8437 -5.9225 -12.4264 0.0000 27.2638 0.0000
# 6 0.0000 0.0000 0.0000 -3.9931 0.0000 16.3207
#
#
#
# Elastic Compliance Matrix: (Units=1/GPa)
#
#
# Indices 1 2 3 4 5 6 
#
# 1 0.022164 -0.000856 -0.006059 0.000000 -0.000636 0.000000
# 2 -0.000856 0.013104 -0.002913 0.000000 0.001430 0.000000
# 3 -0.006059 -0.002913 0.010671 0.000000 0.003599 0.000000
# 4 0.000000 0.000000 0.000000 0.057882 0.000000 0.014161
# 5 -0.000636 0.001430 0.003599 0.000000 0.038563 0.000000
# 6 0.000000 0.000000 0.000000 0.014161 0.000000 0.064737
#
#
# Mechanical properties :
#
#
# Convention : Reuss Voigt Hill
#
# Bulk Modulus (GPa) = 38.04676 47.24343 42.64509
# Shear Modulus (GPa) = 21.22805 24.87346 23.05076
#
# Velocity S-wave (km/s) = 3.46457 3.75027 3.61024
# Velocity P-wave (km/s) = 6.12515 6.74285 6.44141
#
# Compressibility (1/GPa) = 0.02628345
#
# Stress axis : x y z
#
# Youngs Moduli (GPa) = 45.11861 76.31029 93.71399
#
# Poissons Ratio (x) = 0.06534 0.56777
# Poissons Ratio (y) = 0.03863 0.27299
# Poissons Ratio (z) = 0.27335 0.22229
#
# Static dielectric constant tensor:
#      x y z
#    x 1.866710 0.000000 -0.103550 
#    y 0.000000 1.617390 0.000000 
#    z -0.103550 0.000000 1.646330 
# 
# From -- ./inp_files/59034.got.cif
#   From: 2010.05.17/outbox.cif.g08.bks.cpg/sg10_30_cif.got.tgz:59034.got - 2010.06.03 11:33:40.
