data_PCOD9148915
_publ_section_title
;
Structure prediction by ZEFSAII (Michael W. Deem and Ramdas Pophale) SiO2 
 PCOD9148915
Probable space group: P 2/M
;
_chemical_formula_sum "Si O2"
_cell_formula_units_Z 28
_cell_length_a 14.014694
_cell_length_b 8.390058
_cell_length_c 19.541922
_cell_angle_alpha 90.000000
_cell_angle_beta 38.341970
_cell_angle_gamma 90.000000
_cell_volume 1425.460716
_symmetry_space_group_name_H-M "P 2/M"
_symmetry_group_IT_number 10
_symmetry_cell_setting 'monoclinic'
loop_
_space_group_symop_operation_xyz
x,y,z
-x,y,-z
-x,-y,-z
x,-y,z
loop_
_atom_site_type_symbol
_atom_site_label
_atom_site_fract_x
_atom_site_fract_y
_atom_site_fract_z
Si Si1 0.377245 0.691656 0.418863
Si Si2 0.659680 0.689906 0.167603
Si Si3 0.806597 0.810214 0.955595
Si Si4 0.138791 0.193036 0.828587
Si Si5 0.940389 0.690001 0.750666
Si Si6 0.731200 0.187505 0.382343
Si Si7 0.043677 0.306370 0.550267
O O1 0.952227 0.500000 0.455909
O O2 0.514546 0.750497 0.293456
O O3 0.377695 0.741408 0.498209
O O4 0.213791 0.744415 0.478665
O O5 0.650933 0.500000 0.167791
O O6 0.806301 0.739045 0.130739
O O7 0.677054 0.758500 0.081894
O O8 0.968953 0.758868 0.899462
O O9 0.809260 0.736639 0.878245
O O10 0.809182 0.000000 0.947903
O O11 0.257323 0.247549 0.702113
O O12 0.140996 0.000000 0.830873
O O13 0.967929 0.500000 0.739622
O O14 0.095162 0.778688 0.688601
O O15 0.927140 0.732344 0.677992
O O16 0.702486 0.000000 0.395867
O O17 0.379942 0.500000 0.416278
O O18 0.000000 0.245522 0.500000
#
# Coordination Sequence:
#
# PCOD9148915 Si02
#       7
#     4   4   4   4   4   4   4
#     4   9  19  33  47  69  99 125 154 194 238 284
#     4  11  22  32  45  67  95 127 161 200 242 278
#     4  10  20  34  50  67  92 127 166 201 231 272
#     4   9  19  33  47  66  91 122 163 205 237 271
#     4   9  16  28  49  75  99 121 151 193 236 276
#     4   9  17  30  48  68  93 126 161 195 233 279
#     4   8  14  28  53  79  98 118 146 185 233 282
#
# _framework density 19.642772000000001
#
# number of rings (size 3 to 8) (size 9 to 14) (size 15 to 20)
#    0.000    2.714    0.000    3.857    0.000    6.857 
#    0.000    2.857    0.000   11.571    0.000    6.000 
#    0.000    0.000    0.000    0.000    0.000    0.000 
#
# Total GULP energy -156085.992525 kJ/mol
# GULP energy per Si atom -5574.499733 kJ/mol
# Density = 1.959806 g / cm^3
# Si number density = 19.642772 Si / 1000 Ang^3
#
#
#
# Elastic Constant Matrix: (Units=GPa)
#
#
# Indices 1 2 3 4 5 6 
#
# 1 37.3527 4.0619 30.1386 0.0000 28.3445 0.0000
# 2 4.0619 11.8966 16.1390 0.0000 3.8042 0.0000
# 3 30.1386 16.1390 161.2745 0.0000 37.7630 0.0000
# 4 0.0000 0.0000 0.0000 47.7506 0.0000 18.4476
# 5 28.3445 3.8042 37.7630 0.0000 32.8577 0.0000
# 6 0.0000 0.0000 0.0000 18.4476 0.0000 16.0327
#
#
#
# Elastic Compliance Matrix: (Units=1/GPa)
#
#
# Indices 1 2 3 4 5 6 
#
# 1 0.078437 -0.007808 0.002401 0.000000 -0.069519 0.000000
# 2 -0.007808 0.098039 -0.009948 0.000000 0.006818 0.000000
# 3 0.002401 -0.009948 0.009526 0.000000 -0.011868 0.000000
# 4 0.000000 0.000000 0.000000 0.037701 0.000000 -0.043380
# 5 -0.069519 0.006818 -0.011868 0.000000 0.103255 0.000000
# 6 0.000000 0.000000 0.000000 -0.043380 0.000000 0.112286
#
#
# Mechanical properties :
#
#
# Convention : Reuss Voigt Hill
#
# Bulk Modulus (GPa) = 6.43948 34.57809 20.50878
# Shear Modulus (GPa) = 9.58371 30.00716 19.79544
#
# Velocity S-wave (km/s) = 2.21124 3.91275 3.17799
# Velocity P-wave (km/s) = 3.13127 6.16883 4.89180
#
# Compressibility (1/GPa) = 0.15529210
#
# Stress axis : x y z
#
# Youngs Moduli (GPa) = 12.74916 10.19998 104.97137
#
# Poissons Ratio (x) = 0.07964 -0.25208
# Poissons Ratio (y) = 0.09955 1.04429
# Poissons Ratio (z) = -0.03062 0.10147
#
# Static dielectric constant tensor:
#      x y z
#    x 1.690400 0.000000 0.002130 
#    y 0.000000 1.669130 0.000000 
#    z 0.002130 0.000000 1.767580 
# 
# From -- ./inp_files/54677.got.cif
#   From: 2010.05.17/outbox.cif.g08.bks.cpg/sg10_28_cif.got.tgz:54677.got - 2010.06.03 11:33:40.
