data_PCOD9148720
_publ_section_title
;
Structure prediction by ZEFSAII (Michael W. Deem and Ramdas Pophale) SiO2 
 PCOD9148720
Probable space group: P 2/M
;
_chemical_formula_sum "Si O2"
_cell_formula_units_Z 28
_cell_length_a 9.370478
_cell_length_b 7.715943
_cell_length_c 15.723757
_cell_angle_alpha 90.000000
_cell_angle_beta 95.705767
_cell_angle_gamma 90.000000
_cell_volume 1131.227748
_symmetry_space_group_name_H-M "P 2/M"
_symmetry_group_IT_number 10
_symmetry_cell_setting 'monoclinic'
loop_
_space_group_symop_operation_xyz
x,y,z
-x,y,-z
-x,-y,-z
x,-y,z
loop_
_atom_site_type_symbol
_atom_site_label
_atom_site_fract_x
_atom_site_fract_y
_atom_site_fract_z
Si Si1 0.199897 0.705953 0.182201
Si Si2 0.627073 0.286703 0.642362
Si Si3 0.361608 0.299143 0.722938
Si Si4 0.879379 0.304046 0.551662
Si Si5 0.039267 0.197696 0.722726
Si Si6 0.424433 0.200769 0.910779
Si Si7 0.165163 0.289793 0.997220
O O1 0.219561 0.500000 0.181568
O O2 0.288828 0.772907 0.267581
O O3 0.237018 0.769573 0.090828
O O4 0.033270 0.742095 0.194033
O O5 0.628867 0.500000 0.640173
O O6 0.464573 0.234218 0.653316
O O7 0.722856 0.230597 0.567345
O O8 0.332225 0.500000 0.704736
O O9 0.208805 0.210580 0.723777
O O10 0.440689 0.286002 0.819431
O O11 0.855645 0.500000 0.516538
O O12 0.000000 0.216035 0.500000
O O13 0.961508 0.310899 0.646429
O O14 0.996509 0.000000 0.705776
O O15 0.464575 0.000000 0.905351
O O16 0.500000 0.277681 0.000000
O O17 0.256491 0.213608 0.926243
O O18 0.170758 0.500000 0.990596
O O19 0.000000 0.240901 0.000000
#
# Coordination Sequence:
#
# PCOD9148720 Si02
#       7
#     4   4   4   4   4   4   4
#     4   9  17  33  54  76 103 136 182 230 269 319
#     4   8  16  31  54  81 103 132 177 223 264 309
#     4  11  21  36  57  78 106 144 187 229 267 316
#     4   9  18  37  64  89 112 139 176 221 265 316
#     4  11  22  35  54  82 115 147 179 218 270 327
#     4  11  24  38  52  76 111 146 182 227 280 332
#     4  10  20  33  52  77 102 135 182 231 274 318
#
# _framework density 24.751867000000001
#
# number of rings (size 3 to 8) (size 9 to 14) (size 15 to 20)
#    0.000    2.143    0.000    4.714    0.000    4.571 
#    0.000    7.857    0.000    4.286    0.000    0.000 
#    0.000    0.000    0.000    0.000    0.000    0.000 
#
# Total GULP energy -156360.686700 kJ/mol
# GULP energy per Si atom -5584.310239 kJ/mol
# Density = 2.469553 g / cm^3
# Si number density = 24.751867 Si / 1000 Ang^3
#
#
#
# Elastic Constant Matrix: (Units=GPa)
#
#
# Indices 1 2 3 4 5 6 
#
# 1 104.3987 -10.5651 23.0637 0.0000 -44.5954 0.0000
# 2 -10.5651 57.1850 -2.8563 0.0000 0.5207 0.0000
# 3 23.0637 -2.8563 61.0207 0.0000 -42.6209 0.0000
# 4 0.0000 0.0000 0.0000 14.3432 0.0000 -3.8774
# 5 -44.5954 0.5207 -42.6209 0.0000 57.6349 0.0000
# 6 0.0000 0.0000 0.0000 -3.8774 0.0000 8.2454
#
#
#
# Elastic Compliance Matrix: (Units=1/GPa)
#
#
# Indices 1 2 3 4 5 6 
#
# 1 0.015518 0.002994 0.005466 0.000000 0.016022 0.000000
# 2 0.002994 0.018130 0.002525 0.000000 0.004020 0.000000
# 3 0.005466 0.002525 0.035943 0.000000 0.030787 0.000000
# 4 0.000000 0.000000 0.000000 0.079874 0.000000 0.037561
# 5 0.016022 0.004020 0.030787 0.000000 0.052478 0.000000
# 6 0.000000 0.000000 0.000000 0.037561 0.000000 0.138942
#
#
# Mechanical properties :
#
#
# Convention : Reuss Voigt Hill
#
# Bulk Modulus (GPa) = 10.92165 26.87653 18.89909
# Shear Modulus (GPa) = 14.30875 30.24217 22.27546
#
# Velocity S-wave (km/s) = 2.40695 3.49924 3.00317
# Velocity P-wave (km/s) = 3.48520 5.21615 4.43592
#
# Compressibility (1/GPa) = 0.09156124
#
# Stress axis : x y z
#
# Youngs Moduli (GPa) = 64.43984 55.15780 27.82145
#
# Poissons Ratio (x) = -0.16515 -0.15207
# Poissons Ratio (y) = -0.19294 -0.07024
# Poissons Ratio (z) = -0.35222 -0.13926
#
# Static dielectric constant tensor:
#      x y z
#    x 2.069740 0.000000 0.003010 
#    y 0.000000 1.913810 0.000000 
#    z 0.003010 0.000000 1.982800 
# 
# From -- ./inp_files/74398.got.cif
#   From: 2010.05.17/outbox.cif.g08.bks.cpg/sg10_38_cif.got.tgz:74398.got - 2010.06.03 11:33:40.
