data_PCOD9148589
_publ_section_title
;
Structure prediction by ZEFSAII (Michael W. Deem and Ramdas Pophale) SiO2 
 PCOD9148589
Probable space group: P 2/M
;
_chemical_formula_sum "Si O2"
_cell_formula_units_Z 32
_cell_length_a 11.854279
_cell_length_b 9.442925
_cell_length_c 30.933218
_cell_angle_alpha 90.000000
_cell_angle_beta 150.223352
_cell_angle_gamma 90.000000
_cell_volume 1719.614930
_symmetry_space_group_name_H-M "P 2/M"
_symmetry_group_IT_number 10
_symmetry_cell_setting 'monoclinic'
loop_
_space_group_symop_operation_xyz
x,y,z
-x,y,-z
-x,-y,-z
x,-y,z
loop_
_atom_site_type_symbol
_atom_site_label
_atom_site_fract_x
_atom_site_fract_y
_atom_site_fract_z
Si Si1 0.356463 0.839201 0.514587
Si Si2 0.089599 0.338302 0.360625
Si Si3 0.225282 0.665884 0.309763
Si Si4 0.642123 0.333695 0.269249
Si Si5 0.594731 0.831078 0.961719
Si Si6 0.135567 0.168749 0.861839
Si Si7 0.738170 0.329721 0.922994
Si Si8 0.091980 0.161876 0.575233
O O1 0.269411 0.767595 0.441550
O O2 0.542084 0.745386 0.600913
O O3 0.127752 0.842588 0.467100
O O4 0.437925 0.000000 0.535749
O O5 0.163359 0.500000 0.394782
O O6 0.082021 0.322781 0.306821
O O7 0.847485 0.317337 0.302881
O O8 0.262560 0.500000 0.313132
O O9 0.081856 0.742814 0.225074
O O10 0.625451 0.500000 0.274248
O O11 0.416448 0.287253 0.169359
O O12 0.714715 0.247284 0.335536
O O13 0.347058 0.800060 0.899887
O O14 0.651302 0.746153 0.937370
O O15 0.602337 0.000000 0.955939
O O16 0.773870 0.800058 0.059834
O O17 0.091293 0.000000 0.844304
O O18 0.713493 0.500000 0.919973
O O19 0.000000 0.297882 0.000000
O O20 0.000000 0.225389 0.500000
O O21 0.167637 0.000000 0.592032
#
# Coordination Sequence:
#
# PCOD9148589 Si02
#       8
#     4   4   4   4   4   4   4   4
#     4  10  20  33  50  73 103 136 171 215 266 314
#     4   9  18  32  50  72 102 136 174 216 257 310
#     4  11  21  32  49  77 109 141 174 209 257 319
#     4   9  18  34  55  78 103 137 178 217 264 315
#     4   9  19  37  59  80 105 140 183 227 273 325
#     4   9  19  36  56  79 108 141 178 225 274 323
#     4  10  21  37  56  81 116 149 181 229 279 323
#     4   9  19  37  57  76 100 134 177 223 267 312
#
# _framework density 18.608816999999998
#
# number of rings (size 3 to 8) (size 9 to 14) (size 15 to 20)
#    0.000    2.500    0.000    2.625    0.000    6.000 
#    2.250    3.750    0.000    0.000    0.000    0.000 
#    0.000    0.000    0.000    0.000    0.000    0.000 
#
# Total GULP energy -178545.867734 kJ/mol
# GULP energy per Si atom -5579.558367 kJ/mol
# Density = 1.856646 g / cm^3
# Si number density = 18.608817 Si / 1000 Ang^3
#
#
#
# Elastic Constant Matrix: (Units=GPa)
#
#
# Indices 1 2 3 4 5 6 
#
# 1 35.3962 14.7469 22.4751 0.0000 -17.3506 0.0000
# 2 14.7469 68.9476 75.1006 0.0000 -9.1735 0.0000
# 3 22.4751 75.1006 160.1334 0.0000 -16.8891 0.0000
# 4 0.0000 0.0000 0.0000 28.2194 0.0000 -21.7317
# 5 -17.3506 -9.1735 -16.8891 0.0000 19.0147 0.0000
# 6 0.0000 0.0000 0.0000 -21.7317 0.0000 -25.6373
#
#
#
# Elastic Compliance Matrix: (Units=1/GPa)
#
#
# Indices 1 2 3 4 5 6 
#
# 1 0.052823 -0.004896 -0.000312 0.000000 0.045560 0.000000
# 2 -0.004896 0.030184 -0.013686 0.000000 -0.002062 0.000000
# 3 -0.000312 -0.013686 0.013219 0.000000 0.004854 0.000000
# 4 0.000000 0.000000 0.000000 0.021441 0.000000 -0.018174
# 5 0.045560 -0.002062 0.004854 0.000000 0.097480 0.000000
# 6 0.000000 0.000000 0.000000 -0.018174 0.000000 -0.023600
#
#
# Mechanical properties :
#
#
# Convention : Reuss Voigt Hill
#
# Bulk Modulus (GPa) = 17.11251 54.34696 35.72973
# Shear Modulus (GPa) = 20.09518 14.46298 17.27908
#
# Velocity S-wave (km/s) = 3.28971 2.79088 3.05051
# Velocity P-wave (km/s) = 4.86266 6.29712 5.62579
#
# Compressibility (1/GPa) = 0.05843678
#
# Stress axis : x y z
#
# Youngs Moduli (GPa) = 18.93131 33.12960 75.64677
#
# Poissons Ratio (x) = 0.16220 0.02364
# Poissons Ratio (y) = 0.09269 1.03534
# Poissons Ratio (z) = 0.00592 0.45343
#
# Static dielectric constant tensor:
#      x y z
#    x 1.647170 0.000000 0.002340 
#    y 0.000000 1.636710 0.000000 
#    z 0.002340 0.000000 1.629390 
# 
# From -- ./inp_files/84762.got.cif
#   From: 2010.05.17/outbox.cif.g08.bks.cpg/sg10_43_cif.got.tgz:84762.got - 2010.06.03 11:33:40.
