data_PCOD9148342
_publ_section_title
;
Structure prediction by ZEFSAII (Michael W. Deem and Ramdas Pophale) SiO2 
 PCOD9148342
Probable space group: P 2/M
;
_chemical_formula_sum "Si O2"
_cell_formula_units_Z 24
_cell_length_a 9.537294
_cell_length_b 11.106892
_cell_length_c 12.442731
_cell_angle_alpha 90.000000
_cell_angle_beta 52.210437
_cell_angle_gamma 90.000000
_cell_volume 1041.614662
_symmetry_space_group_name_H-M "P 2/M"
_symmetry_group_IT_number 10
_symmetry_cell_setting 'monoclinic'
loop_
_space_group_symop_operation_xyz
x,y,z
-x,y,-z
-x,-y,-z
x,-y,z
loop_
_atom_site_type_symbol
_atom_site_label
_atom_site_fract_x
_atom_site_fract_y
_atom_site_fract_z
Si Si1 0.943353 0.000000 0.848139
Si Si2 0.254576 0.356682 0.427400
Si Si3 0.853756 0.358964 0.990944
Si Si4 0.581581 0.215026 0.354761
Si Si5 0.041980 0.747347 0.714516
Si Si6 0.467982 0.646589 0.135064
Si Si7 0.293054 0.000000 0.836262
O O1 0.961836 0.119759 0.768111
O O2 0.115335 0.000000 0.845728
O O3 0.775410 0.000000 0.008533
O O4 0.224410 0.500000 0.444657
O O5 0.441839 0.321167 0.395784
O O6 0.103275 0.291817 0.567577
O O7 0.298760 0.316395 0.284595
O O8 0.851770 0.500000 0.013426
O O9 0.909564 0.339075 0.841742
O O10 0.653954 0.319670 0.104065
O O11 0.000000 0.299555 0.000000
O O12 0.500000 0.152945 0.500000
O O13 0.775393 0.258753 0.300713
O O14 0.598170 0.115603 0.254522
O O15 0.460043 0.500000 0.134759
O O16 0.500000 0.691698 0.000000
#
# Coordination Sequence:
#
# PCOD9148342 Si02
#       7
#     2   4   4   4   4   4   2
#     4   9  20  30  46  70 103 146 189 230 269 315
#     4  10  20  33  51  76 106 141 178 222 278 337
#     4  10  20  32  53  84 115 143 178 224 277 333
#     4   9  18  29  47  75 109 145 179 222 274 331
#     4  10  20  32  49  73 110 143 183 224 273 319
#     4   9  19  36  55  77 109 146 183 223 270 331
#     4   9  17  30  46  68 104 146 186 227 272 317
#
# _framework density 23.041149000000001
#
# number of rings (size 3 to 8) (size 9 to 14) (size 15 to 20)
#    0.000    2.500    0.000    1.750    7.000    7.000 
#    0.000    0.833    0.000    4.000    0.000    6.417 
#    0.000    0.000    0.000    0.000    0.000    0.000 
#
# Total GULP energy -133957.901418 kJ/mol
# GULP energy per Si atom -5581.579226 kJ/mol
# Density = 2.298871 g / cm^3
# Si number density = 23.041149 Si / 1000 Ang^3
#
#
#
# Elastic Constant Matrix: (Units=GPa)
#
#
# Indices 1 2 3 4 5 6 
#
# 1 50.3752 11.7195 35.5180 0.0000 -9.2994 0.0000
# 2 11.7195 63.4672 44.7687 0.0000 1.6054 0.0000
# 3 35.5180 44.7687 244.5478 0.0000 -6.9089 0.0000
# 4 0.0000 0.0000 0.0000 39.8622 0.0000 -3.5466
# 5 -9.2994 1.6054 -6.9089 0.0000 35.1516 0.0000
# 6 0.0000 0.0000 0.0000 -3.5466 0.0000 -3.7967
#
#
#
# Elastic Compliance Matrix: (Units=1/GPa)
#
#
# Indices 1 2 3 4 5 6 
#
# 1 0.023466 -0.002515 -0.002785 0.000000 0.005775 0.000000
# 2 -0.002515 0.018440 -0.003070 0.000000 -0.002111 0.000000
# 3 -0.002785 -0.003070 0.005067 0.000000 0.000399 0.000000
# 4 0.000000 0.000000 0.000000 0.023161 0.000000 -0.021636
# 5 0.005775 -0.002111 0.000399 0.000000 0.030151 0.000000
# 6 0.000000 0.000000 0.000000 -0.021636 0.000000 -0.243178
#
#
# Mechanical properties :
#
#
# Convention : Reuss Voigt Hill
#
# Bulk Modulus (GPa) = 33.07652 60.26697 46.67174
# Shear Modulus (GPa) = -43.07487 32.00236 -5.53626
#
# Velocity S-wave (km/s) = -4.32843 3.73087 -1.55177
# Velocity P-wave (km/s) = 3.25482 6.69120 4.13390
#
# Compressibility (1/GPa) = 0.03023293
#
# Stress axis : x y z
#
# Youngs Moduli (GPa) = 42.61559 54.23140 197.35865
#
# Poissons Ratio (x) = 0.13639 0.54956
# Poissons Ratio (y) = 0.10718 0.60590
# Poissons Ratio (z) = 0.11867 0.16649
#
# Static dielectric constant tensor:
#      x y z
#    x 1.949910 0.000000 0.050850 
#    y 0.000000 1.805990 0.000000 
#    z 0.050850 0.000000 1.926640 
# 
# From -- ./inp_files/46530.got.cif
#   From: 2010.05.17/outbox.cif.g08.bks.cpg/sg10_24_cif.got.tgz:46530.got - 2010.06.03 11:33:40.
