data_PCOD9148596
_publ_section_title
;
Structure prediction by ZEFSAII (Michael W. Deem and Ramdas Pophale) SiO2 
 PCOD9148596
Probable space group: P 2/M
;
_chemical_formula_sum "Si O2"
_cell_formula_units_Z 28
_cell_length_a 17.055030
_cell_length_b 7.532154
_cell_length_c 11.687686
_cell_angle_alpha 90.000000
_cell_angle_beta 119.730982
_cell_angle_gamma 90.000000
_cell_volume 1303.772335
_symmetry_space_group_name_H-M "P 2/M"
_symmetry_group_IT_number 10
_symmetry_cell_setting 'monoclinic'
loop_
_space_group_symop_operation_xyz
x,y,z
-x,y,-z
-x,-y,-z
x,-y,z
loop_
_atom_site_type_symbol
_atom_site_label
_atom_site_fract_x
_atom_site_fract_y
_atom_site_fract_z
Si Si1 0.770555 0.790738 0.834442
Si Si2 0.616226 0.714026 0.325494
Si Si3 0.025534 0.782676 0.390892
Si Si4 0.335920 0.289580 0.892135
Si Si5 0.793548 0.211958 0.597507
Si Si6 0.584058 0.284890 0.810294
Si Si7 0.149243 0.214276 0.870778
O O1 0.793618 0.715883 0.726911
O O2 0.664350 0.772568 0.785227
O O3 0.791583 0.000000 0.846550
O O4 0.822874 0.717261 0.983390
O O5 0.612873 0.500000 0.317364
O O6 0.636655 0.781578 0.211704
O O7 0.698016 0.758806 0.467846
O O8 0.516859 0.774192 0.291854
O O9 0.123165 0.721312 0.418426
O O10 0.000000 0.724828 0.500000
O O11 0.946511 0.726503 0.247013
O O12 0.026119 0.000000 0.393130
O O13 0.353644 0.500000 0.901738
O O14 0.230620 0.261702 0.843826
O O15 0.389662 0.221737 0.042333
O O16 0.805585 0.000000 0.614378
O O17 0.585966 0.500000 0.812540
O O18 0.147321 0.000000 0.874658
#
# Coordination Sequence:
#
# PCOD9148596 Si02
#       7
#     4   4   4   4   4   4   4
#     4   9  19  34  50  72  99 127 164 205 241 280
#     4  10  20  33  50  73  99 129 165 202 242 289
#     4   9  17  30  50  75  99 125 159 197 240 291
#     4   9  17  31  51  75 101 126 157 200 247 292
#     4  10  21  35  50  70  99 132 164 201 243 285
#     4   9  18  33  53  73  96 129 164 199 242 292
#     4   9  17  31  52  74  98 129 163 199 238 286
#
# _framework density 21.476140999999998
#
# number of rings (size 3 to 8) (size 9 to 14) (size 15 to 20)
#    0.000    2.714    0.000    1.286    0.000    5.714 
#    0.000    6.429    0.000    6.857    0.000    5.000 
#    0.000    0.000    0.000    0.000    0.000    0.000 
#
# Total GULP energy -156328.204470 kJ/mol
# GULP energy per Si atom -5583.150160 kJ/mol
# Density = 2.142726 g / cm^3
# Si number density = 21.476141 Si / 1000 Ang^3
#
#
#
# Elastic Constant Matrix: (Units=GPa)
#
#
# Indices 1 2 3 4 5 6 
#
# 1 68.6601 9.0374 99.2846 0.0000 3.7021 0.0000
# 2 9.0374 48.7949 -3.6466 0.0000 -8.4445 0.0000
# 3 99.2846 -3.6466 105.1100 0.0000 4.2701 0.0000
# 4 0.0000 0.0000 0.0000 16.0791 0.0000 5.8775
# 5 3.7021 -8.4445 4.2701 0.0000 39.8454 0.0000
# 6 0.0000 0.0000 0.0000 5.8775 0.0000 21.0074
#
#
#
# Elastic Compliance Matrix: (Units=1/GPa)
#
#
# Indices 1 2 3 4 5 6 
#
# 1 -0.035202 0.009310 0.033507 0.000000 0.001653 0.000000
# 2 0.009310 0.018845 -0.008303 0.000000 0.004019 0.000000
# 3 0.033507 -0.008303 -0.022323 0.000000 -0.002481 0.000000
# 4 0.000000 0.000000 0.000000 0.069278 0.000000 -0.019383
# 5 0.001653 0.004019 -0.002481 0.000000 0.026061 0.000000
# 6 0.000000 0.000000 0.000000 -0.019383 0.000000 0.053025
#
#
# Mechanical properties :
#
#
# Convention : Reuss Voigt Hill
#
# Bulk Modulus (GPa) = 32.95326 47.99061 40.47193
# Shear Modulus (GPa) = 98.48065 23.24570 60.86318
#
# Velocity S-wave (km/s) = 6.77904 3.29355 5.32930
# Velocity P-wave (km/s) = 8.75507 6.07106 7.53356
#
# Compressibility (1/GPa) = 0.03034601
#
# Stress axis : x y z
#
# Youngs Moduli (GPa) = -28.40744 53.06571 -44.79615
#
# Poissons Ratio (x) = -0.49404 1.50098
# Poissons Ratio (y) = 0.26447 -0.37196
# Poissons Ratio (z) = 0.95185 0.44063
#
# Static dielectric constant tensor:
#      x y z
#    x 1.749370 0.000000 -0.008450 
#    y 0.000000 1.851210 0.000000 
#    z -0.008450 0.000000 1.762310 
# 
# From -- ./inp_files/49578.got.cif
#   From: 2010.05.17/outbox.cif.g08.bks.cpg/sg10_25_cif.got.tgz:49578.got - 2010.06.03 11:33:40.
