data_PCOD9148120
_publ_section_title
;
Structure prediction by ZEFSAII (Michael W. Deem and Ramdas Pophale) SiO2 
 PCOD9148120
Probable space group: P 2/M
;
_chemical_formula_sum "Si O2"
_cell_formula_units_Z 24
_cell_length_a 16.044382
_cell_length_b 12.991017
_cell_length_c 12.486455
_cell_angle_alpha 90.000000
_cell_angle_beta 155.401346
_cell_angle_gamma 90.000000
_cell_volume 1083.351499
_symmetry_space_group_name_H-M "P 2/M"
_symmetry_group_IT_number 10
_symmetry_cell_setting 'monoclinic'
loop_
_space_group_symop_operation_xyz
x,y,z
-x,y,-z
-x,-y,-z
x,-y,z
loop_
_atom_site_type_symbol
_atom_site_label
_atom_site_fract_x
_atom_site_fract_y
_atom_site_fract_z
Si Si1 0.417147 0.382034 0.073959
Si Si2 0.584412 0.187347 0.365903
Si Si3 0.993729 0.000000 0.363246
Si Si4 0.029493 0.208250 0.780568
Si Si5 0.440999 0.000000 0.807994
Si Si6 0.166141 0.383173 0.573798
Si Si7 0.784249 0.116857 0.808409
O O1 0.387547 0.500000 0.077667
O O2 0.456968 0.291335 0.204884
O O3 0.629043 0.382618 0.256685
O O4 0.248572 0.355937 0.788066
O O5 0.809363 0.201075 0.580146
O O6 0.622425 0.147067 0.530022
O O7 0.496715 0.099673 0.185465
O O8 0.919165 0.889608 0.234197
O O9 0.204055 0.000000 0.545155
O O10 0.000000 0.000000 0.500000
O O11 0.994065 0.308471 0.667411
O O12 0.182999 0.197642 0.058091
O O13 0.500000 0.000000 0.000000
O O14 0.092714 0.500000 0.489761
O O15 0.750138 0.000000 0.808627
O O16 0.000000 0.113155 0.000000
#
# Coordination Sequence:
#
# PCOD9148120 Si02
#       7
#     4   4   2   4   2   4   4
#     4   8  14  23  35  54  86 119 139 167 222 276
#     4   9  16  24  38  61  88 113 142 180 222 260
#     4  10  20  31  43  65  93 122 148 175 225 282
#     4   9  16  26  42  58  81 115 150 179 210 262
#     4  10  20  27  43  69  95 114 142 194 228 255
#     4   8  14  24  38  57  82 113 144 176 219 264
#     4   9  14  24  36  55  83 114 147 178 214 259
#
# _framework density 22.153475
#
# number of rings (size 3 to 8) (size 9 to 14) (size 15 to 20)
#    0.000    3.167    1.667    1.000    7.000    0.000 
#    0.000    0.833    0.000    5.500    0.000    2.333 
#    0.000    0.000    0.000    3.667    0.000   15.333 
#
# Total GULP energy -133954.173421 kJ/mol
# GULP energy per Si atom -5581.423893 kJ/mol
# Density = 2.210305 g / cm^3
# Si number density = 22.153475 Si / 1000 Ang^3
#
#
#
# Elastic Constant Matrix: (Units=GPa)
#
#
# Indices 1 2 3 4 5 6 
#
# 1 84.1096 38.1403 38.8454 0.0000 0.7585 0.0000
# 2 38.1403 144.8631 97.0200 0.0000 -38.3576 0.0000
# 3 38.8454 97.0200 145.7250 0.0000 -28.0424 0.0000
# 4 0.0000 0.0000 0.0000 28.8587 0.0000 -15.2775
# 5 0.7585 -38.3576 -28.0424 0.0000 51.5337 0.0000
# 6 0.0000 0.0000 0.0000 -15.2775 0.0000 3.7214
#
#
#
# Elastic Compliance Matrix: (Units=1/GPa)
#
#
# Indices 1 2 3 4 5 6 
#
# 1 0.014532 -0.003193 -0.002509 0.000000 -0.003956 0.000000
# 2 -0.003193 0.014616 -0.007570 0.000000 0.006807 0.000000
# 3 -0.002509 -0.007570 0.012838 0.000000 0.001388 0.000000
# 4 0.000000 0.000000 0.000000 -0.029533 0.000000 -0.121243
# 5 -0.003956 0.006807 0.001388 0.000000 0.025285 0.000000
# 6 0.000000 0.000000 0.000000 -0.121243 0.000000 -0.229026
#
#
# Mechanical properties :
#
#
# Convention : Reuss Voigt Hill
#
# Bulk Modulus (GPa) = 64.75979 80.30103 72.53041
# Shear Modulus (GPa) = -31.32883 30.20221 -0.56331
#
# Velocity S-wave (km/s) = -3.76463 3.69632 -0.50481
# Velocity P-wave (km/s) = 3.22478 7.38534 5.69836
#
# Compressibility (1/GPa) = 0.01544168
#
# Stress axis : x y z
#
# Youngs Moduli (GPa) = 68.81547 68.41863 77.89305
#
# Poissons Ratio (x) = 0.21846 0.19544
# Poissons Ratio (y) = 0.21973 0.58964
# Poissons Ratio (z) = 0.17266 0.51792
#
# Static dielectric constant tensor:
#      x y z
#    x 1.881590 0.000000 0.079700 
#    y 0.000000 1.804590 0.000000 
#    z 0.079700 0.000000 1.834460 
# 
# From -- ./inp_files/53743.got.cif
#   From: 2010.05.17/outbox.cif.g08.bks.cpg/sg10_27_cif.got.tgz:53743.got - 2010.06.03 11:33:40.
