data_PCOD9148705
_publ_section_title
;
Structure prediction by ZEFSAII (Michael W. Deem and Ramdas Pophale) SiO2 
 PCOD9148705
Probable space group: P 2/M
;
_chemical_formula_sum "Si O2"
_cell_formula_units_Z 32
_cell_length_a 23.737258
_cell_length_b 8.580385
_cell_length_c 14.686930
_cell_angle_alpha 90.000000
_cell_angle_beta 36.076142
_cell_angle_gamma 90.000000
_cell_volume 1761.490481
_symmetry_space_group_name_H-M "P 2/M"
_symmetry_group_IT_number 10
_symmetry_cell_setting 'monoclinic'
loop_
_space_group_symop_operation_xyz
x,y,z
-x,y,-z
-x,-y,-z
x,-y,z
loop_
_atom_site_type_symbol
_atom_site_label
_atom_site_fract_x
_atom_site_fract_y
_atom_site_fract_z
Si Si1 0.190154 0.684669 0.041766
Si Si2 0.908604 0.312091 0.008763
Si Si3 0.295607 0.681389 0.416403
Si Si4 0.687219 0.688935 0.956511
Si Si5 0.012693 0.818738 0.376277
Si Si6 0.502340 0.186378 0.890761
Si Si7 0.113892 0.185155 0.758924
Si Si8 0.182971 0.318667 0.379886
O O1 0.204385 0.500000 0.013971
O O2 0.163781 0.743631 0.975604
O O3 0.277635 0.744152 0.989829
O O4 0.094680 0.715909 0.224921
O O5 0.905042 0.500000 0.020537
O O6 0.017980 0.264022 0.843173
O O7 0.885275 0.237670 0.136600
O O8 0.302685 0.500000 0.432947
O O9 0.398840 0.760208 0.284284
O O10 0.211250 0.759662 0.584425
O O11 0.261168 0.689793 0.356647
O O12 0.684554 0.500000 0.959493
O O13 0.768509 0.735983 0.776992
O O14 0.587377 0.749874 0.048783
O O15 0.908651 0.780488 0.472685
O O16 0.000000 0.785924 0.500000
O O17 0.037087 0.000000 0.332121
O O18 0.497475 0.000000 0.898804
O O19 0.500000 0.241462 0.000000
O O20 0.103611 0.000000 0.765860
O O21 0.153606 0.500000 0.408089
#
# Coordination Sequence:
#
# PCOD9148705 Si02
#       8
#     4   4   4   4   4   4   4   4
#     4  10  21  36  56  78 106 146 188 227 270 323
#     4  10  20  37  60  86 114 147 187 228 274 332
#     4  11  22  37  58  82 108 144 187 232 278 328
#     4  10  20  36  55  77 105 144 188 226 266 322
#     4  11  22  31  44  71 108 146 181 219 265 318
#     4  11  23  37  55  81 113 147 185 232 282 330
#     4  11  22  37  58  86 116 147 182 229 284 332
#     4  10  20  33  52  74 103 143 185 223 264 317
#
# _framework density 18.166435
#
# number of rings (size 3 to 8) (size 9 to 14) (size 15 to 20)
#    0.000    1.500    2.500    4.125    0.000    7.000 
#    0.000    0.000    0.000    0.750    0.000    5.250 
#    0.000    0.000    0.000    0.000    0.000    0.000 
#
# Total GULP energy -178680.173689 kJ/mol
# GULP energy per Si atom -5583.755428 kJ/mol
# Density = 1.812509 g / cm^3
# Si number density = 18.166435 Si / 1000 Ang^3
#
#
#
# Elastic Constant Matrix: (Units=GPa)
#
#
# Indices 1 2 3 4 5 6 
#
# 1 120.3970 20.7176 31.3836 0.0000 -12.8475 0.0000
# 2 20.7176 24.6879 6.7476 0.0000 1.5462 0.0000
# 3 31.3836 6.7476 67.4280 0.0000 -8.3655 0.0000
# 4 0.0000 0.0000 0.0000 187.7594 0.0000 -241.6437
# 5 -12.8475 1.5462 -8.3655 0.0000 25.9783 0.0000
# 6 0.0000 0.0000 0.0000 -241.6437 0.0000 366.5879
#
#
#
# Elastic Compliance Matrix: (Units=1/GPa)
#
#
# Indices 1 2 3 4 5 6 
#
# 1 0.011326 -0.008778 -0.003785 0.000000 0.004905 0.000000
# 2 -0.008778 0.048846 -0.001773 0.000000 -0.007819 0.000000
# 3 -0.003785 -0.001773 0.017239 0.000000 0.003785 0.000000
# 4 0.000000 0.000000 0.000000 0.035118 0.000000 0.023149
# 5 0.004905 -0.007819 0.003785 0.000000 0.042604 0.000000
# 6 0.000000 0.000000 0.000000 0.023149 0.000000 0.017987
#
#
# Mechanical properties :
#
#
# Convention : Reuss Voigt Hill
#
# Bulk Modulus (GPa) = 20.51649 36.69006 28.60327
# Shear Modulus (GPa) = 22.93182 126.30939 74.62061
#
# Velocity S-wave (km/s) = 3.55677 8.34745 6.41602
# Velocity P-wave (km/s) = 5.30901 10.63706 8.40633
#
# Compressibility (1/GPa) = 0.04874128
#
# Stress axis : x y z
#
# Youngs Moduli (GPa) = 88.29060 20.47252 58.00733
#
# Poissons Ratio (x) = 0.17970 0.21954
# Poissons Ratio (y) = 0.77497 0.10283
# Poissons Ratio (z) = 0.33416 0.03629
#
# Static dielectric constant tensor:
#      x y z
#    x 1.667200 0.000000 0.010830 
#    y 0.000000 1.620960 0.000000 
#    z 0.010830 0.000000 1.592590 
# 
# From -- ./inp_files/71506.got.cif
#   From: 2010.05.17/outbox.cif.g08.bks.cpg/sg10_36_cif.got.tgz:71506.got - 2010.06.03 11:33:40.
