data_PCOD9148522
_publ_section_title
;
Structure prediction by ZEFSAII (Michael W. Deem and Ramdas Pophale) SiO2 
 PCOD9148522
Probable space group: P 2/M
;
_chemical_formula_sum "Si O2"
_cell_formula_units_Z 32
_cell_length_a 21.981373
_cell_length_b 7.758639
_cell_length_c 24.244092
_cell_angle_alpha 90.000000
_cell_angle_beta 156.363743
_cell_angle_gamma 90.000000
_cell_volume 1657.729139
_symmetry_space_group_name_H-M "P 2/M"
_symmetry_group_IT_number 10
_symmetry_cell_setting 'monoclinic'
loop_
_space_group_symop_operation_xyz
x,y,z
-x,y,-z
-x,-y,-z
x,-y,z
loop_
_atom_site_type_symbol
_atom_site_label
_atom_site_fract_x
_atom_site_fract_y
_atom_site_fract_z
Si Si1 0.856076 0.300561 0.002283
Si Si2 0.521763 0.699261 0.084639
Si Si3 0.366023 0.801287 0.272200
Si Si4 0.852081 0.288578 0.343384
Si Si5 0.300601 0.700511 0.428791
Si Si6 0.809877 0.711667 0.181811
Si Si7 0.001414 0.710353 0.765676
Si Si8 0.833931 0.801492 0.794514
O O1 0.814225 0.500000 0.972898
O O2 0.722073 0.209930 0.858333
O O3 0.900396 0.233449 0.099626
O O4 0.010015 0.286359 0.094120
O O5 0.527304 0.500000 0.107915
O O6 0.690008 0.772574 0.233466
O O7 0.500000 0.697645 0.000000
O O8 0.362555 0.772900 0.973741
O O9 0.530287 0.717223 0.408869
O O10 0.254914 0.726309 0.227085
O O11 0.391269 0.000000 0.308354
O O12 0.848046 0.500000 0.340881
O O13 0.855687 0.237568 0.281943
O O14 0.000000 0.233943 0.500000
O O15 0.268226 0.500000 0.390285
O O16 0.275008 0.793580 0.349285
O O17 0.171257 0.761771 0.363992
O O18 0.805165 0.500000 0.178028
O O19 0.925841 0.768440 0.231045
O O20 0.004750 0.500000 0.767590
O O21 0.873459 0.000000 0.839689
#
# Coordination Sequence:
#
# PCOD9148522 Si02
#       8
#     4   4   4   4   4   4   4   4
#     4  10  20  33  49  69  93 120 155 197 235 277
#     4   7  10  16  27  44  66  97 138 177 210 247
#     4  11  22  34  49  70  94 119 150 191 241 290
#     4   8  12  17  27  48  76 103 138 183 220 252
#     4  10  20  33  49  69  94 122 155 193 231 279
#     4   8  12  21  36  49  70 107 147 184 217 255
#     4   8  16  30  44  59  81 116 158 191 223 268
#     4  10  20  34  51  71  94 120 152 188 231 287
#
# _framework density 19.303515999999998
#
# number of rings (size 3 to 8) (size 9 to 14) (size 15 to 20)
#    0.000    3.000    0.000    4.500    0.000    5.000 
#    0.000    1.250    0.000    6.000    0.000    0.000 
#    0.000    0.000    0.000    0.000    0.000  282.500 
#
# Total GULP energy -178342.123462 kJ/mol
# GULP energy per Si atom -5573.191358 kJ/mol
# Density = 1.925958 g / cm^3
# Si number density = 19.303516 Si / 1000 Ang^3
#
#
#
# Elastic Constant Matrix: (Units=GPa)
#
#
# Indices 1 2 3 4 5 6 
#
# 1 101.7444 1.0692 48.5979 0.0000 2.9680 0.0000
# 2 1.0692 29.6506 -2.1818 0.0000 0.8639 0.0000
# 3 48.5979 -2.1818 135.7407 0.0000 -10.5618 0.0000
# 4 0.0000 0.0000 0.0000 14.3846 0.0000 9.8577
# 5 2.9680 0.8639 -10.5618 0.0000 7.0119 0.0000
# 6 0.0000 0.0000 0.0000 9.8577 0.0000 35.6640
#
#
#
# Elastic Compliance Matrix: (Units=1/GPa)
#
#
# Indices 1 2 3 4 5 6 
#
# 1 0.012996 -0.000481 -0.005759 0.000000 -0.014116 0.000000
# 2 -0.000481 0.033873 0.000462 0.000000 -0.003274 0.000000
# 3 -0.005759 0.000462 0.010899 0.000000 0.018797 0.000000
# 4 0.000000 0.000000 0.000000 0.085764 0.000000 -0.023705
# 5 -0.014116 -0.003274 0.018797 0.000000 0.177308 0.000000
# 6 0.000000 0.000000 0.000000 -0.023705 0.000000 0.034592
#
#
# Mechanical properties :
#
#
# Convention : Reuss Voigt Hill
#
# Bulk Modulus (GPa) = 21.63957 40.23400 30.93678
# Shear Modulus (GPa) = 13.07559 26.05547 19.56553
#
# Velocity S-wave (km/s) = 2.60545 3.67792 3.18712
# Velocity P-wave (km/s) = 4.50396 6.23893 5.44104
#
# Compressibility (1/GPa) = 0.04621165
#
# Stress axis : x y z
#
# Youngs Moduli (GPa) = 76.94577 29.52213 91.75271
#
# Poissons Ratio (x) = 0.01420 0.52840
# Poissons Ratio (y) = 0.03702 -0.04239
# Poissons Ratio (z) = 0.44313 -0.01364
#
# Static dielectric constant tensor:
#      x y z
#    x 1.664730 0.000000 0.022960 
#    y 0.000000 1.707200 0.000000 
#    z 0.022960 0.000000 1.670770 
# 
# From -- ./inp_files/93874.got.cif
#   From: 2010.05.17/outbox.cif.g08.bks.cpg/sg10_47_cif.got.tgz:93874.got - 2010.06.03 11:33:40.
