data_PCOD9148827
_publ_section_title
;
Structure prediction by ZEFSAII (Michael W. Deem and Ramdas Pophale) SiO2 
 PCOD9148827
Probable space group: P 2/M
;
_chemical_formula_sum "Si O2"
_cell_formula_units_Z 28
_cell_length_a 26.764143
_cell_length_b 8.254522
_cell_length_c 8.047144
_cell_angle_alpha 90.000000
_cell_angle_beta 38.970609
_cell_angle_gamma 90.000000
_cell_volume 1118.107584
_symmetry_space_group_name_H-M "P 2/M"
_symmetry_group_IT_number 10
_symmetry_cell_setting 'monoclinic'
loop_
_space_group_symop_operation_xyz
x,y,z
-x,y,-z
-x,-y,-z
x,-y,z
loop_
_atom_site_type_symbol
_atom_site_label
_atom_site_fract_x
_atom_site_fract_y
_atom_site_fract_z
Si Si1 0.048911 0.188397 0.197935
Si Si2 0.240160 0.308365 0.444377
Si Si3 0.095406 0.309470 0.624174
Si Si4 0.340898 0.188952 0.489442
Si Si5 0.481009 0.686234 0.302626
Si Si6 0.377869 0.189312 0.879485
Si Si7 0.185688 0.802793 0.061952
O O1 0.133415 0.257168 0.038815
O O2 0.000000 0.199420 0.500000
O O3 0.993669 0.259759 0.196830
O O4 0.057810 0.000000 0.135958
O O5 0.236856 0.500000 0.490208
O O6 0.152501 0.242443 0.622648
O O7 0.288459 0.217054 0.462033
O O8 0.297874 0.279605 0.137261
O O9 0.093798 0.500000 0.654378
O O10 0.145595 0.267399 0.328702
O O11 0.422687 0.284020 0.298512
O O12 0.359562 0.000000 0.459717
O O13 0.276967 0.237465 0.796636
O O14 0.505600 0.500000 0.247284
O O15 0.558819 0.793877 0.131927
O O16 0.424118 0.732168 0.605692
O O17 0.362243 0.000000 0.888147
O O18 0.178830 0.000000 0.085667
#
# Coordination Sequence:
#
# PCOD9148827 Si02
#       7
#     4   4   4   4   4   4   4
#     4   8  15  30  52  78 107 139 178 226 276 323
#     4  11  24  40  55  79 115 151 186 227 281 335
#     4  10  20  33  54  82 110 142 182 226 274 330
#     4  11  23  39  58  82 111 147 191 232 273 327
#     4  11  22  39  62  88 117 147 179 223 280 331
#     4  11  22  39  63  89 113 143 187 231 269 320
#     4   9  19  35  56  81 109 141 181 229 277 325
#
# _framework density 25.042311999999999
#
# number of rings (size 3 to 8) (size 9 to 14) (size 15 to 20)
#    0.000    1.857    0.000    6.429    0.000    8.857 
#    0.000    3.571    0.000    4.286    0.000    0.000 
#    0.000    0.000    0.000    0.000    0.000    0.000 
#
# Total GULP energy -156669.460517 kJ/mol
# GULP energy per Si atom -5595.337876 kJ/mol
# Density = 2.498531 g / cm^3
# Si number density = 25.042312 Si / 1000 Ang^3
#
#
#
# Elastic Constant Matrix: (Units=GPa)
#
#
# Indices 1 2 3 4 5 6 
#
# 1 172.2954 2.7109 16.9048 0.0000 -27.0193 0.0000
# 2 2.7109 50.3543 -3.0394 0.0000 -9.7823 0.0000
# 3 16.9048 -3.0394 81.6952 0.0000 -28.0164 0.0000
# 4 0.0000 0.0000 0.0000 21.1658 0.0000 -2.7286
# 5 -27.0193 -9.7823 -28.0164 0.0000 54.7851 0.0000
# 6 0.0000 0.0000 0.0000 -2.7286 0.0000 37.2497
#
#
#
# Elastic Compliance Matrix: (Units=1/GPa)
#
#
# Indices 1 2 3 4 5 6 
#
# 1 0.006299 0.000231 -0.000261 0.000000 0.003014 0.000000
# 2 0.000231 0.020996 0.002496 0.000000 0.005139 0.000000
# 3 -0.000261 0.002496 0.015154 0.000000 0.008066 0.000000
# 4 0.000000 0.000000 0.000000 0.047696 0.000000 0.003494
# 5 0.003014 0.005139 0.008066 0.000000 0.024782 0.000000
# 6 0.000000 0.000000 0.000000 0.003494 0.000000 0.027102
#
#
# Mechanical properties :
#
#
# Convention : Reuss Voigt Hill
#
# Bulk Modulus (GPa) = 21.10644 37.49972 29.30308
# Shear Modulus (GPa) = 32.70305 41.82471 37.26388
#
# Velocity S-wave (km/s) = 3.61766 4.09119 3.86169
# Velocity P-wave (km/s) = 5.08887 6.10935 5.62231
#
# Compressibility (1/GPa) = 0.04737890
#
# Stress axis : x y z
#
# Youngs Moduli (GPa) = 158.76448 47.62841 65.99032
#
# Poissons Ratio (x) = -0.01099 0.01723
# Poissons Ratio (y) = -0.03662 -0.16470
# Poissons Ratio (z) = 0.04146 -0.11887
#
# Static dielectric constant tensor:
#      x y z
#    x 2.107480 0.000000 0.076200 
#    y 0.000000 1.830580 0.000000 
#    z 0.076200 0.000000 2.056850 
# 
# From -- ./inp_files/37054.got.cif
#   From: 2010.05.17/outbox.cif.g08.bks.cpg/sg10_19_cif.got.tgz:37054.got - 2010.06.03 11:33:40.
