data_PCOD9148324
_publ_section_title
;
Structure prediction by ZEFSAII (Michael W. Deem and Ramdas Pophale) SiO2 
 PCOD9148324
Probable space group: P 2/M
;
_chemical_formula_sum "Si O2"
_cell_formula_units_Z 32
_cell_length_a 28.687702
_cell_length_b 8.969156
_cell_length_c 14.254898
_cell_angle_alpha 90.000000
_cell_angle_beta 149.989038
_cell_angle_gamma 90.000000
_cell_volume 1834.532214
_symmetry_space_group_name_H-M "P 2/M"
_symmetry_group_IT_number 10
_symmetry_cell_setting 'monoclinic'
loop_
_space_group_symop_operation_xyz
x,y,z
-x,y,-z
-x,-y,-z
x,-y,z
loop_
_atom_site_type_symbol
_atom_site_label
_atom_site_fract_x
_atom_site_fract_y
_atom_site_fract_z
Si Si1 0.364928 0.321927 0.649863
Si Si2 0.280049 0.678901 0.303100
Si Si3 0.537814 0.820146 0.464958
Si Si4 0.453699 0.179151 0.121580
Si Si5 0.899683 0.177762 0.522773
Si Si6 0.284347 0.179520 0.697071
Si Si7 0.102102 0.319927 0.879287
Si Si8 0.112990 0.330091 0.691124
O O1 0.372217 0.500000 0.670578
O O2 0.300699 0.285399 0.447517
O O3 0.465644 0.254216 0.800100
O O4 0.322829 0.253788 0.670411
O O5 0.287906 0.500000 0.306234
O O6 0.361348 0.754218 0.384060
O O7 0.178305 0.722743 0.089065
O O8 0.500000 0.770003 0.500000
O O9 0.471756 0.778179 0.261437
O O10 0.543868 0.000000 0.477160
O O11 0.464671 0.000000 0.134603
O O12 0.354147 0.217783 0.904224
O O13 0.820477 0.223862 0.458479
O O14 0.865164 0.228960 0.359526
O O15 0.000477 0.250069 0.715947
O O16 0.908728 0.000000 0.539704
O O17 0.286482 0.000000 0.689984
O O18 0.091779 0.500000 0.859527
O O19 0.140928 0.277206 0.843450
O O20 0.145368 0.500000 0.732087
O O21 0.000000 0.334455 0.500000
#
# Coordination Sequence:
#
# PCOD9148324 Si02
#       8
#     4   4   4   4   4   4   4   4
#     4  10  20  34  53  76  97 120 161 212 250 286
#     4   9  19  35  53  73  98 130 167 204 244 292
#     4   9  18  32  51  77 106 133 163 199 238 285
#     4   9  18  34  53  71  98 135 164 191 239 299
#     4  10  20  32  48  74 103 128 162 207 245 282
#     4  10  21  35  50  70  99 133 163 196 247 301
#     4   9  18  34  53  71  97 134 168 197 239 296
#     4   8  15  29  48  68  93 127 161 192 233 286
#
# _framework density 17.443138000000001
#
# number of rings (size 3 to 8) (size 9 to 14) (size 15 to 20)
#    0.000    2.750    0.000    1.875    0.000    7.500 
#    0.000    1.875    0.000    3.750    0.000    0.000 
#    0.000    0.000    0.000    0.000    0.000    0.000 
#
# Total GULP energy -178379.903730 kJ/mol
# GULP energy per Si atom -5574.371992 kJ/mol
# Density = 1.740344 g / cm^3
# Si number density = 17.443138 Si / 1000 Ang^3
#
#
#
# Elastic Constant Matrix: (Units=GPa)
#
#
# Indices 1 2 3 4 5 6 
#
# 1 120.8538 31.8941 53.9392 0.0000 4.5564 0.0000
# 2 31.8941 16.3846 29.7255 0.0000 0.0256 0.0000
# 3 53.9392 29.7255 109.4557 0.0000 -1.6827 0.0000
# 4 0.0000 0.0000 0.0000 64.9576 0.0000 69.4011
# 5 4.5564 0.0256 -1.6827 0.0000 10.9879 0.0000
# 6 0.0000 0.0000 0.0000 69.4011 0.0000 131.1678
#
#
#
# Elastic Compliance Matrix: (Units=1/GPa)
#
#
# Indices 1 2 3 4 5 6 
#
# 1 0.017626 -0.036160 0.001026 0.000000 -0.007068 0.000000
# 2 -0.036160 0.194801 -0.034942 0.000000 0.009190 0.000000
# 3 0.001026 -0.034942 0.018158 0.000000 0.002437 0.000000
# 4 0.000000 0.000000 0.000000 0.035414 0.000000 -0.018738
# 5 -0.007068 0.009190 0.002437 0.000000 0.094292 0.000000
# 6 0.000000 0.000000 0.000000 -0.018738 0.000000 0.017538
#
#
# Mechanical properties :
#
#
# Convention : Reuss Voigt Hill
#
# Bulk Modulus (GPa) = 11.05817 53.09017 32.07417
# Shear Modulus (GPa) = 9.12197 50.16501 29.64349
#
# Velocity S-wave (km/s) = 2.28930 5.36858 4.12689
# Velocity P-wave (km/s) = 3.65256 8.30247 6.41374
#
# Compressibility (1/GPa) = 0.09043086
#
# Stress axis : x y z
#
# Youngs Moduli (GPa) = 56.73375 5.13343 55.07317
#
# Poissons Ratio (x) = 0.18563 -0.05648
# Poissons Ratio (y) = 2.05152 1.92438
# Poissons Ratio (z) = -0.05818 0.17937
#
# Static dielectric constant tensor:
#      x y z
#    x 1.581810 0.000000 -0.025370 
#    y 0.000000 1.582510 0.000000 
#    z -0.025370 0.000000 1.597370 
# 
# From -- ./inp_files/72226.got.cif
#   From: 2010.05.17/outbox.cif.g08.bks.cpg/sg10_37_cif.got.tgz:72226.got - 2010.06.03 11:33:40.
