data_PCOD9148365
_publ_section_title
;
Structure prediction by ZEFSAII (Michael W. Deem and Ramdas Pophale) SiO2 
 PCOD9148365
Probable space group: P 2/M
;
_chemical_formula_sum "Si O2"
_cell_formula_units_Z 20
_cell_length_a 7.194379
_cell_length_b 13.733346
_cell_length_c 9.138259
_cell_angle_alpha 90.000000
_cell_angle_beta 75.424211
_cell_angle_gamma 90.000000
_cell_volume 873.827594
_symmetry_space_group_name_H-M "P 2/M"
_symmetry_group_IT_number 10
_symmetry_cell_setting 'monoclinic'
loop_
_space_group_symop_operation_xyz
x,y,z
-x,y,-z
-x,-y,-z
x,-y,z
loop_
_atom_site_type_symbol
_atom_site_label
_atom_site_fract_x
_atom_site_fract_y
_atom_site_fract_z
Si Si1 0.686136 0.500000 0.137623
Si Si2 0.112551 0.500000 0.205714
Si Si3 0.976352 0.107294 0.831189
Si Si4 0.424570 0.895951 0.680797
Si Si5 0.410808 0.315892 0.679104
Si Si6 0.970865 0.706985 0.674122
O O1 0.896466 0.500000 0.177227
O O2 0.572662 0.405562 0.215279
O O3 0.739290 0.500000 0.957510
O O4 0.126560 0.601180 0.291670
O O5 0.193112 0.102581 0.725821
O O6 0.881487 0.201668 0.777831
O O7 0.888565 0.000000 0.823789
O O8 0.000000 0.121449 0.000000
O O9 0.500000 0.896163 0.500000
O O10 0.480107 0.788695 0.725850
O O11 0.483918 0.000000 0.737953
O O12 0.500000 0.334184 0.500000
O O13 0.182898 0.305589 0.698931
O O14 0.000000 0.733203 0.500000
#
# Coordination Sequence:
#
# PCOD9148365 Si02
#       6
#     2   2   4   4   4   4
#     4   9  17  28  47  73  90 123 162 208 239 277
#     4   9  19  30  47  69  99 126 162 202 242 290
#     4   9  18  30  48  75 101 125 161 206 243 282
#     4   8  14  25  42  67  94 120 150 189 234 281
#     4   9  17  29  48  71  95 123 162 202 237 284
#     4  10  20  32  50  72  99 130 159 198 247 294
#
# _framework density 22.887810999999999
#
# number of rings (size 3 to 8) (size 9 to 14) (size 15 to 20)
#    0.000    3.000    0.000    0.600    8.400    0.400 
#    0.000    0.000    0.000    2.400    0.000    0.000 
#    0.000   32.400    0.000    0.000    0.000    0.000 
#
# Total GULP energy -111545.999467 kJ/mol
# GULP energy per Si atom -5577.299973 kJ/mol
# Density = 2.283572 g / cm^3
# Si number density = 22.887811 Si / 1000 Ang^3
#
#
#
# Elastic Constant Matrix: (Units=GPa)
#
#
# Indices 1 2 3 4 5 6 
#
# 1 78.6515 3.3199 4.0721 0.0000 -6.8190 0.0000
# 2 3.3199 274.3138 78.5699 0.0000 7.6650 0.0000
# 3 4.0721 78.5699 45.8029 0.0000 -8.7514 0.0000
# 4 0.0000 0.0000 0.0000 36.2078 0.0000 -20.1091
# 5 -6.8190 7.6650 -8.7514 0.0000 23.6635 0.0000
# 6 0.0000 0.0000 0.0000 -20.1091 0.0000 -28.3470
#
#
#
# Elastic Compliance Matrix: (Units=1/GPa)
#
#
# Indices 1 2 3 4 5 6 
#
# 1 0.013059 -0.000288 0.000076 0.000000 0.003885 0.000000
# 2 -0.000288 0.008616 -0.016466 0.000000 -0.008964 0.000000
# 3 0.000076 -0.016466 0.054981 0.000000 0.025689 0.000000
# 4 0.000000 0.000000 0.000000 0.019813 0.000000 -0.014055
# 5 0.003885 -0.008964 0.025689 0.000000 0.055783 0.000000
# 6 0.000000 0.000000 0.000000 -0.014055 0.000000 -0.025307
#
#
# Mechanical properties :
#
#
# Convention : Reuss Voigt Hill
#
# Bulk Modulus (GPa) = 23.09588 63.41020 43.25304
# Shear Modulus (GPa) = 28.61474 27.15861 27.88667
#
# Velocity S-wave (km/s) = 3.53968 3.44844 3.49436
# Velocity P-wave (km/s) = 5.17866 6.60459 5.93461
#
# Compressibility (1/GPa) = 0.04329776
#
# Stress axis : x y z
#
# Youngs Moduli (GPa) = 76.57341 116.06580 18.18818
#
# Poissons Ratio (x) = 0.03346 -0.00138
# Poissons Ratio (y) = 0.02207 0.29950
# Poissons Ratio (z) = -0.00580 1.91120
#
# Static dielectric constant tensor:
#      x y z
#    x 1.864270 0.000000 0.003520 
#    y 0.000000 1.945730 0.000000 
#    z 0.003520 0.000000 1.805810 
# 
# From -- ./inp_files/24362.got.cif
#   From: 2010.05.17/outbox.cif.g08.bks.cpg/sg10_13_cif.got.tgz:24362.got - 2010.06.03 11:33:40.
