data_PCOD9148397
_publ_section_title
;
Structure prediction by ZEFSAII (Michael W. Deem and Ramdas Pophale) SiO2 
 PCOD9148397
Probable space group: P 2/M
;
_chemical_formula_sum "Si O2"
_cell_formula_units_Z 24
_cell_length_a 12.326504
_cell_length_b 8.134923
_cell_length_c 11.863196
_cell_angle_alpha 90.000000
_cell_angle_beta 70.097389
_cell_angle_gamma 90.000000
_cell_volume 1118.533153
_symmetry_space_group_name_H-M "P 2/M"
_symmetry_group_IT_number 10
_symmetry_cell_setting 'monoclinic'
loop_
_space_group_symop_operation_xyz
x,y,z
-x,y,-z
-x,-y,-z
x,-y,z
loop_
_atom_site_type_symbol
_atom_site_label
_atom_site_fract_x
_atom_site_fract_y
_atom_site_fract_z
Si Si1 0.664573 0.316963 0.789265
Si Si2 0.517221 0.804235 0.288802
Si Si3 0.881159 0.500000 0.676538
Si Si4 0.738192 0.192737 0.345237
Si Si5 0.672585 0.810229 0.021810
Si Si6 0.873506 0.691548 0.081371
Si Si7 0.141682 0.500000 0.583297
O O1 0.620139 0.500000 0.830413
O O2 0.609554 0.265582 0.689470
O O3 0.802515 0.342907 0.736682
O O4 0.635182 0.205875 0.906197
O O5 0.606552 0.759574 0.355842
O O6 0.507045 0.000000 0.298133
O O7 0.581219 0.757088 0.148905
O O8 0.876397 0.500000 0.543514
O O9 0.010000 0.500000 0.677168
O O10 0.814077 0.207885 0.203446
O O11 0.791785 0.334484 0.403785
O O12 0.739392 0.000000 0.381794
O O13 0.698035 0.000000 0.036354
O O14 0.786927 0.707319 0.006906
O O15 0.879150 0.500000 0.113626
O O16 0.000000 0.747267 0.000000
#
# Coordination Sequence:
#
# PCOD9148397 Si02
#       7
#     4   4   2   4   4   4   2
#     4  10  21  35  55  82 116 153 207 240 287 358
#     4   9  19  36  55  88 129 158 194 241 287 358
#     4   9  26  43  61  89 110 150 205 259 310 363
#     4  10  22  38  64  94 116 159 206 236 305 370
#     4  10  20  32  50  81 125 168 196 232 291 351
#     4  10  20  32  51  84 124 160 199 244 288 347
#     4  11  22  49  69  78 124 155 189 273 316 348
#
# _framework density 21.456672000000001
#
# number of rings (size 3 to 8) (size 9 to 14) (size 15 to 20)
#    0.500    1.667    0.833    3.000    3.500    4.667 
#    0.000    5.833    0.000    2.000    0.000    0.000 
#    0.000    0.000    0.000    0.000    0.000    0.000 
#
# Total GULP energy -133799.418046 kJ/mol
# GULP energy per Si atom -5574.975752 kJ/mol
# Density = 2.140784 g / cm^3
# Si number density = 21.456672 Si / 1000 Ang^3
#
#
#
# Elastic Constant Matrix: (Units=GPa)
#
#
# Indices 1 2 3 4 5 6 
#
# 1 99.2384 26.6939 26.9347 0.0000 17.2664 0.0000
# 2 26.6939 70.9586 23.1695 0.0000 13.6380 0.0000
# 3 26.9347 23.1695 41.8824 0.0000 17.2039 0.0000
# 4 0.0000 0.0000 0.0000 7.9094 0.0000 9.0588
# 5 17.2664 13.6380 17.2039 0.0000 31.6421 0.0000
# 6 0.0000 0.0000 0.0000 9.0588 0.0000 34.6867
#
#
#
# Elastic Compliance Matrix: (Units=1/GPa)
#
#
# Indices 1 2 3 4 5 6 
#
# 1 0.012765 -0.002389 -0.005729 0.000000 -0.002821 0.000000
# 2 -0.002389 0.017854 -0.007358 0.000000 -0.002391 0.000000
# 3 -0.005729 -0.007358 0.037396 0.000000 -0.014035 0.000000
# 4 0.000000 0.000000 0.000000 0.180388 0.000000 -0.047110
# 5 -0.002821 -0.002391 -0.014035 0.000000 0.041804 0.000000
# 6 0.000000 0.000000 0.000000 -0.047110 0.000000 0.041133
#
#
# Mechanical properties :
#
#
# Convention : Reuss Voigt Hill
#
# Bulk Modulus (GPa) = 26.98130 40.63061 33.80596
# Shear Modulus (GPa) = 13.34590 23.86639 18.60614
#
# Velocity S-wave (km/s) = 2.49668 3.33874 2.94794
# Velocity P-wave (km/s) = 4.57311 5.81723 5.23228
#
# Compressibility (1/GPa) = 0.03706271
#
# Stress axis : x y z
#
# Youngs Moduli (GPa) = 78.33830 56.01104 26.74067
#
# Poissons Ratio (x) = 0.13383 0.15319
# Poissons Ratio (y) = 0.18718 0.19676
# Poissons Ratio (z) = 0.44877 0.41213
#
# Static dielectric constant tensor:
#      x y z
#    x 1.861370 0.000000 -0.015350 
#    y 0.000000 1.747660 0.000000 
#    z -0.015350 0.000000 1.805770 
# 
# From -- ./inp_files/45198.got.cif
#   From: 2010.05.17/outbox.cif.g08.bks.cpg/sg10_23_cif.got.tgz:45198.got - 2010.06.03 11:33:40.
