data_PCOD9148101
_publ_section_title
;
Structure prediction by ZEFSAII (Michael W. Deem and Ramdas Pophale) SiO2 
 PCOD9148101
Probable space group: P 2/M
;
_chemical_formula_sum "Si O2"
_cell_formula_units_Z 24
_cell_length_a 15.117789
_cell_length_b 15.542970
_cell_length_c 8.730266
_cell_angle_alpha 90.000000
_cell_angle_beta 37.435301
_cell_angle_gamma 90.000000
_cell_volume 1246.972942
_symmetry_space_group_name_H-M "P 2/M"
_symmetry_group_IT_number 10
_symmetry_cell_setting 'monoclinic'
loop_
_space_group_symop_operation_xyz
x,y,z
-x,y,-z
-x,-y,-z
x,-y,z
loop_
_atom_site_type_symbol
_atom_site_label
_atom_site_fract_x
_atom_site_fract_y
_atom_site_fract_z
Si Si1 0.364208 0.826845 0.588171
Si Si2 0.150366 0.700395 0.712537
Si Si3 0.443374 0.770668 0.905956
Si Si4 0.564201 0.595376 0.738806
Si Si5 0.213594 0.000000 0.830566
Si Si6 0.115364 0.000000 0.611472
Si Si7 0.865884 0.817806 0.568794
O O1 0.500000 0.792825 0.500000
O O2 0.235521 0.762410 0.716856
O O3 0.452123 0.842105 0.310305
O O4 0.300349 0.913168 0.746475
O O5 0.267618 0.627191 0.503490
O O6 0.119919 0.756135 0.600374
O O7 0.000000 0.672599 0.000000
O O8 0.476201 0.676182 0.790493
O O9 0.500000 0.763573 0.000000
O O10 0.275943 0.791477 0.140438
O O11 0.548790 0.500000 0.691539
O O12 0.500000 0.588794 0.000000
O O13 0.181124 0.000000 0.692321
O O14 0.059239 0.000000 0.126178
O O15 0.154502 0.913708 0.468097
O O16 0.000000 0.813204 0.500000
#
# Coordination Sequence:
#
# PCOD9148101 Si02
#       7
#     4   4   4   4   2   2   4
#     4  11  23  37  59  86 115 158 203 248 297 354
#     4  11  22  40  62  91 122 159 201 246 297 357
#     4  10  19  40  60  86 114 152 202 242 299 353
#     4   9  17  36  66  91 119 157 196 240 303 364
#     4  11  21  39  57  80 119 155 202 248 302 354
#     4  11  23  39  57  80 119 161 196 254 302 338
#     4  12  24  39  59  87 119 159 205 248 296 355
#
# _framework density 19.246608999999999
#
# number of rings (size 3 to 8) (size 9 to 14) (size 15 to 20)
#    0.000    1.333    6.667    1.500    4.667    1.000 
#    0.000    1.667    0.000   10.000    0.000    0.000 
#    0.000    0.000    0.000    0.000    0.000    0.000 
#
# Total GULP energy -133739.055048 kJ/mol
# GULP energy per Si atom -5572.460627 kJ/mol
# Density = 1.920280 g / cm^3
# Si number density = 19.246609 Si / 1000 Ang^3
#
#
#
# Elastic Constant Matrix: (Units=GPa)
#
#
# Indices 1 2 3 4 5 6 
#
# 1 66.7130 16.3175 7.2076 0.0000 -18.1831 0.0000
# 2 16.3175 84.5703 42.7658 0.0000 -3.5327 0.0000
# 3 7.2076 42.7658 125.7469 0.0000 -30.8795 0.0000
# 4 0.0000 0.0000 0.0000 11.8161 0.0000 6.0206
# 5 -18.1831 -3.5327 -30.8795 0.0000 26.7776 0.0000
# 6 0.0000 0.0000 0.0000 6.0206 0.0000 8.5977
#
#
#
# Elastic Compliance Matrix: (Units=1/GPa)
#
#
# Indices 1 2 3 4 5 6 
#
# 1 0.021532 -0.006325 0.006002 0.000000 0.020709 0.000000
# 2 -0.006325 0.016674 -0.008123 0.000000 -0.011462 0.000000
# 3 0.006002 -0.008123 0.015497 0.000000 0.020875 0.000000
# 4 0.000000 0.000000 0.000000 0.131578 0.000000 -0.092140
# 5 0.020709 -0.011462 0.020875 0.000000 0.073968 0.000000
# 6 0.000000 0.000000 0.000000 -0.092140 0.000000 0.180833
#
#
# Mechanical properties :
#
#
# Convention : Reuss Voigt Hill
#
# Bulk Modulus (GPa) = 27.16469 45.51244 36.33857
# Shear Modulus (GPa) = 10.65546 23.48755 17.07150
#
# Velocity S-wave (km/s) = 2.35548 3.49714 2.98146
# Velocity P-wave (km/s) = 4.64138 6.32495 5.54740
#
# Compressibility (1/GPa) = 0.03681249
#
# Stress axis : x y z
#
# Youngs Moduli (GPa) = 46.44179 59.97516 64.52747
#
# Poissons Ratio (x) = 0.37933 -0.38730
# Poissons Ratio (y) = 0.29373 0.52414
# Poissons Ratio (z) = -0.27875 0.48717
#
# Static dielectric constant tensor:
#      x y z
#    x 1.667810 0.000000 -0.037640 
#    y 0.000000 1.686430 0.000000 
#    z -0.037640 0.000000 1.653280 
# 
# From -- ./inp_files/29360.got.cif
#   From: 2010.05.17/outbox.cif.g08.bks.cpg/sg10_15_cif.got.tgz:29360.got - 2010.06.03 11:33:40.
