data_PCOD9148132
_publ_section_title
;
Structure prediction by ZEFSAII (Michael W. Deem and Ramdas Pophale) SiO2 
 PCOD9148132
Probable space group: P 2/M
;
_chemical_formula_sum "Si O2"
_cell_formula_units_Z 28
_cell_length_a 24.468640
_cell_length_b 13.610926
_cell_length_c 21.051648
_cell_angle_alpha 90.000000
_cell_angle_beta 16.050225
_cell_angle_gamma 90.000000
_cell_volume 1938.416697
_symmetry_space_group_name_H-M "P 2/M"
_symmetry_group_IT_number 10
_symmetry_cell_setting 'monoclinic'
loop_
_space_group_symop_operation_xyz
x,y,z
-x,y,-z
-x,-y,-z
x,-y,z
loop_
_atom_site_type_symbol
_atom_site_label
_atom_site_fract_x
_atom_site_fract_y
_atom_site_fract_z
Si Si1 0.918362 0.383199 0.163233
Si Si2 0.388749 0.118819 0.222482
Si Si3 0.768834 0.880253 0.462259
Si Si4 0.588411 0.771023 0.546092
Si Si5 0.790176 0.880208 0.709802
Si Si6 0.723447 0.890162 0.276554
Si Si7 0.857510 0.228999 0.008000
O O1 0.910018 0.500000 0.179896
O O2 0.705023 0.332181 0.412770
O O3 0.000000 0.363549 0.000000
O O4 0.059306 0.332217 0.058495
O O5 0.310587 0.145283 0.378884
O O6 0.255793 0.150373 0.311049
O O7 0.389872 0.000000 0.220252
O O8 0.610464 0.150378 0.956317
O O9 0.626998 0.829532 0.568254
O O10 0.776861 0.000000 0.446193
O O11 0.982354 0.829526 0.212872
O O12 0.704694 0.833966 0.363100
O O13 0.358216 0.764144 0.783511
O O14 0.000000 0.845355 0.500000
O O15 0.791713 0.000000 0.708268
O O16 0.500000 0.894371 0.500000
O O17 0.840313 0.833900 0.091923
O O18 0.795383 0.000000 0.204593
#
# Coordination Sequence:
#
# PCOD9148132 Si02
#       7
#     4   4   4   4   4   4   4
#     4  10  20  34  51  69  84 103 139 190 245 288
#     4   8  15  26  37  57  85 111 149 190 218 249
#     4  10  20  30  43  64  92 125 155 187 223 260
#     4  10  20  33  46  65  89 115 149 188 228 272
#     4   8  13  23  40  57  77 110 149 187 220 248
#     4   9  16  27  43  60  81 113 150 182 212 250
#     4  10  20  33  46  65  89 115 149 188 228 272
#
# _framework density 14.444779
#
# number of rings (size 3 to 8) (size 9 to 14) (size 15 to 20)
#    0.000    2.714    1.429    1.714    0.000    3.429 
#    0.000    6.429    0.000    0.000    0.000    0.000 
#    0.000    0.000    0.000   41.143    0.000   93.714 
#
# Total GULP energy -155869.058341 kJ/mol
# GULP energy per Si atom -5566.752084 kJ/mol
# Density = 1.441190 g / cm^3
# Si number density = 14.444779 Si / 1000 Ang^3
#
#
#
# Elastic Constant Matrix: (Units=GPa)
#
#
# Indices 1 2 3 4 5 6 
#
# 1 108.3155 39.0202 96.3738 0.0000 6.6109 0.0000
# 2 39.0202 79.5925 39.2444 0.0000 -0.6461 0.0000
# 3 96.3738 39.2444 108.5468 0.0000 -7.9587 0.0000
# 4 0.0000 0.0000 0.0000 8.0053 0.0000 -5.0062
# 5 6.6109 -0.6461 -7.9587 0.0000 35.1349 0.0000
# 6 0.0000 0.0000 0.0000 -5.0062 0.0000 5.6444
#
#
#
# Elastic Compliance Matrix: (Units=1/GPa)
#
#
# Indices 1 2 3 4 5 6 
#
# 1 0.058243 -0.002939 -0.052325 0.000000 -0.022866 0.000000
# 2 -0.002939 0.015472 -0.002972 0.000000 0.000164 0.000000
# 3 -0.052325 -0.002972 0.058433 0.000000 0.023027 0.000000
# 4 0.000000 0.000000 0.000000 0.280498 0.000000 0.248786
# 5 -0.022866 0.000164 0.023027 0.000000 0.037983 0.000000
# 6 0.000000 0.000000 0.000000 0.248786 0.000000 0.397827
#
#
# Mechanical properties :
#
#
# Convention : Reuss Voigt Hill
#
# Bulk Modulus (GPa) = 63.79820 71.74795 67.77307
# Shear Modulus (GPa) = 5.15382 17.87802 11.51592
#
# Velocity S-wave (km/s) = 1.89095 3.52188 2.82660
# Velocity P-wave (km/s) = 7.00217 8.14350 7.59431
#
# Compressibility (1/GPa) = 0.01567442
#
# Stress axis : x y z
#
# Youngs Moduli (GPa) = 17.16931 64.63414 17.11366
#
# Poissons Ratio (x) = 0.18999 0.89548
# Poissons Ratio (y) = 0.05047 0.05086
# Poissons Ratio (z) = 0.89839 0.19208
#
# Static dielectric constant tensor:
#      x y z
#    x 1.481300 0.000000 -0.017440 
#    y 0.000000 1.459290 0.000000 
#    z -0.017440 0.000000 1.489470 
# 
# From -- ./inp_files/79516.got.cif
#   From: 2010.05.17/outbox.cif.g08.bks.cpg/sg10_40_cif.got.tgz:79516.got - 2010.06.03 11:33:40.
