data_PCOD9148117
_publ_section_title
;
Structure prediction by ZEFSAII (Michael W. Deem and Ramdas Pophale) SiO2 
 PCOD9148117
Probable space group: P 2/M
;
_chemical_formula_sum "Si O2"
_cell_formula_units_Z 24
_cell_length_a 13.187968
_cell_length_b 13.665933
_cell_length_c 10.730269
_cell_angle_alpha 90.000000
_cell_angle_beta 34.043971
_cell_angle_gamma 90.000000
_cell_volume 1082.637718
_symmetry_space_group_name_H-M "P 2/M"
_symmetry_group_IT_number 10
_symmetry_cell_setting 'monoclinic'
loop_
_space_group_symop_operation_xyz
x,y,z
-x,y,-z
-x,-y,-z
x,-y,z
loop_
_atom_site_type_symbol
_atom_site_label
_atom_site_fract_x
_atom_site_fract_y
_atom_site_fract_z
Si Si1 0.478954 0.386395 0.875332
Si Si2 0.788071 0.726648 0.041259
Si Si3 0.500000 0.185851 0.500000
Si Si4 0.649641 0.891826 0.600162
Si Si5 0.739347 0.113609 0.902465
Si Si6 0.149711 0.311202 0.592707
Si Si7 0.000000 0.750962 0.500000
O O1 0.428129 0.500000 0.932434
O O2 0.333825 0.328507 0.939082
O O3 0.669123 0.373621 0.607260
O O4 0.500000 0.353364 0.000000
O O5 0.665068 0.745223 0.286771
O O6 0.812616 0.834426 0.953899
O O7 0.984378 0.677726 0.857456
O O8 0.437907 0.120119 0.447913
O O9 0.781173 0.800640 0.473421
O O10 0.727986 0.000000 0.538021
O O11 0.478378 0.880032 0.867145
O O12 0.832927 0.177412 0.700764
O O13 0.787202 0.000000 0.844807
O O14 0.046393 0.317626 0.567025
#
# Coordination Sequence:
#
# PCOD9148117 Si02
#       7
#     4   4   2   4   4   4   2
#     4  11  23  42  67  92 123 160 202 255 316 377
#     4  10  22  40  62  91 121 162 204 255 306 364
#     4  10  19  42  65  86 126 166 209 262 299 352
#     4  10  21  36  59  89 124 168 212 253 301 357
#     4   9  17  32  52  81 119 159 199 242 292 354
#     4  11  22  39  60  90 127 160 208 251 310 367
#     4  10  21  32  55  86 126 168 205 250 299 376
#
# _framework density 22.168078999999999
#
# number of rings (size 3 to 8) (size 9 to 14) (size 15 to 20)
#    0.000    1.833    3.333    2.500    0.000    5.333 
#    0.000    5.000    0.000    1.000    0.000    0.000 
#    0.000    0.000    0.000    0.000    0.000    0.000 
#
# Total GULP energy -133935.226545 kJ/mol
# GULP energy per Si atom -5580.634439 kJ/mol
# Density = 2.211762 g / cm^3
# Si number density = 22.168079 Si / 1000 Ang^3
#
#
#
# Elastic Constant Matrix: (Units=GPa)
#
#
# Indices 1 2 3 4 5 6 
#
# 1 37.5957 2.6352 11.5165 0.0000 -0.6076 0.0000
# 2 2.6352 55.7740 8.0643 0.0000 0.1559 0.0000
# 3 11.5165 8.0643 140.6484 0.0000 3.1791 0.0000
# 4 0.0000 0.0000 0.0000 8.1719 0.0000 5.5577
# 5 -0.6076 0.1559 3.1791 0.0000 30.1443 0.0000
# 6 0.0000 0.0000 0.0000 5.5577 0.0000 12.2588
#
#
#
# Elastic Compliance Matrix: (Units=1/GPa)
#
#
# Indices 1 2 3 4 5 6 
#
# 1 0.027354 -0.000976 -0.002202 0.000000 0.000789 0.000000
# 2 -0.000976 0.018114 -0.000958 0.000000 -0.000012 0.000000
# 3 -0.002202 -0.000958 0.007364 0.000000 -0.000816 0.000000
# 4 0.000000 0.000000 0.000000 0.176921 0.000000 -0.080209
# 5 0.000789 -0.000012 -0.000816 0.000000 0.033276 0.000000
# 6 0.000000 0.000000 0.000000 -0.080209 0.000000 0.117938
#
#
# Mechanical properties :
#
#
# Convention : Reuss Voigt Hill
#
# Bulk Modulus (GPa) = 22.44191 30.93890 26.69040
# Shear Modulus (GPa) = 12.37341 24.23513 18.30427
#
# Velocity S-wave (km/s) = 2.36511 3.31001 2.87662
# Velocity P-wave (km/s) = 4.19569 5.34743 4.80619
#
# Compressibility (1/GPa) = 0.04455949
#
# Stress axis : x y z
#
# Youngs Moduli (GPa) = 36.55719 55.20518 135.80321
#
# Poissons Ratio (x) = 0.05390 0.29899
# Poissons Ratio (y) = 0.03569 0.13015
# Poissons Ratio (z) = 0.08049 0.05291
#
# Static dielectric constant tensor:
#      x y z
#    x 1.852840 0.000000 -0.002880 
#    y 0.000000 1.782130 0.000000 
#    z -0.002880 0.000000 1.903660 
# 
# From -- ./inp_files/51571.got.cif
#   From: 2010.05.17/outbox.cif.g08.bks.cpg/sg10_26_cif.got.tgz:51571.got - 2010.06.03 11:33:40.
