data_PCOD9148008
_publ_section_title
;
Structure prediction by ZEFSAII (Michael W. Deem and Ramdas Pophale) SiO2 
 PCOD9148008
Probable space group: P 2/M
;
_chemical_formula_sum "Si O2"
_cell_formula_units_Z 32
_cell_length_a 13.663650
_cell_length_b 9.595576
_cell_length_c 11.314395
_cell_angle_alpha 90.000000
_cell_angle_beta 101.024221
_cell_angle_gamma 90.000000
_cell_volume 1456.062323
_symmetry_space_group_name_H-M "P 2/M"
_symmetry_group_IT_number 10
_symmetry_cell_setting 'monoclinic'
loop_
_space_group_symop_operation_xyz
x,y,z
-x,y,-z
-x,-y,-z
x,-y,z
loop_
_atom_site_type_symbol
_atom_site_label
_atom_site_fract_x
_atom_site_fract_y
_atom_site_fract_z
Si Si1 0.384472 0.343306 0.939300
Si Si2 0.917802 0.341749 0.201053
Si Si3 0.778438 0.649873 0.392403
Si Si4 0.608757 0.834908 0.280778
Si Si5 0.802824 0.662804 0.939430
Si Si6 0.559878 0.338977 0.636990
Si Si7 0.753668 0.844285 0.708394
Si Si8 0.070380 0.213342 0.413659
O O1 0.367114 0.500000 0.883471
O O2 0.366460 0.217977 0.844896
O O3 0.308390 0.331379 0.030337
O O4 0.500000 0.338211 0.000000
O O5 0.955057 0.500000 0.197818
O O6 0.825725 0.345960 0.272141
O O7 0.877781 0.298477 0.063726
O O8 0.999689 0.254275 0.288940
O O9 0.728794 0.500000 0.402429
O O10 0.698811 0.773025 0.380267
O O11 0.872608 0.664524 0.501108
O O12 0.500000 0.660227 0.500000
O O13 0.509266 0.751374 0.292243
O O14 0.599064 0.000000 0.289708
O O15 0.821252 0.500000 0.911336
O O16 0.805201 0.767678 0.831524
O O17 0.573309 0.500000 0.678559
O O18 0.664281 0.258805 0.651308
O O19 0.835571 0.857741 0.625012
O O20 0.716749 0.000000 0.729585
O O21 0.000000 0.149694 0.500000
#
# Coordination Sequence:
#
# PCOD9148008 Si02
#       8
#     4   4   4   4   4   4   4   4
#     4  10  20  37  63  93 126 170 222 271 318 380
#     4   9  18  37  65  98 129 167 221 280 332 381
#     4  10  19  37  65  97 133 170 220 279 330 384
#     4  12  24  37  61  97 136 176 215 262 323 393
#     4  10  21  40  66  95 134 178 224 276 329 391
#     4  11  25  45  69  96 129 174 226 276 328 389
#     4  12  27  45  66  96 137 176 217 272 334 403
#     4  10  23  42  68  99 130 167 220 278 340 398
#
# _framework density 21.977080999999998
#
# number of rings (size 3 to 8) (size 9 to 14) (size 15 to 20)
#    0.000    1.500    1.250    3.750    0.000    9.500 
#    0.000    4.375    0.000    0.000    0.000    0.000 
#    0.000    0.000    0.000    0.000    0.000    0.000 
#
# Total GULP energy -178733.642746 kJ/mol
# GULP energy per Si atom -5585.426336 kJ/mol
# Density = 2.192706 g / cm^3
# Si number density = 21.977081 Si / 1000 Ang^3
#
#
#
# Elastic Constant Matrix: (Units=GPa)
#
#
# Indices 1 2 3 4 5 6 
#
# 1 119.2290 58.3725 34.8558 0.0000 3.9547 0.0000
# 2 58.3725 172.7288 54.4665 0.0000 1.0590 0.0000
# 3 34.8558 54.4665 99.9188 0.0000 11.4100 0.0000
# 4 0.0000 0.0000 0.0000 -75.7883 0.0000 -65.9451
# 5 3.9547 1.0590 11.4100 0.0000 43.3617 0.0000
# 6 0.0000 0.0000 0.0000 -65.9451 0.0000 -45.9499
#
#
#
# Elastic Compliance Matrix: (Units=1/GPa)
#
#
# Indices 1 2 3 4 5 6 
#
# 1 0.010397 -0.002874 -0.002020 0.000000 -0.000346 0.000000
# 2 -0.002874 0.007817 -0.003368 0.000000 0.000957 0.000000
# 3 -0.002020 -0.003368 0.012906 0.000000 -0.003130 0.000000
# 4 0.000000 0.000000 0.000000 0.053042 0.000000 -0.076124
# 5 -0.000346 0.000957 -0.003130 0.000000 0.023894 0.000000
# 6 0.000000 0.000000 0.000000 -0.076124 0.000000 0.087486
#
#
# Mechanical properties :
#
#
# Convention : Reuss Voigt Hill
#
# Bulk Modulus (GPa) = 68.51784 76.36291 72.44037
# Shear Modulus (GPa) = 23.04882 0.60349 11.82616
#
# Velocity S-wave (km/s) = 3.24198 0.52459 2.32224
# Velocity P-wave (km/s) = 6.72745 5.93203 6.34222
#
# Compressibility (1/GPa) = 0.01459474
#
# Stress axis : x y z
#
# Youngs Moduli (GPa) = 96.18591 127.92951 77.48298
#
# Poissons Ratio (x) = 0.36770 0.15655
# Poissons Ratio (y) = 0.27646 0.26094
# Poissons Ratio (z) = 0.19434 0.43083
#
# Static dielectric constant tensor:
#      x y z
#    x 1.825450 0.000000 -0.003890 
#    y 0.000000 1.766010 0.000000 
#    z -0.003890 0.000000 1.843570 
# 
# From -- ./inp_files/49966.got.cif
#   From: 2010.05.17/outbox.cif.g08.bks.cpg/sg10_25_cif.got.tgz:49966.got - 2010.06.03 11:33:40.
