data_PCOD9148393
_publ_section_title
;
Structure prediction by ZEFSAII (Michael W. Deem and Ramdas Pophale) SiO2 
 PCOD9148393
Probable space group: P 2/M
;
_chemical_formula_sum "Si O2"
_cell_formula_units_Z 32
_cell_length_a 14.490704
_cell_length_b 8.773313
_cell_length_c 11.284135
_cell_angle_alpha 90.000000
_cell_angle_beta 99.544366
_cell_angle_gamma 90.000000
_cell_volume 1414.710790
_symmetry_space_group_name_H-M "P 2/M"
_symmetry_group_IT_number 10
_symmetry_cell_setting 'monoclinic'
loop_
_space_group_symop_operation_xyz
x,y,z
-x,y,-z
-x,-y,-z
x,-y,z
loop_
_atom_site_type_symbol
_atom_site_label
_atom_site_fract_x
_atom_site_fract_y
_atom_site_fract_z
Si Si1 0.804065 0.818437 0.629616
Si Si2 0.505142 0.830056 0.637559
Si Si3 0.740789 0.817591 0.877835
Si Si4 0.991939 0.678424 0.319047
Si Si5 0.085380 0.175163 0.926711
Si Si6 0.449765 0.324650 0.129381
Si Si7 0.358709 0.170879 0.799288
Si Si8 0.203839 0.681391 0.621273
O O1 0.914077 0.776477 0.657713
O O2 0.233996 0.741945 0.498522
O O3 0.759506 0.766616 0.745861
O O4 0.792180 0.000000 0.617656
O O5 0.500000 0.797455 0.500000
O O6 0.550701 0.701090 0.727236
O O7 0.404355 0.842790 0.677266
O O8 0.549717 0.000000 0.664167
O O9 0.825266 0.770211 0.980771
O O10 0.644871 0.764741 0.917883
O O11 0.742561 0.000000 0.874004
O O12 0.015697 0.500000 0.339499
O O13 0.906846 0.717797 0.389474
O O14 0.944612 0.712224 0.182728
O O15 0.101059 0.000000 0.885507
O O16 0.000000 0.166531 0.000000
O O17 0.443172 0.500000 0.097734
O O18 0.553107 0.257472 0.119509
O O19 0.261914 0.251531 0.745765
O O20 0.346741 0.000000 0.844924
O O21 0.214861 0.500000 0.627424
#
# Coordination Sequence:
#
# PCOD9148393 Si02
#       8
#     4   4   4   4   4   4   4   4
#     4  11  23  39  60  85 117 156 199 240 284 343
#     4   8  16  30  47  68 101 142 185 229 275 327
#     4  10  21  37  58  85 118 151 188 240 293 340
#     4  11  24  41  60  85 120 155 189 239 295 348
#     4  10  20  40  65  88 113 147 193 243 290 342
#     4  10  20  32  50  79 114 149 187 232 286 345
#     4   9  19  35  54  77 107 150 198 238 280 335
#     4  11  24  39  56  84 121 157 194 238 290 341
#
# _framework density 22.619465000000002
#
# number of rings (size 3 to 8) (size 9 to 14) (size 15 to 20)
#    0.750    1.250    1.250    2.625    1.750    5.500 
#    0.000    0.000    0.000    0.750    0.000    5.250 
#    0.000    0.000    0.000    0.000    0.000    0.000 
#
# Total GULP energy -178551.412609 kJ/mol
# GULP energy per Si atom -5579.731644 kJ/mol
# Density = 2.256798 g / cm^3
# Si number density = 22.619465 Si / 1000 Ang^3
#
#
#
# Elastic Constant Matrix: (Units=GPa)
#
#
# Indices 1 2 3 4 5 6 
#
# 1 88.8342 15.0337 32.5729 0.0000 10.7539 0.0000
# 2 15.0337 39.2859 3.6883 0.0000 3.8467 0.0000
# 3 32.5729 3.6883 61.0870 0.0000 -1.0832 0.0000
# 4 0.0000 0.0000 0.0000 19.6719 0.0000 2.8785
# 5 10.7539 3.8467 -1.0832 0.0000 46.0031 0.0000
# 6 0.0000 0.0000 0.0000 2.8785 0.0000 21.6671
#
#
#
# Elastic Compliance Matrix: (Units=1/GPa)
#
#
# Indices 1 2 3 4 5 6 
#
# 1 0.015410 -0.004816 -0.007986 0.000000 -0.003388 0.000000
# 2 -0.004816 0.027324 0.000898 0.000000 -0.001138 0.000000
# 3 -0.007986 0.000898 0.020615 0.000000 0.002277 0.000000
# 4 0.000000 0.000000 0.000000 0.051842 0.000000 -0.006887
# 5 -0.003388 -0.001138 0.002277 0.000000 0.022678 0.000000
# 6 0.000000 0.000000 0.000000 -0.006887 0.000000 0.047068
#
#
# Mechanical properties :
#
#
# Convention : Reuss Voigt Hill
#
# Bulk Modulus (GPa) = 25.29018 32.42188 28.85603
# Shear Modulus (GPa) = 22.52998 26.66256 24.59627
#
# Velocity S-wave (km/s) = 3.15944 3.43701 3.30114
# Velocity P-wave (km/s) = 4.95120 5.48775 5.22637
#
# Compressibility (1/GPa) = 0.03954104
#
# Stress axis : x y z
#
# Youngs Moduli (GPa) = 64.89123 36.59737 48.50881
#
# Poissons Ratio (x) = 0.17624 0.38741
# Poissons Ratio (y) = 0.31249 -0.04355
# Poissons Ratio (z) = 0.51825 -0.03286
#
# Static dielectric constant tensor:
#      x y z
#    x 1.899330 0.000000 -0.018580 
#    y 0.000000 1.802750 0.000000 
#    z -0.018580 0.000000 1.911870 
# 
# From -- ./inp_files/77403.got.cif
#   From: 2010.05.17/outbox.cif.g08.bks.cpg/sg10_39_cif.got.tgz:77403.got - 2010.06.03 11:33:40.
