data_PCOD9148225
_publ_section_title
;
Structure prediction by ZEFSAII (Michael W. Deem and Ramdas Pophale) SiO2 
 PCOD9148225
Probable space group: P 2/M
;
_chemical_formula_sum "Si O2"
_cell_formula_units_Z 32
_cell_length_a 12.890243
_cell_length_b 13.926864
_cell_length_c 18.110740
_cell_angle_alpha 90.000000
_cell_angle_beta 150.293986
_cell_angle_gamma 90.000000
_cell_volume 1611.157421
_symmetry_space_group_name_H-M "P 2/M"
_symmetry_group_IT_number 10
_symmetry_cell_setting 'monoclinic'
loop_
_space_group_symop_operation_xyz
x,y,z
-x,y,-z
-x,-y,-z
x,-y,z
loop_
_atom_site_type_symbol
_atom_site_label
_atom_site_fract_x
_atom_site_fract_y
_atom_site_fract_z
Si Si1 0.769377 0.616604 0.875148
Si Si2 0.980225 0.276064 0.696927
Si Si3 0.936901 0.113208 0.780091
Si Si4 0.411621 0.113920 0.136949
Si Si5 0.629239 0.240090 0.152550
Si Si6 0.236175 0.114059 0.177789
Si Si7 0.441042 0.615973 0.547593
Si Si8 0.689513 0.385706 0.994933
O O1 0.776706 0.500000 0.878670
O O2 0.617030 0.644790 0.715166
O O3 0.707386 0.641918 0.919958
O O4 0.000000 0.653978 0.000000
O O5 0.913297 0.177029 0.693765
O O6 0.775819 0.339079 0.559763
O O7 0.130937 0.252867 0.721537
O O8 0.127058 0.333976 0.845956
O O9 0.783882 0.149370 0.750980
O O10 0.901668 0.000000 0.746315
O O11 0.178544 0.123564 0.957082
O O12 0.572031 0.171330 0.185038
O O13 0.388274 0.149874 0.207176
O O14 0.458508 0.000000 0.166420
O O15 0.525955 0.342851 0.107471
O O16 0.500000 0.204237 0.000000
O O17 0.278922 0.000000 0.210049
O O18 0.000000 0.121162 0.000000
O O19 0.500000 0.643814 0.500000
O O20 0.424621 0.500000 0.537748
O O21 0.704560 0.500000 0.011496
#
# Coordination Sequence:
#
# PCOD9148225 Si02
#       8
#     4   4   4   4   4   4   4   4
#     4   9  18  36  61  86 110 139 182 239 293 342
#     4  11  21  34  54  85 120 156 195 235 289 348
#     4   9  16  29  49  79 116 153 194 243 294 341
#     4   9  15  28  47  72 113 156 197 250 296 334
#     4  10  20  32  44  76 115 156 201 240 281 340
#     4   7  12  23  41  66 101 143 188 241 298 344
#     4  10  21  39  61  86 117 150 188 234 291 354
#     4  10  20  35  52  77 114 154 199 241 282 333
#
# _framework density 19.861498000000001
#
# number of rings (size 3 to 8) (size 9 to 14) (size 15 to 20)
#    0.000    2.625    2.500    2.625    0.000    5.500 
#    4.500    0.625    0.000    2.625    0.000    1.750 
#    0.000    2.500    0.000    0.000    0.000    0.000 
#
# Total GULP energy -178614.881510 kJ/mol
# GULP energy per Si atom -5581.715047 kJ/mol
# Density = 1.981629 g / cm^3
# Si number density = 19.861498 Si / 1000 Ang^3
#
#
#
# Elastic Constant Matrix: (Units=GPa)
#
#
# Indices 1 2 3 4 5 6 
#
# 1 182.8588 45.2405 55.5960 0.0000 18.8824 0.0000
# 2 45.2405 82.2344 21.0324 0.0000 4.2055 0.0000
# 3 55.5960 21.0324 68.3120 0.0000 11.1341 0.0000
# 4 0.0000 0.0000 0.0000 10.7588 0.0000 5.0816
# 5 18.8824 4.2055 11.1341 0.0000 19.5694 0.0000
# 6 0.0000 0.0000 0.0000 5.0816 0.0000 38.4554
#
#
#
# Elastic Compliance Matrix: (Units=1/GPa)
#
#
# Indices 1 2 3 4 5 6 
#
# 1 0.008193 -0.002996 -0.005028 0.000000 -0.004401 0.000000
# 2 -0.002996 0.014302 -0.002133 0.000000 0.001031 0.000000
# 3 -0.005028 -0.002133 0.020415 0.000000 -0.006305 0.000000
# 4 0.000000 0.000000 0.000000 0.099135 0.000000 -0.013100
# 5 -0.004401 0.001031 -0.006305 0.000000 0.058712 0.000000
# 6 0.000000 0.000000 0.000000 -0.013100 0.000000 0.027735
#
#
# Mechanical properties :
#
#
# Convention : Reuss Voigt Hill
#
# Bulk Modulus (GPa) = 44.25681 64.12700 54.19190
# Shear Modulus (GPa) = 19.50542 27.85913 23.68227
#
# Velocity S-wave (km/s) = 3.13720 3.74929 3.45682
# Velocity P-wave (km/s) = 5.95431 7.14843 6.57852
#
# Compressibility (1/GPa) = 0.02259540
#
# Stress axis : x y z
#
# Youngs Moduli (GPa) = 122.05177 69.92268 48.98269
#
# Poissons Ratio (x) = 0.20951 0.24630
# Poissons Ratio (y) = 0.36571 0.10447
# Poissons Ratio (z) = 0.61371 0.14913
#
# Static dielectric constant tensor:
#      x y z
#    x 1.710300 0.000000 -0.013070 
#    y 0.000000 1.732030 0.000000 
#    z -0.013070 0.000000 1.680980 
# 
# From -- ./inp_files/77052.got.cif
#   From: 2010.05.17/outbox.cif.g08.bks.cpg/sg10_39_cif.got.tgz:77052.got - 2010.06.03 11:33:40.
