data_PCOD9148597
_publ_section_title
;
Structure prediction by ZEFSAII (Michael W. Deem and Ramdas Pophale) SiO2 
 PCOD9148597
Probable space group: P 2/M
;
_chemical_formula_sum "Si O2"
_cell_formula_units_Z 28
_cell_length_a 27.998956
_cell_length_b 9.289060
_cell_length_c 8.071772
_cell_angle_alpha 90.000000
_cell_angle_beta 43.032677
_cell_angle_gamma 90.000000
_cell_volume 1432.620901
_symmetry_space_group_name_H-M "P 2/M"
_symmetry_group_IT_number 10
_symmetry_cell_setting 'monoclinic'
loop_
_space_group_symop_operation_xyz
x,y,z
-x,y,-z
-x,-y,-z
x,-y,z
loop_
_atom_site_type_symbol
_atom_site_label
_atom_site_fract_x
_atom_site_fract_y
_atom_site_fract_z
Si Si1 0.074692 0.163028 0.260385
Si Si2 0.650017 0.826969 0.945952
Si Si3 0.923764 0.835934 0.138018
Si Si4 0.503713 0.166029 0.693453
Si Si5 0.786619 0.335335 0.585959
Si Si6 0.638600 0.673221 0.333399
Si Si7 0.209968 0.663082 0.022431
O O1 0.144243 0.242028 0.141455
O O2 0.000000 0.230212 0.500000
O O3 0.075523 0.000000 0.327258
O O4 0.076059 0.157178 0.059766
O O5 0.719851 0.756699 0.694479
O O6 0.656937 0.000000 0.944533
O O7 0.575137 0.798071 0.049287
O O8 0.643248 0.753236 0.144006
O O9 0.859296 0.738546 0.354904
O O10 0.915588 0.000000 0.224711
O O11 0.000000 0.781976 0.000000
O O12 0.500000 0.172896 0.500000
O O13 0.566503 0.267902 0.591981
O O14 0.519328 0.000000 0.696041
O O15 0.782245 0.500000 0.538461
O O16 0.784923 0.337905 0.790687
O O17 0.636356 0.500000 0.317273
O O18 0.712451 0.708866 0.234327
O O19 0.197639 0.500000 0.996404
#
# Coordination Sequence:
#
# PCOD9148597 Si02
#       7
#     4   4   4   4   4   4   4
#     4  10  21  36  55  78  99 125 164 203 243 294
#     4   9  16  26  41  63  94 130 166 205 248 292
#     4  10  21  37  56  77 101 129 162 202 248 296
#     4   8  14  23  36  59  91 127 165 202 245 293
#     4  10  20  33  50  74 102 133 170 206 246 297
#     4   9  16  25  39  63  95 129 166 205 245 292
#     4   9  19  33  48  71 102 134 167 203 245 292
#
# _framework density 19.544598000000001
#
# number of rings (size 3 to 8) (size 9 to 14) (size 15 to 20)
#    0.000    2.714    0.000    3.857    0.000    8.857 
#    0.000    0.000    0.000    0.000    0.000    1.000 
#    0.000    8.000    0.000    0.000    0.000    0.000 
#
# Total GULP energy -156030.937434 kJ/mol
# GULP energy per Si atom -5572.533480 kJ/mol
# Density = 1.950011 g / cm^3
# Si number density = 19.544598 Si / 1000 Ang^3
#
#
#
# Elastic Constant Matrix: (Units=GPa)
#
#
# Indices 1 2 3 4 5 6 
#
# 1 71.3789 56.8657 55.3295 0.0000 -52.1461 0.0000
# 2 56.8657 98.4951 63.9408 0.0000 -52.5534 0.0000
# 3 55.3295 63.9408 99.6335 0.0000 -61.7773 0.0000
# 4 0.0000 0.0000 0.0000 26.6775 0.0000 -15.0183
# 5 -52.1461 -52.5534 -61.7773 0.0000 55.5916 0.0000
# 6 0.0000 0.0000 0.0000 -15.0183 0.0000 16.9515
#
#
#
# Elastic Compliance Matrix: (Units=1/GPa)
#
#
# Indices 1 2 3 4 5 6 
#
# 1 0.047864 -0.008045 0.005484 0.000000 0.043387 0.000000
# 2 -0.008045 0.022262 -0.004661 0.000000 0.008320 0.000000
# 3 0.005484 -0.004661 0.033573 0.000000 0.038048 0.000000
# 4 0.000000 0.000000 0.000000 0.074784 0.000000 0.066255
# 5 0.043387 0.008320 0.038048 0.000000 0.108833 0.000000
# 6 0.000000 0.000000 0.000000 0.066255 0.000000 0.117691
#
#
# Mechanical properties :
#
#
# Convention : Reuss Voigt Hill
#
# Bulk Modulus (GPa) = 11.20348 69.08660 40.14504
# Shear Modulus (GPa) = 11.13083 26.06888 18.59986
#
# Velocity S-wave (km/s) = 2.38903 3.65611 3.08825
# Velocity P-wave (km/s) = 3.65440 7.29710 5.77072
#
# Compressibility (1/GPa) = 0.08925801
#
# Stress axis : x y z
#
# Youngs Moduli (GPa) = 20.89245 44.91877 29.78549
#
# Poissons Ratio (x) = 0.36135 -0.16335
# Poissons Ratio (y) = 0.16807 0.13882
# Poissons Ratio (z) = -0.11458 0.20935
#
# Static dielectric constant tensor:
#      x y z
#    x 1.695740 0.000000 -0.000690 
#    y 0.000000 1.680540 0.000000 
#    z -0.000690 0.000000 1.764620 
# 
# From -- ./inp_files/37931.got.cif
#   From: 2010.05.17/outbox.cif.g08.bks.cpg/sg10_19_cif.got.tgz:37931.got - 2010.06.03 11:33:40.
