data_PCOD9148272
_publ_section_title
;
Structure prediction by ZEFSAII (Michael W. Deem and Ramdas Pophale) SiO2 
 PCOD9148272
Probable space group: P 2/M
;
_chemical_formula_sum "Si O2"
_cell_formula_units_Z 32
_cell_length_a 30.209121
_cell_length_b 15.040542
_cell_length_c 9.510737
_cell_angle_alpha 90.000000
_cell_angle_beta 159.878582
_cell_angle_gamma 90.000000
_cell_volume 1486.578068
_symmetry_space_group_name_H-M "P 2/M"
_symmetry_group_IT_number 10
_symmetry_cell_setting 'monoclinic'
loop_
_space_group_symop_operation_xyz
x,y,z
-x,y,-z
-x,-y,-z
x,-y,z
loop_
_atom_site_type_symbol
_atom_site_label
_atom_site_fract_x
_atom_site_fract_y
_atom_site_fract_z
Si Si1 0.808821 0.600548 0.904956
Si Si2 0.292829 0.603086 0.102142
Si Si3 0.873842 0.793027 0.035172
Si Si4 0.014150 0.105128 0.878047
Si Si5 0.589799 0.600450 0.046021
Si Si6 0.244985 0.896253 0.081357
Si Si7 0.345076 0.279163 0.004158
Si Si8 0.357961 0.903264 0.138716
O O1 0.857856 0.500000 0.021965
O O2 0.802865 0.616372 0.053800
O O3 0.662363 0.600437 0.409933
O O4 0.872996 0.686206 0.027283
O O5 0.286193 0.500000 0.039925
O O6 0.274956 0.665617 0.916376
O O7 0.438540 0.619074 0.592203
O O8 0.887704 0.838802 0.925829
O O9 0.762452 0.832162 0.805905
O O10 0.000000 0.820521 0.500000
O O11 0.877454 0.116841 0.388316
O O12 0.045839 0.000000 0.964890
O O13 0.000000 0.129529 0.000000
O O14 0.604529 0.500000 0.030451
O O15 0.662004 0.670834 0.163419
O O16 0.244909 0.000000 0.126568
O O17 0.359644 0.881617 0.310679
O O18 0.500000 0.280411 0.500000
O O19 0.299462 0.178632 0.880829
O O20 0.500000 0.910851 0.500000
O O21 0.293795 0.000000 0.932102
#
# Coordination Sequence:
#
# PCOD9148272 Si02
#       8
#     4   4   4   4   4   4   4   4
#     4  10  20  32  47  68  95 128 161 194 239 292
#     4   9  16  28  47  70  94 121 158 201 241 284
#     4  10  20  34  52  72  96 128 166 207 247 287
#     4   9  18  33  54  79 100 118 151 204 258 297
#     4   9  17  29  45  67  95 124 156 200 249 288
#     4   9  17  31  52  75  98 126 161 201 245 290
#     4   9  16  26  43  67  94 125 160 196 232 274
#     4   9  17  28  43  68 102 135 163 190 224 275
#
# _framework density 21.525946999999999
#
# number of rings (size 3 to 8) (size 9 to 14) (size 15 to 20)
#    0.000    2.750    0.000    1.875    0.000    5.750 
#    0.000    0.000    0.000    1.125    0.000    0.000 
#    0.000   21.000    0.000    0.000    0.000    0.000 
#
# Total GULP energy -178421.562606 kJ/mol
# GULP energy per Si atom -5575.673831 kJ/mol
# Density = 2.147695 g / cm^3
# Si number density = 21.525947 Si / 1000 Ang^3
#
#
#
# Elastic Constant Matrix: (Units=GPa)
#
#
# Indices 1 2 3 4 5 6 
#
# 1 151.5537 95.8218 11.9643 0.0000 -3.2612 0.0000
# 2 95.8218 126.2649 -1.6372 0.0000 -1.7732 0.0000
# 3 11.9643 -1.6372 26.0972 0.0000 -2.3067 0.0000
# 4 0.0000 0.0000 0.0000 8.1288 0.0000 2.8030
# 5 -3.2612 -1.7732 -2.3067 0.0000 21.2783 0.0000
# 6 0.0000 0.0000 0.0000 2.8030 0.0000 12.2644
#
#
#
# Elastic Compliance Matrix: (Units=1/GPa)
#
#
# Indices 1 2 3 4 5 6 
#
# 1 0.013866 -0.010606 -0.006979 0.000000 0.000485 0.000000
# 2 -0.010606 0.016050 0.005900 0.000000 0.000352 0.000000
# 3 -0.006979 0.005900 0.042242 0.000000 0.004001 0.000000
# 4 0.000000 0.000000 0.000000 0.133545 0.000000 -0.030522
# 5 0.000485 0.000352 0.004001 0.000000 0.047534 0.000000
# 6 0.000000 0.000000 0.000000 -0.030522 0.000000 0.088513
#
#
# Mechanical properties :
#
#
# Convention : Reuss Voigt Hill
#
# Bulk Modulus (GPa) = 20.49704 57.35709 38.92707
# Shear Modulus (GPa) = 13.11023 21.51876 17.31450
#
# Velocity S-wave (km/s) = 2.47056 3.16518 2.83919
# Velocity P-wave (km/s) = 4.20487 6.32939 5.37318
#
# Compressibility (1/GPa) = 0.04878752
#
# Stress axis : x y z
#
# Youngs Moduli (GPa) = 72.12049 62.30387 23.67329
#
# Poissons Ratio (x) = 0.66081 0.16522
# Poissons Ratio (y) = 0.76493 -0.13968
# Poissons Ratio (z) = 0.50335 -0.36762
#
# Static dielectric constant tensor:
#      x y z
#    x 1.795380 0.000000 0.041790 
#    y 0.000000 1.805960 0.000000 
#    z 0.041790 0.000000 1.818400 
# 
# From -- ./inp_files/37750.got.cif
#   From: 2010.05.17/outbox.cif.g08.bks.cpg/sg10_19_cif.got.tgz:37750.got - 2010.06.03 11:33:40.
