data_PCOD9148551
_publ_section_title
;
Structure prediction by ZEFSAII (Michael W. Deem and Ramdas Pophale) SiO2 
 PCOD9148551
Probable space group: P 2/M
;
_chemical_formula_sum "Si O2"
_cell_formula_units_Z 32
_cell_length_a 15.826709
_cell_length_b 8.997790
_cell_length_c 14.684398
_cell_angle_alpha 90.000000
_cell_angle_beta 116.737035
_cell_angle_gamma 90.000000
_cell_volume 1867.554804
_symmetry_space_group_name_H-M "P 2/M"
_symmetry_group_IT_number 10
_symmetry_cell_setting 'monoclinic'
loop_
_space_group_symop_operation_xyz
x,y,z
-x,y,-z
-x,-y,-z
x,-y,z
loop_
_atom_site_type_symbol
_atom_site_label
_atom_site_fract_x
_atom_site_fract_y
_atom_site_fract_z
Si Si1 0.781237 0.177296 0.845022
Si Si2 0.031311 0.332284 0.120564
Si Si3 0.777792 0.823730 0.419667
Si Si4 0.841780 0.823777 0.079266
Si Si5 0.044844 0.332004 0.420502
Si Si6 0.389405 0.677302 0.339740
Si Si7 0.841692 0.321659 0.262024
Si Si8 0.610163 0.677237 0.446291
O O1 0.865397 0.259774 0.831199
O O2 0.682395 0.232993 0.757534
O O3 0.792225 0.000000 0.841074
O O4 0.793675 0.213227 0.958681
O O5 0.030956 0.500000 0.159101
O O6 0.950439 0.228814 0.122467
O O7 0.000000 0.344005 0.000000
O O8 0.864172 0.770851 0.526842
O O9 0.795621 0.749015 0.329658
O O10 0.681437 0.765878 0.417424
O O11 0.779200 0.000000 0.410990
O O12 0.801498 0.739867 0.147902
O O13 0.836425 0.000000 0.089959
O O14 0.073588 0.500000 0.408960
O O15 0.000000 0.339069 0.500000
O O16 0.954140 0.282658 0.319125
O O17 0.375224 0.500000 0.320419
O O18 0.499730 0.709517 0.374235
O O19 0.372313 0.710089 0.438388
O O20 0.835472 0.500000 0.264263
O O21 0.624357 0.500000 0.440698
#
# Coordination Sequence:
#
# PCOD9148551 Si02
#       8
#     4   4   4   4   4   4   4   4
#     4  10  20  33  51  76 107 138 167 208 260 306
#     4   9  17  30  48  69  95 131 174 211 242 286
#     4  11  21  32  51  78 105 135 169 207 254 306
#     4  10  20  33  49  73 106 140 173 211 255 300
#     4   8  16  31  48  67  94 129 168 207 245 286
#     4   9  19  36  58  79  99 128 167 209 253 305
#     4  10  20  34  52  73 101 140 179 213 249 293
#     4   9  19  37  57  77 101 129 164 208 256 304
#
# _framework density 17.134702999999998
#
# number of rings (size 3 to 8) (size 9 to 14) (size 15 to 20)
#    0.000    2.500    0.000    4.125    0.000    7.750 
#    0.000    2.500    0.000    0.750    0.000    5.250 
#    0.000    0.000    0.000    0.000    0.000    0.000 
#
# Total GULP energy -178450.366241 kJ/mol
# GULP energy per Si atom -5576.573945 kJ/mol
# Density = 1.709570 g / cm^3
# Si number density = 17.134703 Si / 1000 Ang^3
#
#
#
# Elastic Constant Matrix: (Units=GPa)
#
#
# Indices 1 2 3 4 5 6 
#
# 1 85.5138 53.9207 44.7691 0.0000 1.1250 0.0000
# 2 53.9207 78.2809 49.8555 0.0000 3.4422 0.0000
# 3 44.7691 49.8555 94.7468 0.0000 6.8384 0.0000
# 4 0.0000 0.0000 0.0000 5.9497 0.0000 -10.9430
# 5 1.1250 3.4422 6.8384 0.0000 16.9405 0.0000
# 6 0.0000 0.0000 0.0000 -10.9430 0.0000 19.8929
#
#
#
# Elastic Compliance Matrix: (Units=1/GPa)
#
#
# Indices 1 2 3 4 5 6 
#
# 1 0.021552 -0.012565 -0.003762 0.000000 0.002641 0.000000
# 2 -0.012565 0.026540 -0.007930 0.000000 -0.001357 0.000000
# 3 -0.003762 -0.007930 0.016862 0.000000 -0.004945 0.000000
# 4 0.000000 0.000000 0.000000-14.286890 0.000000 -7.859160
# 5 0.002641 -0.001357 -0.004945 0.000000 0.061127 0.000000
# 6 0.000000 0.000000 0.000000 -7.859160 0.000000 -4.273022
#
#
# Mechanical properties :
#
#
# Convention : Reuss Voigt Hill
#
# Bulk Modulus (GPa) = 60.83290 61.73691 61.28490
# Shear Modulus (GPa) = -0.27204 15.88972 7.80884
#
# Velocity S-wave (km/s) = -0.39888 3.04853 2.13711
# Velocity P-wave (km/s) = 5.94707 6.96419 6.47563
#
# Compressibility (1/GPa) = 0.01643847
#
# Stress axis : x y z
#
# Youngs Moduli (GPa) = 46.39944 37.67961 59.30542
#
# Poissons Ratio (x) = 0.47345 0.22313
# Poissons Ratio (y) = 0.58302 0.47028
# Poissons Ratio (z) = 0.17458 0.29879
#
# Static dielectric constant tensor:
#      x y z
#    x 1.564610 0.000000 -0.017810 
#    y 0.000000 1.574200 0.000000 
#    z -0.017810 0.000000 1.602960 
# 
# From -- ./inp_files/66579.got.cif
#   From: 2010.05.17/outbox.cif.g08.bks.cpg/sg10_34_cif.got.tgz:66579.got - 2010.06.03 11:33:40.
