data_PCOD9148497
_publ_section_title
;
Structure prediction by ZEFSAII (Michael W. Deem and Ramdas Pophale) SiO2 
 PCOD9148497
Probable space group: P 2/M
;
_chemical_formula_sum "Si O2"
_cell_formula_units_Z 32
_cell_length_a 8.232056
_cell_length_b 12.956894
_cell_length_c 16.202248
_cell_angle_alpha 90.000000
_cell_angle_beta 88.974096
_cell_angle_gamma 90.000000
_cell_volume 1727.885163
_symmetry_space_group_name_H-M "P 2/M"
_symmetry_group_IT_number 10
_symmetry_cell_setting 'monoclinic'
loop_
_space_group_symop_operation_xyz
x,y,z
-x,y,-z
-x,-y,-z
x,-y,z
loop_
_atom_site_type_symbol
_atom_site_label
_atom_site_fract_x
_atom_site_fract_y
_atom_site_fract_z
Si Si1 0.651492 0.119913 0.148110
Si Si2 0.251282 0.622145 0.458334
Si Si3 0.215899 0.298711 0.780264
Si Si4 0.112732 0.624140 0.294967
Si Si5 0.815551 0.881208 0.969587
Si Si6 0.392677 0.623414 0.623773
Si Si7 0.567041 0.382449 0.082863
Si Si8 0.329176 0.743166 0.169797
O O1 0.789167 0.176963 0.201409
O O2 0.483521 0.178878 0.170865
O O3 0.638910 0.000000 0.166196
O O4 0.699326 0.130515 0.050919
O O5 0.233121 0.500000 0.472018
O O6 0.115137 0.649873 0.392857
O O7 0.278249 0.663859 0.550086
O O8 0.423110 0.637086 0.409052
O O9 0.349652 0.322552 0.709174
O O10 0.280607 0.340361 0.867670
O O11 0.057389 0.354766 0.748412
O O12 0.152887 0.500000 0.287603
O O13 0.231523 0.706993 0.250376
O O14 0.781203 0.797241 0.899250
O O15 0.792495 0.000000 0.939360
O O16 0.000000 0.872045 0.000000
O O17 0.369077 0.500000 0.635647
O O18 0.604468 0.500000 0.064690
O O19 0.410702 0.364714 0.141073
O O20 0.500000 0.330990 0.000000
#
# Coordination Sequence:
#
# PCOD9148497 Si02
#       8
#     4   4   4   4   4   4   4   4
#     4  10  21  37  56  77 100 131 178 230 272 310
#     4   8  16  30  49  76 108 139 173 215 258 308
#     4  11  21  34  53  76 104 141 177 219 268 316
#     4  11  22  34  50  79 117 146 172 210 259 319
#     4  10  20  35  55  77 101 128 166 225 285 323
#     4   9  16  30  53  78 105 139 178 215 256 314
#     4  10  20  33  48  67  95 135 179 214 248 301
#     4  11  20  32  51  73  99 136 174 212 257 310
#
# _framework density 18.519750999999999
#
# number of rings (size 3 to 8) (size 9 to 14) (size 15 to 20)
#    0.000    2.000    0.000    6.750    0.000    2.500 
#    0.000    2.500    0.000    3.750    0.000    9.625 
#    0.000    0.000    0.000    0.000    0.000    0.000 
#
# Total GULP energy -178149.512087 kJ/mol
# GULP energy per Si atom -5567.172253 kJ/mol
# Density = 1.847760 g / cm^3
# Si number density = 18.519751 Si / 1000 Ang^3
#
#
#
# Elastic Constant Matrix: (Units=GPa)
#
#
# Indices 1 2 3 4 5 6 
#
# 1 51.2422 19.2129 21.3614 0.0000 21.7709 0.0000
# 2 19.2129 71.8965 29.3056 0.0000 10.2682 0.0000
# 3 21.3614 29.3056 87.2985 0.0000 28.1588 0.0000
# 4 0.0000 0.0000 0.0000 16.6451 0.0000 0.4871
# 5 21.7709 10.2682 28.1588 0.0000 31.3627 0.0000
# 6 0.0000 0.0000 0.0000 0.4871 0.0000 24.6271
#
#
#
# Elastic Compliance Matrix: (Units=1/GPa)
#
#
# Indices 1 2 3 4 5 6 
#
# 1 0.029459 -0.005460 0.000907 0.000000 -0.019476 0.000000
# 2 -0.005460 0.017134 -0.005390 0.000000 0.003020 0.000000
# 3 0.000907 -0.005390 0.017844 0.000000 -0.014886 0.000000
# 4 0.000000 0.000000 0.000000 0.060113 0.000000 -0.001189
# 5 -0.019476 0.003020 -0.014886 0.000000 0.057781 0.000000
# 6 0.000000 0.000000 0.000000 -0.001189 0.000000 0.040629
#
#
# Mechanical properties :
#
#
# Convention : Reuss Voigt Hill
#
# Bulk Modulus (GPa) = 22.44681 38.91079 30.67880
# Shear Modulus (GPa) = 19.40271 23.89745 21.65008
#
# Velocity S-wave (km/s) = 3.24029 3.59608 3.42281
# Velocity P-wave (km/s) = 5.11333 6.18857 5.67647
#
# Compressibility (1/GPa) = 0.04454977
#
# Stress axis : x y z
#
# Youngs Moduli (GPa) = 33.94537 58.36478 56.04156
#
# Poissons Ratio (x) = 0.31869 -0.05081
# Poissons Ratio (y) = 0.18535 0.30204
# Poissons Ratio (z) = -0.03077 0.31456
#
# Static dielectric constant tensor:
#      x y z
#    x 1.725780 0.000000 0.015030 
#    y 0.000000 1.640680 0.000000 
#    z 0.015030 0.000000 1.674910 
# 
# From -- ./inp_files/61546.got.cif
#   From: 2010.05.17/outbox.cif.g08.bks.cpg/sg10_31_cif.got.tgz:61546.got - 2010.06.03 11:33:40.
