data_PCOD9148553
_publ_section_title
;
Structure prediction by ZEFSAII (Michael W. Deem and Ramdas Pophale) SiO2 
 PCOD9148553
Probable space group: P 2/M
;
_chemical_formula_sum "Si O2"
_cell_formula_units_Z 32
_cell_length_a 28.535975
_cell_length_b 7.518627
_cell_length_c 10.899635
_cell_angle_alpha 90.000000
_cell_angle_beta 35.943707
_cell_angle_gamma 90.000000
_cell_volume 1372.694822
_symmetry_space_group_name_H-M "P 2/M"
_symmetry_group_IT_number 10
_symmetry_cell_setting 'monoclinic'
loop_
_space_group_symop_operation_xyz
x,y,z
-x,y,-z
-x,-y,-z
x,-y,z
loop_
_atom_site_type_symbol
_atom_site_label
_atom_site_fract_x
_atom_site_fract_y
_atom_site_fract_z
Si Si1 0.384252 0.791105 0.657279
Si Si2 0.774469 0.787644 0.114832
Si Si3 0.522315 0.702631 0.779859
Si Si4 0.679543 0.713374 0.565221
Si Si5 0.378440 0.714725 0.941940
Si Si6 0.045752 0.785771 0.281148
Si Si7 0.955326 0.286938 0.217821
Si Si8 0.773527 0.282647 0.607601
O O1 0.292709 0.725627 0.838439
O O2 0.434243 0.698214 0.445268
O O3 0.409437 0.768079 0.743294
O O4 0.387534 0.000000 0.619713
O O5 0.734972 0.750006 0.330213
O O6 0.780518 0.000000 0.088365
O O7 0.863481 0.715918 0.914132
O O8 0.507607 0.500000 0.850278
O O9 0.589877 0.782050 0.725907
O O10 0.436868 0.782740 0.925832
O O11 0.670979 0.500000 0.594545
O O12 0.727952 0.774922 0.580664
O O13 0.380393 0.500000 0.943672
O O14 0.287436 0.772633 0.156345
O O15 0.002318 0.746651 0.244471
O O16 0.000000 0.720960 0.500000
O O17 0.048624 0.000000 0.283860
O O18 0.950262 0.500000 0.214680
O O19 0.864305 0.219326 0.420695
O O20 0.000000 0.219735 0.000000
O O21 0.776146 0.500000 0.601752
#
# Coordination Sequence:
#
# PCOD9148553 Si02
#       8
#     4   4   4   4   4   4   4   4
#     4  10  20  33  52  75 102 137 175 213 256 310
#     4   9  19  35  53  75 103 134 170 215 264 311
#     4   9  18  32  52  77 102 134 175 215 256 305
#     4   9  17  33  56  78 100 133 176 214 255 308
#     4  10  20  33  49  73 107 139 170 213 260 307
#     4  10  22  38  57  81 111 144 180 228 280 330
#     4  10  21  38  59  83 112 146 185 228 275 332
#     4   9  19  34  53  78 107 137 171 216 264 310
#
# _framework density 23.311807999999999
#
# number of rings (size 3 to 8) (size 9 to 14) (size 15 to 20)
#    0.000    2.500    0.000    1.500    1.750    5.000 
#    0.000    3.750    0.000    0.000    0.000    4.375 
#    0.000    0.000    0.000    0.000    0.000    0.000 
#
# Total GULP energy -178733.638711 kJ/mol
# GULP energy per Si atom -5585.426210 kJ/mol
# Density = 2.325875 g / cm^3
# Si number density = 23.311808 Si / 1000 Ang^3
#
#
#
# Elastic Constant Matrix: (Units=GPa)
#
#
# Indices 1 2 3 4 5 6 
#
# 1 129.0728 -0.7856 60.3443 0.0000 -3.4134 0.0000
# 2 -0.7856 59.4160 12.9849 0.0000 -10.5890 0.0000
# 3 60.3443 12.9849 135.2946 0.0000 -12.9022 0.0000
# 4 0.0000 0.0000 0.0000 5.1327 0.0000 1.1737
# 5 -3.4134 -10.5890 -12.9022 0.0000 42.9078 0.0000
# 6 0.0000 0.0000 0.0000 1.1737 0.0000 18.5060
#
#
#
# Elastic Compliance Matrix: (Units=1/GPa)
#
#
# Indices 1 2 3 4 5 6 
#
# 1 0.009865 0.001065 -0.004532 0.000000 -0.000315 0.000000
# 2 0.001065 0.017949 -0.001819 0.000000 0.003967 0.000000
# 3 -0.004532 -0.001819 0.009791 0.000000 0.002135 0.000000
# 4 0.000000 0.000000 0.000000 0.197697 0.000000 -0.012539
# 5 -0.000315 0.003967 0.002135 0.000000 0.024902 0.000000
# 6 0.000000 0.000000 0.000000 -0.012539 0.000000 0.054832
#
#
# Mechanical properties :
#
#
# Convention : Reuss Voigt Hill
#
# Bulk Modulus (GPa) = 36.99406 52.09675 44.54541
# Shear Modulus (GPa) = 14.94239 30.05861 22.50050
#
# Velocity S-wave (km/s) = 2.53450 3.59474 3.11013
# Velocity P-wave (km/s) = 4.94658 6.29491 5.66103
#
# Compressibility (1/GPa) = 0.02703136
#
# Stress axis : x y z
#
# Youngs Moduli (GPa) = 101.37333 55.71294 102.13646
#
# Poissons Ratio (x) = -0.05932 0.46289
# Poissons Ratio (y) = -0.10793 0.18581
# Poissons Ratio (z) = 0.45943 0.10135
#
# Static dielectric constant tensor:
#      x y z
#    x 1.860960 0.000000 -0.023970 
#    y 0.000000 1.899730 0.000000 
#    z -0.023970 0.000000 1.882130 
# 
# From -- ./inp_files/58142.got.cif
#   From: 2010.05.17/outbox.cif.g08.bks.cpg/sg10_30_cif.got.tgz:58142.got - 2010.06.03 11:33:40.
