data_PCOD9148525
_publ_section_title
;
Structure prediction by ZEFSAII (Michael W. Deem and Ramdas Pophale) SiO2 
 PCOD9148525
Probable space group: P 2/M
;
_chemical_formula_sum "Si O2"
_cell_formula_units_Z 29
_cell_length_a 9.778297
_cell_length_b 8.089690
_cell_length_c 24.433942
_cell_angle_alpha 90.000000
_cell_angle_beta 46.321497
_cell_angle_gamma 90.000000
_cell_volume 1397.857365
_symmetry_space_group_name_H-M "P 2/M"
_symmetry_group_IT_number 10
_symmetry_cell_setting 'monoclinic'
loop_
_space_group_symop_operation_xyz
x,y,z
-x,y,-z
-x,-y,-z
x,-y,z
loop_
_atom_site_type_symbol
_atom_site_label
_atom_site_fract_x
_atom_site_fract_y
_atom_site_fract_z
Si Si1 0.676394 0.189816 0.292851
Si Si2 0.787718 0.799212 0.074541
Si Si3 0.354986 0.809046 0.997878
Si Si4 0.494572 0.306776 0.240728
Si Si5 0.079850 0.316209 0.153336
Si Si6 0.824171 0.807112 0.756121
Si Si7 0.261450 0.805425 0.600726
Si Si8 0.500000 0.500000 0.500000
O O1 0.510560 0.222850 0.295733
O O2 0.637903 0.217909 0.367448
O O3 0.858450 0.296084 0.226162
O O4 0.738639 0.000000 0.271121
O O5 0.691983 0.731241 0.155165
O O6 0.783322 0.000000 0.078646
O O7 0.663219 0.739449 0.057375
O O8 0.000000 0.750781 0.000000
O O9 0.156396 0.802556 0.084841
O O10 0.411903 0.000000 0.974514
O O11 0.500000 0.728715 0.000000
O O12 0.473365 0.500000 0.254827
O O13 0.329279 0.245718 0.246211
O O14 0.120628 0.500000 0.122826
O O15 0.180358 0.282213 0.183855
O O16 0.037003 0.787315 0.674065
O O17 0.794949 0.000000 0.776170
O O18 0.338034 0.651300 0.544992
O O19 0.290802 0.000000 0.575496
#
# Coordination Sequence:
#
# PCOD9148525 Si02
#       8
#     4   4   4   4   4   4   4   1
#     4  10  21  39  60  83 117 156 198 238 280 347
#     4  10  21  36  52  72 105 152 201 244 300 369
#     4  10  20  33  49  69  99 144 192 237 296 366
#     4  12  24  35  58  88 118 151 198 256 309 353
#     4  11  21  33  55  82 111 142 190 253 306 347
#     4  10  21  39  60  84 120 159 202 245 288 355
#     4   9  22  40  65  99 127 164 203 236 289 352
#     4  12  22  36  76  96 140 160 184 250 282 350
#
# _framework density 20.746037000000001
#
# number of rings (size 3 to 8) (size 9 to 14) (size 15 to 20)
#    0.000    1.655    0.000    6.000    5.793    3.310 
#    0.000    0.000    0.000    1.655    0.000    3.862 
#    0.000    0.000    0.000    0.000    0.000    0.000 
#
# Total GULP energy -161665.714770 kJ/mol
# GULP energy per Si atom -5574.679820 kJ/mol
# Density = 2.069882 g / cm^3
# Si number density = 20.746037 Si / 1000 Ang^3
#
#
#
# Elastic Constant Matrix: (Units=GPa)
#
#
# Indices 1 2 3 4 5 6 
#
# 1 102.5148 10.5257 -1.7983 0.0000 -1.0208 0.0000
# 2 10.5257 71.8448 19.3518 0.0000 0.8395 0.0000
# 3 -1.7983 19.3518 47.9657 0.0000 -9.1950 0.0000
# 4 0.0000 0.0000 0.0000 37.2721 0.0000 -10.9857
# 5 -1.0208 0.8395 -9.1950 0.0000 9.2272 0.0000
# 6 0.0000 0.0000 0.0000 -10.9857 0.0000 18.0942
#
#
#
# Elastic Compliance Matrix: (Units=1/GPa)
#
#
# Indices 1 2 3 4 5 6 
#
# 1 0.010019 -0.001976 0.001755 0.000000 0.003037 0.000000
# 2 -0.001976 0.016712 -0.008839 0.000000 -0.010547 0.000000
# 3 0.001755 -0.008839 0.030497 0.000000 0.031389 0.000000
# 4 0.000000 0.000000 0.000000 0.032677 0.000000 0.019840
# 5 0.003037 -0.010547 0.031389 0.000000 0.140951 0.000000
# 6 0.000000 0.000000 0.000000 0.019840 0.000000 0.067312
#
#
# Mechanical properties :
#
#
# Convention : Reuss Voigt Hill
#
# Bulk Modulus (GPa) = 25.56942 30.94264 28.25603
# Shear Modulus (GPa) = 15.18263 25.86844 20.52554
#
# Velocity S-wave (km/s) = 2.70818 3.53499 3.14884
# Velocity P-wave (km/s) = 4.70433 5.62218 5.18361
#
# Compressibility (1/GPa) = 0.03910921
#
# Stress axis : x y z
#
# Youngs Moduli (GPa) = 99.81435 59.83607 32.78983
#
# Poissons Ratio (x) = 0.11824 -0.05755
# Poissons Ratio (y) = 0.19723 0.28981
# Poissons Ratio (z) = -0.17518 0.52886
#
# Static dielectric constant tensor:
#      x y z
#    x 1.802610 0.000000 -0.023370 
#    y 0.000000 1.744410 0.000000 
#    z -0.023370 0.000000 1.760130 
# 
# From -- ./inp_files/92031.got.cif
#   From: 2010.05.17/outbox.cif.g08.bks.cpg/sg10_47_cif.got.tgz:92031.got - 2010.06.03 11:33:40.
