data_PCOD9148027
_publ_section_title
;
Structure prediction by ZEFSAII (Michael W. Deem and Ramdas Pophale) SiO2 
 PCOD9148027
Probable space group: P 2/M
;
_chemical_formula_sum "Si O2"
_cell_formula_units_Z 20
_cell_length_a 8.449242
_cell_length_b 17.753722
_cell_length_c 9.219161
_cell_angle_alpha 90.000000
_cell_angle_beta 129.448891
_cell_angle_gamma 90.000000
_cell_volume 1067.883009
_symmetry_space_group_name_H-M "P 2/M"
_symmetry_group_IT_number 10
_symmetry_cell_setting 'monoclinic'
loop_
_space_group_symop_operation_xyz
x,y,z
-x,y,-z
-x,-y,-z
x,-y,z
loop_
_atom_site_type_symbol
_atom_site_label
_atom_site_fract_x
_atom_site_fract_y
_atom_site_fract_z
Si Si1 0.434115 0.413899 0.793385
Si Si2 0.166653 0.226499 0.358258
Si Si3 0.917499 0.084724 0.288375
Si Si4 0.000000 0.664027 0.500000
Si Si5 0.500000 0.830504 0.000000
Si Si6 0.411461 0.263358 0.231542
O O1 0.459621 0.500000 0.759948
O O2 0.561249 0.352120 0.778724
O O3 0.200268 0.386527 0.638464
O O4 0.500000 0.409451 0.000000
O O5 0.222398 0.250224 0.228121
O O6 0.383371 0.231178 0.570429
O O7 0.063414 0.144962 0.295486
O O8 0.027081 0.282224 0.374667
O O9 0.688707 0.117697 0.158362
O O10 0.000000 0.082302 0.500000
O O11 0.921873 0.000000 0.230342
O O12 0.586621 0.778355 0.921342
#
# Coordination Sequence:
#
# PCOD9148027 Si02
#       6
#     4   4   4   2   2   4
#     4  10  20  36  58  87 118 151 191 243 292 334
#     4  10  20  40  60  88 117 157 199 235 288 351
#     4  11  22  39  61  88 119 152 190 246 297 338
#     4  10  19  38  59  82 116 158 200 226 287 352
#     4  12  21  40  61  88 114 156 202 232 289 356
#     4  10  21  37  63  87 117 158 199 235 285 352
#
# _framework density 18.728643999999999
#
# number of rings (size 3 to 8) (size 9 to 14) (size 15 to 20)
#    0.000    1.600    4.000    1.800    0.000    0.800 
#    0.000   14.000    0.000    2.400    0.000    0.000 
#    0.000    0.000    0.000    0.000    0.000    0.000 
#
# Total GULP energy -111646.773586 kJ/mol
# GULP energy per Si atom -5582.338679 kJ/mol
# Density = 1.868602 g / cm^3
# Si number density = 18.728644 Si / 1000 Ang^3
#
#
#
# Elastic Constant Matrix: (Units=GPa)
#
#
# Indices 1 2 3 4 5 6 
#
# 1 115.0008 88.2696 32.1898 0.0000 -21.8473 0.0000
# 2 88.2696 193.8130 46.4032 0.0000 -1.6636 0.0000
# 3 32.1898 46.4032 71.8416 0.0000 -1.1298 0.0000
# 4 0.0000 0.0000 0.0000 44.5068 0.0000 12.3458
# 5 -21.8473 -1.6636 -1.1298 0.0000 24.3860 0.0000
# 6 0.0000 0.0000 0.0000 12.3458 0.0000 1.5710
#
#
#
# Elastic Compliance Matrix: (Units=1/GPa)
#
#
# Indices 1 2 3 4 5 6 
#
# 1 0.018261 -0.007431 -0.003135 0.000000 0.015708 0.000000
# 2 -0.007431 0.009129 -0.002664 0.000000 -0.006158 0.000000
# 3 -0.003135 -0.002664 0.017010 0.000000 -0.002203 0.000000
# 4 0.000000 0.000000 0.000000 -0.019044 0.000000 0.149652
# 5 0.015708 -0.006158 -0.002203 0.000000 0.054558 0.000000
# 6 0.000000 0.000000 0.000000 0.149652 0.000000 -0.539496
#
#
# Mechanical properties :
#
#
# Convention : Reuss Voigt Hill
#
# Bulk Modulus (GPa) = 55.74153 79.37563 67.55858
# Shear Modulus (GPa) = -11.70573 28.34561 8.31994
#
# Velocity S-wave (km/s) = -2.50275 3.89458 2.10998
# Velocity P-wave (km/s) = 4.63418 7.91818 6.48742
#
# Compressibility (1/GPa) = 0.01793995
#
# Stress axis : x y z
#
# Youngs Moduli (GPa) = 54.76046 109.54084 58.78854
#
# Poissons Ratio (x) = 0.81404 0.18432
# Poissons Ratio (y) = 0.40695 0.15659
# Poissons Ratio (z) = 0.17169 0.29177
#
# Static dielectric constant tensor:
#      x y z
#    x 1.646530 0.000000 0.002120 
#    y 0.000000 1.642990 0.000000 
#    z 0.002120 0.000000 1.675490 
# 
# From -- ./inp_files/19745.got.cif
#   From: 2010.05.17/outbox.cif.g08.bks.cpg/sg10_10_cif.got.tgz:19745.got - 2010.06.03 11:33:40.
