data_PCOD9148301
_publ_section_title
;
Structure prediction by ZEFSAII (Michael W. Deem and Ramdas Pophale) SiO2 
 PCOD9148301
Probable space group: P 2/M
;
_chemical_formula_sum "Si O2"
_cell_formula_units_Z 22
_cell_length_a 5.351345
_cell_length_b 13.589187
_cell_length_c 17.285316
_cell_angle_alpha 90.000000
_cell_angle_beta 51.646105
_cell_angle_gamma 90.000000
_cell_volume 985.727171
_symmetry_space_group_name_H-M "P 2/M"
_symmetry_group_IT_number 10
_symmetry_cell_setting 'monoclinic'
loop_
_space_group_symop_operation_xyz
x,y,z
-x,y,-z
-x,-y,-z
x,-y,z
loop_
_atom_site_type_symbol
_atom_site_label
_atom_site_fract_x
_atom_site_fract_y
_atom_site_fract_z
Si Si1 0.842464 0.326469 0.705932
Si Si2 0.120960 0.500000 0.066236
Si Si3 0.167621 0.302973 0.884197
Si Si4 0.816525 0.192853 0.466169
Si Si5 0.545443 0.391049 0.603053
Si Si6 0.881284 0.891462 0.933087
O O1 0.545841 0.313598 0.819822
O O2 0.685097 0.381142 0.662308
O O3 0.958919 0.222552 0.647808
O O4 0.164224 0.377444 0.672695
O O5 0.976218 0.400033 0.127399
O O6 0.500000 0.500000 0.000000
O O7 0.000000 0.500000 0.000000
O O8 0.068905 0.201459 0.861974
O O9 0.000000 0.298727 0.000000
O O10 0.500000 0.140390 0.500000
O O11 0.692661 0.298752 0.527236
O O12 0.000000 0.142272 0.500000
O O13 0.627774 0.500000 0.557266
O O14 0.943028 0.000000 0.887191
O O15 0.500000 0.873895 0.000000
O O16 0.000000 0.896902 0.000000
#
# Coordination Sequence:
#
# PCOD9148301 Si02
#       6
#     4   2   4   4   4   4
#     4  10  21  32  47  69  92 128 166 200 252 296
#     4  10  22  36  48  64  94 140 174 196 230 282
#     4  10  22  38  52  73 105 140 173 208 242 299
#     4   8  16  30  45  65  89 115 159 205 255 291
#     4  10  20  32  48  67  91 123 169 216 251 287
#     4   9  18  34  57  78  95 124 168 218 263 292
#
# _framework density 22.318549000000001
#
# number of rings (size 3 to 8) (size 9 to 14) (size 15 to 20)
#    0.000    2.545    0.000    1.091    2.545   12.364 
#    0.000    0.000    0.000    0.000    0.000    0.000 
#    0.000   13.091    0.000    0.000    0.000   15.273 
#
# Total GULP energy -122728.619179 kJ/mol
# GULP energy per Si atom -5578.573599 kJ/mol
# Density = 2.226775 g / cm^3
# Si number density = 22.318549 Si / 1000 Ang^3
#
#
#
# Elastic Constant Matrix: (Units=GPa)
#
#
# Indices 1 2 3 4 5 6 
#
# 1 173.5303 5.5175 35.7613 0.0000 -39.5418 0.0000
# 2 5.5175 114.1110 -1.2320 0.0000 -22.2131 0.0000
# 3 35.7613 -1.2320 111.1908 0.0000 -31.1660 0.0000
# 4 0.0000 0.0000 0.0000 -5.9360 0.0000 -6.5073
# 5 -39.5418 -22.2131 -31.1660 0.0000 50.3586 0.0000
# 6 0.0000 0.0000 0.0000 -6.5073 0.0000 7.5758
#
#
#
# Elastic Compliance Matrix: (Units=1/GPa)
#
#
# Indices 1 2 3 4 5 6 
#
# 1 0.007138 0.000707 -0.000762 0.000000 0.005445 0.000000
# 2 0.000707 0.009886 0.001525 0.000000 0.005859 0.000000
# 3 -0.000762 0.001525 0.011223 0.000000 0.007020 0.000000
# 4 0.000000 0.000000 0.000000 -0.086764 0.000000 -0.074527
# 5 0.005445 0.005859 0.007020 0.000000 0.031062 0.000000
# 6 0.000000 0.000000 0.000000 -0.074527 0.000000 0.067984
#
#
# Mechanical properties :
#
#
# Convention : Reuss Voigt Hill
#
# Bulk Modulus (GPa) = 32.06542 53.21395 42.63969
# Shear Modulus (GPa) = 104.19753 34.31869 69.25811
#
# Velocity S-wave (km/s) = 6.84017 3.92558 5.57665
# Velocity P-wave (km/s) = 8.76254 6.66645 7.78536
#
# Compressibility (1/GPa) = 0.03118624
#
# Stress axis : x y z
#
# Youngs Moduli (GPa) = 140.09686 101.15066 89.10170
#
# Poissons Ratio (x) = -0.07147 0.06787
# Poissons Ratio (y) = -0.09899 -0.13584
# Poissons Ratio (z) = 0.10671 -0.15421
#
# Static dielectric constant tensor:
#      x y z
#    x 1.859300 0.000000 0.018340 
#    y 0.000000 1.927240 0.000000 
#    z 0.018340 0.000000 1.856680 
# 
# From -- ./inp_files/9057.got.cif
#   From: 2010.05.17/outbox.cif.g08.bks.cpg/sg10_5_cif.got.tgz:9057.got - 2010.06.03 11:33:40.
