data_PCOD9148023
_publ_section_title
;
Structure prediction by ZEFSAII (Michael W. Deem and Ramdas Pophale) SiO2 
 PCOD9148023
Probable space group: P 2/M
;
_chemical_formula_sum "Si O2"
_cell_formula_units_Z 26
_cell_length_a 19.655707
_cell_length_b 14.584033
_cell_length_c 8.939520
_cell_angle_alpha 90.000000
_cell_angle_beta 146.902620
_cell_angle_gamma 90.000000
_cell_volume 1399.341709
_symmetry_space_group_name_H-M "P 2/M"
_symmetry_group_IT_number 10
_symmetry_cell_setting 'monoclinic'
loop_
_space_group_symop_operation_xyz
x,y,z
-x,y,-z
-x,-y,-z
x,-y,z
loop_
_atom_site_type_symbol
_atom_site_label
_atom_site_fract_x
_atom_site_fract_y
_atom_site_fract_z
Si Si1 0.131632 0.889965 0.663739
Si Si2 0.694365 0.606245 0.120932
Si Si3 0.132704 0.390532 0.302731
Si Si4 0.647085 0.767967 0.799055
Si Si5 0.500000 0.672826 0.000000
Si Si6 0.137359 0.895667 0.321712
Si Si7 0.292893 0.745197 0.430615
O O1 0.127252 0.871465 0.477940
O O2 0.000000 0.860581 0.500000
O O3 0.139933 0.000000 0.701137
O O4 0.258127 0.842725 0.956471
O O5 0.703161 0.500000 0.088042
O O6 0.820536 0.634497 0.444017
O O7 0.590768 0.614303 0.061388
O O8 0.660083 0.677431 0.927574
O O9 0.132897 0.500000 0.299325
O O10 0.228803 0.349048 0.362771
O O11 0.000000 0.356027 0.000000
O O12 0.500000 0.791046 0.500000
O O13 0.701083 0.751804 0.733841
O O14 0.572231 0.738086 0.247439
O O15 0.219824 0.825949 0.379008
O O16 0.185957 0.000000 0.400007
O O17 0.000000 0.894231 0.000000
#
# Coordination Sequence:
#
# PCOD9148023 Si02
#       7
#     4   4   4   4   2   4   4
#     4  10  22  42  68  94 123 160 203 251 308 373
#     4  10  21  38  60  85 119 160 205 251 299 360
#     4   9  19  37  61  88 116 152 203 257 308 361
#     4  12  25  40  57  91 130 164 204 256 312 363
#     4  10  19  38  57  82 110 154 209 248 289 352
#     4  10  21  39  64  92 117 151 201 248 296 364
#     4  11  22  36  60  82 119 160 199 247 298 359
#
# _framework density 18.580165999999998
#
# number of rings (size 3 to 8) (size 9 to 14) (size 15 to 20)
#    0.000    1.692    1.538    3.462    0.000    4.923 
#    0.000    0.385    0.000    3.231    0.000    0.000 
#    0.000    0.000    0.000    0.000    0.000    0.000 
#
# Total GULP energy -144938.689936 kJ/mol
# GULP energy per Si atom -5574.564998 kJ/mol
# Density = 1.853788 g / cm^3
# Si number density = 18.580166 Si / 1000 Ang^3
#
#
#
# Elastic Constant Matrix: (Units=GPa)
#
#
# Indices 1 2 3 4 5 6 
#
# 1 102.5437 37.5437 53.5011 0.0000 -21.4242 0.0000
# 2 37.5437 60.9393 43.4861 0.0000 -3.1746 0.0000
# 3 53.5011 43.4861 154.2263 0.0000 -12.2007 0.0000
# 4 0.0000 0.0000 0.0000 45.0578 0.0000 28.0018
# 5 -21.4242 -3.1746 -12.2007 0.0000 31.1068 0.0000
# 6 0.0000 0.0000 0.0000 28.0018 0.0000 47.5089
#
#
#
# Elastic Compliance Matrix: (Units=1/GPa)
#
#
# Indices 1 2 3 4 5 6 
#
# 1 0.015704 -0.007295 -0.002677 0.000000 0.009022 0.000000
# 2 -0.007295 0.023933 -0.004563 0.000000 -0.004372 0.000000
# 3 -0.002677 -0.004563 0.008789 0.000000 0.001138 0.000000
# 4 0.000000 0.000000 0.000000 0.035022 0.000000 -0.020642
# 5 0.009022 -0.004372 0.001138 0.000000 0.038361 0.000000
# 6 0.000000 0.000000 0.000000 -0.020642 0.000000 0.033215
#
#
# Mechanical properties :
#
#
# Convention : Reuss Voigt Hill
#
# Bulk Modulus (GPa) = 51.66469 65.19680 58.43074
# Shear Modulus (GPa) = 26.24020 36.94659 31.59339
#
# Velocity S-wave (km/s) = 3.76209 4.46409 4.12804
# Velocity P-wave (km/s) = 6.83651 7.85726 7.36459
#
# Compressibility (1/GPa) = 0.01935558
#
# Stress axis : x y z
#
# Youngs Moduli (GPa) = 63.67630 41.78392 113.77260
#
# Poissons Ratio (x) = 0.30480 0.30461
# Poissons Ratio (y) = 0.46450 0.51919
# Poissons Ratio (z) = 0.17048 0.19068
#
# Static dielectric constant tensor:
#      x y z
#    x 1.643440 0.000000 0.040330 
#    y 0.000000 1.643510 0.000000 
#    z 0.040330 0.000000 1.754410 
# 
# From -- ./inp_files/35180.got.cif
#   From: 2010.05.17/outbox.cif.g08.bks.cpg/sg10_18_cif.got.tgz:35180.got - 2010.06.03 11:33:40.
