data_PCOD9148198
_publ_section_title
;
Structure prediction by ZEFSAII (Michael W. Deem and Ramdas Pophale) SiO2 
 PCOD9148198
Probable space group: P 2/M
;
_chemical_formula_sum "Si O2"
_cell_formula_units_Z 30
_cell_length_a 5.320941
_cell_length_b 15.430139
_cell_length_c 18.901955
_cell_angle_alpha 90.000000
_cell_angle_beta 85.834355
_cell_angle_gamma 90.000000
_cell_volume 1547.804748
_symmetry_space_group_name_H-M "P 2/M"
_symmetry_group_IT_number 10
_symmetry_cell_setting 'monoclinic'
loop_
_space_group_symop_operation_xyz
x,y,z
-x,y,-z
-x,-y,-z
x,-y,z
loop_
_atom_site_type_symbol
_atom_site_label
_atom_site_fract_x
_atom_site_fract_y
_atom_site_fract_z
Si Si1 0.324693 0.217324 0.227969
Si Si2 0.508849 0.104315 0.580111
Si Si3 0.500000 0.149414 0.000000
Si Si4 0.994082 0.104294 0.666702
Si Si5 0.685659 0.098035 0.143553
Si Si6 0.130004 0.593095 0.864577
Si Si7 0.083681 0.765149 0.085593
Si Si8 0.653523 0.404343 0.769668
O O1 0.098391 0.162535 0.266225
O O2 0.548698 0.149034 0.209815
O O3 0.271960 0.246655 0.148516
O O4 0.362868 0.309264 0.266943
O O5 0.500000 0.137990 0.500000
O O6 0.773247 0.120894 0.613292
O O7 0.264709 0.131165 0.630313
O O8 0.486376 0.000000 0.576425
O O9 0.474432 0.097845 0.927082
O O10 0.744062 0.209115 0.983676
O O11 0.993706 0.000000 0.681626
O O12 0.924301 0.152716 0.114526
O O13 0.739677 0.000000 0.163042
O O14 0.102266 0.500000 0.902041
O O15 0.408490 0.597095 0.825831
O O16 0.071883 0.676701 0.912245
O O17 0.920321 0.594264 0.806105
O O18 0.638975 0.500000 0.733263
#
# Coordination Sequence:
#
# PCOD9148198 Si02
#       8
#     4   4   2   4   4   4   4   4
#     4  10  21  34  50  78 108 131 168 214 272 312
#     4   9  18  33  51  72 103 146 187 215 243 290
#     4  10  23  38  51  68  94 130 179 222 257 306
#     4  10  20  31  49  76 109 143 174 213 257 300
#     4  11  22  36  53  70  96 133 175 217 263 313
#     4   9  17  32  54  77  98 126 163 206 264 321
#     4  10  21  36  53  72  97 133 169 218 265 319
#     4   9  17  31  53  76 102 134 166 203 255 317
#
# _framework density 19.382290999999999
#
# number of rings (size 3 to 8) (size 9 to 14) (size 15 to 20)
#    0.000    2.267    1.333    1.400    1.867    5.333 
#    0.000    0.333    0.000    2.400    0.000    0.000 
#    0.000    3.200    0.000    0.000    0.000    0.000 
#
# Total GULP energy -167126.606860 kJ/mol
# GULP energy per Si atom -5570.886895 kJ/mol
# Density = 1.933818 g / cm^3
# Si number density = 19.382291 Si / 1000 Ang^3
#
#
#
# Elastic Constant Matrix: (Units=GPa)
#
#
# Indices 1 2 3 4 5 6 
#
# 1 79.9667 17.2410 15.2858 0.0000 -14.8912 0.0000
# 2 17.2410 150.3621 12.5450 0.0000 -12.3389 0.0000
# 3 15.2858 12.5450 66.0033 0.0000 -3.9308 0.0000
# 4 0.0000 0.0000 0.0000 10.9808 0.0000 -2.1609
# 5 -14.8912 -12.3389 -3.9308 0.0000 26.4327 0.0000
# 6 0.0000 0.0000 0.0000 -2.1609 0.0000 15.9549
#
#
#
# Elastic Compliance Matrix: (Units=1/GPa)
#
#
# Indices 1 2 3 4 5 6 
#
# 1 0.014598 -0.000833 -0.002781 0.000000 0.007422 0.000000
# 2 -0.000833 0.007048 -0.000987 0.000000 0.002674 0.000000
# 3 -0.002781 -0.000987 0.016003 0.000000 0.000352 0.000000
# 4 0.000000 0.000000 0.000000 0.093562 0.000000 0.012672
# 5 0.007422 0.002674 0.000352 0.000000 0.043314 0.000000
# 6 0.000000 0.000000 0.000000 0.012672 0.000000 0.064393
#
#
# Mechanical properties :
#
#
# Convention : Reuss Voigt Hill
#
# Bulk Modulus (GPa) = 35.15189 42.94174 39.04681
# Shear Modulus (GPa) = 19.40977 27.42437 23.41707
#
# Velocity S-wave (km/s) = 3.16795 3.76562 3.47964
# Velocity P-wave (km/s) = 5.61753 6.41169 6.02771
#
# Compressibility (1/GPa) = 0.02844798
#
# Stress axis : x y z
#
# Youngs Moduli (GPa) = 68.50090 141.88573 62.48681
#
# Poissons Ratio (x) = 0.11817 0.17375
# Poissons Ratio (y) = 0.05705 0.06170
# Poissons Ratio (z) = 0.19047 0.14010
#
# Static dielectric constant tensor:
#      x y z
#    x 1.762270 0.000000 0.069340 
#    y 0.000000 1.738250 0.000000 
#    z 0.069340 0.000000 1.691100 
# 
# From -- ./inp_files/73518.got.cif
#   From: 2010.05.17/outbox.cif.g08.bks.cpg/sg10_37_cif.got.tgz:73518.got - 2010.06.03 11:33:40.
