data_PCOD9148485
_publ_section_title
;
Structure prediction by ZEFSAII (Michael W. Deem and Ramdas Pophale) SiO2 
 PCOD9148485
Probable space group: P 2/M
;
_chemical_formula_sum "Si O2"
_cell_formula_units_Z 32
_cell_length_a 14.366035
_cell_length_b 7.949163
_cell_length_c 14.827352
_cell_angle_alpha 90.000000
_cell_angle_beta 107.103055
_cell_angle_gamma 90.000000
_cell_volume 1618.373089
_symmetry_space_group_name_H-M "P 2/M"
_symmetry_group_IT_number 10
_symmetry_cell_setting 'monoclinic'
loop_
_space_group_symop_operation_xyz
x,y,z
-x,y,-z
-x,-y,-z
x,-y,z
loop_
_atom_site_type_symbol
_atom_site_label
_atom_site_fract_x
_atom_site_fract_y
_atom_site_fract_z
Si Si1 0.070628 0.198188 0.797884
Si Si2 0.888380 0.797246 0.992479
Si Si3 0.278132 0.694966 0.189828
Si Si4 0.215765 0.306772 0.700937
Si Si5 0.362190 0.306932 0.890291
Si Si6 0.891480 0.293939 0.499822
Si Si7 0.431741 0.811138 0.096408
Si Si8 0.142025 0.295927 0.303918
O O1 0.122351 0.248099 0.905601
O O2 0.114890 0.300134 0.727796
O O3 0.955860 0.230009 0.771306
O O4 0.086694 0.000000 0.787488
O O5 0.876564 0.000000 0.980466
O O6 0.811894 0.710912 0.905506
O O7 0.000000 0.757054 0.000000
O O8 0.304372 0.500000 0.207827
O O9 0.367915 0.783897 0.166764
O O10 0.235280 0.760133 0.272417
O O11 0.246771 0.500000 0.695369
O O12 0.293498 0.230465 0.792951
O O13 0.187893 0.233749 0.596025
O O14 0.331862 0.500000 0.897061
O O15 0.473327 0.303426 0.886362
O O16 0.365885 0.218670 0.988573
O O17 0.891677 0.500000 0.497235
O O18 0.865210 0.243173 0.593915
O O19 0.000000 0.240080 0.500000
O O20 0.469478 0.000000 0.103740
O O21 0.140214 0.500000 0.300232
#
# Coordination Sequence:
#
# PCOD9148485 Si02
#       8
#     4   4   4   4   4   4   4   4
#     4  11  21  31  47  71 104 140 175 214 254 308
#     4  10  20  33  46  66 101 142 175 207 254 313
#     4  11  22  34  52  77 104 138 181 225 263 306
#     4  10  20  34  55  79 104 137 173 216 268 314
#     4  10  20  36  59  86 111 133 172 225 266 307
#     4   9  16  31  55  77 103 138 178 219 262 316
#     4  11  22  37  58  80 109 145 176 208 264 330
#     4  10  20  34  52  73 101 139 179 218 260 308
#
# _framework density 19.772943000000001
#
# number of rings (size 3 to 8) (size 9 to 14) (size 15 to 20)
#    0.000    1.750    2.500    3.750    0.000    4.750 
#    0.000    1.250    0.000    0.750    0.000    5.250 
#    0.000    0.000    0.000    0.000    0.000    0.000 
#
# Total GULP energy -178662.257761 kJ/mol
# GULP energy per Si atom -5583.195555 kJ/mol
# Density = 1.972794 g / cm^3
# Si number density = 19.772943 Si / 1000 Ang^3
#
#
#
# Elastic Constant Matrix: (Units=GPa)
#
#
# Indices 1 2 3 4 5 6 
#
# 1 65.6801 -0.6588 30.9636 0.0000 -15.6230 0.0000
# 2 -0.6588 33.0338 3.9320 0.0000 -2.7093 0.0000
# 3 30.9636 3.9320 116.0788 0.0000 -15.2118 0.0000
# 4 0.0000 0.0000 0.0000 -66.1749 0.0000 -138.0976
# 5 -15.6230 -2.7093 -15.2118 0.0000 33.4612 0.0000
# 6 0.0000 0.0000 0.0000 -138.0976 0.0000 -334.1987
#
#
#
# Elastic Compliance Matrix: (Units=1/GPa)
#
#
# Indices 1 2 3 4 5 6 
#
# 1 0.018876 0.001449 -0.004162 0.000000 0.007039 0.000000
# 2 0.001449 0.030648 -0.001075 0.000000 0.002669 0.000000
# 3 -0.004162 -0.001075 0.010097 0.000000 0.002560 0.000000
# 4 0.000000 0.000000 0.000000 -0.109767 0.000000 0.045358
# 5 0.007039 0.002669 0.002560 0.000000 0.034552 0.000000
# 6 0.000000 0.000000 0.000000 0.045358 0.000000 -0.021735
#
#
# Mechanical properties :
#
#
# Convention : Reuss Voigt Hill
#
# Bulk Modulus (GPa) = 19.21392 31.47404 25.34398
# Shear Modulus (GPa) = -403.03760 -61.34541 -232.19150
#
# Velocity S-wave (km/s) = -14.29249 -5.57605 -10.84822
# Velocity P-wave (km/s) = 16.20583 5.05016 12.00277
#
# Compressibility (1/GPa) = 0.05204561
#
# Stress axis : x y z
#
# Youngs Moduli (GPa) = 52.97700 32.62874 99.04048
#
# Poissons Ratio (x) = -0.04728 0.41219
# Poissons Ratio (y) = -0.07677 0.10646
# Poissons Ratio (z) = 0.22048 0.03507
#
# Static dielectric constant tensor:
#      x y z
#    x 1.702190 0.000000 -0.006970 
#    y 0.000000 1.694640 0.000000 
#    z -0.006970 0.000000 1.715580 
# 
# From -- ./inp_files/66194.got.cif
#   From: 2010.05.17/outbox.cif.g08.bks.cpg/sg10_34_cif.got.tgz:66194.got - 2010.06.03 11:33:40.
