data_PCOD9148035
_publ_section_title
;
Structure prediction by ZEFSAII (Michael W. Deem and Ramdas Pophale) SiO2 
 PCOD9148035
Probable space group: P 2/M
;
_chemical_formula_sum "Si O2"
_cell_formula_units_Z 26
_cell_length_a 11.236231
_cell_length_b 7.660329
_cell_length_c 20.002215
_cell_angle_alpha 90.000000
_cell_angle_beta 39.588215
_cell_angle_gamma 90.000000
_cell_volume 1097.151432
_symmetry_space_group_name_H-M "P 2/M"
_symmetry_group_IT_number 10
_symmetry_cell_setting 'monoclinic'
loop_
_space_group_symop_operation_xyz
x,y,z
-x,y,-z
-x,-y,-z
x,-y,z
loop_
_atom_site_type_symbol
_atom_site_label
_atom_site_fract_x
_atom_site_fract_y
_atom_site_fract_z
Si Si1 0.426143 0.500000 0.413018
Si Si2 0.417174 0.191040 0.306962
Si Si3 0.907141 0.201536 0.214178
Si Si4 0.261495 0.797112 0.568515
Si Si5 0.807924 0.301297 0.112518
Si Si6 0.707506 0.710552 0.894339
Si Si7 0.128029 0.710492 0.321304
O O1 0.422570 0.348076 0.356129
O O2 0.402108 0.656261 0.479286
O O3 0.614424 0.205839 0.181932
O O4 0.243394 0.216020 0.332892
O O5 0.408947 0.000000 0.342640
O O6 0.815583 0.254271 0.324305
O O7 0.835435 0.303352 0.180956
O O8 0.128876 0.221319 0.128614
O O9 0.860534 0.000000 0.222495
O O10 0.080181 0.780347 0.598440
O O11 0.318327 0.000000 0.545638
O O12 0.792103 0.500000 0.094020
O O13 0.000000 0.224888 0.000000
O O14 0.710792 0.500000 0.898599
O O15 0.764570 0.754522 0.793889
O O16 0.500000 0.772480 0.000000
O O17 0.115191 0.500000 0.332880
#
# Coordination Sequence:
#
# PCOD9148035 Si02
#       7
#     2   4   4   4   4   4   4
#     4  12  24  45  70  98 129 176 217 279 332 398
#     4  12  26  44  66  97 135 173 221 276 326 387
#     4  10  22  40  64  97 131 166 216 269 323 389
#     4  10  22  41  68 101 132 172 218 270 333 393
#     4  11  25  46  71  95 130 178 223 263 324 394
#     4   9  19  34  59  92 126 170 216 262 317 385
#     4  10  19  38  62  91 138 176 215 267 327 385
#
# _framework density 23.697731999999998
#
# number of rings (size 3 to 8) (size 9 to 14) (size 15 to 20)
#    0.000    1.538    2.308    1.846    4.308    3.385 
#    0.000    3.077    0.000    2.769    0.000    0.000 
#    0.000    0.000    0.000    0.000    0.000    0.000 
#
# Total GULP energy -145065.394265 kJ/mol
# GULP energy per Si atom -5579.438241 kJ/mol
# Density = 2.364379 g / cm^3
# Si number density = 23.697732 Si / 1000 Ang^3
#
#
#
# Elastic Constant Matrix: (Units=GPa)
#
#
# Indices 1 2 3 4 5 6 
#
# 1 121.2501 14.9284 49.5681 0.0000 -23.7471 0.0000
# 2 14.9284 124.1469 29.2062 0.0000 -1.7597 0.0000
# 3 49.5681 29.2062 49.1121 0.0000 -14.6313 0.0000
# 4 0.0000 0.0000 0.0000 28.3123 0.0000 1.8273
# 5 -23.7471 -1.7597 -14.6313 0.0000 29.8969 0.0000
# 6 0.0000 0.0000 0.0000 1.8273 0.0000 12.5896
#
#
#
# Elastic Compliance Matrix: (Units=1/GPa)
#
#
# Indices 1 2 3 4 5 6 
#
# 1 0.015000 0.001732 -0.014738 0.000000 0.004804 0.000000
# 2 0.001732 0.009734 -0.008143 0.000000 -0.002037 0.000000
# 3 -0.014738 -0.008143 0.042670 0.000000 0.008697 0.000000
# 4 0.000000 0.000000 0.000000 0.035654 0.000000 -0.005175
# 5 0.004804 -0.002037 0.008697 0.000000 0.041400 0.000000
# 6 0.000000 0.000000 0.000000 -0.005175 0.000000 0.080181
#
#
# Mechanical properties :
#
#
# Convention : Reuss Voigt Hill
#
# Bulk Modulus (GPa) = 39.83286 53.54604 46.68945
# Shear Modulus (GPa) = 18.16163 27.54685 22.85424
#
# Velocity S-wave (km/s) = 2.77137 3.41314 3.10886
# Velocity P-wave (km/s) = 5.20441 6.17876 5.71240
#
# Compressibility (1/GPa) = 0.02510490
#
# Stress axis : x y z
#
# Youngs Moduli (GPa) = 66.66645 102.73781 23.43590
#
# Poissons Ratio (x) = -0.17789 0.34540
# Poissons Ratio (y) = -0.11543 0.19083
# Poissons Ratio (z) = 0.98252 0.83657
#
# Static dielectric constant tensor:
#      x y z
#    x 1.869190 0.000000 -0.033870 
#    y 0.000000 1.859180 0.000000 
#    z -0.033870 0.000000 1.954030 
# 
# From -- ./inp_files/83488.got.cif
#   From: 2010.05.17/outbox.cif.g08.bks.cpg/sg10_42_cif.got.tgz:83488.got - 2010.06.03 11:33:40.
