data_PCOD9148258
_publ_section_title
;
Structure prediction by ZEFSAII (Michael W. Deem and Ramdas Pophale) SiO2 
 PCOD9148258
Probable space group: P 2/M
;
_chemical_formula_sum "Si O2"
_cell_formula_units_Z 32
_cell_length_a 21.067250
_cell_length_b 9.979511
_cell_length_c 11.404123
_cell_angle_alpha 90.000000
_cell_angle_beta 124.577874
_cell_angle_gamma 90.000000
_cell_volume 1974.087700
_symmetry_space_group_name_H-M "P 2/M"
_symmetry_group_IT_number 10
_symmetry_cell_setting 'monoclinic'
loop_
_space_group_symop_operation_xyz
x,y,z
-x,y,-z
-x,-y,-z
x,-y,z
loop_
_atom_site_type_symbol
_atom_site_label
_atom_site_fract_x
_atom_site_fract_y
_atom_site_fract_z
Si Si1 0.189314 0.158549 0.818942
Si Si2 0.784815 0.154404 0.426133
Si Si3 0.922850 0.655170 0.152293
Si Si4 0.291943 0.347416 0.476564
Si Si5 0.935571 0.848917 0.744558
Si Si6 0.409626 0.340466 0.399770
Si Si7 0.168875 0.253354 0.164150
Si Si8 0.302723 0.150589 0.145500
O O1 0.206259 0.186422 0.701141
O O2 0.124889 0.257837 0.803031
O O3 0.166970 0.000000 0.806563
O O4 0.264825 0.176824 0.979302
O O5 0.727887 0.249704 0.438099
O O6 0.868094 0.162982 0.576899
O O7 0.240570 0.000000 0.589478
O O8 0.934053 0.500000 0.197223
O O9 0.001466 0.735220 0.210435
O O10 0.873874 0.662292 0.980289
O O11 0.299699 0.500000 0.524517
O O12 0.366341 0.309550 0.477049
O O13 0.220284 0.336396 0.310082
O O14 0.893420 0.826826 0.824953
O O15 0.968259 0.000000 0.773217
O O16 0.500000 0.310522 0.500000
O O17 0.399728 0.500000 0.369512
O O18 0.365067 0.257079 0.254023
O O19 0.230345 0.161993 0.159451
O O20 0.333807 0.000000 0.181901
#
# Coordination Sequence:
#
# PCOD9148258 Si02
#       8
#     4   4   4   4   4   4   4   4
#     4   9  19  36  53  67  89 123 161 199 239 282
#     4   9  19  35  52  68  89 122 161 199 239 282
#     4  11  22  32  45  67  94 123 157 200 247 289
#     4   9  17  30  50  73  95 121 155 193 228 269
#     4  10  20  32  47  66  90 123 160 197 242 293
#     4   9  18  32  50  75 108 137 153 174 220 279
#     4   9  18  31  48  67  93 124 155 192 240 293
#     4   9  17  30  51  76  96 118 156 200 233 269
#
# _framework density 16.210018999999999
#
# number of rings (size 3 to 8) (size 9 to 14) (size 15 to 20)
#    0.000    2.625    0.000    1.500    0.000   12.250 
#    0.000    2.500    0.000    0.750    0.000    5.250 
#    0.000    0.000    0.000    0.000    0.000    0.000 
#
# Total GULP energy -178360.848932 kJ/mol
# GULP energy per Si atom -5573.776529 kJ/mol
# Density = 1.617312 g / cm^3
# Si number density = 16.210019 Si / 1000 Ang^3
#
#
#
# Elastic Constant Matrix: (Units=GPa)
#
#
# Indices 1 2 3 4 5 6 
#
# 1 96.3556 63.1692 51.5507 0.0000 -4.4655 0.0000
# 2 63.1692 92.2423 43.5536 0.0000 -3.7696 0.0000
# 3 51.5507 43.5536 61.0339 0.0000 -20.8184 0.0000
# 4 0.0000 0.0000 0.0000 17.0177 0.0000 -1.1504
# 5 -4.4655 -3.7696 -20.8184 0.0000 25.0844 0.0000
# 6 0.0000 0.0000 0.0000 -1.1504 0.0000 18.5032
#
#
#
# Elastic Compliance Matrix: (Units=1/GPa)
#
#
# Indices 1 2 3 4 5 6 
#
# 1 0.026966 -0.009081 -0.021096 0.000000 -0.014072 0.000000
# 2 -0.009081 0.021465 -0.009901 0.000000 -0.006608 0.000000
# 3 -0.021096 -0.009901 0.055069 0.000000 0.040460 0.000000
# 4 0.000000 0.000000 0.000000 0.059011 0.000000 0.003669
# 5 -0.014072 -0.006608 0.040460 0.000000 0.069947 0.000000
# 6 0.000000 0.000000 0.000000 0.003669 0.000000 0.054273
#
#
# Mechanical properties :
#
#
# Convention : Reuss Voigt Hill
#
# Bulk Modulus (GPa) = 42.83921 62.90873 52.87397
# Shear Modulus (GPa) = 13.34520 18.21160 15.77840
#
# Velocity S-wave (km/s) = 2.87238 3.35547 3.12328
# Velocity P-wave (km/s) = 6.12256 7.34200 6.75984
#
# Compressibility (1/GPa) = 0.02334310
#
# Stress axis : x y z
#
# Youngs Moduli (GPa) = 37.08404 46.58783 18.15914
#
# Poissons Ratio (x) = 0.42307 0.38308
# Poissons Ratio (y) = 0.33676 0.17980
# Poissons Ratio (z) = 0.78232 0.46128
#
# Static dielectric constant tensor:
#      x y z
#    x 1.528990 0.000000 -0.001790 
#    y 0.000000 1.550100 0.000000 
#    z -0.001790 0.000000 1.535750 
# 
# From -- ./inp_files/54804.got.cif
#   From: 2010.05.17/outbox.cif.g08.bks.cpg/sg10_28_cif.got.tgz:54804.got - 2010.06.03 11:33:40.
