data_PCOD9148175
_publ_section_title
;
Structure prediction by ZEFSAII (Michael W. Deem and Ramdas Pophale) SiO2 
 PCOD9148175
Probable space group: P 2/M
;
_chemical_formula_sum "Si O2"
_cell_formula_units_Z 28
_cell_length_a 22.338543
_cell_length_b 10.853529
_cell_length_c 19.069408
_cell_angle_alpha 90.000000
_cell_angle_beta 160.565720
_cell_angle_gamma 90.000000
_cell_volume 1538.328135
_symmetry_space_group_name_H-M "P 2/M"
_symmetry_group_IT_number 10
_symmetry_cell_setting 'monoclinic'
loop_
_space_group_symop_operation_xyz
x,y,z
-x,y,-z
-x,-y,-z
x,-y,z
loop_
_atom_site_type_symbol
_atom_site_label
_atom_site_fract_x
_atom_site_fract_y
_atom_site_fract_z
Si Si1 0.883875 0.744780 0.227768
Si Si2 0.106239 0.850316 0.187375
Si Si3 0.431662 0.261022 0.030550
Si Si4 0.126873 0.850630 0.935412
Si Si5 0.505328 0.850795 0.425290
Si Si6 0.415362 0.000000 0.829060
Si Si7 0.000669 0.000000 0.417217
Si Si8 0.241235 0.360850 0.688452
O O1 0.905111 0.771830 0.169372
O O2 0.048806 0.669135 0.442896
O O3 0.689133 0.697649 0.037653
O O4 0.899821 0.879084 0.280534
O O5 0.311528 0.808323 0.408665
O O6 0.009034 0.817878 0.152072
O O7 0.103838 0.000000 0.182783
O O8 0.000000 0.809958 0.000000
O O9 0.602388 0.342695 0.196476
O O10 0.513335 0.124018 0.128563
O O11 0.298214 0.270718 0.815135
O O12 0.113472 0.000000 0.906873
O O13 0.325516 0.823486 0.184419
O O14 0.500000 0.807364 0.500000
O O15 0.513578 0.000000 0.437835
O O16 0.200444 0.000000 0.603472
O O17 0.500000 0.000000 0.000000
O O18 0.000000 0.000000 0.500000
O O19 0.244554 0.500000 0.719384
#
# Coordination Sequence:
#
# PCOD9148175 Si02
#       8
#     4   4   4   4   4   2   2   4
#     4  12  23  37  54  80 114 147 182 233 281 332
#     4   9  15  26  46  66  96 143 184 213 244 300
#     4  11  22  37  59  82 108 143 187 235 280 334
#     4  10  20  31  44  73 112 144 181 218 260 318
#     4   9  15  26  44  66  94 138 186 213 243 302
#     4  12  18  34  56  81 107 137 179 224 278 328
#     4  12  22  36  56  77 109 153 189 222 271 333
#     4  11  24  41  60  80 102 139 194 245 287 332
#
# _framework density 18.201578999999999
#
# number of rings (size 3 to 8) (size 9 to 14) (size 15 to 20)
#    0.000    1.429    5.000    3.429    0.000    2.857 
#    0.000    0.000    0.000    0.000    0.000    0.000 
#    0.000    1.143    0.000    0.143    0.000    0.000 
#
# Total GULP energy -156268.030739 kJ/mol
# GULP energy per Si atom -5581.001098 kJ/mol
# Density = 1.816015 g / cm^3
# Si number density = 18.201579 Si / 1000 Ang^3
#
#
#
# Elastic Constant Matrix: (Units=GPa)
#
#
# Indices 1 2 3 4 5 6 
#
# 1 119.6738 6.8069 35.4475 0.0000 22.1904 0.0000
# 2 6.8069 39.3094 8.6938 0.0000 0.1492 0.0000
# 3 35.4475 8.6938 62.9527 0.0000 28.8143 0.0000
# 4 0.0000 0.0000 0.0000 3.0401 0.0000 -6.8473
# 5 22.1904 0.1492 28.8143 0.0000 32.6774 0.0000
# 6 0.0000 0.0000 0.0000 -6.8473 0.0000 -2.7126
#
#
#
# Elastic Compliance Matrix: (Units=1/GPa)
#
#
# Indices 1 2 3 4 5 6 
#
# 1 0.010242 -0.000846 -0.004139 0.000000 -0.003301 0.000000
# 2 -0.000846 0.026839 -0.005763 0.000000 0.005533 0.000000
# 3 -0.004139 -0.005763 0.029700 0.000000 -0.023352 0.000000
# 4 0.000000 0.000000 0.000000 0.049201 0.000000 -0.124198
# 5 -0.003301 0.005533 -0.023352 0.000000 0.053410 0.000000
# 6 0.000000 0.000000 0.000000 -0.124198 0.000000 -0.055142
#
#
# Mechanical properties :
#
#
# Convention : Reuss Voigt Hill
#
# Bulk Modulus (GPa) = 22.08217 35.98137 29.03177
# Shear Modulus (GPa) = 33.14723 18.00016 25.57369
#
# Velocity S-wave (km/s) = 4.27209 3.14814 3.75243
# Velocity P-wave (km/s) = 6.04091 5.74679 5.89569
#
# Compressibility (1/GPa) = 0.04528540
#
# Stress axis : x y z
#
# Youngs Moduli (GPa) = 97.63320 37.25891 33.66996
#
# Poissons Ratio (x) = 0.03151 0.13937
# Poissons Ratio (y) = 0.08256 0.19404
# Poissons Ratio (z) = 0.40415 0.21473
#
# Static dielectric constant tensor:
#      x y z
#    x 1.655690 0.000000 0.035160 
#    y 0.000000 1.609710 0.000000 
#    z 0.035160 0.000000 1.643190 
# 
# From -- ./inp_files/79605.got.cif
#   From: 2010.05.17/outbox.cif.g08.bks.cpg/sg10_40_cif.got.tgz:79605.got - 2010.06.03 11:33:40.
