data_PCOD9148153
_publ_section_title
;
Structure prediction by ZEFSAII (Michael W. Deem and Ramdas Pophale) SiO2 
 PCOD9148153
Probable space group: P 2/M
;
_chemical_formula_sum "Si O2"
_cell_formula_units_Z 24
_cell_length_a 13.157689
_cell_length_b 11.525932
_cell_length_c 18.505870
_cell_angle_alpha 90.000000
_cell_angle_beta 29.702106
_cell_angle_gamma 90.000000
_cell_volume 1390.594776
_symmetry_space_group_name_H-M "P 2/M"
_symmetry_group_IT_number 10
_symmetry_cell_setting 'monoclinic'
loop_
_space_group_symop_operation_xyz
x,y,z
-x,y,-z
-x,-y,-z
x,-y,z
loop_
_atom_site_type_symbol
_atom_site_label
_atom_site_fract_x
_atom_site_fract_y
_atom_site_fract_z
Si Si1 0.000000 0.204837 0.000000
Si Si2 0.443739 0.859198 0.928670
Si Si3 0.123089 0.361655 0.497965
Si Si4 0.445064 0.775503 0.763936
Si Si5 0.054324 0.000000 0.854370
Si Si6 0.503661 0.000000 0.367478
Si Si7 0.933286 0.000000 0.316634
Si Si8 0.839707 0.215378 0.768548
O O1 0.220771 0.268996 0.872475
O O2 0.996187 0.114889 0.934808
O O3 0.417800 0.821463 0.862439
O O4 0.667440 0.818953 0.817057
O O5 0.435890 0.000000 0.944250
O O6 0.284971 0.789274 0.078513
O O7 0.145023 0.500000 0.484104
O O8 0.351094 0.305151 0.362699
O O9 0.000000 0.327819 0.500000
O O10 0.974829 0.320986 0.655367
O O11 0.491032 0.887341 0.686388
O O12 0.297177 0.000000 0.707188
O O13 0.981845 0.000000 0.817246
O O14 0.307349 0.000000 0.537597
O O15 0.004561 0.110431 0.316940
#
# Coordination Sequence:
#
# PCOD9148153 Si02
#       8
#     2   4   4   4   2   2   2   4
#     4   9  20  34  53  82 114 158 187 221 278 338
#     4  11  20  33  54  88 123 148 173 225 283 351
#     4  11  24  42  59  78 109 152 197 240 281 325
#     4  11  20  36  59  83 116 150 187 229 278 337
#     4   9  19  32  47  81 125 153 178 221 278 345
#     4  10  20  30  53  86 115 148 188 225 280 341
#     4  12  18  29  52  84 120 147 179 231 282 346
#     4  11  21  33  53  85 116 146 185 220 286 343
#
# _framework density 17.258801999999999
#
# number of rings (size 3 to 8) (size 9 to 14) (size 15 to 20)
#    0.000    1.333    5.833    2.250    0.000    0.000 
#    0.000    5.417    0.000    0.000    0.000   15.167 
#    0.000    0.000    0.000    0.000    0.000    0.000 
#
# Total GULP energy -133644.216647 kJ/mol
# GULP energy per Si atom -5568.509027 kJ/mol
# Density = 1.721952 g / cm^3
# Si number density = 17.258802 Si / 1000 Ang^3
#
#
#
# Elastic Constant Matrix: (Units=GPa)
#
#
# Indices 1 2 3 4 5 6 
#
# 1 89.4181 26.7151 46.6270 0.0000 -10.2495 0.0000
# 2 26.7151 55.2727 37.5854 0.0000 -12.1510 0.0000
# 3 46.6270 37.5854 121.1777 0.0000 -24.8536 0.0000
# 4 0.0000 0.0000 0.0000 10.3598 0.0000 0.9542
# 5 -10.2495 -12.1510 -24.8536 0.0000 41.1939 0.0000
# 6 0.0000 0.0000 0.0000 0.9542 0.0000 16.9024
#
#
#
# Elastic Compliance Matrix: (Units=1/GPa)
#
#
# Indices 1 2 3 4 5 6 
#
# 1 0.014700 -0.004153 -0.004416 0.000000 -0.000232 0.000000
# 2 -0.004153 0.024393 -0.005368 0.000000 0.002923 0.000000
# 3 -0.004416 -0.005368 0.012629 0.000000 0.004937 0.000000
# 4 0.000000 0.000000 0.000000 0.097032 0.000000 -0.005478
# 5 -0.000232 0.002923 0.004937 0.000000 0.028059 0.000000
# 6 0.000000 0.000000 0.000000 -0.005478 0.000000 0.059472
#
#
# Mechanical properties :
#
#
# Convention : Reuss Voigt Hill
#
# Bulk Modulus (GPa) = 41.93310 54.19150 48.06230
# Shear Modulus (GPa) = 18.37504 24.02063 21.19783
#
# Velocity S-wave (km/s) = 3.26648 3.73472 3.50842
# Velocity P-wave (km/s) = 6.21095 7.07566 6.65736
#
# Compressibility (1/GPa) = 0.02384751
#
# Stress axis : x y z
#
# Youngs Moduli (GPa) = 68.02578 40.99620 79.18219
#
# Poissons Ratio (x) = 0.17027 0.34964
# Poissons Ratio (y) = 0.28254 0.42506
# Poissons Ratio (z) = 0.30038 0.22007
#
# Static dielectric constant tensor:
#      x y z
#    x 1.588830 0.000000 -0.016610 
#    y 0.000000 1.549000 0.000000 
#    z -0.016610 0.000000 1.641550 
# 
# From -- ./inp_files/76640.got.cif
#   From: 2010.05.17/outbox.cif.g08.bks.cpg/sg10_39_cif.got.tgz:76640.got - 2010.06.03 11:33:40.
