data_PCOD9148022
_publ_section_title
;
Structure prediction by ZEFSAII (Michael W. Deem and Ramdas Pophale) SiO2 
 PCOD9148022
Probable space group: P 2/M
;
_chemical_formula_sum "Si O2"
_cell_formula_units_Z 26
_cell_length_a 9.246743
_cell_length_b 14.616500
_cell_length_c 10.794228
_cell_angle_alpha 90.000000
_cell_angle_beta 67.243555
_cell_angle_gamma 90.000000
_cell_volume 1345.330078
_symmetry_space_group_name_H-M "P 2/M"
_symmetry_group_IT_number 10
_symmetry_cell_setting 'monoclinic'
loop_
_space_group_symop_operation_xyz
x,y,z
-x,y,-z
-x,-y,-z
x,-y,z
loop_
_atom_site_type_symbol
_atom_site_label
_atom_site_fract_x
_atom_site_fract_y
_atom_site_fract_z
Si Si1 0.068019 0.101220 0.114360
Si Si2 0.365695 0.215074 0.941824
Si Si3 0.916106 0.719275 0.265555
Si Si4 0.559502 0.748741 0.346284
Si Si5 0.000000 0.651673 0.500000
Si Si6 0.668454 0.598812 0.694264
Si Si7 0.200747 0.392595 0.071697
O O1 0.961172 0.178241 0.212006
O O2 0.071389 0.000000 0.170917
O O3 0.238077 0.146022 0.039569
O O4 0.000000 0.092634 0.000000
O O5 0.418069 0.189065 0.784936
O O6 0.500000 0.219996 0.000000
O O7 0.286273 0.316621 0.959343
O O8 0.731167 0.706096 0.314252
O O9 0.969454 0.709681 0.388607
O O10 0.025214 0.646924 0.154353
O O11 0.500000 0.785606 0.500000
O O12 0.434159 0.675001 0.338122
O O13 0.840646 0.597449 0.576520
O O14 0.590859 0.500000 0.707073
O O15 0.706011 0.613837 0.827393
O O16 0.200474 0.500000 0.035398
#
# Coordination Sequence:
#
# PCOD9148022 Si02
#       7
#     4   4   4   4   2   4   4
#     4  10  21  40  67  91 111 143 193 247 300 349
#     4  11  22  39  64  87 119 156 197 241 293 349
#     4  10  21  38  62  85 118 152 199 241 299 344
#     4  12  23  37  54  87 121 157 192 241 296 344
#     4  10  19  38  57  78 116 170 192 238 284 354
#     4  10  20  34  53  82 116 161 209 242 283 335
#     4   9  20  37  59  83 112 157 205 248 290 337
#
# _framework density 19.326112999999999
#
# number of rings (size 3 to 8) (size 9 to 14) (size 15 to 20)
#    0.000    1.692    4.615    0.231    0.000    2.769 
#    0.000    1.154    0.000    1.846    0.000    0.000 
#    0.000    0.000    0.000    0.000    0.000    0.000 
#
# Total GULP energy -144945.870950 kJ/mol
# GULP energy per Si atom -5574.841190 kJ/mol
# Density = 1.928213 g / cm^3
# Si number density = 19.326113 Si / 1000 Ang^3
#
#
#
# Elastic Constant Matrix: (Units=GPa)
#
#
# Indices 1 2 3 4 5 6 
#
# 1 99.4502 11.3853 10.9685 0.0000 -19.9004 0.0000
# 2 11.3853 95.9591 7.7462 0.0000 -7.3921 0.0000
# 3 10.9685 7.7462 78.2865 0.0000 3.0003 0.0000
# 4 0.0000 0.0000 0.0000 107.7387 0.0000 -26.3740
# 5 -19.9004 -7.3921 3.0003 0.0000 26.7343 0.0000
# 6 0.0000 0.0000 0.0000 -26.3740 0.0000 19.4451
#
#
#
# Elastic Compliance Matrix: (Units=1/GPa)
#
#
# Indices 1 2 3 4 5 6 
#
# 1 0.012167 -0.000580 -0.001997 0.000000 0.009121 0.000000
# 2 -0.000580 0.010784 -0.001088 0.000000 0.002672 0.000000
# 3 -0.001997 -0.001088 0.013287 0.000000 -0.003278 0.000000
# 4 0.000000 0.000000 0.000000 0.013895 0.000000 0.018847
# 5 0.009121 0.002672 -0.003278 0.000000 0.045301 0.000000
# 6 0.000000 0.000000 0.000000 0.018847 0.000000 0.076989
#
#
# Mechanical properties :
#
#
# Convention : Reuss Voigt Hill
#
# Bulk Modulus (GPa) = 34.59297 37.09953 35.84625
# Shear Modulus (GPa) = 26.40083 47.02334 36.71208
#
# Velocity S-wave (km/s) = 3.70005 4.93805 4.36318
# Velocity P-wave (km/s) = 6.01600 7.19380 6.63110
#
# Compressibility (1/GPa) = 0.02890761
#
# Stress axis : x y z
#
# Youngs Moduli (GPa) = 82.18974 92.73347 75.26330
#
# Poissons Ratio (x) = 0.05377 0.15029
# Poissons Ratio (y) = 0.04765 0.08190
# Poissons Ratio (z) = 0.16412 0.10091
#
# Static dielectric constant tensor:
#      x y z
#    x 1.697320 0.000000 -0.029430 
#    y 0.000000 1.689240 0.000000 
#    z -0.029430 0.000000 1.738780 
# 
# From -- ./inp_files/42592.got.cif
#   From: 2010.05.17/outbox.cif.g08.bks.cpg/sg10_22_cif.got.tgz:42592.got - 2010.06.03 11:33:40.
