data_PCOD9148953
_publ_section_title
;
Structure prediction by ZEFSAII (Michael W. Deem and Ramdas Pophale) SiO2 
 PCOD9148953
Probable space group: P 2/M
;
_chemical_formula_sum "Si O2"
_cell_formula_units_Z 24
_cell_length_a 21.870220
_cell_length_b 8.067880
_cell_length_c 10.464076
_cell_angle_alpha 90.000000
_cell_angle_beta 44.197735
_cell_angle_gamma 90.000000
_cell_volume 1287.156789
_symmetry_space_group_name_H-M "P 2/M"
_symmetry_group_IT_number 10
_symmetry_cell_setting 'monoclinic'
loop_
_space_group_symop_operation_xyz
x,y,z
-x,y,-z
-x,-y,-z
x,-y,z
loop_
_atom_site_type_symbol
_atom_site_label
_atom_site_fract_x
_atom_site_fract_y
_atom_site_fract_z
Si Si1 0.732478 0.799567 0.007419
Si Si2 0.268237 0.699438 0.705177
Si Si3 0.931696 0.699978 0.996504
Si Si4 0.409376 0.304393 0.288937
Si Si5 0.933288 0.200141 0.707962
Si Si6 0.393715 0.804641 0.029035
O O1 0.833007 0.743455 0.836136
O O2 0.668536 0.741400 0.990850
O O3 0.731617 0.000000 0.007820
O O4 0.705633 0.743759 0.189390
O O5 0.265546 0.500000 0.698789
O O6 0.168400 0.761030 0.833963
O O7 0.337693 0.760076 0.496619
O O8 0.929555 0.500000 0.007273
O O9 0.958909 0.747306 0.812345
O O10 0.000000 0.761328 0.000000
O O11 0.422109 0.500000 0.291538
O O12 0.379087 0.278949 0.188217
O O13 0.504342 0.220806 0.158822
O O14 0.000000 0.260818 0.500000
O O15 0.932869 0.000000 0.704476
O O16 0.377648 0.000000 0.069867
#
# Coordination Sequence:
#
# PCOD9148953 Si02
#       6
#     4   4   4   4   4   4
#     4   9  19  34  51  72  98 128 161 198 239 284
#     4   9  19  34  51  72  98 128 161 198 239 284
#     4   9  18  33  51  72  99 128 160 198 238 283
#     4  10  20  34  51  72  98 127 161 199 240 285
#     4   9  18  33  51  72  99 128 160 198 238 283
#     4  10  20  34  51  72  98 127 161 199 240 285
#
# _framework density 18.645747
#
# number of rings (size 3 to 8) (size 9 to 14) (size 15 to 20)
#    0.000    2.667    0.000    2.000    0.000    5.333 
#    0.000    3.333    0.000    0.000    0.000    0.000 
#    0.000    0.000    0.000    0.000    0.000    0.000 
#
# Total GULP energy -133864.558506 kJ/mol
# GULP energy per Si atom -5577.689938 kJ/mol
# Density = 1.860331 g / cm^3
# Si number density = 18.645747 Si / 1000 Ang^3
#
#
#
# Elastic Constant Matrix: (Units=GPa)
#
#
# Indices 1 2 3 4 5 6 
#
# 1 158.2069 -6.7231 76.4985 0.0000 22.6207 0.0000
# 2 -6.7231 8.0814 -5.2328 0.0000 -3.0945 0.0000
# 3 76.4985 -5.2328 174.1780 0.0000 9.0136 0.0000
# 4 0.0000 0.0000 0.0000 24.2246 0.0000 4.6170
# 5 22.6207 -3.0945 9.0136 0.0000 9.1348 0.0000
# 6 0.0000 0.0000 0.0000 4.6170 0.0000 21.5495
#
#
#
# Elastic Compliance Matrix: (Units=1/GPa)
#
#
# Indices 1 2 3 4 5 6 
#
# 1 0.011899 -0.002810 -0.003937 0.000000 -0.026532 0.000000
# 2 -0.002810 0.143432 0.002812 0.000000 0.052773 0.000000
# 3 -0.003937 0.002812 0.007378 0.000000 0.003423 0.000000
# 4 0.000000 0.000000 0.000000 0.043038 0.000000 -0.009221
# 5 -0.026532 0.052773 0.003423 0.000000 0.189673 0.000000
# 6 0.000000 0.000000 0.000000 -0.009221 0.000000 0.048380
#
#
# Mechanical properties :
#
#
# Convention : Reuss Voigt Hill
#
# Bulk Modulus (GPa) = 6.45835 52.17240 29.31537
# Shear Modulus (GPa) = 9.93476 29.37670 19.65573
#
# Velocity S-wave (km/s) = 2.31079 3.97358 3.25032
# Velocity P-wave (km/s) = 3.25436 7.00672 5.46283
#
# Compressibility (1/GPa) = 0.15483839
#
# Stress axis : x y z
#
# Youngs Moduli (GPa) = 84.04110 6.97195 135.54002
#
# Poissons Ratio (x) = 0.01959 0.53367
# Poissons Ratio (y) = 0.23617 -0.38119
# Poissons Ratio (z) = 0.33090 -0.01961
#
# Static dielectric constant tensor:
#      x y z
#    x 1.634580 0.000000 -0.015020 
#    y 0.000000 1.664030 0.000000 
#    z -0.015020 0.000000 1.629670 
# 
# From -- ./inp_files/33771.got.cif
#   From: 2010.05.17/outbox.cif.g08.bks.cpg/sg10_17_cif.got.tgz:33771.got - 2010.06.03 11:33:40.
