data_PCOD9148675
_publ_section_title
;
Structure prediction by ZEFSAII (Michael W. Deem and Ramdas Pophale) SiO2 
 PCOD9148675
Probable space group: P 2/M
;
_chemical_formula_sum "Si O2"
_cell_formula_units_Z 28
_cell_length_a 16.800251
_cell_length_b 8.207104
_cell_length_c 11.659524
_cell_angle_alpha 90.000000
_cell_angle_beta 118.472387
_cell_angle_gamma 90.000000
_cell_volume 1413.183668
_symmetry_space_group_name_H-M "P 2/M"
_symmetry_group_IT_number 10
_symmetry_cell_setting 'monoclinic'
loop_
_space_group_symop_operation_xyz
x,y,z
-x,y,-z
-x,-y,-z
x,-y,z
loop_
_atom_site_type_symbol
_atom_site_label
_atom_site_fract_x
_atom_site_fract_y
_atom_site_fract_z
Si Si1 0.766708 0.805346 0.834261
Si Si2 0.661407 0.696638 0.104116
Si Si3 0.382227 0.696586 0.668951
Si Si4 0.420826 0.805750 0.184434
Si Si5 0.022428 0.699504 0.386005
Si Si6 0.789380 0.303996 0.592517
Si Si7 0.850458 0.696714 0.122169
O O1 0.666921 0.744620 0.805686
O O2 0.791560 0.739826 0.727191
O O3 0.763796 0.000000 0.827450
O O4 0.834952 0.754094 0.981985
O O5 0.661093 0.500000 0.106382
O O6 0.636529 0.755006 0.213765
O O7 0.761909 0.750308 0.133766
O O8 0.593919 0.750100 0.957091
O O9 0.378841 0.500000 0.668493
O O10 0.483119 0.746293 0.703991
O O11 0.302578 0.756275 0.531033
O O12 0.419292 0.000000 0.185956
O O13 0.022928 0.500000 0.386109
O O14 0.120614 0.754822 0.410677
O O15 0.000000 0.750433 0.500000
O O16 0.942483 0.752095 0.245576
O O17 0.789089 0.500000 0.582593
O O18 0.850325 0.500000 0.122432
#
# Coordination Sequence:
#
# PCOD9148675 Si02
#       7
#     4   4   4   4   4   4   4
#     4  10  22  39  54  72 103 140 178 218 259 302
#     4   9  17  31  52  79 108 135 167 209 259 312
#     4  10  20  33  51  77 107 137 169 212 264 310
#     4  10  21  35  52  74 101 137 178 217 257 305
#     4   9  17  32  57  87 112 133 164 209 258 307
#     4  10  21  36  55  79 106 136 173 214 255 306
#     4   9  17  32  57  82 105 137 173 210 253 304
#
# _framework density 19.813417999999999
#
# number of rings (size 3 to 8) (size 9 to 14) (size 15 to 20)
#    0.000    2.429    0.000    2.143    0.000    9.143 
#    0.000    6.429    0.000    3.429    0.000    0.000 
#    0.000    0.000    0.000    0.000    0.000    0.000 
#
# Total GULP energy -156333.639777 kJ/mol
# GULP energy per Si atom -5583.344278 kJ/mol
# Density = 1.976832 g / cm^3
# Si number density = 19.813418 Si / 1000 Ang^3
#
#
#
# Elastic Constant Matrix: (Units=GPa)
#
#
# Indices 1 2 3 4 5 6 
#
# 1 100.6299 8.4086 99.2911 0.0000 2.2967 0.0000
# 2 8.4086 6.2631 7.9949 0.0000 3.3202 0.0000
# 3 99.2911 7.9949 149.7089 0.0000 16.2478 0.0000
# 4 0.0000 0.0000 0.0000 -56.6470 0.0000 19.1108
# 5 2.2967 3.3202 16.2478 0.0000 39.6816 0.0000
# 6 0.0000 0.0000 0.0000 19.1108 0.0000 6.1787
#
#
#
# Elastic Compliance Matrix: (Units=1/GPa)
#
#
# Indices 1 2 3 4 5 6 
#
# 1 0.032756 -0.021085 -0.021542 0.000000 0.008689 0.000000
# 2 -0.021085 0.189705 0.005697 0.000000 -0.016985 0.000000
# 3 -0.021542 0.005697 0.021536 0.000000 -0.008048 0.000000
# 4 0.000000 0.000000 0.000000 -0.008639 0.000000 0.026720
# 5 0.008689 -0.016985 -0.008048 0.000000 0.029414 0.000000
# 6 0.000000 0.000000 0.000000 0.026720 0.000000 0.079201
#
#
# Mechanical properties :
#
#
# Convention : Reuss Voigt Hill
#
# Bulk Modulus (GPa) = 5.87761 54.22123 30.04942
# Shear Modulus (GPa) = 10.53639 7.23649 8.88644
#
# Velocity S-wave (km/s) = 2.30854 1.91318 2.12009
# Velocity P-wave (km/s) = 3.17470 5.68381 4.60350
#
# Compressibility (1/GPa) = 0.17013710
#
# Stress axis : x y z
#
# Youngs Moduli (GPa) = 30.52862 5.27134 46.43398
#
# Poissons Ratio (x) = 0.11115 1.00027
# Poissons Ratio (y) = 0.64370 -0.26452
# Poissons Ratio (z) = 0.65764 -0.03003
#
# Static dielectric constant tensor:
#      x y z
#    x 1.700380 0.000000 0.014390 
#    y 0.000000 1.691090 0.000000 
#    z 0.014390 0.000000 1.669240 
# 
# From -- ./inp_files/49374.got.cif
#   From: 2010.05.17/outbox.cif.g08.bks.cpg/sg10_25_cif.got.tgz:49374.got - 2010.06.03 11:33:40.
