data_PCOD9148159
_publ_section_title
;
Structure prediction by ZEFSAII (Michael W. Deem and Ramdas Pophale) SiO2 
 PCOD9148159
Probable space group: P 2/M
;
_chemical_formula_sum "Si O2"
_cell_formula_units_Z 20
_cell_length_a 28.451605
_cell_length_b 7.373141
_cell_length_c 15.046035
_cell_angle_alpha 90.000000
_cell_angle_beta 13.769993
_cell_angle_gamma 90.000000
_cell_volume 751.283111
_symmetry_space_group_name_H-M "P 2/M"
_symmetry_group_IT_number 10
_symmetry_cell_setting 'monoclinic'
loop_
_space_group_symop_operation_xyz
x,y,z
-x,y,-z
-x,-y,-z
x,-y,z
loop_
_atom_site_type_symbol
_atom_site_label
_atom_site_fract_x
_atom_site_fract_y
_atom_site_fract_z
Si Si1 0.804549 0.782069 0.601094
Si Si2 0.433871 0.798345 0.525659
Si Si3 0.150594 0.289440 0.295785
Si Si4 0.644809 0.221722 0.518294
Si Si5 0.267647 0.217139 0.453413
O O1 0.927225 0.724295 0.461401
O O2 0.844917 0.715074 0.427654
O O3 0.811528 0.000000 0.585038
O O4 0.579850 0.728463 0.040291
O O5 0.500000 0.714806 0.500000
O O6 0.319404 0.717320 0.649433
O O7 0.351968 0.000000 0.695838
O O8 0.647927 0.814650 0.086994
O O9 0.191649 0.500000 0.201646
O O10 0.000000 0.221554 0.500000
O O11 0.763667 0.282018 0.388367
O O12 0.658765 0.000000 0.489156
O O13 0.234600 0.000000 0.518077
O O14 0.500000 0.240816 0.000000
#
# Coordination Sequence:
#
# PCOD9148159 Si02
#       5
#     4   4   4   4   4
#     4   8  13  22  38  58  78 103 136 171 205 242
#     4   9  17  29  46  67  87 109 140 175 209 246
#     4  10  20  31  42  59  85 116 145 172 207 249
#     4   7  10  18  34  57  83 105 126 159 204 249
#     4   7   9  15  31  55  79 102 127 157 201 250
#
# _framework density 26.621124999999999
#
# number of rings (size 3 to 8) (size 9 to 14) (size 15 to 20)
#    0.000    3.800    0.000    4.200    0.000    2.000 
#    0.000    0.000    0.000   15.000    0.000    1.400 
#    0.000   11.200    0.000    0.000    0.000    0.000 
#
# Total GULP energy -111421.747277 kJ/mol
# GULP energy per Si atom -5571.087364 kJ/mol
# Density = 2.656053 g / cm^3
# Si number density = 26.621125 Si / 1000 Ang^3
#
#
#
# Elastic Constant Matrix: (Units=GPa)
#
#
# Indices 1 2 3 4 5 6 
#
# 1 383.7530 3.5726 23.8103 0.0000 11.8645 0.0000
# 2 3.5726 90.9814 -0.8294 0.0000 1.9297 0.0000
# 3 23.8103 -0.8294 67.8384 0.0000 30.9715 0.0000
# 4 0.0000 0.0000 0.0000 -0.8170 0.0000 7.8588
# 5 11.8645 1.9297 30.9715 0.0000 28.7640 0.0000
# 6 0.0000 0.0000 0.0000 7.8588 0.0000 40.6435
#
#
#
# Elastic Compliance Matrix: (Units=1/GPa)
#
#
# Indices 1 2 3 4 5 6 
#
# 1 0.002665 -0.000109 -0.000862 0.000000 -0.000164 0.000000
# 2 -0.000109 0.011041 0.000966 0.000000 -0.001735 0.000000
# 3 -0.000862 0.000966 0.029351 0.000000 -0.031313 0.000000
# 4 0.000000 0.000000 0.000000 -0.427973 0.000000 0.082752
# 5 -0.000164 -0.001735 -0.031313 0.000000 0.068666 0.000000
# 6 0.000000 0.000000 0.000000 0.082752 0.000000 0.008603
#
#
# Mechanical properties :
#
#
# Convention : Reuss Voigt Hill
#
# Bulk Modulus (GPa) = 23.23064 66.18667 44.70866
# Shear Modulus (GPa) = -17.04819 48.11936 15.53559
#
# Velocity S-wave (km/s) = -2.53336 4.25616 2.41836
# Velocity P-wave (km/s) = 0.43373 7.00497 4.96275
#
# Compressibility (1/GPa) = 0.04304659
#
# Stress axis : x y z
#
# Youngs Moduli (GPa) = 375.17668 90.57028 34.07032
#
# Poissons Ratio (x) = 0.00988 0.02937
# Poissons Ratio (y) = 0.04091 -0.03290
# Poissons Ratio (z) = 0.32340 -0.08745
#
# Static dielectric constant tensor:
#      x y z
#    x 2.267050 0.000000 -0.100120 
#    y 0.000000 2.015790 0.000000 
#    z -0.100120 0.000000 2.204750 
# 
# From -- ./inp_files/26756.got.cif
#   From: 2010.05.17/outbox.cif.g08.bks.cpg/sg10_14_cif.got.tgz:26756.got - 2010.06.03 11:33:40.
