data_PCOD9148778
_publ_section_title
;
Structure prediction by ZEFSAII (Michael W. Deem and Ramdas Pophale) SiO2 
 PCOD9148778
Probable space group: P 2/M
;
_chemical_formula_sum "Si O2"
_cell_formula_units_Z 32
_cell_length_a 14.118338
_cell_length_b 15.074575
_cell_length_c 8.609622
_cell_angle_alpha 90.000000
_cell_angle_beta 112.869264
_cell_angle_gamma 90.000000
_cell_volume 1688.333057
_symmetry_space_group_name_H-M "P 2/M"
_symmetry_group_IT_number 10
_symmetry_cell_setting 'monoclinic'
loop_
_space_group_symop_operation_xyz
x,y,z
-x,y,-z
-x,-y,-z
x,-y,z
loop_
_atom_site_type_symbol
_atom_site_label
_atom_site_fract_x
_atom_site_fract_y
_atom_site_fract_z
Si Si1 0.370763 0.601000 0.743205
Si Si2 0.238798 0.750817 0.515822
Si Si3 0.434850 0.393288 0.308395
Si Si4 0.746303 0.396201 0.007936
Si Si5 0.856753 0.768747 0.209147
Si Si6 0.619396 0.896277 0.549634
Si Si7 0.062552 0.780944 0.182237
Si Si8 0.212102 0.898575 0.085429
O O1 0.358248 0.500000 0.682181
O O2 0.303094 0.664048 0.594215
O O3 0.488457 0.624520 0.786256
O O4 0.330539 0.605528 0.892507
O O5 0.177143 0.771666 0.634857
O O6 0.317468 0.829686 0.520819
O O7 0.156563 0.734114 0.327552
O O8 0.500000 0.361202 0.500000
O O9 0.424255 0.500000 0.318712
O O10 0.321363 0.363101 0.183030
O O11 0.777024 0.500000 0.006056
O O12 0.834186 0.328368 0.119291
O O13 0.974069 0.796835 0.252354
O O14 0.788785 0.835533 0.063312
O O15 0.500000 0.872651 0.500000
O O16 0.682935 0.891357 0.750880
O O17 0.623643 0.000000 0.500593
O O18 0.119042 0.864824 0.137633
O O19 0.000000 0.736831 0.000000
O O20 0.194998 0.000000 0.031257
#
# Coordination Sequence:
#
# PCOD9148778 Si02
#       8
#     4   4   4   4   4   4   4   4
#     4   9  18  32  49  70 100 137 171 206 253 305
#     4  10  20  34  54  79 103 132 173 217 254 296
#     4   9  17  28  45  70  97 127 169 218 256 289
#     4   9  18  33  49  68 101 141 173 203 249 306
#     4  10  20  33  53  79 104 131 172 221 257 290
#     4   9  19  37  57  76 104 142 174 201 247 313
#     4   9  19  35  55  74 101 135 168 207 259 311
#     4   9  19  36  57  79 104 135 168 204 257 317
#
# _framework density 18.953606000000001
#
# number of rings (size 3 to 8) (size 9 to 14) (size 15 to 20)
#    0.000    2.750    0.000    0.750    0.000    8.750 
#    0.000    2.500    0.000   15.000    0.000    0.000 
#    0.000    0.000    0.000    0.000    0.000    0.000 
#
# Total GULP energy -178201.661890 kJ/mol
# GULP energy per Si atom -5568.801934 kJ/mol
# Density = 1.891047 g / cm^3
# Si number density = 18.953606 Si / 1000 Ang^3
#
#
#
# Elastic Constant Matrix: (Units=GPa)
#
#
# Indices 1 2 3 4 5 6 
#
# 1 90.9497 17.7780 38.4598 0.0000 7.0894 0.0000
# 2 17.7780 58.5363 47.0299 0.0000 7.3407 0.0000
# 3 38.4598 47.0299 88.7380 0.0000 18.5353 0.0000
# 4 0.0000 0.0000 0.0000 19.6436 0.0000 -10.0062
# 5 7.0894 7.3407 18.5353 0.0000 25.6682 0.0000
# 6 0.0000 0.0000 0.0000 -10.0062 0.0000 13.5293
#
#
#
# Elastic Compliance Matrix: (Units=1/GPa)
#
#
# Indices 1 2 3 4 5 6 
#
# 1 0.013510 0.001100 -0.006586 0.000000 0.000710 0.000000
# 2 0.001100 0.030094 -0.017152 0.000000 0.003475 0.000000
# 3 -0.006586 -0.017152 0.025683 0.000000 -0.011822 0.000000
# 4 0.000000 0.000000 0.000000 0.081679 0.000000 0.060409
# 5 0.000710 0.003475 -0.011822 0.000000 0.046305 0.000000
# 6 0.000000 0.000000 0.000000 0.060409 0.000000 0.118592
#
#
# Mechanical properties :
#
#
# Convention : Reuss Voigt Hill
#
# Bulk Modulus (GPa) = 41.64973 49.41772 45.53372
# Shear Modulus (GPa) = 13.54487 20.76531 17.15509
#
# Velocity S-wave (km/s) = 2.67616 3.31355 3.01177
# Velocity P-wave (km/s) = 5.61884 6.38507 6.01417
#
# Compressibility (1/GPa) = 0.02400976
#
# Stress axis : x y z
#
# Youngs Moduli (GPa) = 74.01923 33.22921 38.93578
#
# Poissons Ratio (x) = -0.03654 0.25645
# Poissons Ratio (y) = -0.08139 0.66782
# Poissons Ratio (z) = 0.48753 0.56994
#
# Static dielectric constant tensor:
#      x y z
#    x 1.676650 0.000000 -0.005970 
#    y 0.000000 1.652330 0.000000 
#    z -0.005970 0.000000 1.692700 
# 
# From -- ./inp_files/29571.got.cif
#   From: 2010.05.17/outbox.cif.g08.bks.cpg/sg10_15_cif.got.tgz:29571.got - 2010.06.03 11:33:40.
