data_PCOD9148152
_publ_section_title
;
Structure prediction by ZEFSAII (Michael W. Deem and Ramdas Pophale) SiO2 
 PCOD9148152
Probable space group: P 2/M
;
_chemical_formula_sum "Si O2"
_cell_formula_units_Z 22
_cell_length_a 13.232114
_cell_length_b 17.997004
_cell_length_c 5.445068
_cell_angle_alpha 90.000000
_cell_angle_beta 124.365992
_cell_angle_gamma 90.000000
_cell_volume 1070.342665
_symmetry_space_group_name_H-M "P 2/M"
_symmetry_group_IT_number 10
_symmetry_cell_setting 'monoclinic'
loop_
_space_group_symop_operation_xyz
x,y,z
-x,y,-z
-x,-y,-z
x,-y,z
loop_
_atom_site_type_symbol
_atom_site_label
_atom_site_fract_x
_atom_site_fract_y
_atom_site_fract_z
Si Si1 0.852171 0.915176 0.290943
Si Si2 0.853000 0.583284 0.646619
Si Si3 0.000000 0.316245 0.500000
Si Si4 0.237105 0.309638 0.094489
Si Si5 0.149517 0.171825 0.212055
Si Si6 0.614432 0.584195 0.975663
O O1 0.819867 0.869095 0.491304
O O2 0.000000 0.917694 0.500000
O O3 0.806978 0.000000 0.243621
O O4 0.821041 0.878694 0.985785
O O5 0.896041 0.500000 0.715377
O O6 0.953362 0.635056 0.661671
O O7 0.736080 0.584362 0.308072
O O8 0.809528 0.614520 0.844882
O O9 0.127679 0.279834 0.763371
O O10 0.362599 0.340923 0.152615
O O11 0.229474 0.246620 0.290946
O O12 0.000000 0.187096 0.000000
O O13 0.606454 0.500000 0.849081
O O14 0.500000 0.591231 0.000000
#
# Coordination Sequence:
#
# PCOD9148152 Si02
#       6
#     4   4   2   4   4   4
#     4   9  18  32  50  74 106 147 185 216 257 318
#     4  10  20  33  50  71  99 135 177 220 266 322
#     4  10  21  32  46  68 105 138 180 212 261 324
#     4  11  22  32  50  74 104 140 180 221 276 324
#     4  10  20  30  51  75 111 146 181 221 267 323
#     4   9  20  38  56  73  98 135 182 235 284 327
#
# _framework density 20.554162999999999
#
# number of rings (size 3 to 8) (size 9 to 14) (size 15 to 20)
#    0.000    2.182    0.000    3.000    8.909    5.818 
#    0.000    2.727    0.000    0.000    0.000    0.000 
#    0.000    4.364    0.000    0.000    0.000    0.000 
#
# Total GULP energy -122610.231416 kJ/mol
# GULP energy per Si atom -5573.192337 kJ/mol
# Density = 2.050738 g / cm^3
# Si number density = 20.554163 Si / 1000 Ang^3
#
#
#
# Elastic Constant Matrix: (Units=GPa)
#
#
# Indices 1 2 3 4 5 6 
#
# 1 90.8560 57.0591 21.3826 0.0000 -20.1350 0.0000
# 2 57.0591 98.3805 19.6324 0.0000 -19.7738 0.0000
# 3 21.3826 19.6324 61.8776 0.0000 -17.3109 0.0000
# 4 0.0000 0.0000 0.0000 22.7238 0.0000 -15.2724
# 5 -20.1350 -19.7738 -17.3109 0.0000 28.2751 0.0000
# 6 0.0000 0.0000 0.0000 -15.2724 0.0000 29.4643
#
#
#
# Elastic Compliance Matrix: (Units=1/GPa)
#
#
# Indices 1 2 3 4 5 6 
#
# 1 0.018474 -0.009220 -0.001909 0.000000 0.005538 0.000000
# 2 -0.009220 0.016585 -0.000806 0.000000 0.004540 0.000000
# 3 -0.001909 -0.000806 0.019956 0.000000 0.010295 0.000000
# 4 0.000000 0.000000 0.000000 0.067533 0.000000 0.035005
# 5 0.005538 0.004540 0.010295 0.000000 0.048788 0.000000
# 6 0.000000 0.000000 0.000000 0.035005 0.000000 0.052084
#
#
# Mechanical properties :
#
#
# Convention : Reuss Voigt Hill
#
# Bulk Modulus (GPa) = 32.10789 49.69580 40.90184
# Shear Modulus (GPa) = 19.40445 26.29530 22.84988
#
# Velocity S-wave (km/s) = 3.07590 3.58064 3.33782
# Velocity P-wave (km/s) = 5.31694 6.42846 5.89894
#
# Compressibility (1/GPa) = 0.03114499
#
# Stress axis : x y z
#
# Youngs Moduli (GPa) = 54.13139 60.29370 50.10910
#
# Poissons Ratio (x) = 0.55592 0.09566
# Poissons Ratio (y) = 0.49910 0.04039
# Poissons Ratio (z) = 0.10333 0.04860
#
# Static dielectric constant tensor:
#      x y z
#    x 1.759270 0.000000 -0.036550 
#    y 0.000000 1.781430 0.000000 
#    z -0.036550 0.000000 1.806520 
# 
# From -- ./inp_files/7150.got.cif
#   From: 2010.05.17/outbox.cif.g08.bks.cpg/sg10_4_cif.got.tgz:7150.got - 2010.06.03 11:33:40.
