data_PCOD9148399
_publ_section_title
;
Structure prediction by ZEFSAII (Michael W. Deem and Ramdas Pophale) SiO2 
 PCOD9148399
Probable space group: P 2/M
;
_chemical_formula_sum "Si O2"
_cell_formula_units_Z 26
_cell_length_a 11.685922
_cell_length_b 7.652052
_cell_length_c 22.459745
_cell_angle_alpha 90.000000
_cell_angle_beta 42.129535
_cell_angle_gamma 90.000000
_cell_volume 1347.238861
_symmetry_space_group_name_H-M "P 2/M"
_symmetry_group_IT_number 10
_symmetry_cell_setting 'monoclinic'
loop_
_space_group_symop_operation_xyz
x,y,z
-x,y,-z
-x,-y,-z
x,-y,z
loop_
_atom_site_type_symbol
_atom_site_label
_atom_site_fract_x
_atom_site_fract_y
_atom_site_fract_z
Si Si1 0.453706 0.708978 0.762069
Si Si2 0.938510 0.289044 0.089188
Si Si3 0.715046 0.000000 0.623833
Si Si4 0.970353 0.299070 0.699973
Si Si5 0.955729 0.000000 0.417306
Si Si6 0.435631 0.704085 0.148315
Si Si7 0.868749 0.203016 0.865090
Si Si8 0.500000 0.247916 0.000000
O O1 0.480899 0.500000 0.741855
O O2 0.259023 0.755531 0.822460
O O3 0.593936 0.830536 0.677119
O O4 0.474824 0.742103 0.824471
O O5 0.949812 0.500000 0.083703
O O6 0.049327 0.226666 0.102187
O O7 0.000000 0.227606 0.000000
O O8 0.860540 0.000000 0.619390
O O9 0.815354 0.000000 0.523034
O O10 0.017639 0.500000 0.671882
O O11 0.767117 0.279035 0.765953
O O12 0.988364 0.252377 0.763006
O O13 0.057248 0.167012 0.620936
O O14 0.472767 0.500000 0.118707
O O15 0.497341 0.816896 0.069122
O O16 0.818660 0.000000 0.876391
O O17 0.695694 0.314348 0.924961
#
# Coordination Sequence:
#
# PCOD9148399 Si02
#       8
#     4   4   2   4   2   4   4   2
#     4  10  21  39  60  85 121 161 200 244 295 355
#     4  10  22  40  59  84 121 166 213 251 287 342
#     4  11  24  38  64  91 125 154 191 247 311 369
#     4  10  20  37  60  84 119 156 192 243 300 359
#     4  11  22  40  61  95 122 151 192 247 308 379
#     4   9  17  31  53  80 111 155 199 236 288 344
#     4  11  22  36  55  86 120 159 206 248 298 354
#     4  10  20  32  50  82 121 157 196 249 289 346
#
# _framework density 19.298731
#
# number of rings (size 3 to 8) (size 9 to 14) (size 15 to 20)
#    0.000    1.846    2.308    1.846    1.077    4.000 
#    4.154    1.538    0.000    1.846    0.000    3.231 
#    0.000    0.000    0.000    0.000    0.000    0.000 
#
# Total GULP energy -144897.238553 kJ/mol
# GULP energy per Si atom -5572.970714 kJ/mol
# Density = 1.925481 g / cm^3
# Si number density = 19.298731 Si / 1000 Ang^3
#
#
#
# Elastic Constant Matrix: (Units=GPa)
#
#
# Indices 1 2 3 4 5 6 
#
# 1 114.8911 27.1588 51.4577 0.0000 13.4486 0.0000
# 2 27.1588 113.2664 71.5909 0.0000 10.2343 0.0000
# 3 51.4577 71.5909 135.6161 0.0000 18.3963 0.0000
# 4 0.0000 0.0000 0.0000 -10.4988 0.0000 -11.4906
# 5 13.4486 10.2343 18.3963 0.0000 30.1791 0.0000
# 6 0.0000 0.0000 0.0000 -11.4906 0.0000 14.6515
#
#
#
# Elastic Compliance Matrix: (Units=1/GPa)
#
#
# Indices 1 2 3 4 5 6 
#
# 1 0.010655 0.000018 -0.003715 0.000000 -0.002490 0.000000
# 2 0.000018 0.013251 -0.006968 0.000000 -0.000255 0.000000
# 3 -0.003715 -0.006968 0.012990 0.000000 -0.003900 0.000000
# 4 0.000000 0.000000 0.000000 -0.051255 0.000000 -0.040197
# 5 -0.002490 -0.000255 -0.003900 0.000000 0.036709 0.000000
# 6 0.000000 0.000000 0.000000 -0.040197 0.000000 0.036728
#
#
# Mechanical properties :
#
#
# Convention : Reuss Voigt Hill
#
# Bulk Modulus (GPa) = 64.23330 73.79870 69.01600
# Shear Modulus (GPa) = 58.41389 21.10410 39.75900
#
# Velocity S-wave (km/s) = 5.50763 3.31047 4.54385
# Velocity P-wave (km/s) = 8.59076 7.27568 7.96043
#
# Compressibility (1/GPa) = 0.01556825
#
# Stress axis : x y z
#
# Youngs Moduli (GPa) = 93.85461 75.46397 76.97959
#
# Poissons Ratio (x) = -0.00136 0.28595
# Poissons Ratio (y) = -0.00169 0.53636
# Poissons Ratio (z) = 0.34863 0.52580
#
# Static dielectric constant tensor:
#      x y z
#    x 1.658150 0.000000 0.006810 
#    y 0.000000 1.803430 0.000000 
#    z 0.006810 0.000000 1.644760 
# 
# From -- ./inp_files/83516.got.cif
#   From: 2010.05.17/outbox.cif.g08.bks.cpg/sg10_42_cif.got.tgz:83516.got - 2010.06.03 11:33:40.
