data_PCOD9148053
_publ_section_title
;
Structure prediction by ZEFSAII (Michael W. Deem and Ramdas Pophale) SiO2 
 PCOD9148053
Probable space group: P 2/M
;
_chemical_formula_sum "Si O2"
_cell_formula_units_Z 28
_cell_length_a 15.952163
_cell_length_b 7.764877
_cell_length_c 18.729764
_cell_angle_alpha 90.000000
_cell_angle_beta 144.662556
_cell_angle_gamma 90.000000
_cell_volume 1341.862107
_symmetry_space_group_name_H-M "P 2/M"
_symmetry_group_IT_number 10
_symmetry_cell_setting 'monoclinic'
loop_
_space_group_symop_operation_xyz
x,y,z
-x,y,-z
-x,-y,-z
x,-y,z
loop_
_atom_site_type_symbol
_atom_site_label
_atom_site_fract_x
_atom_site_fract_y
_atom_site_fract_z
Si Si1 0.771067 0.291688 0.818495
Si Si2 0.213648 0.788914 0.481324
Si Si3 0.535359 0.798821 0.446910
Si Si4 0.835911 0.795422 0.396670
Si Si5 0.348205 0.697198 0.868631
Si Si6 0.038474 0.291859 0.912581
Si Si7 0.902066 0.799610 0.206480
O O1 0.761375 0.500000 0.810383
O O2 0.613073 0.215416 0.700079
O O3 0.878588 0.238846 0.828674
O O4 0.851071 0.243387 0.947460
O O5 0.333457 0.724804 0.508615
O O6 0.231829 0.731397 0.575841
O O7 0.053073 0.737541 0.345143
O O8 0.219953 0.000000 0.483938
O O9 0.500000 0.720297 0.500000
O O10 0.571255 0.000000 0.484033
O O11 0.734682 0.769982 0.257902
O O12 0.000000 0.725412 0.500000
O O13 0.852630 0.000000 0.417701
O O14 0.379793 0.500000 0.871469
O O15 0.234632 0.706081 0.854600
O O16 0.500000 0.778237 0.000000
O O17 0.038525 0.500000 0.907975
O O18 0.082918 0.218679 0.867705
O O19 0.885877 0.000000 0.214825
#
# Coordination Sequence:
#
# PCOD9148053 Si02
#       7
#     4   4   4   4   4   4   4
#     4   9  19  36  55  76 110 153 191 229 281 342
#     4   9  19  35  56  83 113 147 187 236 295 346
#     4  10  20  34  53  80 116 149 184 237 289 333
#     4  10  19  38  64  86 114 152 195 248 297 349
#     4  11  25  42  59  85 122 156 190 241 298 354
#     4   9  19  36  56  79 111 150 188 233 286 339
#     4  11  21  37  61  86 111 145 192 239 288 350
#
# _framework density 20.866526
#
# number of rings (size 3 to 8) (size 9 to 14) (size 15 to 20)
#    0.000    2.143    1.429    2.571    0.000    5.143 
#    0.000    6.429    0.000    0.000    0.000    0.000 
#    0.000    0.000    0.000    0.000    0.000    0.000 
#
# Total GULP energy -156342.164257 kJ/mol
# GULP energy per Si atom -5583.648723 kJ/mol
# Density = 2.081903 g / cm^3
# Si number density = 20.866526 Si / 1000 Ang^3
#
#
#
# Elastic Constant Matrix: (Units=GPa)
#
#
# Indices 1 2 3 4 5 6 
#
# 1 159.6187 2.8218 74.2930 0.0000 -3.3442 0.0000
# 2 2.8218 26.2543 -3.5499 0.0000 0.0347 0.0000
# 3 74.2930 -3.5499 108.4909 0.0000 10.4908 0.0000
# 4 0.0000 0.0000 0.0000 24.1935 0.0000 -7.8184
# 5 -3.3442 0.0347 10.4908 0.0000 36.2942 0.0000
# 6 0.0000 0.0000 0.0000 -7.8184 0.0000 15.4387
#
#
#
# Elastic Compliance Matrix: (Units=1/GPa)
#
#
# Indices 1 2 3 4 5 6 
#
# 1 0.009569 -0.001965 -0.006895 0.000000 0.002877 0.000000
# 2 -0.001965 0.038668 0.002707 0.000000 -0.001001 0.000000
# 3 -0.006895 0.002707 0.014495 0.000000 -0.004828 0.000000
# 4 0.000000 0.000000 0.000000 0.049421 0.000000 0.025028
# 5 0.002877 -0.001001 -0.004828 0.000000 0.029214 0.000000
# 6 0.000000 0.000000 0.000000 0.025028 0.000000 0.077446
#
#
# Mechanical properties :
#
#
# Convention : Reuss Voigt Hill
#
# Bulk Modulus (GPa) = 19.83099 49.05486 34.44292
# Shear Modulus (GPa) = 20.16719 29.90521 25.03620
#
# Velocity S-wave (km/s) = 3.11221 3.78983 3.46761
# Velocity P-wave (km/s) = 4.73696 6.53531 5.70741
#
# Compressibility (1/GPa) = 0.05042613
#
# Stress axis : x y z
#
# Youngs Moduli (GPa) = 104.50049 25.86146 68.99104
#
# Poissons Ratio (x) = 0.05081 0.47572
# Poissons Ratio (y) = 0.20531 -0.18678
# Poissons Ratio (z) = 0.72057 -0.07002
#
# Static dielectric constant tensor:
#      x y z
#    x 1.737790 0.000000 -0.003740 
#    y 0.000000 1.777300 0.000000 
#    z -0.003740 0.000000 1.731350 
# 
# From -- ./inp_files/77806.got.cif
#   From: 2010.05.17/outbox.cif.g08.bks.cpg/sg10_39_cif.got.tgz:77806.got - 2010.06.03 11:33:40.
