data_PCOD9148157
_publ_section_title
;
Structure prediction by ZEFSAII (Michael W. Deem and Ramdas Pophale) SiO2 
 PCOD9148157
Probable space group: P 2/M
;
_chemical_formula_sum "Si O2"
_cell_formula_units_Z 32
_cell_length_a 16.313224
_cell_length_b 8.670970
_cell_length_c 14.324254
_cell_angle_alpha 90.000000
_cell_angle_beta 68.141704
_cell_angle_gamma 90.000000
_cell_volume 1880.519221
_symmetry_space_group_name_H-M "P 2/M"
_symmetry_group_IT_number 10
_symmetry_cell_setting 'monoclinic'
loop_
_space_group_symop_operation_xyz
x,y,z
-x,y,-z
-x,-y,-z
x,-y,z
loop_
_atom_site_type_symbol
_atom_site_label
_atom_site_fract_x
_atom_site_fract_y
_atom_site_fract_z
Si Si1 0.945581 0.673666 0.120409
Si Si2 0.717472 0.688888 0.423538
Si Si3 0.365597 0.686751 0.739265
Si Si4 0.785314 0.816064 0.083806
Si Si5 0.456655 0.320835 0.414440
Si Si6 0.093087 0.685933 0.345250
Si Si7 0.111311 0.816074 0.144850
Si Si8 0.110129 0.687386 0.547098
O O1 0.924919 0.500000 0.161091
O O2 0.856475 0.760549 0.130976
O O3 0.013535 0.752819 0.161752
O O4 0.000000 0.666361 0.000000
O O5 0.716215 0.500000 0.425442
O O6 0.686682 0.733811 0.333147
O O7 0.641147 0.743850 0.527967
O O8 0.813958 0.740487 0.414845
O O9 0.367323 0.500000 0.739961
O O10 0.309012 0.747381 0.849219
O O11 0.466568 0.743999 0.684486
O O12 0.781806 0.000000 0.085954
O O13 0.824253 0.765002 0.966884
O O14 0.500000 0.320537 0.500000
O O15 0.445226 0.500000 0.392243
O O16 0.095149 0.500000 0.338086
O O17 0.137603 0.755398 0.235069
O O18 0.130304 0.730152 0.430981
O O19 0.989850 0.735876 0.389034
O O20 0.108440 0.000000 0.144998
O O21 0.109052 0.500000 0.550363
#
# Coordination Sequence:
#
# PCOD9148157 Si02
#       8
#     4   4   4   4   4   4   4   4
#     4   9  17  29  44  60  79 107 145 182 210 244
#     4   8  13  23  42  65  89 115 142 173 217 263
#     4   9  16  25  42  67  90 113 146 179 206 250
#     4  10  20  31  41  59  89 119 146 176 213 258
#     4   7  11  21  37  61  89 112 137 175 214 252
#     4   9  17  29  45  64  87 112 145 186 218 249
#     4  10  20  32  44  59  84 118 148 178 219 258
#     4   8  15  27  42  64  89 112 142 182 222 258
#
# _framework density 17.016577999999999
#
# number of rings (size 3 to 8) (size 9 to 14) (size 15 to 20)
#    0.000    3.250    0.000    3.375    1.750    3.000 
#    0.000    1.250    0.000    4.125    0.000    0.875 
#    0.000    7.000    0.000    0.000    0.000    0.000 
#
# Total GULP energy -178143.127010 kJ/mol
# GULP energy per Si atom -5566.972719 kJ/mol
# Density = 1.697785 g / cm^3
# Si number density = 17.016578 Si / 1000 Ang^3
#
#
#
# Elastic Constant Matrix: (Units=GPa)
#
#
# Indices 1 2 3 4 5 6 
#
# 1 27.1713 0.1630 4.5879 0.0000 -7.3825 0.0000
# 2 0.1630 14.1025 13.8628 0.0000 -0.9216 0.0000
# 3 4.5879 13.8628 80.4595 0.0000 -8.8117 0.0000
# 4 0.0000 0.0000 0.0000 9.4570 0.0000 2.0036
# 5 -7.3825 -0.9216 -8.8117 0.0000 23.8913 0.0000
# 6 0.0000 0.0000 0.0000 2.0036 0.0000 7.3202
#
#
#
# Elastic Compliance Matrix: (Units=1/GPa)
#
#
# Indices 1 2 3 4 5 6 
#
# 1 0.040277 0.001544 -0.001243 0.000000 0.012047 0.000000
# 2 0.001544 0.085540 -0.015019 0.000000 -0.001763 0.000000
# 3 -0.001243 -0.015019 0.015612 0.000000 0.004795 0.000000
# 4 0.000000 0.000000 0.000000 0.112252 0.000000 -0.030725
# 5 0.012047 -0.001763 0.004795 0.000000 0.047279 0.000000
# 6 0.000000 0.000000 0.000000 -0.030725 0.000000 0.145019
#
#
# Mechanical properties :
#
#
# Convention : Reuss Voigt Hill
#
# Bulk Modulus (GPa) = 8.92914 17.66229 13.29571
# Shear Modulus (GPa) = 9.75138 15.00835 12.37986
#
# Velocity S-wave (km/s) = 2.39645 2.97304 2.70018
# Velocity P-wave (km/s) = 3.59388 4.71034 4.18947
#
# Compressibility (1/GPa) = 0.11199291
#
# Stress axis : x y z
#
# Youngs Moduli (GPa) = 24.82786 11.69039 64.05188
#
# Poissons Ratio (x) = -0.01805 0.07964
# Poissons Ratio (y) = -0.03833 0.96201
# Poissons Ratio (z) = 0.03087 0.17558
#
# Static dielectric constant tensor:
#      x y z
#    x 1.579450 0.000000 -0.023920 
#    y 0.000000 1.576650 0.000000 
#    z -0.023920 0.000000 1.614640 
# 
# From -- ./inp_files/68211.got.cif
#   From: 2010.05.17/outbox.cif.g08.bks.cpg/sg10_35_cif.got.tgz:68211.got - 2010.06.03 11:33:40.
