data_PCOD9148510
_publ_section_title
;
Structure prediction by ZEFSAII (Michael W. Deem and Ramdas Pophale) SiO2 
 PCOD9148510
Probable space group: P 2/M
;
_chemical_formula_sum "Si O2"
_cell_formula_units_Z 28
_cell_length_a 9.609948
_cell_length_b 12.765494
_cell_length_c 14.295137
_cell_angle_alpha 90.000000
_cell_angle_beta 61.666831
_cell_angle_gamma 90.000000
_cell_volume 1543.582007
_symmetry_space_group_name_H-M "P 2/M"
_symmetry_group_IT_number 10
_symmetry_cell_setting 'monoclinic'
loop_
_space_group_symop_operation_xyz
x,y,z
-x,y,-z
-x,-y,-z
x,-y,z
loop_
_atom_site_type_symbol
_atom_site_label
_atom_site_fract_x
_atom_site_fract_y
_atom_site_fract_z
Si Si1 0.286307 0.880118 0.183516
Si Si2 0.404414 0.376743 0.931157
Si Si3 0.830123 0.794099 0.958035
Si Si4 0.007740 0.873903 0.604766
Si Si5 0.166083 0.121968 0.839381
Si Si6 0.496424 0.214422 0.745829
Si Si7 0.354812 0.877384 0.475685
O O1 0.292287 0.827339 0.081862
O O2 0.438960 0.868123 0.198527
O O3 0.137341 0.832797 0.288241
O O4 0.252027 0.000000 0.175666
O O5 0.392089 0.500000 0.917536
O O6 0.482742 0.317436 0.815975
O O7 0.500000 0.365375 0.000000
O O8 0.232323 0.320440 0.994176
O O9 0.007716 0.813885 0.864507
O O10 0.823231 0.867819 0.051052
O O11 0.187397 0.854669 0.578582
O O12 0.000000 0.837878 0.500000
O O13 0.986812 0.000000 0.609851
O O14 0.327862 0.177956 0.759003
O O15 0.156001 0.000000 0.813832
O O16 0.613882 0.200691 0.620736
O O17 0.500000 0.871774 0.500000
O O18 0.345753 0.000000 0.443980
#
# Coordination Sequence:
#
# PCOD9148510 Si02
#       7
#     4   4   4   4   4   4   4
#     4  11  19  29  49  76 108 142 182 217 253 318
#     4  10  21  40  60  80 103 132 179 239 288 322
#     4  10  20  34  50  75 101 142 178 210 264 325
#     4   9  17  29  44  67 102 142 176 211 246 290
#     4  10  20  33  48  74 117 147 167 208 258 325
#     4  11  21  34  53  80 105 144 188 221 267 319
#     4  10  20  33  49  75 112 150 181 212 257 319
#
# _framework density 18.139627000000001
#
# number of rings (size 3 to 8) (size 9 to 14) (size 15 to 20)
#    0.000    1.857    2.857    3.000    2.000    0.000 
#    0.000    7.857    0.000    0.429    0.000    3.000 
#    0.000    0.000    0.000    0.000    0.000    0.000 
#
# Total GULP energy -155937.722439 kJ/mol
# GULP energy per Si atom -5569.204373 kJ/mol
# Density = 1.809834 g / cm^3
# Si number density = 18.139627 Si / 1000 Ang^3
#
#
#
# Elastic Constant Matrix: (Units=GPa)
#
#
# Indices 1 2 3 4 5 6 
#
# 1 72.7165 15.9175 5.6422 0.0000 -5.3157 0.0000
# 2 15.9175 94.7924 31.4327 0.0000 -4.7857 0.0000
# 3 5.6422 31.4327 36.8896 0.0000 1.7129 0.0000
# 4 0.0000 0.0000 0.0000 15.2679 0.0000 4.6506
# 5 -5.3157 -4.7857 1.7129 0.0000 29.4679 0.0000
# 6 0.0000 0.0000 0.0000 4.6506 0.0000 16.5278
#
#
#
# Elastic Compliance Matrix: (Units=1/GPa)
#
#
# Indices 1 2 3 4 5 6 
#
# 1 0.014426 -0.002147 -0.000483 0.000000 0.002282 0.000000
# 2 -0.002147 0.015316 -0.012854 0.000000 0.002847 0.000000
# 3 -0.000483 -0.012854 0.038339 0.000000 -0.004403 0.000000
# 4 0.000000 0.000000 0.000000 0.071637 0.000000 -0.020157
# 5 0.002282 0.002847 -0.004403 0.000000 0.035065 0.000000
# 6 0.000000 0.000000 0.000000 -0.020157 0.000000 0.066176
#
#
# Mechanical properties :
#
#
# Convention : Reuss Voigt Hill
#
# Bulk Modulus (GPa) = 26.94488 34.48704 30.71596
# Shear Modulus (GPa) = 17.58713 22.34645 19.96679
#
# Velocity S-wave (km/s) = 3.11712 3.51367 3.32132
# Velocity P-wave (km/s) = 5.27652 5.95940 5.62833
#
# Compressibility (1/GPa) = 0.03711280
#
# Stress axis : x y z
#
# Youngs Moduli (GPa) = 69.31785 65.29092 26.08309
#
# Poissons Ratio (x) = 0.14019 0.01260
# Poissons Ratio (y) = 0.14883 0.33528
# Poissons Ratio (z) = 0.03347 0.83927
#
# Static dielectric constant tensor:
#      x y z
#    x 1.685730 0.000000 -0.031530 
#    y 0.000000 1.574180 0.000000 
#    z -0.031530 0.000000 1.696360 
# 
# From -- ./inp_files/60940.got.cif
#   From: 2010.05.17/outbox.cif.g08.bks.cpg/sg10_31_cif.got.tgz:60940.got - 2010.06.03 11:33:40.
