data_PCOD9148520
_publ_section_title
;
Structure prediction by ZEFSAII (Michael W. Deem and Ramdas Pophale) SiO2 
 PCOD9148520
Probable space group: P 2/M
;
_chemical_formula_sum "Si O2"
_cell_formula_units_Z 24
_cell_length_a 10.291292
_cell_length_b 7.424892
_cell_length_c 19.934350
_cell_angle_alpha 90.000000
_cell_angle_beta 52.258140
_cell_angle_gamma 90.000000
_cell_volume 1204.525225
_symmetry_space_group_name_H-M "P 2/M"
_symmetry_group_IT_number 10
_symmetry_cell_setting 'monoclinic'
loop_
_space_group_symop_operation_xyz
x,y,z
-x,y,-z
-x,-y,-z
x,-y,z
loop_
_atom_site_type_symbol
_atom_site_label
_atom_site_fract_x
_atom_site_fract_y
_atom_site_fract_z
Si Si1 0.039118 0.217001 0.594279
Si Si2 0.320399 0.290927 0.037910
Si Si3 0.490334 0.220746 0.226311
Si Si4 0.820234 0.795171 0.058400
Si Si5 0.264206 0.783130 0.412016
Si Si6 0.193723 0.782188 0.220777
O O1 0.201291 0.284370 0.504211
O O2 0.887076 0.249865 0.591427
O O3 0.968636 0.280366 0.687708
O O4 0.056019 0.000000 0.593871
O O5 0.341591 0.500000 0.012989
O O6 0.211559 0.277452 0.138997
O O7 0.500000 0.216706 0.000000
O O8 0.244742 0.199829 0.997059
O O9 0.671011 0.283958 0.148975
O O10 0.422565 0.279327 0.320461
O O11 0.355354 0.273983 0.212588
O O12 0.491158 0.000000 0.225060
O O13 0.842783 0.000000 0.076745
O O14 0.000000 0.708716 0.000000
O O15 0.279288 0.000000 0.412937
O O16 0.193262 0.000000 0.221520
#
# Coordination Sequence:
#
# PCOD9148520 Si02
#       6
#     4   4   4   4   4   4
#     4   7  10  16  30  57  87 111 136 171 216 264
#     4  11  22  33  46  66  91 122 156 188 225 267
#     4   8  13  22  39  63  89 117 144 176 222 267
#     4  10  20  33  49  69  92 119 153 190 225 265
#     4   7   9  15  29  54  88 114 134 167 215 268
#     4   9  15  25  44  66  88 115 147 183 223 266
#
# _framework density 19.924862999999998
#
# number of rings (size 3 to 8) (size 9 to 14) (size 15 to 20)
#    0.000    3.333    1.667    3.500    0.000    1.000 
#    0.000    0.000    0.000    0.000    0.000   11.667 
#    0.000    9.333    0.000    0.000    0.000    0.000 
#
# Total GULP energy -133618.806014 kJ/mol
# GULP energy per Si atom -5567.450251 kJ/mol
# Density = 1.987951 g / cm^3
# Si number density = 19.924863 Si / 1000 Ang^3
#
#
#
# Elastic Constant Matrix: (Units=GPa)
#
#
# Indices 1 2 3 4 5 6 
#
# 1 40.1582 0.5543 41.2346 0.0000 -14.1290 0.0000
# 2 0.5543 63.2929 -0.9330 0.0000 -4.8585 0.0000
# 3 41.2346 -0.9330 232.0565 0.0000 -12.6879 0.0000
# 4 0.0000 0.0000 0.0000 28.4169 0.0000 32.0789
# 5 -14.1290 -4.8585 -12.6879 0.0000 20.1612 0.0000
# 6 0.0000 0.0000 0.0000 32.0789 0.0000 22.2497
#
#
#
# Elastic Compliance Matrix: (Units=1/GPa)
#
#
# Indices 1 2 3 4 5 6 
#
# 1 0.039208 0.001437 -0.005634 0.000000 0.024278 0.000000
# 2 0.001437 0.016168 0.000081 0.000000 0.004954 0.000000
# 3 -0.005634 0.000081 0.005277 0.000000 -0.000608 0.000000
# 4 0.000000 0.000000 0.000000 -0.056075 0.000000 0.080847
# 5 0.024278 0.004954 -0.000608 0.000000 0.067426 0.000000
# 6 0.000000 0.000000 0.000000 0.080847 0.000000 -0.071618
#
#
# Mechanical properties :
#
#
# Convention : Reuss Voigt Hill
#
# Bulk Modulus (GPa) = 19.07594 46.35772 32.71683
# Shear Modulus (GPa) = 191.61955 33.80901 112.71428
#
# Velocity S-wave (km/s) = 9.81732 4.12372 7.52944
# Velocity P-wave (km/s) = 11.75165 6.78161 9.59405
#
# Compressibility (1/GPa) = 0.05242204
#
# Stress axis : x y z
#
# Youngs Moduli (GPa) = 25.50477 61.84883 189.48411
#
# Poissons Ratio (x) = -0.08889 1.06752
# Poissons Ratio (y) = -0.03666 -0.01525
# Poissons Ratio (z) = 0.14369 -0.00498
#
# Static dielectric constant tensor:
#      x y z
#    x 1.641560 0.000000 -0.016020 
#    y 0.000000 1.751520 0.000000 
#    z -0.016020 0.000000 1.789590 
# 
# From -- ./inp_files/33446.got.cif
#   From: 2010.05.17/outbox.cif.g08.bks.cpg/sg10_17_cif.got.tgz:33446.got - 2010.06.03 11:33:40.
