data_PCOD9148651
_publ_section_title
;
Structure prediction by ZEFSAII (Michael W. Deem and Ramdas Pophale) SiO2 
 PCOD9148651
Probable space group: P 2/M
;
_chemical_formula_sum "Si O2"
_cell_formula_units_Z 32
_cell_length_a 16.361222
_cell_length_b 8.367418
_cell_length_c 26.441959
_cell_angle_alpha 90.000000
_cell_angle_beta 29.761057
_cell_angle_gamma 90.000000
_cell_volume 1796.878200
_symmetry_space_group_name_H-M "P 2/M"
_symmetry_group_IT_number 10
_symmetry_cell_setting 'monoclinic'
loop_
_space_group_symop_operation_xyz
x,y,z
-x,y,-z
-x,-y,-z
x,-y,z
loop_
_atom_site_type_symbol
_atom_site_label
_atom_site_fract_x
_atom_site_fract_y
_atom_site_fract_z
Si Si1 0.352273 0.304983 0.146767
Si Si2 0.603805 0.805055 0.396195
Si Si3 0.144846 0.304983 0.354193
Si Si4 0.896110 0.691219 0.103890
Si Si5 0.223303 0.692912 0.425012
Si Si6 0.535164 0.190938 0.319914
Si Si7 0.721639 0.307088 0.926675
Si Si8 0.969929 0.190938 0.174993
O O1 0.350890 0.500000 0.148126
O O2 0.248015 0.248591 0.250662
O O3 0.277897 0.256330 0.132467
O O4 0.544002 0.256556 0.044346
O O5 0.500000 0.748028 0.500000
O O6 0.530610 0.755026 0.381152
O O7 0.795323 0.755026 0.292915
O O8 0.601374 0.000000 0.398626
O O9 0.146154 0.500000 0.352860
O O10 0.221040 0.256557 0.367307
O O11 0.953194 0.256330 0.457169
O O12 0.897741 0.500000 0.102260
O O13 0.706966 0.747458 0.204752
O O14 0.971811 0.747460 0.116471
O O15 0.000000 0.750553 0.000000
O O16 0.226652 0.500000 0.423806
O O17 0.378041 0.754168 0.372902
O O18 0.541830 0.000000 0.316646
O O19 0.724721 0.500000 0.925737
O O20 0.874788 0.245834 0.876154
O O21 0.966402 0.000000 0.175124
#
# Coordination Sequence:
#
# PCOD9148651 Si02
#       8
#     4   4   4   4   4   4   4   4
#     4   8  15  29  48  69  94 126 165 207 246 283
#     4   8  16  32  50  67  92 129 167 196 232 290
#     4   8  15  29  48  69  94 126 165 207 246 283
#     4  10  21  37  56  75  96 127 167 206 242 288
#     4   9  17  30  49  71  95 126 165 205 242 288
#     4  10  20  33  51  75 103 132 160 200 251 297
#     4   9  17  30  49  71  95 126 165 205 242 288
#     4  10  20  33  51  75 103 132 160 200 251 297
#
# _framework density 17.808662999999999
#
# number of rings (size 3 to 8) (size 9 to 14) (size 15 to 20)
#    0.000    3.000    0.000    3.375    0.000    3.000 
#    0.000    5.000    0.000   14.250    0.000    0.000 
#    0.000    0.000    0.000    0.000    0.000    0.000 
#
# Total GULP energy -178373.245129 kJ/mol
# GULP energy per Si atom -5574.163910 kJ/mol
# Density = 1.776813 g / cm^3
# Si number density = 17.808663 Si / 1000 Ang^3
#
#
#
# Elastic Constant Matrix: (Units=GPa)
#
#
# Indices 1 2 3 4 5 6 
#
# 1 178.7102 25.6601 139.4320 0.0000 -16.9589 0.0000
# 2 25.6601 18.8743 25.3260 0.0000 -0.2155 0.0000
# 3 139.4320 25.3260 184.3783 0.0000 20.5931 0.0000
# 4 0.0000 0.0000 0.0000 6.7218 0.0000 13.2437
# 5 -16.9589 -0.2155 20.5931 0.0000 30.5626 0.0000
# 6 0.0000 0.0000 0.0000 13.2437 0.0000 -13.8966
#
#
#
# Elastic Compliance Matrix: (Units=1/GPa)
#
#
# Indices 1 2 3 4 5 6 
#
# 1 0.028391 -0.005660 -0.024274 0.000000 0.032070 0.000000
# 2 -0.005660 0.067496 -0.005075 0.000000 0.000755 0.000000
# 3 -0.024274 -0.005075 0.028101 0.000000 -0.032439 0.000000
# 4 0.000000 0.000000 0.000000 0.051698 0.000000 0.049269
# 5 0.032070 0.000755 -0.032439 0.000000 0.072378 0.000000
# 6 0.000000 0.000000 0.000000 0.049269 0.000000 -0.025006
#
#
# Mechanical properties :
#
#
# Convention : Reuss Voigt Hill
#
# Bulk Modulus (GPa) = 18.52936 84.75542 51.64239
# Shear Modulus (GPa) = 16.07382 17.44721 16.76051
#
# Velocity S-wave (km/s) = 3.00756 3.13342 3.07113
# Velocity P-wave (km/s) = 4.74214 7.79658 6.45269
#
# Compressibility (1/GPa) = 0.05396841
#
# Stress axis : x y z
#
# Youngs Moduli (GPa) = 35.22288 14.81573 35.58631
#
# Poissons Ratio (x) = 0.08386 0.86383
# Poissons Ratio (y) = 0.19936 0.18061
# Poissons Ratio (z) = 0.85501 0.07519
#
# Static dielectric constant tensor:
#      x y z
#    x 1.588990 0.000000 0.011120 
#    y 0.000000 1.614010 0.000000 
#    z 0.011120 0.000000 1.606300 
# 
# From -- ./inp_files/89480.got.cif
#   From: 2010.05.17/outbox.cif.g08.bks.cpg/sg10_45_cif.got.tgz:89480.got - 2010.06.03 11:33:40.
