data_PCOD9148401
_publ_section_title
;
Structure prediction by ZEFSAII (Michael W. Deem and Ramdas Pophale) SiO2 
 PCOD9148401
Probable space group: P 2/M
;
_chemical_formula_sum "Si O2"
_cell_formula_units_Z 28
_cell_length_a 14.318375
_cell_length_b 7.273976
_cell_length_c 16.332846
_cell_angle_alpha 90.000000
_cell_angle_beta 141.242292
_cell_angle_gamma 90.000000
_cell_volume 1064.931046
_symmetry_space_group_name_H-M "P 2/M"
_symmetry_group_IT_number 10
_symmetry_cell_setting 'monoclinic'
loop_
_space_group_symop_operation_xyz
x,y,z
-x,y,-z
-x,-y,-z
x,-y,z
loop_
_atom_site_type_symbol
_atom_site_label
_atom_site_fract_x
_atom_site_fract_y
_atom_site_fract_z
Si Si1 0.968233 0.708523 0.864022
Si Si2 0.396825 0.275640 0.629212
Si Si3 0.036157 0.782889 0.723400
Si Si4 0.289499 0.724359 0.097698
Si Si5 0.366074 0.281901 0.964857
Si Si6 0.860166 0.704678 0.448169
Si Si7 0.332303 0.275367 0.406289
O O1 0.950052 0.500000 0.881280
O O2 0.802506 0.790417 0.743402
O O3 0.014102 0.704607 0.798942
O O4 0.121837 0.787179 0.006795
O O5 0.394223 0.500000 0.629718
O O6 0.570110 0.223297 0.750951
O O7 0.302334 0.215134 0.644338
O O8 0.320925 0.216387 0.492946
O O9 0.206904 0.750506 0.813404
O O10 0.927550 0.691068 0.585124
O O11 0.009780 0.000000 0.708385
O O12 0.280356 0.500000 0.091243
O O13 0.338145 0.784938 0.038998
O O14 0.391208 0.500000 0.990963
O O15 0.500000 0.210072 0.000000
O O16 0.841335 0.500000 0.398718
O O17 0.000000 0.799317 0.500000
O O18 0.500000 0.223177 0.500000
O O19 0.325544 0.500000 0.399102
#
# Coordination Sequence:
#
# PCOD9148401 Si02
#       7
#     4   4   4   4   4   4   4
#     4   9  16  32  52  71  97 129 170 208 247 303
#     4   9  16  28  46  72 101 126 162 211 252 299
#     4  11  21  32  48  70 102 136 169 208 260 307
#     4   8  15  26  44  69  95 125 161 207 251 286
#     4   9  18  31  50  71  95 129 175 219 251 293
#     4  10  20  32  51  72  95 132 177 214 252 301
#     4   9  16  27  48  76 103 130 160 204 263 313
#
# _framework density 26.292784000000001
#
# number of rings (size 3 to 8) (size 9 to 14) (size 15 to 20)
#    0.000    2.714    1.429    2.143    2.000    0.571 
#    0.000    0.714    0.000    5.571    0.000    0.000 
#    0.000    4.571    0.000    0.000    0.000    0.000 
#
# Total GULP energy -156360.869875 kJ/mol
# GULP energy per Si atom -5584.316781 kJ/mol
# Density = 2.623294 g / cm^3
# Si number density = 26.292784 Si / 1000 Ang^3
#
#
#
# Elastic Constant Matrix: (Units=GPa)
#
#
# Indices 1 2 3 4 5 6 
#
# 1 117.1967 6.8640 52.5839 0.0000 46.7846 0.0000
# 2 6.8640 120.9906 -3.8430 0.0000 -5.3094 0.0000
# 3 52.5839 -3.8430 179.0411 0.0000 44.5240 0.0000
# 4 0.0000 0.0000 0.0000 -13.1066 0.0000 -47.8913
# 5 46.7846 -5.3094 44.5240 0.0000 54.4586 0.0000
# 6 0.0000 0.0000 0.0000 -47.8913 0.0000 -6.1072
#
#
#
# Elastic Compliance Matrix: (Units=1/GPa)
#
#
# Indices 1 2 3 4 5 6 
#
# 1 0.013425 -0.001268 -0.001345 0.000000 -0.010557 0.000000
# 2 -0.001268 0.008420 0.000098 0.000000 0.001830 0.000000
# 3 -0.001345 0.000098 0.007145 0.000000 -0.004677 0.000000
# 4 0.000000 0.000000 0.000000 0.002759 0.000000 -0.021636
# 5 -0.010557 0.001830 -0.004677 0.000000 0.031434 0.000000
# 6 0.000000 0.000000 0.000000 -0.021636 0.000000 0.005921
#
#
# Mechanical properties :
#
#
# Convention : Reuss Voigt Hill
#
# Bulk Modulus (GPa) = 41.73267 58.71537 50.22402
# Shear Modulus (GPa) = 60.88587 31.15719 46.02153
#
# Velocity S-wave (km/s) = 4.81738 3.44613 4.18826
# Velocity P-wave (km/s) = 6.84468 6.18177 6.52165
#
# Compressibility (1/GPa) = 0.02396204
#
# Stress axis : x y z
#
# Youngs Moduli (GPa) = 74.49022 118.75881 139.94888
#
# Poissons Ratio (x) = 0.15054 0.18818
# Poissons Ratio (y) = 0.09442 -0.01371
# Poissons Ratio (z) = 0.10016 -0.01164
#
# Static dielectric constant tensor:
#      x y z
#    x 2.127850 0.000000 0.038700 
#    y 0.000000 2.003630 0.000000 
#    z 0.038700 0.000000 2.067230 
# 
# From -- ./inp_files/85656.got.cif
#   From: 2010.05.17/outbox.cif.g08.bks.cpg/sg10_43_cif.got.tgz:85656.got - 2010.06.03 11:33:40.
