data_PCOD9148549
_publ_section_title
;
Structure prediction by ZEFSAII (Michael W. Deem and Ramdas Pophale) SiO2 
 PCOD9148549
Probable space group: P 2/M
;
_chemical_formula_sum "Si O2"
_cell_formula_units_Z 28
_cell_length_a 14.315795
_cell_length_b 9.198300
_cell_length_c 12.196823
_cell_angle_alpha 90.000000
_cell_angle_beta 130.214603
_cell_angle_gamma 90.000000
_cell_volume 1226.460581
_symmetry_space_group_name_H-M "P 2/M"
_symmetry_group_IT_number 10
_symmetry_cell_setting 'monoclinic'
loop_
_space_group_symop_operation_xyz
x,y,z
-x,y,-z
-x,-y,-z
x,-y,z
loop_
_atom_site_type_symbol
_atom_site_label
_atom_site_fract_x
_atom_site_fract_y
_atom_site_fract_z
Si Si1 0.502419 0.827207 0.282665
Si Si2 0.700142 0.328982 0.993414
Si Si3 0.641456 0.331967 0.196064
Si Si4 0.126065 0.338933 0.496945
Si Si5 0.688923 0.667250 0.572177
Si Si6 0.891261 0.164293 0.843746
Si Si7 0.939616 0.839991 0.239748
O O1 0.372117 0.756954 0.154923
O O2 0.579802 0.780135 0.232605
O O3 0.571390 0.754109 0.438011
O O4 0.497634 0.000000 0.290827
O O5 0.705650 0.500000 0.974027
O O6 0.629693 0.311194 0.057315
O O7 0.832695 0.262320 0.114892
O O8 0.605152 0.500000 0.196762
O O9 0.786042 0.322104 0.332704
O O10 0.071328 0.500000 0.453031
O O11 0.220468 0.334429 0.465458
O O12 0.019959 0.225264 0.397735
O O13 0.660145 0.500000 0.577643
O O14 0.768899 0.745660 0.726642
O O15 0.960466 0.148664 0.780872
O O16 0.863365 0.000000 0.864526
O O17 0.000000 0.230967 0.000000
O O18 0.889280 0.000000 0.226359
#
# Coordination Sequence:
#
# PCOD9148549 Si02
#       7
#     4   4   4   4   4   4   4
#     4  11  21  33  51  74 101 133 172 215 254 292
#     4  11  22  35  50  68  98 139 176 211 252 297
#     4   9  19  34  51  71  96 132 177 217 252 293
#     4   8  15  30  49  68  94 129 167 205 246 294
#     4   9  17  31  52  77 103 132 167 204 245 295
#     4   9  18  34  57  83 108 132 159 198 251 306
#     4  10  20  33  49  73 103 132 165 204 250 303
#
# _framework density 22.829922
#
# number of rings (size 3 to 8) (size 9 to 14) (size 15 to 20)
#    0.000    2.429    0.000    3.857    0.000    7.714 
#    0.000    2.857    0.000    0.857    0.000    6.000 
#    0.000    0.000    0.000    0.000    0.000    0.000 
#
# Total GULP energy -156444.087438 kJ/mol
# GULP energy per Si atom -5587.288837 kJ/mol
# Density = 2.277796 g / cm^3
# Si number density = 22.829922 Si / 1000 Ang^3
#
#
#
# Elastic Constant Matrix: (Units=GPa)
#
#
# Indices 1 2 3 4 5 6 
#
# 1 50.0741 14.5602 2.2328 0.0000 -4.1619 0.0000
# 2 14.5602 162.7495 104.3658 0.0000 13.5008 0.0000
# 3 2.2328 104.3658 202.8183 0.0000 10.6373 0.0000
# 4 0.0000 0.0000 0.0000 39.5918 0.0000 4.9809
# 5 -4.1619 13.5008 10.6373 0.0000 22.9097 0.0000
# 6 0.0000 0.0000 0.0000 4.9809 0.0000 2.0597
#
#
#
# Elastic Compliance Matrix: (Units=1/GPa)
#
#
# Indices 1 2 3 4 5 6 
#
# 1 0.021220 -0.002988 0.001035 0.000000 0.005135 0.000000
# 2 -0.002988 0.009840 -0.004815 0.000000 -0.004106 0.000000
# 3 0.001035 -0.004815 0.007419 0.000000 -0.000419 0.000000
# 4 0.000000 0.000000 0.000000 0.036302 0.000000 -0.087785
# 5 0.005135 -0.004106 -0.000419 0.000000 0.047197 0.000000
# 6 0.000000 0.000000 0.000000 -0.087785 0.000000 0.697782
#
#
# Mechanical properties :
#
#
# Convention : Reuss Voigt Hill
#
# Bulk Modulus (GPa) = 40.09329 73.10661 56.59995
# Shear Modulus (GPa) = 5.94099 32.54445 19.24272
#
# Velocity S-wave (km/s) = 1.61491 3.77970 2.90638
# Velocity P-wave (km/s) = 4.59098 7.15122 6.00904
#
# Compressibility (1/GPa) = 0.02494183
#
# Stress axis : x y z
#
# Youngs Moduli (GPa) = 47.12564 101.62373 134.78959
#
# Poissons Ratio (x) = 0.30363 -0.13944
# Poissons Ratio (y) = 0.14080 0.64906
# Poissons Ratio (z) = -0.04875 0.48935
#
# Static dielectric constant tensor:
#      x y z
#    x 1.937840 0.000000 -0.003460 
#    y 0.000000 1.812820 0.000000 
#    z -0.003460 0.000000 1.858010 
# 
# From -- ./inp_files/48797.got.cif
#   From: 2010.05.17/outbox.cif.g08.bks.cpg/sg10_25_cif.got.tgz:48797.got - 2010.06.03 11:33:40.
