data_PCOD9148221
_publ_section_title
;
Structure prediction by ZEFSAII (Michael W. Deem and Ramdas Pophale) SiO2 
 PCOD9148221
Probable space group: P 2/M
;
_chemical_formula_sum "Si O2"
_cell_formula_units_Z 28
_cell_length_a 25.845205
_cell_length_b 16.558161
_cell_length_c 23.434569
_cell_angle_alpha 90.000000
_cell_angle_beta 169.077470
_cell_angle_gamma 90.000000
_cell_volume 1900.272997
_symmetry_space_group_name_H-M "P 2/M"
_symmetry_group_IT_number 10
_symmetry_cell_setting 'monoclinic'
loop_
_space_group_symop_operation_xyz
x,y,z
-x,y,-z
-x,-y,-z
x,-y,z
loop_
_atom_site_type_symbol
_atom_site_label
_atom_site_fract_x
_atom_site_fract_y
_atom_site_fract_z
Si Si1 0.619798 0.591510 0.693961
Si Si2 0.064036 0.098481 0.633974
Si Si3 0.641404 0.852359 0.490210
Si Si4 0.043136 0.097046 0.823471
Si Si5 0.679700 0.902011 0.320505
Si Si6 0.705607 0.091466 0.680014
Si Si7 0.121242 0.689410 0.196114
O O1 0.500000 0.588171 0.500000
O O2 0.694856 0.500000 0.791602
O O3 0.372759 0.627212 0.463143
O O4 0.877376 0.651207 0.969265
O O5 0.000000 0.123751 0.500000
O O6 0.838759 0.124411 0.435858
O O7 0.062082 0.000000 0.631918
O O8 0.366090 0.124806 0.980008
O O9 0.612398 0.908972 0.514653
O O10 0.752914 0.768976 0.637997
O O11 0.867396 0.883485 0.690138
O O12 0.332105 0.856164 0.131857
O O13 0.850461 0.119634 0.561489
O O14 0.095534 0.000000 0.877970
O O15 0.673278 0.000000 0.312644
O O16 0.500000 0.134566 0.500000
O O17 0.742871 0.000000 0.742883
O O18 0.000000 0.129609 0.000000
O O19 0.000000 0.699436 0.000000
#
# Coordination Sequence:
#
# PCOD9148221 Si02
#       7
#     4   4   4   4   4   4   4
#     4   9  17  31  50  69  87 105 123 147 196 269
#     4   9  15  24  40  60  79  97 120 160 217 266
#     4  12  22  33  46  61  81 106 140 179 219 255
#     4  11  22  34  46  58  78 113 152 185 215 251
#     4   9  17  28  40  56  77 101 133 170 209 252
#     4  10  20  32  44  56  71  94 128 173 220 260
#     4  10  20  32  47  67  87 105 128 167 217 260
#
# _framework density 14.734724999999999
#
# number of rings (size 3 to 8) (size 9 to 14) (size 15 to 20)
#    0.000    2.000    0.000    5.143    0.000    8.571 
#    0.000    0.000    0.000    0.000    0.000    0.000 
#    0.000    0.000    0.000    0.000    0.000    0.000 
#
# Total GULP energy -156015.863042 kJ/mol
# GULP energy per Si atom -5571.995109 kJ/mol
# Density = 1.470119 g / cm^3
# Si number density = 14.734725 Si / 1000 Ang^3
#
#
#
# Elastic Constant Matrix: (Units=GPa)
#
#
# Indices 1 2 3 4 5 6 
#
# 1 38.2010 4.1726 1.2666 0.0000 7.1179 0.0000
# 2 4.1726 48.1146 18.8629 0.0000 0.2252 0.0000
# 3 1.2666 18.8629 75.6784 0.0000 10.6734 0.0000
# 4 0.0000 0.0000 0.0000 11.4583 0.0000 2.2609
# 5 7.1179 0.2252 10.6734 0.0000 29.3523 0.0000
# 6 0.0000 0.0000 0.0000 2.2609 0.0000 3.6098
#
#
#
# Elastic Compliance Matrix: (Units=1/GPa)
#
#
# Indices 1 2 3 4 5 6 
#
# 1 0.027786 -0.002871 0.001263 0.000000 -0.007175 0.000000
# 2 -0.002871 0.023445 -0.006186 0.000000 0.002766 0.000000
# 3 0.001263 -0.006186 0.015569 0.000000 -0.005920 0.000000
# 4 0.000000 0.000000 0.000000 0.099578 0.000000 -0.062367
# 5 -0.007175 0.002766 -0.005920 0.000000 0.037940 0.000000
# 6 0.000000 0.000000 0.000000 -0.062367 0.000000 0.316085
#
#
# Mechanical properties :
#
#
# Convention : Reuss Voigt Hill
#
# Bulk Modulus (GPa) = 19.52670 23.39978 21.46324
# Shear Modulus (GPa) = 9.04057 18.06355 13.55206
#
# Velocity S-wave (km/s) = 2.47969 3.50511 3.03601
# Velocity P-wave (km/s) = 4.63459 5.68298 5.18535
#
# Compressibility (1/GPa) = 0.05121192
#
# Stress axis : x y z
#
# Youngs Moduli (GPa) = 35.98937 42.65343 64.22849
#
# Poissons Ratio (x) = 0.12246 -0.08109
# Poissons Ratio (y) = 0.10333 0.39729
# Poissons Ratio (z) = -0.04544 0.26384
#
# Static dielectric constant tensor:
#      x y z
#    x 1.495280 0.000000 0.014210 
#    y 0.000000 1.479940 0.000000 
#    z 0.014210 0.000000 1.531130 
# 
# From -- ./inp_files/91288.got.cif
#   From: 2010.05.17/outbox.cif.g08.bks.cpg/sg10_46_cif.got.tgz:91288.got - 2010.06.03 11:33:40.
