data_PCOD9148936
_publ_section_title
;
Structure prediction by ZEFSAII (Michael W. Deem and Ramdas Pophale) SiO2 
 PCOD9148936
Probable space group: P 2/M
;
_chemical_formula_sum "Si O2"
_cell_formula_units_Z 22
_cell_length_a 13.760071
_cell_length_b 7.573865
_cell_length_c 11.114019
_cell_angle_alpha 90.000000
_cell_angle_beta 96.019800
_cell_angle_gamma 90.000000
_cell_volume 1151.881804
_symmetry_space_group_name_H-M "P 2/M"
_symmetry_group_IT_number 10
_symmetry_cell_setting 'monoclinic'
loop_
_space_group_symop_operation_xyz
x,y,z
-x,y,-z
-x,-y,-z
x,-y,z
loop_
_atom_site_type_symbol
_atom_site_label
_atom_site_fract_x
_atom_site_fract_y
_atom_site_fract_z
Si Si1 0.895372 0.199575 0.865651
Si Si2 0.403989 0.214693 0.056498
Si Si3 0.746354 0.500000 0.549868
Si Si4 0.958083 0.500000 0.704056
Si Si5 0.171219 0.500000 0.696093
Si Si6 0.319008 0.202170 0.289177
Si Si7 0.799740 0.211839 0.099137
O O1 0.955376 0.332146 0.792220
O O2 0.786602 0.198503 0.791996
O O3 0.933400 0.000000 0.865424
O O4 0.876832 0.251147 0.001661
O O5 0.391252 0.270187 0.193674
O O6 0.406645 0.000000 0.061625
O O7 0.500000 0.276915 0.000000
O O8 0.306354 0.259107 0.970192
O O9 0.857337 0.500000 0.617124
O O10 0.758212 0.500000 0.408927
O O11 0.693054 0.330092 0.599784
O O12 0.057458 0.500000 0.642813
O O13 0.185458 0.328984 0.781974
O O14 0.342732 0.000000 0.324978
O O15 0.802444 0.000000 0.120188
#
# Coordination Sequence:
#
# PCOD9148936 Si02
#       7
#     4   4   2   2   2   4   4
#     4   8  15  30  51  73  97 122 151 196 254 305
#     4   8  14  29  57  86 104 121 152 196 244 294
#     4  10  21  36  50  65  92 133 178 210 231 272
#     4  10  20  34  51  69  90 122 171 221 247 270
#     4  12  24  34  47  68  96 135 173 202 240 286
#     4   8  15  30  52  75  97 123 157 199 245 286
#     4   9  19  34  50  74 106 131 153 190 247 305
#
# _framework density 19.099181000000002
#
# number of rings (size 3 to 8) (size 9 to 14) (size 15 to 20)
#    0.000    3.091    0.000    3.000    0.000    5.091 
#    0.000    3.636    0.000    7.636    0.000    5.091 
#    0.000    0.000    0.000    0.000    0.000    0.000 
#
# Total GULP energy -122730.471462 kJ/mol
# GULP energy per Si atom -5578.657794 kJ/mol
# Density = 1.905571 g / cm^3
# Si number density = 19.099181 Si / 1000 Ang^3
#
#
#
# Elastic Constant Matrix: (Units=GPa)
#
#
# Indices 1 2 3 4 5 6 
#
# 1 48.4136 9.6878 17.0842 0.0000 -25.7763 0.0000
# 2 9.6878 77.8710 55.9371 0.0000 -17.3946 0.0000
# 3 17.0842 55.9371 122.7579 0.0000 -34.2221 0.0000
# 4 0.0000 0.0000 0.0000 39.1802 0.0000 2.7444
# 5 -25.7763 -17.3946 -34.2221 0.0000 31.8762 0.0000
# 6 0.0000 0.0000 0.0000 2.7444 0.0000 10.3265
#
#
#
# Elastic Compliance Matrix: (Units=1/GPa)
#
#
# Indices 1 2 3 4 5 6 
#
# 1 0.038073 -0.000152 0.004753 0.000000 0.035807 0.000000
# 2 -0.000152 0.019144 -0.008312 0.000000 0.001400 0.000000
# 3 0.004753 -0.008312 0.015811 0.000000 0.016283 0.000000
# 4 0.000000 0.000000 0.000000 0.026007 0.000000 -0.006912
# 5 0.035807 0.001400 0.016283 0.000000 0.078571 0.000000
# 6 0.000000 0.000000 0.000000 -0.006912 0.000000 0.098675
#
#
# Mechanical properties :
#
#
# Convention : Reuss Voigt Hill
#
# Bulk Modulus (GPa) = 15.24256 46.05121 30.64689
# Shear Modulus (GPa) = 16.36267 27.36546 21.86406
#
# Velocity S-wave (km/s) = 2.93015 3.78935 3.38711
# Velocity P-wave (km/s) = 4.40974 6.58100 5.60158
#
# Compressibility (1/GPa) = 0.06560576
#
# Stress axis : x y z
#
# Youngs Moduli (GPa) = 26.26542 52.23526 63.24545
#
# Poissons Ratio (x) = 0.00796 -0.30060
# Poissons Ratio (y) = 0.00400 0.52569
# Poissons Ratio (z) = -0.12484 0.43418
#
# Static dielectric constant tensor:
#      x y z
#    x 1.693240 0.000000 0.004410 
#    y 0.000000 1.681550 0.000000 
#    z 0.004410 0.000000 1.636060 
# 
# From -- ./inp_files/27124.got.cif
#   From: 2010.05.17/outbox.cif.g08.bks.cpg/sg10_14_cif.got.tgz:27124.got - 2010.06.03 11:33:40.
