data_PCOD9148148
_publ_section_title
;
Structure prediction by ZEFSAII (Michael W. Deem and Ramdas Pophale) SiO2 
 PCOD9148148
Probable space group: P 2/M
;
_chemical_formula_sum "Si O2"
_cell_formula_units_Z 30
_cell_length_a 11.920728
_cell_length_b 9.463619
_cell_length_c 29.617415
_cell_angle_alpha 90.000000
_cell_angle_beta 153.615998
_cell_angle_gamma 90.000000
_cell_volume 1484.795456
_symmetry_space_group_name_H-M "P 2/M"
_symmetry_group_IT_number 10
_symmetry_cell_setting 'monoclinic'
loop_
_space_group_symop_operation_xyz
x,y,z
-x,y,-z
-x,-y,-z
x,-y,z
loop_
_atom_site_type_symbol
_atom_site_label
_atom_site_fract_x
_atom_site_fract_y
_atom_site_fract_z
Si Si1 0.000000 0.248329 0.000000
Si Si2 0.617870 0.831043 0.743341
Si Si3 0.143430 0.163965 0.329579
Si Si4 0.543062 0.842011 0.213811
Si Si5 0.777622 0.663199 0.456215
Si Si6 0.336806 0.668892 0.830967
Si Si7 0.894140 0.659645 0.059598
Si Si8 0.289878 0.163151 0.487596
O O1 0.752610 0.154980 0.905767
O O2 0.032347 0.340256 0.966977
O O3 0.476391 0.801381 0.740502
O O4 0.451298 0.755388 0.645758
O O5 0.899184 0.765162 0.845284
O O6 0.627749 0.000000 0.741800
O O7 0.199136 0.172572 0.403419
O O8 0.412260 0.200612 0.404549
O O9 0.908070 0.263153 0.234199
O O10 0.086150 0.000000 0.298473
O O11 0.650282 0.736009 0.214901
O O12 0.654227 0.000000 0.249389
O O13 0.706799 0.500000 0.436889
O O14 0.855396 0.734103 0.531374
O O15 0.000000 0.670149 0.500000
O O16 0.320554 0.500000 0.822059
O O17 0.599092 0.702939 0.951747
O O18 0.917532 0.500000 0.086108
O O19 0.265239 0.000000 0.493108
#
# Coordination Sequence:
#
# PCOD9148148 Si02
#       8
#     2   4   4   4   4   4   4   4
#     4   8  14  24  42  66  94 138 184 222 268 322
#     4  10  21  35  53  76 104 147 192 231 277 328
#     4   9  19  37  61  87 113 144 183 232 283 328
#     4   9  17  28  44  69 102 140 183 227 270 318
#     4  11  25  41  58  84 115 149 186 228 277 333
#     4  10  20  30  48  80 114 148 183 224 278 334
#     4   9  17  30  47  71 107 146 183 225 273 329
#     4   9  20  40  63  85 111 145 187 232 280 332
#
# _framework density 20.204802999999998
#
# number of rings (size 3 to 8) (size 9 to 14) (size 15 to 20)
#    0.000    2.533    0.000    2.400    1.867    9.600 
#    0.000    1.333    0.000    0.800    0.000    5.600 
#    0.000    0.000    0.000    0.000    0.000    0.000 
#
# Total GULP energy -167367.306524 kJ/mol
# GULP energy per Si atom -5578.910217 kJ/mol
# Density = 2.015882 g / cm^3
# Si number density = 20.204803 Si / 1000 Ang^3
#
#
#
# Elastic Constant Matrix: (Units=GPa)
#
#
# Indices 1 2 3 4 5 6 
#
# 1 35.8839 25.1899 7.1459 0.0000 7.5075 0.0000
# 2 25.1899 78.4919 35.3269 0.0000 10.6074 0.0000
# 3 7.1459 35.3269 78.6187 0.0000 23.4107 0.0000
# 4 0.0000 0.0000 0.0000 276.5986 0.0000 -84.0408
# 5 7.5075 10.6074 23.4107 0.0000 33.3468 0.0000
# 6 0.0000 0.0000 0.0000 -84.0408 0.0000 44.3519
#
#
#
# Elastic Compliance Matrix: (Units=1/GPa)
#
#
# Indices 1 2 3 4 5 6 
#
# 1 0.037829 -0.013267 0.004807 0.000000 -0.007671 0.000000
# 2 -0.013267 0.020623 -0.008846 0.000000 0.002637 0.000000
# 3 0.004807 -0.008846 0.019903 0.000000 -0.012241 0.000000
# 4 0.000000 0.000000 0.000000 0.008521 0.000000 0.016147
# 5 -0.007671 0.002637 -0.012241 0.000000 0.039470 0.000000
# 6 0.000000 0.000000 0.000000 0.016147 0.000000 0.053143
#
#
# Mechanical properties :
#
#
# Convention : Reuss Voigt Hill
#
# Bulk Modulus (GPa) = 22.86103 36.47998 29.67050
# Shear Modulus (GPa) = 21.86458 79.21490 50.53974
#
# Velocity S-wave (km/s) = 3.29317 6.26826 5.00680
# Velocity P-wave (km/s) = 5.07929 8.39538 6.93836
#
# Compressibility (1/GPa) = 0.04374255
#
# Stress axis : x y z
#
# Youngs Moduli (GPa) = 26.43505 48.48973 50.24456
#
# Poissons Ratio (x) = 0.64332 -0.24155
# Poissons Ratio (y) = 0.35072 0.44447
# Poissons Ratio (z) = -0.12709 0.42895
#
# Static dielectric constant tensor:
#      x y z
#    x 1.732680 0.000000 0.010280 
#    y 0.000000 1.691500 0.000000 
#    z 0.010280 0.000000 1.744680 
# 
# From -- ./inp_files/94885.got.cif
#   From: 2010.05.17/outbox.cif.g08.bks.cpg/sg10_48_cif.got.tgz:94885.got - 2010.06.03 11:33:40.
