data_PCOD9148475
_publ_section_title
;
Structure prediction by ZEFSAII (Michael W. Deem and Ramdas Pophale) SiO2 
 PCOD9148475
Probable space group: P 2/M
;
_chemical_formula_sum "Si O2"
_cell_formula_units_Z 28
_cell_length_a 8.774851
_cell_length_b 18.222577
_cell_length_c 13.705233
_cell_angle_alpha 90.000000
_cell_angle_beta 137.430449
_cell_angle_gamma 90.000000
_cell_volume 1482.497391
_symmetry_space_group_name_H-M "P 2/M"
_symmetry_group_IT_number 10
_symmetry_cell_setting 'monoclinic'
loop_
_space_group_symop_operation_xyz
x,y,z
-x,y,-z
-x,-y,-z
x,-y,z
loop_
_atom_site_type_symbol
_atom_site_label
_atom_site_fract_x
_atom_site_fract_y
_atom_site_fract_z
Si Si1 0.106743 0.082890 0.160013
Si Si2 0.032749 0.681878 0.860718
Si Si3 0.548043 0.586451 0.906778
Si Si4 0.346989 0.779761 0.215025
Si Si5 0.254500 0.671208 0.612999
Si Si6 0.756737 0.418890 0.585351
Si Si7 0.720725 0.820298 0.044468
O O1 0.304095 0.143398 0.250097
O O2 0.171152 0.000000 0.215252
O O3 0.000000 0.082136 0.000000
O O4 0.906650 0.116004 0.131396
O O5 0.856759 0.726866 0.845206
O O6 0.892318 0.633984 0.719664
O O7 0.214491 0.628657 0.998038
O O8 0.170627 0.744470 0.867485
O O9 0.556140 0.500000 0.883015
O O10 0.360267 0.631222 0.757678
O O11 0.500000 0.590248 0.000000
O O12 0.575853 0.735749 0.338523
O O13 0.331840 0.799598 0.093228
O O14 0.246087 0.610197 0.525112
O O15 0.000000 0.699091 0.500000
O O16 0.500000 0.421039 0.500000
O O17 0.857693 0.500000 0.638324
O O18 0.500000 0.839338 0.000000
#
# Coordination Sequence:
#
# PCOD9148475 Si02
#       7
#     4   4   4   4   4   4   4
#     4   8  16  33  58  88 123 155 184 233 294 352
#     4  11  20  38  61  83 115 155 201 251 295 353
#     4  11  24  40  61  87 116 156 201 252 312 358
#     4  10  21  37  58  88 118 153 200 240 294 356
#     4  12  25  40  59  83 119 159 200 250 300 354
#     4  11  24  40  57  83 116 153 201 254 305 354
#     4  10  20  32  57  90 121 152 193 244 289 347
#
# _framework density 18.887048
#
# number of rings (size 3 to 8) (size 9 to 14) (size 15 to 20)
#    0.000    1.571    2.857    3.429    2.000    2.571 
#    0.000    0.714    0.000    0.429    0.000    8.000 
#    0.000    0.000    0.000    0.000    0.000    0.000 
#
# Total GULP energy -156333.959866 kJ/mol
# GULP energy per Si atom -5583.355710 kJ/mol
# Density = 1.884406 g / cm^3
# Si number density = 18.887048 Si / 1000 Ang^3
#
#
#
# Elastic Constant Matrix: (Units=GPa)
#
#
# Indices 1 2 3 4 5 6 
#
# 1 94.5605 51.7626 27.4647 0.0000 18.1973 0.0000
# 2 51.7626 162.9224 43.9715 0.0000 18.2812 0.0000
# 3 27.4647 43.9715 84.0656 0.0000 11.0133 0.0000
# 4 0.0000 0.0000 0.0000 23.2986 0.0000 9.0024
# 5 18.1973 18.2812 11.0133 0.0000 32.6017 0.0000
# 6 0.0000 0.0000 0.0000 9.0024 0.0000 22.4829
#
#
#
# Elastic Compliance Matrix: (Units=1/GPa)
#
#
# Indices 1 2 3 4 5 6 
#
# 1 0.014010 -0.003275 -0.002177 0.000000 -0.005248 0.000000
# 2 -0.003275 0.008179 -0.002979 0.000000 -0.001752 0.000000
# 3 -0.002177 -0.002979 0.014425 0.000000 -0.001988 0.000000
# 4 0.000000 0.000000 0.000000 0.050777 0.000000 -0.020332
# 5 -0.005248 -0.001752 -0.001988 0.000000 0.035257 0.000000
# 6 0.000000 0.000000 0.000000 -0.020332 0.000000 0.052619
#
#
# Mechanical properties :
#
#
# Convention : Reuss Voigt Hill
#
# Bulk Modulus (GPa) = 50.62322 65.32736 57.97529
# Shear Modulus (GPa) = 25.16205 30.23328 27.69766
#
# Velocity S-wave (km/s) = 3.65394 4.00527 3.83363
# Velocity P-wave (km/s) = 6.68304 7.48686 7.09634
#
# Compressibility (1/GPa) = 0.01975378
#
# Stress axis : x y z
#
# Youngs Moduli (GPa) = 71.37710 122.26656 69.32403
#
# Poissons Ratio (x) = 0.40040 0.15090
# Poissons Ratio (y) = 0.23375 0.20649
# Poissons Ratio (z) = 0.15536 0.36418
#
# Static dielectric constant tensor:
#      x y z
#    x 1.690580 0.000000 0.001720 
#    y 0.000000 1.660800 0.000000 
#    z 0.001720 0.000000 1.649120 
# 
# From -- ./inp_files/62354.got.cif
#   From: 2010.05.17/outbox.cif.g08.bks.cpg/sg10_32_cif.got.tgz:62354.got - 2010.06.03 11:33:40.
