data_PCOD9148566
_publ_section_title
;
Structure prediction by ZEFSAII (Michael W. Deem and Ramdas Pophale) SiO2 
 PCOD9148566
Probable space group: P 2/M
;
_chemical_formula_sum "Si O2"
_cell_formula_units_Z 32
_cell_length_a 24.941554
_cell_length_b 7.340450
_cell_length_c 24.195889
_cell_angle_alpha 90.000000
_cell_angle_beta 161.622688
_cell_angle_gamma 90.000000
_cell_volume 1396.609323
_symmetry_space_group_name_H-M "P 2/M"
_symmetry_group_IT_number 10
_symmetry_cell_setting 'monoclinic'
loop_
_space_group_symop_operation_xyz
x,y,z
-x,y,-z
-x,-y,-z
x,-y,z
loop_
_atom_site_type_symbol
_atom_site_label
_atom_site_fract_x
_atom_site_fract_y
_atom_site_fract_z
Si Si1 0.606756 0.776905 0.868695
Si Si2 0.264900 0.282965 0.810274
Si Si3 0.277373 0.221998 0.138159
Si Si4 0.889016 0.216765 0.227914
Si Si5 0.643711 0.721158 0.217496
Si Si6 0.045049 0.222122 0.106833
Si Si7 0.569828 0.778076 0.508264
Si Si8 0.750809 0.792876 0.445390
O O1 0.693534 0.723037 0.896364
O O2 0.413024 0.711801 0.684835
O O3 0.600031 0.000000 0.863869
O O4 0.722131 0.715548 0.032933
O O5 0.276022 0.500000 0.817052
O O6 0.127494 0.244395 0.722688
O O7 0.248478 0.220374 0.730990
O O8 0.449344 0.222654 0.013821
O O9 0.437317 0.279700 0.331962
O O10 0.275408 0.000000 0.136769
O O11 0.102518 0.281377 0.995801
O O12 0.062204 0.291653 0.371132
O O13 0.893647 0.000000 0.224426
O O14 0.649112 0.500000 0.227270
O O15 0.702363 0.796522 0.333124
O O16 0.235464 0.280579 0.308268
O O17 0.044668 0.000000 0.106617
O O18 0.000000 0.276615 0.000000
O O19 0.500000 0.723127 0.500000
O O20 0.570506 0.000000 0.508544
O O21 0.766883 0.000000 0.482207
#
# Coordination Sequence:
#
# PCOD9148566 Si02
#       8
#     4   4   4   4   4   4   4   4
#     4   9  18  32  44  58  85 118 158 202 238 272
#     4   9  18  33  53  76  99 123 155 196 243 292
#     4   9  16  24  36  52  72 105 144 188 234 270
#     4  10  20  33  50  70  94 127 164 198 235 285
#     4   9  18  33  53  76  99 123 155 196 243 292
#     4   9  14  20  31  48  71  98 133 179 228 273
#     4   9  14  20  31  48  71  98 133 179 228 273
#     4  10  20  33  50  70  94 127 164 198 235 285
#
# _framework density 22.912637
#
# number of rings (size 3 to 8) (size 9 to 14) (size 15 to 20)
#    0.000    2.750    2.500    0.750    0.000    2.500 
#    0.000    8.750    0.000    0.000    0.000    0.000 
#    0.000    0.000    0.000    0.000    0.000    5.000 
#
# Total GULP energy -178730.383070 kJ/mol
# GULP energy per Si atom -5585.324471 kJ/mol
# Density = 2.286049 g / cm^3
# Si number density = 22.912637 Si / 1000 Ang^3
#
#
#
# Elastic Constant Matrix: (Units=GPa)
#
#
# Indices 1 2 3 4 5 6 
#
# 1 142.3145 -6.8923 45.7073 0.0000 36.2877 0.0000
# 2 -6.8923 87.8270 -2.0803 0.0000 3.8377 0.0000
# 3 45.7073 -2.0803 101.0027 0.0000 41.9182 0.0000
# 4 0.0000 0.0000 0.0000 -16.6750 0.0000 -4.6285
# 5 36.2877 3.8377 41.9182 0.0000 42.1395 0.0000
# 6 0.0000 0.0000 0.0000 -4.6285 0.0000 8.2507
#
#
#
# Elastic Compliance Matrix: (Units=1/GPa)
#
#
# Indices 1 2 3 4 5 6 
#
# 1 0.009214 0.000980 -0.001396 0.000000 -0.006636 0.000000
# 2 0.000980 0.011613 0.000996 0.000000 -0.002892 0.000000
# 3 -0.001396 0.000996 0.017187 0.000000 -0.015986 0.000000
# 4 0.000000 0.000000 0.000000 -0.051890 0.000000 -0.029109
# 5 -0.006636 -0.002892 -0.015986 0.000000 0.045610 0.000000
# 6 0.000000 0.000000 0.000000 -0.029109 0.000000 0.104872
#
#
# Mechanical properties :
#
#
# Convention : Reuss Voigt Hill
#
# Bulk Modulus (GPa) = 25.52623 44.95706 35.24165
# Shear Modulus (GPa) = 33.66905 26.37035 30.01970
#
# Velocity S-wave (km/s) = 3.83750 3.39618 3.62357
# Velocity P-wave (km/s) = 5.54978 5.91966 5.73771
#
# Compressibility (1/GPa) = 0.03917538
#
# Stress axis : x y z
#
# Youngs Moduli (GPa) = 108.52581 86.11108 58.18252
#
# Poissons Ratio (x) = -0.08439 0.08121
# Poissons Ratio (y) = -0.10636 -0.05796
# Poissons Ratio (z) = 0.15147 -0.08577
#
# Static dielectric constant tensor:
#      x y z
#    x 1.821130 0.000000 0.023470 
#    y 0.000000 1.908960 0.000000 
#    z 0.023470 0.000000 1.844100 
# 
# From -- ./inp_files/90674.got.cif
#   From: 2010.05.17/outbox.cif.g08.bks.cpg/sg10_46_cif.got.tgz:90674.got - 2010.06.03 11:33:40.
