data_PCOD9148223
_publ_section_title
;
Structure prediction by ZEFSAII (Michael W. Deem and Ramdas Pophale) SiO2 
 PCOD9148223
Probable space group: P 2/M
;
_chemical_formula_sum "Si O2"
_cell_formula_units_Z 24
_cell_length_a 17.328483
_cell_length_b 16.545148
_cell_length_c 5.278984
_cell_angle_alpha 90.000000
_cell_angle_beta 87.453770
_cell_angle_gamma 90.000000
_cell_volume 1512.002665
_symmetry_space_group_name_H-M "P 2/M"
_symmetry_group_IT_number 10
_symmetry_cell_setting 'monoclinic'
loop_
_space_group_symop_operation_xyz
x,y,z
-x,y,-z
-x,-y,-z
x,-y,z
loop_
_atom_site_type_symbol
_atom_site_label
_atom_site_fract_x
_atom_site_fract_y
_atom_site_fract_z
Si Si1 0.593337 0.408380 0.487597
Si Si2 0.594231 0.310757 0.987122
Si Si3 0.955254 0.901840 0.255724
Si Si4 0.690389 0.852038 0.857377
Si Si5 0.531973 0.091491 0.743044
Si Si6 0.223359 0.097116 0.641325
O O1 0.500000 0.411616 0.500000
O O2 0.621627 0.500000 0.445410
O O3 0.613741 0.372835 0.758052
O O4 0.615639 0.348865 0.255556
O O5 0.644551 0.231146 0.918772
O O6 0.500000 0.300826 0.000000
O O7 0.865012 0.881392 0.278817
O O8 0.000000 0.874636 0.500000
O O9 0.958265 0.000000 0.252425
O O10 0.000000 0.873174 0.000000
O O11 0.622784 0.909018 0.754739
O O12 0.751043 0.855614 0.617138
O O13 0.724951 0.882861 0.118470
O O14 0.500000 0.134559 0.500000
O O15 0.499589 0.000000 0.742973
O O16 0.500000 0.129687 0.000000
O O17 0.227363 0.000000 0.592251
#
# Coordination Sequence:
#
# PCOD9148223 Si02
#       6
#     4   4   4   4   4   4
#     4   9  17  31  50  69  87 110 149 197 237 279
#     4  10  20  32  47  67  91 122 157 194 236 276
#     4   9  17  31  50  69  87 109 146 194 236 279
#     4  12  22  33  46  65  94 122 156 197 239 278
#     4  10  20  32  44  56  75 112 160 203 234 256
#     4  11  22  34  49  68  91 123 160 198 239 278
#
# _framework density 15.872989
#
# number of rings (size 3 to 8) (size 9 to 14) (size 15 to 20)
#    0.000    1.833    0.000    5.500    0.000    8.000 
#    0.000    0.000    0.000    0.000    0.000    0.000 
#    0.000    0.000    0.000    0.000    0.000  210.000 
#
# Total GULP energy -133754.862180 kJ/mol
# GULP energy per Si atom -5573.119258 kJ/mol
# Density = 1.583686 g / cm^3
# Si number density = 15.872989 Si / 1000 Ang^3
#
#
#
# Elastic Constant Matrix: (Units=GPa)
#
#
# Indices 1 2 3 4 5 6 
#
# 1 65.9138 18.2913 35.6286 0.0000 -7.6051 0.0000
# 2 18.2913 64.0851 31.1754 0.0000 -9.0947 0.0000
# 3 35.6286 31.1754 139.4938 0.0000 -8.8023 0.0000
# 4 0.0000 0.0000 0.0000 31.5937 0.0000 -8.9354
# 5 -7.6051 -9.0947 -8.8023 0.0000 29.2935 0.0000
# 6 0.0000 0.0000 0.0000 -8.9354 0.0000 8.4864
#
#
#
# Elastic Compliance Matrix: (Units=1/GPa)
#
#
# Indices 1 2 3 4 5 6 
#
# 1 0.018399 -0.002992 -0.003861 0.000000 0.002688 0.000000
# 2 -0.002992 0.018553 -0.003127 0.000000 0.004044 0.000000
# 3 -0.003861 -0.003127 0.008898 0.000000 0.000700 0.000000
# 4 0.000000 0.000000 0.000000 0.045075 0.000000 0.047460
# 5 0.002688 0.004044 0.000700 0.000000 0.036301 0.000000
# 6 0.000000 0.000000 0.000000 0.047460 0.000000 0.167807
#
#
# Mechanical properties :
#
#
# Convention : Reuss Voigt Hill
#
# Bulk Modulus (GPa) = 38.62472 48.85370 43.73921
# Shear Modulus (GPa) = 15.45012 26.16788 20.80900
#
# Velocity S-wave (km/s) = 3.12325 4.06467 3.62466
# Velocity P-wave (km/s) = 6.11496 7.27141 6.71812
#
# Compressibility (1/GPa) = 0.02589016
#
# Stress axis : x y z
#
# Youngs Moduli (GPa) = 54.35184 53.89875 112.38434
#
# Poissons Ratio (x) = 0.16125 0.43392
# Poissons Ratio (y) = 0.16260 0.35145
# Poissons Ratio (z) = 0.20986 0.16855
#
# Static dielectric constant tensor:
#      x y z
#    x 1.526570 0.000000 -0.010260 
#    y 0.000000 1.535220 0.000000 
#    z -0.010260 0.000000 1.584120 
# 
# From -- ./inp_files/9210.got.cif
#   From: 2010.05.17/outbox.cif.g08.bks.cpg/sg10_5_cif.got.tgz:9210.got - 2010.06.03 11:33:40.
