data_PCOD9148824
_publ_section_title
;
Structure prediction by ZEFSAII (Michael W. Deem and Ramdas Pophale) SiO2 
 PCOD9148824
Probable space group: P 2/M
;
_chemical_formula_sum "Si O2"
_cell_formula_units_Z 32
_cell_length_a 26.904489
_cell_length_b 13.359344
_cell_length_c 9.276361
_cell_angle_alpha 90.000000
_cell_angle_beta 30.699531
_cell_angle_gamma 90.000000
_cell_volume 1702.212561
_symmetry_space_group_name_H-M "P 2/M"
_symmetry_group_IT_number 10
_symmetry_cell_setting 'monoclinic'
loop_
_space_group_symop_operation_xyz
x,y,z
-x,y,-z
-x,-y,-z
x,-y,z
loop_
_atom_site_type_symbol
_atom_site_label
_atom_site_fract_x
_atom_site_fract_y
_atom_site_fract_z
Si Si1 0.704861 0.761477 0.237895
Si Si2 0.663268 0.694431 0.793625
Si Si3 0.798198 0.235775 0.706835
Si Si4 0.976000 0.384826 0.230397
Si Si5 0.189152 0.616787 0.816929
Si Si6 0.106953 0.883215 0.767768
Si Si7 0.529421 0.384983 0.595264
Si Si8 0.290264 0.119043 0.491836
O O1 0.776801 0.683652 0.136268
O O2 0.609048 0.697465 0.439311
O O3 0.690729 0.848308 0.391500
O O4 0.753880 0.795644 0.968185
O O5 0.718341 0.708294 0.807766
O O6 0.736823 0.639900 0.499874
O O7 0.647357 0.805029 0.763479
O O8 0.564778 0.635853 0.070725
O O9 0.890154 0.310260 0.488106
O O10 0.831940 0.142375 0.526503
O O11 0.948424 0.500000 0.332572
O O12 0.000000 0.381300 0.000000
O O13 0.078343 0.360995 0.050100
O O14 0.195634 0.500000 0.834753
O O15 0.178418 0.853078 0.721139
O O16 0.093083 0.000000 0.824514
O O17 0.000000 0.839256 0.000000
O O18 0.500000 0.374299 0.500000
O O19 0.563421 0.500000 0.531095
O O20 0.304052 0.000000 0.434432
#
# Coordination Sequence:
#
# PCOD9148824 Si02
#       8
#     4   4   4   4   4   4   4   4
#     4  11  24  39  56  87 121 157 189 244 299 358
#     4  10  20  38  64  88 108 152 201 249 287 346
#     4  11  21  34  58  84 118 151 194 238 292 343
#     4  10  20  33  54  81 112 155 201 236 273 350
#     4  10  21  37  54  81 118 153 194 241 290 344
#     4   9  19  37  63  88 111 150 203 246 285 344
#     4  11  23  40  63  89 120 153 197 247 295 347
#     4   9  21  41  63  87 120 156 190 244 303 351
#
# _framework density 18.799061999999999
#
# number of rings (size 3 to 8) (size 9 to 14) (size 15 to 20)
#    0.000    1.875    2.500    1.125    3.500    4.500 
#    0.000    5.625    0.000    3.000    0.000    0.000 
#    0.000    0.000    0.000    0.000    0.000    0.000 
#
# Total GULP energy -178466.600232 kJ/mol
# GULP energy per Si atom -5577.081257 kJ/mol
# Density = 1.875627 g / cm^3
# Si number density = 18.799062 Si / 1000 Ang^3
#
#
#
# Elastic Constant Matrix: (Units=GPa)
#
#
# Indices 1 2 3 4 5 6 
#
# 1 70.4776 -0.6844 14.8081 0.0000 8.7853 0.0000
# 2 -0.6844 58.2187 -4.2522 0.0000 0.6057 0.0000
# 3 14.8081 -4.2522 57.7164 0.0000 7.7839 0.0000
# 4 0.0000 0.0000 0.0000 11.3424 0.0000 -5.4713
# 5 8.7853 0.6057 7.7839 0.0000 21.0337 0.0000
# 6 0.0000 0.0000 0.0000 -5.4713 0.0000 24.4391
#
#
#
# Elastic Compliance Matrix: (Units=1/GPa)
#
#
# Indices 1 2 3 4 5 6 
#
# 1 0.015535 -0.000002 -0.003274 0.000000 -0.005277 0.000000
# 2 -0.000002 0.017290 0.001412 0.000000 -0.001020 0.000000
# 3 -0.003274 0.001412 0.019042 0.000000 -0.005720 0.000000
# 4 0.000000 0.000000 0.000000 0.098838 0.000000 0.022127
# 5 -0.005277 -0.001020 -0.005720 0.000000 0.051893 0.000000
# 6 0.000000 0.000000 0.000000 0.022127 0.000000 0.045872
#
#
# Mechanical properties :
#
#
# Convention : Reuss Voigt Hill
#
# Bulk Modulus (GPa) = 20.77337 22.90618 21.83977
# Shear Modulus (GPa) = 18.63979 23.13245 20.88612
#
# Velocity S-wave (km/s) = 3.15227 3.51167 3.33681
# Velocity P-wave (km/s) = 4.93186 5.35291 5.14669
#
# Compressibility (1/GPa) = 0.04813856
#
# Stress axis : x y z
#
# Youngs Moduli (GPa) = 64.37246 57.83581 52.51671
#
# Poissons Ratio (x) = 0.00009 0.17195
# Poissons Ratio (y) = 0.00010 -0.07414
# Poissons Ratio (z) = 0.21076 -0.08165
#
# Static dielectric constant tensor:
#      x y z
#    x 1.675230 0.000000 -0.020210 
#    y 0.000000 1.651180 0.000000 
#    z -0.020210 0.000000 1.643000 
# 
# From -- ./inp_files/37684.got.cif
#   From: 2010.05.17/outbox.cif.g08.bks.cpg/sg10_19_cif.got.tgz:37684.got - 2010.06.03 11:33:40.
