data_PCOD9148252
_publ_section_title
;
Structure prediction by ZEFSAII (Michael W. Deem and Ramdas Pophale) SiO2 
 PCOD9148252
Probable space group: P 2/M
;
_chemical_formula_sum "Si O2"
_cell_formula_units_Z 28
_cell_length_a 29.559519
_cell_length_b 7.582525
_cell_length_c 9.299070
_cell_angle_alpha 90.000000
_cell_angle_beta 139.476082
_cell_angle_gamma 90.000000
_cell_volume 1354.276450
_symmetry_space_group_name_H-M "P 2/M"
_symmetry_group_IT_number 10
_symmetry_cell_setting 'monoclinic'
loop_
_space_group_symop_operation_xyz
x,y,z
-x,y,-z
-x,-y,-z
x,-y,z
loop_
_atom_site_type_symbol
_atom_site_label
_atom_site_fract_x
_atom_site_fract_y
_atom_site_fract_z
Si Si1 0.559683 0.202745 0.244230
Si Si2 0.143989 0.798548 0.552685
Si Si3 0.295507 0.785368 0.902832
Si Si4 0.697029 0.706374 0.416711
Si Si5 0.003076 0.787182 0.841246
Si Si6 0.428724 0.784190 0.405792
Si Si7 0.151612 0.709035 0.238756
O O1 0.632607 0.203267 0.337675
O O2 0.569099 0.279612 0.425155
O O3 0.537155 0.000000 0.215360
O O4 0.500000 0.285104 0.000000
O O5 0.219371 0.720135 0.771354
O O6 0.144544 0.798770 0.378447
O O7 0.067835 0.721261 0.405216
O O8 0.144248 0.000000 0.605923
O O9 0.306418 0.730532 0.763823
O O10 0.293043 0.000000 0.897487
O O11 0.359931 0.726074 0.154869
O O12 0.691074 0.500000 0.436164
O O13 0.774697 0.768327 0.648166
O O14 0.998777 0.000000 0.832714
O O15 0.080805 0.740432 0.979831
O O16 0.000000 0.723106 0.000000
O O17 0.500000 0.732607 0.500000
O O18 0.425967 0.000000 0.397841
O O19 0.157723 0.500000 0.280915
#
# Coordination Sequence:
#
# PCOD9148252 Si02
#       7
#     4   4   4   4   4   4   4
#     4  10  20  34  53  74  94 120 154 189 228 276
#     4   8  14  23  36  57  85 117 149 182 226 273
#     4   9  16  29  49  69  93 125 157 192 233 276
#     4  10  20  32  46  68  98 127 156 191 229 272
#     4   8  13  21  33  53  83 115 147 183 224 270
#     4   9  17  30  50  75  96 115 148 192 231 271
#     4   9  16  24  36  57  85 117 151 186 223 262
#
# _framework density 20.675246999999999
#
# number of rings (size 3 to 8) (size 9 to 14) (size 15 to 20)
#    0.000    3.000    0.000    2.571    0.000    6.857 
#    0.000    0.714    0.000    1.714    0.000    1.000 
#    0.000    8.000    0.000    0.000    0.000    0.000 
#
# Total GULP energy -155964.665514 kJ/mol
# GULP energy per Si atom -5570.166625 kJ/mol
# Density = 2.062819 g / cm^3
# Si number density = 20.675247 Si / 1000 Ang^3
#
#
#
# Elastic Constant Matrix: (Units=GPa)
#
#
# Indices 1 2 3 4 5 6 
#
# 1 89.5185 -5.2100 87.0148 0.0000 32.2931 0.0000
# 2 -5.2100 51.1379 -0.7400 0.0000 1.0450 0.0000
# 3 87.0148 -0.7400 170.7774 0.0000 50.0752 0.0000
# 4 0.0000 0.0000 0.0000 3.8336 0.0000 20.6247
# 5 32.2931 1.0450 50.0752 0.0000 36.9501 0.0000
# 6 0.0000 0.0000 0.0000 20.6247 0.0000 5.5725
#
#
#
# Elastic Compliance Matrix: (Units=1/GPa)
#
#
# Indices 1 2 3 4 5 6 
#
# 1 0.023482 0.002399 -0.009818 0.000000 -0.007285 0.000000
# 2 0.002399 0.019829 -0.000593 0.000000 -0.001854 0.000000
# 3 -0.009818 -0.000593 0.013830 0.000000 -0.010146 0.000000
# 4 0.000000 0.000000 0.000000 -0.013793 0.000000 0.051049
# 5 -0.007285 -0.001854 -0.010146 0.000000 0.047232 0.000000
# 6 0.000000 0.000000 0.000000 0.051049 0.000000 -0.009489
#
#
# Mechanical properties :
#
#
# Convention : Reuss Voigt Hill
#
# Bulk Modulus (GPa) = 24.32056 52.61815 38.46936
# Shear Modulus (GPa) = 45.11788 24.62919 34.87354
#
# Velocity S-wave (km/s) = 4.67649 3.45518 4.11144
# Velocity P-wave (km/s) = 6.39907 6.43605 6.41759
#
# Compressibility (1/GPa) = 0.04111747
#
# Stress axis : x y z
#
# Youngs Moduli (GPa) = 42.58589 50.43188 72.30400
#
# Poissons Ratio (x) = -0.12100 0.70989
# Poissons Ratio (y) = -0.10217 0.04286
# Poissons Ratio (z) = 0.41812 0.02990
#
# Static dielectric constant tensor:
#      x y z
#    x 1.729940 0.000000 0.056650 
#    y 0.000000 1.764120 0.000000 
#    z 0.056650 0.000000 1.779060 
# 
# From -- ./inp_files/38006.got.cif
#   From: 2010.05.17/outbox.cif.g08.bks.cpg/sg10_20_cif.got.tgz:38006.got - 2010.06.03 11:33:40.
