data_PCOD9148767
_publ_section_title
;
Structure prediction by ZEFSAII (Michael W. Deem and Ramdas Pophale) SiO2 
 PCOD9148767
Probable space group: P 2/M
;
_chemical_formula_sum "Si O2"
_cell_formula_units_Z 28
_cell_length_a 8.708588
_cell_length_b 14.296925
_cell_length_c 14.816409
_cell_angle_alpha 90.000000
_cell_angle_beta 127.903942
_cell_angle_gamma 90.000000
_cell_volume 1455.570896
_symmetry_space_group_name_H-M "P 2/M"
_symmetry_group_IT_number 10
_symmetry_cell_setting 'monoclinic'
loop_
_space_group_symop_operation_xyz
x,y,z
-x,y,-z
-x,-y,-z
x,-y,z
loop_
_atom_site_type_symbol
_atom_site_label
_atom_site_fract_x
_atom_site_fract_y
_atom_site_fract_z
Si Si1 0.225041 0.722207 0.590557
Si Si2 0.730108 0.132550 0.262571
Si Si3 0.297019 0.103855 0.135752
Si Si4 0.285814 0.192279 0.933839
Si Si5 0.827392 0.893556 0.562170
Si Si6 0.439211 0.606050 0.373401
Si Si7 0.144101 0.774054 0.244724
O O1 0.264102 0.758469 0.705759
O O2 0.251046 0.815165 0.535895
O O3 0.376100 0.644926 0.614890
O O4 0.000000 0.693869 0.500000
O O5 0.530374 0.097604 0.231940
O O6 0.717550 0.119088 0.150811
O O7 0.939597 0.098272 0.370801
O O8 0.208745 0.171861 0.178161
O O9 0.214697 0.000000 0.114664
O O10 0.270229 0.144764 0.025723
O O11 0.085834 0.247137 0.844903
O O12 0.500000 0.238061 0.000000
O O13 0.813323 0.843920 0.655354
O O14 0.747286 0.000000 0.529639
O O15 0.500000 0.606895 0.500000
O O16 0.388905 0.500000 0.329551
O O17 0.267270 0.680314 0.299357
#
# Coordination Sequence:
#
# PCOD9148767 Si02
#       7
#     4   4   4   4   4   4   4
#     4  10  20  37  59  86 120 154 195 238 288 354
#     4   9  19  34  53  79 117 161 197 233 277 335
#     4  11  21  33  55  86 120 158 202 243 282 336
#     4   9  21  37  56  82 113 159 194 240 281 335
#     4  10  20  33  52  82 124 164 195 228 277 350
#     4  11  23  42  65  89 116 148 193 248 309 360
#     4  11  21  38  59  84 117 156 196 242 298 346
#
# _framework density 19.236436999999999
#
# number of rings (size 3 to 8) (size 9 to 14) (size 15 to 20)
#    0.000    1.857    2.857    1.286    0.000    9.429 
#    0.000    0.714    0.000    2.143    0.000    0.000 
#    0.000    0.000    0.000    0.000    0.000    0.000 
#
# Total GULP energy -156136.659013 kJ/mol
# GULP energy per Si atom -5576.309250 kJ/mol
# Density = 1.919265 g / cm^3
# Si number density = 19.236437 Si / 1000 Ang^3
#
#
#
# Elastic Constant Matrix: (Units=GPa)
#
#
# Indices 1 2 3 4 5 6 
#
# 1 100.5267 65.3228 40.8010 0.0000 4.4284 0.0000
# 2 65.3228 118.9428 34.9585 0.0000 12.7526 0.0000
# 3 40.8010 34.9585 82.3888 0.0000 -4.3365 0.0000
# 4 0.0000 0.0000 0.0000 -9.6927 0.0000 -2.5943
# 5 4.4284 12.7526 -4.3365 0.0000 43.7986 0.0000
# 6 0.0000 0.0000 0.0000 -2.5943 0.0000 9.0341
#
#
#
# Elastic Compliance Matrix: (Units=1/GPa)
#
#
# Indices 1 2 3 4 5 6 
#
# 1 0.017188 -0.007935 -0.005142 0.000000 0.000064 0.000000
# 2 -0.007935 0.013742 -0.002080 0.000000 -0.003405 0.000000
# 3 -0.005142 -0.002080 0.015708 0.000000 0.002681 0.000000
# 4 0.000000 0.000000 0.000000 -0.095807 0.000000 -0.027513
# 5 0.000064 -0.003405 0.002681 0.000000 0.024082 0.000000
# 6 0.000000 0.000000 0.000000 -0.027513 0.000000 0.102791
#
#
# Mechanical properties :
#
#
# Convention : Reuss Voigt Hill
#
# Bulk Modulus (GPa) = 61.26234 64.89143 63.07688
# Shear Modulus (GPa) = 44.06857 19.34639 31.70748
#
# Velocity S-wave (km/s) = 4.79152 3.17474 4.06433
# Velocity P-wave (km/s) = 7.90744 6.87354 7.40855
#
# Compressibility (1/GPa) = 0.01632324
#
# Stress axis : x y z
#
# Youngs Moduli (GPa) = 58.18023 72.77047 63.66334
#
# Poissons Ratio (x) = 0.57745 0.32733
# Poissons Ratio (y) = 0.46167 0.13244
# Poissons Ratio (z) = 0.29914 0.15139
#
# Static dielectric constant tensor:
#      x y z
#    x 1.715920 0.000000 -0.001310 
#    y 0.000000 1.655720 0.000000 
#    z -0.001310 0.000000 1.726840 
# 
# From -- ./inp_files/28684.got.cif
#   From: 2010.05.17/outbox.cif.g08.bks.cpg/sg10_15_cif.got.tgz:28684.got - 2010.06.03 11:33:40.
