data_PCOD9148055
_publ_section_title
;
Structure prediction by ZEFSAII (Michael W. Deem and Ramdas Pophale) SiO2 
 PCOD9148055
Probable space group: P 2/M
;
_chemical_formula_sum "Si O2"
_cell_formula_units_Z 28
_cell_length_a 10.503667
_cell_length_b 8.723875
_cell_length_c 30.781322
_cell_angle_alpha 90.000000
_cell_angle_beta 146.388991
_cell_angle_gamma 90.000000
_cell_volume 1561.333727
_symmetry_space_group_name_H-M "P 2/M"
_symmetry_group_IT_number 10
_symmetry_cell_setting 'monoclinic'
loop_
_space_group_symop_operation_xyz
x,y,z
-x,y,-z
-x,-y,-z
x,-y,z
loop_
_atom_site_type_symbol
_atom_site_label
_atom_site_fract_x
_atom_site_fract_y
_atom_site_fract_z
Si Si1 0.366082 0.186346 0.339132
Si Si2 0.860724 0.315640 0.081835
Si Si3 0.187184 0.317678 0.674188
Si Si4 0.597634 0.684395 0.096364
Si Si5 0.650740 0.816325 0.766628
Si Si6 0.127566 0.815276 0.490805
Si Si7 0.904443 0.183750 0.257278
O O1 0.357690 0.234686 0.286401
O O2 0.607150 0.233231 0.429019
O O3 0.141732 0.236577 0.301698
O O4 0.364713 0.000000 0.338348
O O5 0.887714 0.500000 0.088225
O O6 0.757029 0.276427 0.099951
O O7 0.104339 0.236011 0.145159
O O8 0.662188 0.273609 0.991012
O O9 0.191906 0.500000 0.676623
O O10 0.436114 0.254878 0.730625
O O11 0.122291 0.252926 0.702783
O O12 0.005702 0.260609 0.586655
O O13 0.605814 0.500000 0.103673
O O14 0.698587 0.763759 0.167318
O O15 0.631345 0.000000 0.762102
O O16 0.000000 0.780393 0.500000
O O17 0.118899 0.000000 0.482854
O O18 0.908461 0.000000 0.261235
#
# Coordination Sequence:
#
# PCOD9148055 Si02
#       7
#     4   4   4   4   4   4   4
#     4   9  19  35  60  89 115 147 190 240 291 338
#     4   9  18  33  56  88 122 156 191 233 288 345
#     4  12  26  41  57  84 120 157 194 238 298 354
#     4   9  18  34  56  85 123 159 190 231 288 347
#     4  11  20  37  61  89 116 150 198 243 288 343
#     4  10  19  38  64  87 115 150 192 241 290 342
#     4  11  22  39  60  86 118 156 199 241 289 343
#
# _framework density 17.933387
#
# number of rings (size 3 to 8) (size 9 to 14) (size 15 to 20)
#    0.000    1.857    2.857    3.000    0.000    1.429 
#    0.000    6.429    0.000    4.286    0.000    0.000 
#    0.000    0.000    0.000    0.000    0.000    0.000 
#
# Total GULP energy -156370.878348 kJ/mol
# GULP energy per Si atom -5584.674227 kJ/mol
# Density = 1.789257 g / cm^3
# Si number density = 17.933387 Si / 1000 Ang^3
#
#
#
# Elastic Constant Matrix: (Units=GPa)
#
#
# Indices 1 2 3 4 5 6 
#
# 1 121.8739 42.0731 71.1054 0.0000 -3.2910 0.0000
# 2 42.0731 51.4784 48.3942 0.0000 -6.3471 0.0000
# 3 71.1054 48.3942 146.8445 0.0000 2.2664 0.0000
# 4 0.0000 0.0000 0.0000 42.3209 0.0000 4.2532
# 5 -3.2910 -6.3471 2.2664 0.0000 29.1570 0.0000
# 6 0.0000 0.0000 0.0000 4.2532 0.0000 23.4280
#
#
#
# Elastic Compliance Matrix: (Units=1/GPa)
#
#
# Indices 1 2 3 4 5 6 
#
# 1 0.012879 -0.006695 -0.004035 0.000000 0.000310 0.000000
# 2 -0.006695 0.033064 -0.007764 0.000000 0.007046 0.000000
# 3 -0.004035 -0.007764 0.011369 0.000000 -0.003029 0.000000
# 4 0.000000 0.000000 0.000000 0.024068 0.000000 -0.004369
# 5 0.000310 0.007046 -0.003029 0.000000 0.036101 0.000000
# 6 0.000000 0.000000 0.000000 -0.004369 0.000000 0.043477
#
#
# Mechanical properties :
#
#
# Convention : Reuss Voigt Hill
#
# Bulk Modulus (GPa) = 49.19801 71.48248 60.34024
# Shear Modulus (GPa) = 24.42361 29.55613 26.98987
#
# Velocity S-wave (km/s) = 3.69441 4.06409 3.88365
# Velocity P-wave (km/s) = 6.75955 7.87204 7.33691
#
# Compressibility (1/GPa) = 0.02032603
#
# Stress axis : x y z
#
# Youngs Moduli (GPa) = 77.64826 30.24397 87.95842
#
# Poissons Ratio (x) = 0.20247 0.35488
# Poissons Ratio (y) = 0.51982 0.68290
# Poissons Ratio (z) = 0.31328 0.23481
#
# Static dielectric constant tensor:
#      x y z
#    x 1.589060 0.000000 0.009870 
#    y 0.000000 1.604420 0.000000 
#    z 0.009870 0.000000 1.601910 
# 
# From -- ./inp_files/92079.got.cif
#   From: 2010.05.17/outbox.cif.g08.bks.cpg/sg10_47_cif.got.tgz:92079.got - 2010.06.03 11:33:40.
