data_PCOD9148968
_publ_section_title
;
Structure prediction by ZEFSAII (Michael W. Deem and Ramdas Pophale) SiO2 
 PCOD9148968
Probable space group: P 2/M
;
_chemical_formula_sum "Si O2"
_cell_formula_units_Z 28
_cell_length_a 28.920024
_cell_length_b 8.963907
_cell_length_c 9.802324
_cell_angle_alpha 90.000000
_cell_angle_beta 39.728804
_cell_angle_gamma 90.000000
_cell_volume 1624.167881
_symmetry_space_group_name_H-M "P 2/M"
_symmetry_group_IT_number 10
_symmetry_cell_setting 'monoclinic'
loop_
_space_group_symop_operation_xyz
x,y,z
-x,y,-z
-x,-y,-z
x,-y,z
loop_
_atom_site_type_symbol
_atom_site_label
_atom_site_fract_x
_atom_site_fract_y
_atom_site_fract_z
Si Si1 0.941901 0.176777 0.823819
Si Si2 0.919150 0.678922 0.147211
Si Si3 0.642497 0.822420 0.004648
Si Si4 0.796456 0.678374 0.638757
Si Si5 0.510629 0.319560 0.135665
Si Si6 0.423547 0.329620 0.592016
Si Si7 0.895297 0.822570 0.623391
O O1 0.904761 0.201014 0.762666
O O2 0.026540 0.220564 0.617347
O O3 0.940578 0.000000 0.854805
O O4 0.904847 0.265921 0.027945
O O5 0.921223 0.500000 0.147934
O O6 0.856757 0.727766 0.391715
O O7 0.000000 0.735012 0.000000
O O8 0.720088 0.756256 0.789634
O O9 0.641245 0.000000 0.999325
O O10 0.581059 0.754739 0.044232
O O11 0.625495 0.771128 0.199234
O O12 0.788327 0.500000 0.651798
O O13 0.831463 0.729901 0.701661
O O14 0.518408 0.500000 0.125661
O O15 0.444478 0.281850 0.390400
O O16 0.500000 0.279982 0.000000
O O17 0.500000 0.332948 0.500000
O O18 0.395618 0.500000 0.652608
O O19 0.885005 0.000000 0.623052
#
# Coordination Sequence:
#
# PCOD9148968 Si02
#       7
#     4   4   4   4   4   4   4
#     4   9  18  32  52  75 101 131 166 213 267 322
#     4  10  20  34  51  76 104 134 180 229 271 319
#     4  11  22  35  53  79 111 144 180 221 263 314
#     4  11  22  36  54  75 104 141 180 225 273 321
#     4   9  18  35  60  87 113 142 176 214 257 310
#     4   8  15  31  55  80 106 138 175 209 248 305
#     4   9  18  33  51  75 102 130 168 213 263 319
#
# _framework density 17.239597
#
# number of rings (size 3 to 8) (size 9 to 14) (size 15 to 20)
#    0.000    2.429    1.429    3.429    0.000    4.857 
#    0.000    2.857    0.000    1.714    0.000    0.000 
#    0.000    0.000    0.000    0.000    0.000    0.000 
#
# Total GULP energy -156065.155681 kJ/mol
# GULP energy per Si atom -5573.755560 kJ/mol
# Density = 1.720036 g / cm^3
# Si number density = 17.239597 Si / 1000 Ang^3
#
#
#
# Elastic Constant Matrix: (Units=GPa)
#
#
# Indices 1 2 3 4 5 6 
#
# 1 71.3471 36.1423 56.5054 0.0000 2.2993 0.0000
# 2 36.1423 42.1625 47.1371 0.0000 -4.7226 0.0000
# 3 56.5054 47.1371 118.2829 0.0000 4.6893 0.0000
# 4 0.0000 0.0000 0.0000 18.0912 0.0000 -0.8522
# 5 2.2993 -4.7226 4.6893 0.0000 26.3159 0.0000
# 6 0.0000 0.0000 0.0000 -0.8522 0.0000 27.5287
#
#
#
# Elastic Compliance Matrix: (Units=1/GPa)
#
#
# Indices 1 2 3 4 5 6 
#
# 1 0.027943 -0.017551 -0.006177 0.000000 -0.004491 0.000000
# 2 -0.017551 0.057075 -0.014933 0.000000 0.014437 0.000000
# 3 -0.006177 -0.014933 0.017565 0.000000 -0.005270 0.000000
# 4 0.000000 0.000000 0.000000 0.055356 0.000000 0.001714
# 5 -0.004491 0.014437 -0.005270 0.000000 0.041922 0.000000
# 6 0.000000 0.000000 0.000000 0.001714 0.000000 0.036379
#
#
# Mechanical properties :
#
#
# Convention : Reuss Voigt Hill
#
# Bulk Modulus (GPa) = 39.58562 56.81800 48.20181
# Shear Modulus (GPa) = 15.52887 20.52100 18.02493
#
# Velocity S-wave (km/s) = 3.00453 3.45387 3.23701
# Velocity P-wave (km/s) = 5.92015 6.99536 6.48009
#
# Compressibility (1/GPa) = 0.02526170
#
# Stress axis : x y z
#
# Youngs Moduli (GPa) = 35.78679 17.52096 56.93221
#
# Poissons Ratio (x) = 0.30751 0.35165
# Poissons Ratio (y) = 0.62810 0.85016
# Poissons Ratio (z) = 0.22104 0.26164
#
# Static dielectric constant tensor:
#      x y z
#    x 1.572830 0.000000 0.012910 
#    y 0.000000 1.575240 0.000000 
#    z 0.012910 0.000000 1.606520 
# 
# From -- ./inp_files/37905.got.cif
#   From: 2010.05.17/outbox.cif.g08.bks.cpg/sg10_19_cif.got.tgz:37905.got - 2010.06.03 11:33:40.
