data_PCOD9148308
_publ_section_title
;
Structure prediction by ZEFSAII (Michael W. Deem and Ramdas Pophale) SiO2 
 PCOD9148308
Probable space group: P 2/M
;
_chemical_formula_sum "Si O2"
_cell_formula_units_Z 32
_cell_length_a 19.086129
_cell_length_b 8.457036
_cell_length_c 12.932923
_cell_angle_alpha 90.000000
_cell_angle_beta 62.098168
_cell_angle_gamma 90.000000
_cell_volume 1844.856034
_symmetry_space_group_name_H-M "P 2/M"
_symmetry_group_IT_number 10
_symmetry_cell_setting 'monoclinic'
loop_
_space_group_symop_operation_xyz
x,y,z
-x,y,-z
-x,-y,-z
x,-y,z
loop_
_atom_site_type_symbol
_atom_site_label
_atom_site_fract_x
_atom_site_fract_y
_atom_site_fract_z
Si Si1 0.679552 0.193426 0.486723
Si Si2 0.155606 0.312075 0.241329
Si Si3 0.493995 0.190930 0.330070
Si Si4 0.450959 0.190406 0.934835
Si Si5 0.330602 0.809095 0.734233
Si Si6 0.012647 0.181179 0.615521
Si Si7 0.281364 0.688395 0.987424
Si Si8 0.183769 0.808235 0.452645
O O1 0.589622 0.248707 0.569422
O O2 0.702828 0.239508 0.354012
O O3 0.740707 0.244439 0.533008
O O4 0.678675 0.000000 0.490506
O O5 0.164028 0.500000 0.241774
O O6 0.063271 0.270721 0.288549
O O7 0.182645 0.244032 0.333966
O O8 0.210463 0.252365 0.109711
O O9 0.501716 0.225034 0.203086
O O10 0.577116 0.245656 0.321788
O O11 0.493367 0.000000 0.343706
O O12 0.364385 0.264007 0.983244
O O13 0.441364 0.000000 0.947070
O O14 0.500000 0.244087 0.000000
O O15 0.285662 0.753026 0.867683
O O16 0.332133 0.000000 0.736786
O O17 0.000000 0.178277 0.500000
O O18 0.101694 0.246202 0.563929
O O19 0.010399 0.000000 0.654118
O O20 0.276249 0.500000 0.984762
O O21 0.181267 0.000000 0.454154
#
# Coordination Sequence:
#
# PCOD9148308 Si02
#       8
#     4   4   4   4   4   4   4   4
#     4   9  16  27  48  74  97 122 152 196 244 279
#     4  10  20  32  48  70  95 126 162 193 227 284
#     4   8  14  25  43  70  96 119 152 194 232 267
#     4   9  18  30  47  71  95 123 161 196 229 279
#     4   9  17  31  50  70  92 122 165 203 231 272
#     4   8  15  29  47  70  97 123 151 188 236 286
#     4  10  21  34  47  66  94 128 162 196 237 278
#     4   9  18  30  48  75 102 124 149 188 243 293
#
# _framework density 17.345528000000002
#
# number of rings (size 3 to 8) (size 9 to 14) (size 15 to 20)
#    0.000    3.000    0.000    2.625    1.750    6.000 
#    0.000    0.625    0.000    6.750    0.000    5.250 
#    0.000    0.000    0.000    0.000    0.000    0.000 
#
# Total GULP energy -178224.241333 kJ/mol
# GULP energy per Si atom -5569.507542 kJ/mol
# Density = 1.730605 g / cm^3
# Si number density = 17.345528 Si / 1000 Ang^3
#
#
#
# Elastic Constant Matrix: (Units=GPa)
#
#
# Indices 1 2 3 4 5 6 
#
# 1 61.6889 13.0923 65.6783 0.0000 -6.1101 0.0000
# 2 13.0923 9.7117 20.0963 0.0000 -1.5840 0.0000
# 3 65.6783 20.0963 115.9962 0.0000 -22.3729 0.0000
# 4 0.0000 0.0000 0.0000 1.0050 0.0000 1.9954
# 5 -6.1101 -1.5840 -22.3729 0.0000 21.6147 0.0000
# 6 0.0000 0.0000 0.0000 1.9954 0.0000 4.6145
#
#
#
# Elastic Compliance Matrix: (Units=1/GPa)
#
#
# Indices 1 2 3 4 5 6 
#
# 1 0.045673 -0.006510 -0.027905 0.000000 -0.016450 0.000000
# 2 -0.006510 0.169667 -0.029569 0.000000 -0.020012 0.000000
# 3 -0.027905 -0.029569 0.034490 0.000000 0.025645 0.000000
# 4 0.000000 0.000000 0.000000 7.033032 0.000000 -3.041227
# 5 -0.016450 -0.020012 0.025645 0.000000 0.066692 0.000000
# 6 0.000000 0.000000 0.000000 -3.041227 0.000000 1.531796
#
#
# Mechanical properties :
#
#
# Convention : Reuss Voigt Hill
#
# Bulk Modulus (GPa) = 8.20598 42.79230 25.49914
# Shear Modulus (GPa) = 0.55249 11.34884 5.95066
#
# Velocity S-wave (km/s) = 0.56499 2.56067 1.85421
# Velocity P-wave (km/s) = 2.27305 5.78504 4.39508
#
# Compressibility (1/GPa) = 0.12186229
#
# Stress axis : x y z
#
# Youngs Moduli (GPa) = 21.89493 5.89389 28.99358
#
# Poissons Ratio (x) = 0.03837 0.80908
# Poissons Ratio (y) = 0.14253 0.85730
# Poissons Ratio (z) = 0.61099 0.17427
#
# Static dielectric constant tensor:
#      x y z
#    x 1.594030 0.000000 -0.011240 
#    y 0.000000 1.600080 0.000000 
#    z -0.011240 0.000000 1.591480 
# 
# From -- ./inp_files/54767.got.cif
#   From: 2010.05.17/outbox.cif.g08.bks.cpg/sg10_28_cif.got.tgz:54767.got - 2010.06.03 11:33:40.
