data_PCOD9148222
_publ_section_title
;
Structure prediction by ZEFSAII (Michael W. Deem and Ramdas Pophale) SiO2 
 PCOD9148222
Probable space group: P 2/M
;
_chemical_formula_sum "Si O2"
_cell_formula_units_Z 24
_cell_length_a 5.188022
_cell_length_b 18.437303
_cell_length_c 19.639379
_cell_angle_alpha 90.000000
_cell_angle_beta 117.926796
_cell_angle_gamma 90.000000
_cell_volume 1659.802670
_symmetry_space_group_name_H-M "P 2/M"
_symmetry_group_IT_number 10
_symmetry_cell_setting 'monoclinic'
loop_
_space_group_symop_operation_xyz
x,y,z
-x,y,-z
-x,-y,-z
x,-y,z
loop_
_atom_site_type_symbol
_atom_site_label
_atom_site_fract_x
_atom_site_fract_y
_atom_site_fract_z
Si Si1 0.340455 0.309028 0.051098
Si Si2 0.688702 0.917253 0.093720
Si Si3 0.751232 0.412901 0.182892
Si Si4 0.587481 0.587834 0.723109
Si Si5 0.335919 0.588444 0.547738
Si Si6 0.190178 0.837793 0.093229
O O1 0.537379 0.373137 0.104513
O O2 0.321079 0.242647 0.102459
O O3 0.500000 0.284804 0.000000
O O4 0.000000 0.330651 0.000000
O O5 0.457349 0.893214 0.121591
O O6 0.957402 0.861622 0.120678
O O7 0.789669 0.000000 0.113733
O O8 0.500000 0.914491 0.000000
O O9 0.736355 0.500000 0.171984
O O10 0.638308 0.395540 0.244922
O O11 0.086038 0.388498 0.217288
O O12 0.601351 0.500000 0.720758
O O13 0.482549 0.613534 0.636164
O O14 0.500000 0.611962 0.500000
O O15 0.344711 0.500000 0.550139
O O16 0.000000 0.609705 0.500000
O O17 0.000000 0.843550 0.000000
#
# Coordination Sequence:
#
# PCOD9148222 Si02
#       6
#     4   4   4   4   4   4
#     4  11  21  32  44  55  70  94 127 169 211 242
#     4   9  15  23  37  55  73  91 109 132 172 229
#     4  10  20  32  44  56  71  95 127 165 208 241
#     4   9  17  29  42  57  77  96 117 149 190 234
#     4   9  15  23  38  59  79  97 114 134 170 223
#     4   9  16  26  37  52  72  91 113 145 187 229
#
# _framework density 14.45955
#
# number of rings (size 3 to 8) (size 9 to 14) (size 15 to 20)
#    0.000    2.500    0.000    5.000    0.000    6.667 
#    0.000    0.000    0.000    0.000    0.000    0.000 
#    0.000    0.000    0.000    0.000    0.000    0.000 
#
# Total GULP energy -133624.721450 kJ/mol
# GULP energy per Si atom -5567.696727 kJ/mol
# Density = 1.442664 g / cm^3
# Si number density = 14.459550 Si / 1000 Ang^3
#
#
#
# Elastic Constant Matrix: (Units=GPa)
#
#
# Indices 1 2 3 4 5 6 
#
# 1 68.5797 9.5547 -3.0240 0.0000 8.7354 0.0000
# 2 9.5547 32.5909 8.3480 0.0000 2.1247 0.0000
# 3 -3.0240 8.3480 22.4628 0.0000 6.1029 0.0000
# 4 0.0000 0.0000 0.0000 -0.7685 0.0000 0.4746
# 5 8.7354 2.1247 6.1029 0.0000 15.0774 0.0000
# 6 0.0000 0.0000 0.0000 0.4746 0.0000 14.6026
#
#
#
# Elastic Compliance Matrix: (Units=1/GPa)
#
#
# Indices 1 2 3 4 5 6 
#
# 1 0.017414 -0.006367 0.008098 0.000000 -0.012470 0.000000
# 2 -0.006367 0.036241 -0.015663 0.000000 0.004922 0.000000
# 3 0.008098 -0.015663 0.058542 0.000000 -0.026181 0.000000
# 4 0.000000 0.000000 0.000000 -1.275706 0.000000 0.041460
# 5 -0.012470 0.004922 -0.026181 0.000000 0.083453 0.000000
# 6 0.000000 0.000000 0.000000 0.041460 0.000000 0.067134
#
#
# Mechanical properties :
#
#
# Convention : Reuss Voigt Hill
#
# Bulk Modulus (GPa) = 11.85742 17.04343 14.45042
# Shear Modulus (GPa) = -5.22494 13.03262 3.90384
#
# Velocity S-wave (km/s) = -1.90298 3.00545 1.64490
# Velocity P-wave (km/s) = 1.84113 4.88428 3.69093
#
# Compressibility (1/GPa) = 0.08433540
#
# Stress axis : x y z
#
# Youngs Moduli (GPa) = 57.42479 27.59297 17.08161
#
# Poissons Ratio (x) = 0.17568 -0.13833
# Poissons Ratio (y) = 0.36561 0.26755
# Poissons Ratio (z) = -0.46505 0.43218
#
# Static dielectric constant tensor:
#      x y z
#    x 1.497460 0.000000 -0.004950 
#    y 0.000000 1.491410 0.000000 
#    z -0.004950 0.000000 1.461330 
# 
# From -- ./inp_files/59035.got.cif
#   From: 2010.05.17/outbox.cif.g08.bks.cpg/sg10_30_cif.got.tgz:59035.got - 2010.06.03 11:33:40.
