data_PCOD9148529
_publ_section_title
;
Structure prediction by ZEFSAII (Michael W. Deem and Ramdas Pophale) SiO2 
 PCOD9148529
Probable space group: P 2/M
;
_chemical_formula_sum "Si O2"
_cell_formula_units_Z 32
_cell_length_a 26.008112
_cell_length_b 7.605750
_cell_length_c 14.590900
_cell_angle_alpha 90.000000
_cell_angle_beta 34.244640
_cell_angle_gamma 90.000000
_cell_volume 1624.168820
_symmetry_space_group_name_H-M "P 2/M"
_symmetry_group_IT_number 10
_symmetry_cell_setting 'monoclinic'
loop_
_space_group_symop_operation_xyz
x,y,z
-x,y,-z
-x,-y,-z
x,-y,z
loop_
_atom_site_type_symbol
_atom_site_label
_atom_site_fract_x
_atom_site_fract_y
_atom_site_fract_z
Si Si1 0.397559 0.210818 0.395923
Si Si2 0.762106 0.292609 0.717233
Si Si3 0.896842 0.288740 0.157723
Si Si4 0.242718 0.711564 0.483060
Si Si5 0.901665 0.796499 0.667869
Si Si6 0.741798 0.210963 0.245247
Si Si7 0.604670 0.787308 0.085138
Si Si8 0.252732 0.784269 0.971126
O O1 0.337457 0.246871 0.394486
O O2 0.338493 0.278602 0.569475
O O3 0.500859 0.277599 0.238571
O O4 0.402973 0.000000 0.397880
O O5 0.782237 0.500000 0.685690
O O6 0.762786 0.223376 0.612699
O O7 0.837038 0.208985 0.673869
O O8 0.664127 0.267444 0.909839
O O9 0.901487 0.500000 0.159685
O O10 0.838092 0.222428 0.331149
O O11 0.836751 0.249356 0.156633
O O12 0.000000 0.221072 0.000000
O O13 0.235954 0.500000 0.489587
O O14 0.839387 0.722231 0.841713
O O15 0.000000 0.715754 0.500000
O O16 0.918584 0.000000 0.668267
O O17 0.732126 0.000000 0.255354
O O18 0.739491 0.276003 0.144681
O O19 0.603257 0.000000 0.087445
O O20 0.662378 0.731677 0.089645
O O21 0.251138 0.000000 0.973795
#
# Coordination Sequence:
#
# PCOD9148529 Si02
#       8
#     4   4   4   4   4   4   4   4
#     4   9  18  31  49  72  94 120 157 197 233 275
#     4  10  20  33  49  70  95 124 159 196 233 274
#     4   9  18  33  50  67  91 124 157 188 228 278
#     4   9  19  34  49  67  95 127 156 191 236 281
#     4   9  18  33  51  71  97 128 158 189 231 280
#     4   9  17  30  48  71  96 120 152 193 233 274
#     4   9  18  33  50  69  95 125 156 191 234 282
#     4   8  15  29  48  69  95 124 152 186 229 276
#
# _framework density 19.702385
#
# number of rings (size 3 to 8) (size 9 to 14) (size 15 to 20)
#    0.000    3.000    0.000    1.125    0.000    4.000 
#    0.000    7.500    0.000    0.000    0.000    7.000 
#    0.000    0.000    0.000    0.000    0.000    0.000 
#
# Total GULP energy -178448.784310 kJ/mol
# GULP energy per Si atom -5576.524510 kJ/mol
# Density = 1.965754 g / cm^3
# Si number density = 19.702385 Si / 1000 Ang^3
#
#
#
# Elastic Constant Matrix: (Units=GPa)
#
#
# Indices 1 2 3 4 5 6 
#
# 1 105.4928 -9.6753 88.2538 0.0000 21.2569 0.0000
# 2 -9.6753 41.3875 -3.7045 0.0000 0.1318 0.0000
# 3 88.2538 -3.7045 129.6389 0.0000 -11.3940 0.0000
# 4 0.0000 0.0000 0.0000 11.4477 0.0000 -0.6390
# 5 21.2569 0.1318 -11.3940 0.0000 37.6331 0.0000
# 6 0.0000 0.0000 0.0000 -0.6390 0.0000 31.9873
#
#
#
# Elastic Compliance Matrix: (Units=1/GPa)
#
#
# Indices 1 2 3 4 5 6 
#
# 1 0.047068 0.007981 -0.035087 0.000000 -0.037238 0.000000
# 2 0.007981 0.025578 -0.005246 0.000000 -0.006186 0.000000
# 3 -0.035087 -0.005246 0.034101 0.000000 0.030162 0.000000
# 4 0.000000 0.000000 0.000000 0.087451 0.000000 0.001747
# 5 -0.037238 -0.006186 0.030162 0.000000 0.056760 0.000000
# 6 0.000000 0.000000 0.000000 0.001747 0.000000 0.031297
#
#
# Mechanical properties :
#
#
# Convention : Reuss Voigt Hill
#
# Bulk Modulus (GPa) = 23.78531 47.36302 35.57416
# Shear Modulus (GPa) = 13.85142 29.65664 21.75403
#
# Velocity S-wave (km/s) = 2.65435 3.88394 3.32645
# Velocity P-wave (km/s) = 4.63601 6.64866 5.73138
#
# Compressibility (1/GPa) = 0.04204275
#
# Stress axis : x y z
#
# Youngs Moduli (GPa) = 21.24575 39.09639 29.32466
#
# Poissons Ratio (x) = -0.31204 1.02892
# Poissons Ratio (y) = -0.16957 0.15384
# Poissons Ratio (z) = 0.74545 0.20511
#
# Static dielectric constant tensor:
#      x y z
#    x 1.651320 0.000000 0.006670 
#    y 0.000000 1.754890 0.000000 
#    z 0.006670 0.000000 1.700080 
# 
# From -- ./inp_files/71502.got.cif
#   From: 2010.05.17/outbox.cif.g08.bks.cpg/sg10_36_cif.got.tgz:71502.got - 2010.06.03 11:33:40.
