data_PCOD9148825
_publ_section_title
;
Structure prediction by ZEFSAII (Michael W. Deem and Ramdas Pophale) SiO2 
 PCOD9148825
Probable space group: P 2/M
;
_chemical_formula_sum "Si O2"
_cell_formula_units_Z 28
_cell_length_a 14.390600
_cell_length_b 8.054781
_cell_length_c 10.519948
_cell_angle_alpha 90.000000
_cell_angle_beta 76.028772
_cell_angle_gamma 90.000000
_cell_volume 1183.326710
_symmetry_space_group_name_H-M "P 2/M"
_symmetry_group_IT_number 10
_symmetry_cell_setting 'monoclinic'
loop_
_space_group_symop_operation_xyz
x,y,z
-x,y,-z
-x,-y,-z
x,-y,z
loop_
_atom_site_type_symbol
_atom_site_label
_atom_site_fract_x
_atom_site_fract_y
_atom_site_fract_z
Si Si1 0.810351 0.195792 0.476565
Si Si2 0.997689 0.315434 0.683734
Si Si3 0.905872 0.311571 0.078066
Si Si4 0.214227 0.802524 0.234211
Si Si5 0.509237 0.296801 0.349872
Si Si6 0.416667 0.300831 0.123839
Si Si7 0.721386 0.302344 0.242930
O O1 0.777409 0.262776 0.623258
O O2 0.753826 0.274288 0.377811
O O3 0.925471 0.222599 0.430635
O O4 0.793021 0.000000 0.475466
O O5 0.977118 0.500000 0.642906
O O6 0.895959 0.241489 0.761289
O O7 0.063931 0.331731 0.786002
O O8 0.901208 0.500000 0.021296
O O9 0.801883 0.231337 0.121015
O O10 0.000000 0.218413 0.000000
O O11 0.306291 0.738633 0.127610
O O12 0.220144 0.000000 0.233786
O O13 0.500000 0.241114 0.500000
O O14 0.506052 0.500000 0.355159
O O15 0.437775 0.241085 0.261822
O O16 0.613865 0.243895 0.266162
O O17 0.424966 0.500000 0.122258
O O18 0.500000 0.239979 0.000000
O O19 0.722673 0.500000 0.219404
#
# Coordination Sequence:
#
# PCOD9148825 Si02
#       7
#     4   4   4   4   4   4   4
#     4  10  20  34  52  78 112 144 176 218 270 328
#     4  10  20  33  54  82 107 137 178 222 269 323
#     4   8  15  28  47  73 102 130 164 209 261 317
#     4  11  23  37  54  76 107 148 183 217 270 331
#     4   9  17  31  54  82 108 136 176 228 279 322
#     4  10  22  39  59  84 111 142 187 238 279 321
#     4   9  17  30  51  76 101 134 175 220 271 321
#
# _framework density 23.662106000000001
#
# number of rings (size 3 to 8) (size 9 to 14) (size 15 to 20)
#    0.000    2.429    0.000    3.429    0.000    6.571 
#    0.000    5.000    0.000   16.714    0.000    0.000 
#    0.000    0.000    0.000    0.000    0.000    0.000 
#
# Total GULP energy -156074.547039 kJ/mol
# GULP energy per Si atom -5574.090966 kJ/mol
# Density = 2.360825 g / cm^3
# Si number density = 23.662106 Si / 1000 Ang^3
#
#
#
# Elastic Constant Matrix: (Units=GPa)
#
#
# Indices 1 2 3 4 5 6 
#
# 1 131.5513 -2.2212 30.9362 0.0000 -26.9335 0.0000
# 2 -2.2212 16.6918 5.5286 0.0000 -7.2408 0.0000
# 3 30.9362 5.5286 65.3232 0.0000 -23.4731 0.0000
# 4 0.0000 0.0000 0.0000 21.1499 0.0000 -1.6446
# 5 -26.9335 -7.2408 -23.4731 0.0000 47.2402 0.0000
# 6 0.0000 0.0000 0.0000 -1.6446 0.0000 -46.8358
#
#
#
# Elastic Compliance Matrix: (Units=1/GPa)
#
#
# Indices 1 2 3 4 5 6 
#
# 1 0.009319 0.004194 -0.003199 0.000000 0.004366 0.000000
# 2 0.004194 0.066351 -0.003759 0.000000 0.010693 0.000000
# 3 -0.003199 -0.003759 0.019818 0.000000 0.007447 0.000000
# 4 0.000000 0.000000 0.000000 0.047153 0.000000 -0.001656
# 5 0.004366 0.010693 0.007447 0.000000 0.028997 0.000000
# 6 0.000000 0.000000 0.000000 -0.001656 0.000000 -0.021293
#
#
# Mechanical properties :
#
#
# Convention : Reuss Voigt Hill
#
# Bulk Modulus (GPa) = 11.11628 31.33929 21.22778
# Shear Modulus (GPa) = 26.90195 16.26572 21.58384
#
# Velocity S-wave (km/s) = 3.37548 2.62471 3.02349
# Velocity P-wave (km/s) = 4.46094 4.73906 4.60210
#
# Compressibility (1/GPa) = 0.08995819
#
# Stress axis : x y z
#
# Youngs Moduli (GPa) = 107.31182 15.07128 50.45973
#
# Poissons Ratio (x) = -0.06320 0.16143
# Poissons Ratio (y) = -0.45003 0.18969
# Poissons Ratio (z) = 0.34331 0.05666
#
# Static dielectric constant tensor:
#      x y z
#    x 1.934620 0.000000 -0.020240 
#    y 0.000000 1.830820 0.000000 
#    z -0.020240 0.000000 2.008910 
# 
# From -- ./inp_files/49185.got.cif
#   From: 2010.05.17/outbox.cif.g08.bks.cpg/sg10_25_cif.got.tgz:49185.got - 2010.06.03 11:33:40.
