data_PCOD9148396
_publ_section_title
;
Structure prediction by ZEFSAII (Michael W. Deem and Ramdas Pophale) SiO2 
 PCOD9148396
Probable space group: P 2/M
;
_chemical_formula_sum "Si O2"
_cell_formula_units_Z 32
_cell_length_a 19.145568
_cell_length_b 15.408760
_cell_length_c 5.200770
_cell_angle_alpha 90.000000
_cell_angle_beta 96.824619
_cell_angle_gamma 90.000000
_cell_volume 1523.405308
_symmetry_space_group_name_H-M "P 2/M"
_symmetry_group_IT_number 10
_symmetry_cell_setting 'monoclinic'
loop_
_space_group_symop_operation_xyz
x,y,z
-x,y,-z
-x,-y,-z
x,-y,z
loop_
_atom_site_type_symbol
_atom_site_label
_atom_site_fract_x
_atom_site_fract_y
_atom_site_fract_z
Si Si1 0.383889 0.901635 0.904365
Si Si2 0.791580 0.407515 0.862943
Si Si3 0.771401 0.898475 0.009987
Si Si4 0.861640 0.219935 0.380034
Si Si5 0.725897 0.753700 0.608952
Si Si6 0.952349 0.099374 0.735654
Si Si7 0.114597 0.404514 0.598836
Si Si8 0.576233 0.195016 0.561392
O O1 0.298699 0.893529 0.840250
O O2 0.420358 0.881357 0.649975
O O3 0.397880 0.000000 0.991437
O O4 0.409984 0.839112 0.144153
O O5 0.755431 0.500000 0.796296
O O6 0.743734 0.324218 0.809815
O O7 0.853762 0.401242 0.675496
O O8 0.826199 0.410428 0.155982
O O9 0.840400 0.851518 0.157266
O O10 0.784065 0.000000 0.968804
O O11 0.744155 0.844933 0.753302
O O12 0.784018 0.255573 0.414598
O O13 0.892879 0.167660 0.634453
O O14 0.910862 0.304806 0.356372
O O15 0.644263 0.749618 0.509417
O O16 0.000000 0.099162 0.500000
O O17 0.927294 0.000000 0.761988
O O18 0.000000 0.123307 0.000000
O O19 0.077315 0.500000 0.604119
O O20 0.500000 0.236834 0.500000
#
# Coordination Sequence:
#
# PCOD9148396 Si02
#       8
#     4   4   4   4   4   4   4   4
#     4  10  21  36  50  69 100 137 184 228 266 320
#     4   9  17  31  52  78 110 140 174 227 283 328
#     4  10  20  32  50  80 110 139 179 231 273 313
#     4  11  20  36  61  80 110 147 187 228 278 325
#     4  10  21  35  53  82 112 139 191 230 276 327
#     4  10  24  42  58  81 113 151 191 226 268 326
#     4   9  18  31  53  86 113 136 174 225 279 328
#     4  11  22  35  51  72 105 145 180 224 278 327
#
# _framework density 21.005572000000001
#
# number of rings (size 3 to 8) (size 9 to 14) (size 15 to 20)
#    0.000    2.000    2.500    1.125    1.750    3.000 
#    0.000    0.000    0.000    1.125    0.000    0.000 
#    0.000    8.750    0.000    0.000    0.000    1.250 
#
# Total GULP energy -178295.792628 kJ/mol
# GULP energy per Si atom -5571.743520 kJ/mol
# Density = 2.095776 g / cm^3
# Si number density = 21.005572 Si / 1000 Ang^3
#
#
#
# Elastic Constant Matrix: (Units=GPa)
#
#
# Indices 1 2 3 4 5 6 
#
# 1 75.8763 9.1485 16.4835 0.0000 15.9538 0.0000
# 2 9.1485 118.9189 21.3604 0.0000 17.7064 0.0000
# 3 16.4835 21.3604 89.0627 0.0000 7.3225 0.0000
# 4 0.0000 0.0000 0.0000 12.2159 0.0000 0.4273
# 5 15.9538 17.7064 7.3225 0.0000 28.8003 0.0000
# 6 0.0000 0.0000 0.0000 0.4273 0.0000 -2.9839
#
#
#
# Elastic Compliance Matrix: (Units=1/GPa)
#
#
# Indices 1 2 3 4 5 6 
#
# 1 0.015343 0.000448 -0.002273 0.000000 -0.008197 0.000000
# 2 0.000448 0.009557 -0.001912 0.000000 -0.005638 0.000000
# 3 -0.002273 -0.001912 0.012161 0.000000 -0.000658 0.000000
# 4 0.000000 0.000000 0.000000 0.081452 0.000000 0.011664
# 5 -0.008197 -0.005638 -0.000658 0.000000 0.042896 0.000000
# 6 0.000000 0.000000 0.000000 0.011664 0.000000 -0.333461
#
#
# Mechanical properties :
#
#
# Convention : Reuss Voigt Hill
#
# Bulk Modulus (GPa) = 33.79687 41.98250 37.88968
# Shear Modulus (GPa) = -32.31731 23.39750 -4.45991
#
# Velocity S-wave (km/s) = -3.92664 3.34109 -1.45870
# Velocity P-wave (km/s) = 2.10561 5.90877 3.90384
#
# Compressibility (1/GPa) = 0.02958854
#
# Stress axis : x y z
#
# Youngs Moduli (GPa) = 65.17816 104.63010 82.22803
#
# Poissons Ratio (x) = -0.04692 0.18692
# Poissons Ratio (y) = -0.02923 0.15719
# Poissons Ratio (z) = 0.14816 0.20002
#
# Static dielectric constant tensor:
#      x y z
#    x 1.847770 0.000000 -0.034210 
#    y 0.000000 1.834390 0.000000 
#    z -0.034210 0.000000 1.776610 
# 
# From -- ./inp_files/12716.got.cif
#   From: 2010.05.17/outbox.cif.g08.bks.cpg/sg10_7_cif.got.tgz:12716.got - 2010.06.03 11:33:40.
