data_PCOD9148446
_publ_section_title
;
Structure prediction by ZEFSAII (Michael W. Deem and Ramdas Pophale) SiO2 
 PCOD9148446
Probable space group: P 2/M
;
_chemical_formula_sum "Si O2"
_cell_formula_units_Z 32
_cell_length_a 13.872274
_cell_length_b 14.870815
_cell_length_c 19.962719
_cell_angle_alpha 90.000000
_cell_angle_beta 24.235049
_cell_angle_gamma 90.000000
_cell_volume 1690.421848
_symmetry_space_group_name_H-M "P 2/M"
_symmetry_group_IT_number 10
_symmetry_cell_setting 'monoclinic'
loop_
_space_group_symop_operation_xyz
x,y,z
-x,y,-z
-x,-y,-z
x,-y,z
loop_
_atom_site_type_symbol
_atom_site_label
_atom_site_fract_x
_atom_site_fract_y
_atom_site_fract_z
Si Si1 0.403693 0.894573 0.350200
Si Si2 0.582491 0.104325 0.377754
Si Si3 0.624649 0.603337 0.325347
Si Si4 0.911051 0.840027 0.982230
Si Si5 0.156023 0.281015 0.466567
Si Si6 0.389393 0.599668 0.815857
Si Si7 0.040194 0.671869 0.136533
Si Si8 0.929747 0.392528 0.348229
O O1 0.453593 0.858173 0.394090
O O2 0.218282 0.823974 0.438393
O O3 0.333962 0.000000 0.393862
O O4 0.662519 0.888125 0.152054
O O5 0.500000 0.145353 0.500000
O O6 0.861243 0.107013 0.188728
O O7 0.510892 0.000000 0.424014
O O8 0.668912 0.500000 0.317112
O O9 0.710902 0.618545 0.194575
O O10 0.346441 0.614725 0.496083
O O11 0.770586 0.663957 0.283005
O O12 0.872734 0.765065 0.949992
O O13 0.000000 0.807735 0.000000
O O14 0.407111 0.329905 0.298282
O O15 0.042706 0.332850 0.602297
O O16 0.000000 0.292643 0.500000
O O17 0.496686 0.500000 0.743317
O O18 0.189933 0.602130 0.997678
O O19 0.062043 0.649731 0.200484
O O20 0.980444 0.500000 0.324521
#
# Coordination Sequence:
#
# PCOD9148446 Si02
#       8
#     4   4   4   4   4   4   4   4
#     4  10  21  40  62  86 117 149 190 236 286 345
#     4   9  19  33  55  89 123 155 185 220 274 343
#     4   9  18  31  48  77 119 160 187 215 261 327
#     4  10  20  32  53  86 123 162 192 220 268 334
#     4  11  24  43  63  82 103 141 196 254 302 342
#     4  10  20  35  56  82 113 151 194 227 271 337
#     4  12  20  30  54  86 122 156 184 224 269 334
#     4  10  23  38  55  84 120 155 192 232 284 337
#
# _framework density 18.930187
#
# number of rings (size 3 to 8) (size 9 to 14) (size 15 to 20)
#    0.000    1.875    1.250    4.125    7.000    4.750 
#    0.000    0.625    0.000    1.500    0.000    0.875 
#    0.000    0.000    0.000    0.000    0.000    0.000 
#
# Total GULP energy -178442.909252 kJ/mol
# GULP energy per Si atom -5576.340914 kJ/mol
# Density = 1.888710 g / cm^3
# Si number density = 18.930187 Si / 1000 Ang^3
#
#
#
# Elastic Constant Matrix: (Units=GPa)
#
#
# Indices 1 2 3 4 5 6 
#
# 1 101.7251 41.2816 34.9083 0.0000 26.5421 0.0000
# 2 41.2816 95.5288 15.3097 0.0000 6.8582 0.0000
# 3 34.9083 15.3097 50.1422 0.0000 33.9204 0.0000
# 4 0.0000 0.0000 0.0000 22.6467 0.0000 -7.1899
# 5 26.5421 6.8582 33.9204 0.0000 27.7001 0.0000
# 6 0.0000 0.0000 0.0000 -7.1899 0.0000 64.2550
#
#
#
# Elastic Compliance Matrix: (Units=1/GPa)
#
#
# Indices 1 2 3 4 5 6 
#
# 1 0.015760 -0.005852 0.000293 0.000000 -0.014012 0.000000
# 2 -0.005852 0.013500 -0.009208 0.000000 0.013540 0.000000
# 3 0.000293 -0.009208 0.123530 0.000000 -0.149271 0.000000
# 4 0.000000 0.000000 0.000000 0.045783 0.000000 0.005123
# 5 -0.014012 0.013540 -0.149271 0.000000 0.228965 0.000000
# 6 0.000000 0.000000 0.000000 0.005123 0.000000 0.016136
#
#
# Mechanical properties :
#
#
# Convention : Reuss Voigt Hill
#
# Bulk Modulus (GPa) = 8.11303 47.82169 27.96736
# Shear Modulus (GPa) = 9.72208 33.31345 21.51777
#
# Velocity S-wave (km/s) = 2.26868 4.19956 3.37514
# Velocity P-wave (km/s) = 3.34030 6.98799 5.47675
#
# Compressibility (1/GPa) = 0.12325857
#
# Stress axis : x y z
#
# Youngs Moduli (GPa) = 63.44981 74.07197 8.09522
#
# Poissons Ratio (x) = 0.43345 -0.00237
# Poissons Ratio (y) = 0.37129 0.07454
# Poissons Ratio (z) = -0.01861 0.68202
#
# Static dielectric constant tensor:
#      x y z
#    x 1.652320 0.000000 0.045380 
#    y 0.000000 1.720980 0.000000 
#    z 0.045380 0.000000 1.690900 
# 
# From -- ./inp_files/54022.got.cif
#   From: 2010.05.17/outbox.cif.g08.bks.cpg/sg10_28_cif.got.tgz:54022.got - 2010.06.03 11:33:40.
