data_PCOD9148000
_publ_section_title
;
Structure prediction by ZEFSAII (Michael W. Deem and Ramdas Pophale) SiO2 
 PCOD9148000
Probable space group: P 2/M
;
_chemical_formula_sum "Si O2"
_cell_formula_units_Z 20
_cell_length_a 12.872035
_cell_length_b 13.843579
_cell_length_c 4.901412
_cell_angle_alpha 90.000000
_cell_angle_beta 96.042366
_cell_angle_gamma 90.000000
_cell_volume 868.554915
_symmetry_space_group_name_H-M "P 2/M"
_symmetry_group_IT_number 10
_symmetry_cell_setting 'monoclinic'
loop_
_space_group_symop_operation_xyz
x,y,z
-x,y,-z
-x,-y,-z
x,-y,z
loop_
_atom_site_type_symbol
_atom_site_label
_atom_site_fract_x
_atom_site_fract_y
_atom_site_fract_z
Si Si1 0.342638 0.392104 0.123582
Si Si2 0.802978 0.391300 0.416873
Si Si3 0.282926 0.887848 0.769920
Si Si4 0.929688 0.789296 0.243435
Si Si5 0.399170 0.810276 0.310795
O O1 0.387181 0.500000 0.173519
O O2 0.239852 0.384476 0.287844
O O3 0.411978 0.301637 0.229368
O O4 0.299262 0.381543 0.806173
O O5 0.843663 0.500000 0.384300
O O6 0.883936 0.310365 0.352398
O O7 0.170705 0.854507 0.848722
O O8 0.307783 0.825928 0.506852
O O9 0.284713 0.000000 0.699590
O O10 0.366974 0.865002 0.028068
O O11 0.000000 0.835452 0.500000
O O12 0.000000 0.772420 0.000000
O O13 0.500000 0.846471 0.500000
#
# Coordination Sequence:
#
# PCOD9148000 Si02
#       5
#     4   4   4   4   4
#     4  10  19  37  64  93 130 170 207 252 313 382
#     4  10  20  37  62  91 129 171 209 255 314 378
#     4  12  27  47  67  93 131 168 216 277 324 371
#     4  12  24  40  67  94 127 167 216 263 322 384
#     4  12  24  43  71  99 129 169 214 261 326 387
#
# _framework density 23.026755000000001
#
# number of rings (size 3 to 8) (size 9 to 14) (size 15 to 20)
#    0.000    0.800    4.000    3.600    0.000    4.400 
#    0.000    0.000    0.000    6.000    0.000    0.000 
#    0.000    0.000    0.000    0.000    0.000    0.000 
#
# Total GULP energy -111975.938807 kJ/mol
# GULP energy per Si atom -5598.796940 kJ/mol
# Density = 2.297435 g / cm^3
# Si number density = 23.026755 Si / 1000 Ang^3
#
#
#
# Elastic Constant Matrix: (Units=GPa)
#
#
# Indices 1 2 3 4 5 6 
#
# 1 58.6643 9.6485 9.1802 0.0000 7.1168 0.0000
# 2 9.6485 110.4872 6.4181 0.0000 8.0706 0.0000
# 3 9.1802 6.4181 79.2061 0.0000 -1.5247 0.0000
# 4 0.0000 0.0000 0.0000 24.4218 0.0000 7.1797
# 5 7.1168 8.0706 -1.5247 0.0000 42.9030 0.0000
# 6 0.0000 0.0000 0.0000 7.1797 0.0000 -2.1686
#
#
#
# Elastic Compliance Matrix: (Units=1/GPa)
#
#
# Indices 1 2 3 4 5 6 
#
# 1 0.017909 -0.001241 -0.002029 0.000000 -0.002809 0.000000
# 2 -0.001241 0.009311 -0.000641 0.000000 -0.001568 0.000000
# 3 -0.002029 -0.000641 0.012930 0.000000 0.000917 0.000000
# 4 0.000000 0.000000 0.000000 0.020750 0.000000 0.068699
# 5 -0.002809 -0.001568 0.000917 0.000000 0.024102 0.000000
# 6 0.000000 0.000000 0.000000 0.068699 0.000000 -0.233680
#
#
# Mechanical properties :
#
#
# Convention : Reuss Voigt Hill
#
# Bulk Modulus (GPa) = 30.93302 33.20567 32.06935
# Shear Modulus (GPa) = -38.43790 27.90529 -5.26631
#
# Velocity S-wave (km/s) = -4.09010 3.48496 -1.51394
# Velocity P-wave (km/s) = 2.97365 5.53580 3.30170
#
# Compressibility (1/GPa) = 0.03232791
#
# Stress axis : x y z
#
# Youngs Moduli (GPa) = 55.83913 107.40017 77.33914
#
# Poissons Ratio (x) = 0.13326 0.15694
# Poissons Ratio (y) = 0.06929 0.04956
# Poissons Ratio (z) = 0.11331 0.06883
#
# Static dielectric constant tensor:
#      x y z
#    x 1.883200 0.000000 -0.001130 
#    y 0.000000 1.838900 0.000000 
#    z -0.001130 0.000000 1.823630 
# 
# From -- ./inp_files/6623.got.cif
#   From: 2010.05.17/outbox.cif.g08.bks.cpg/sg10_4_cif.got.tgz:6623.got - 2010.06.03 11:33:40.
