data_PCOD9148512
_publ_section_title
;
Structure prediction by ZEFSAII (Michael W. Deem and Ramdas Pophale) SiO2 
 PCOD9148512
Probable space group: P 2/M
;
_chemical_formula_sum "Si O2"
_cell_formula_units_Z 32
_cell_length_a 18.097880
_cell_length_b 22.032589
_cell_length_c 5.025934
_cell_angle_alpha 90.000000
_cell_angle_beta 82.377453
_cell_angle_gamma 90.000000
_cell_volume 1986.347752
_symmetry_space_group_name_H-M "P 2/M"
_symmetry_group_IT_number 10
_symmetry_cell_setting 'monoclinic'
loop_
_space_group_symop_operation_xyz
x,y,z
-x,y,-z
-x,-y,-z
x,-y,z
loop_
_atom_site_type_symbol
_atom_site_label
_atom_site_fract_x
_atom_site_fract_y
_atom_site_fract_z
Si Si1 0.785503 0.930032 0.996808
Si Si2 0.086496 0.693248 0.868416
Si Si3 0.872095 0.768651 0.663115
Si Si4 0.945938 0.567150 0.277899
Si Si5 0.588000 0.934490 0.911389
Si Si6 0.949555 0.893125 0.766800
Si Si7 0.739351 0.852278 0.534792
Si Si8 0.585905 0.140867 0.415680
O O1 0.871005 0.925425 0.856431
O O2 0.738074 0.902900 0.771495
O O3 0.771209 0.000000 0.071302
O O4 0.772348 0.886644 0.258581
O O5 0.095851 0.735407 0.609013
O O6 0.105266 0.624540 0.767790
O O7 0.132305 0.721649 0.090816
O O8 0.000000 0.693007 0.000000
O O9 0.926081 0.823516 0.723344
O O10 0.795272 0.801097 0.615078
O O11 0.912276 0.500000 0.343044
O O12 0.000000 0.582300 0.500000
O O13 0.000000 0.561433 0.000000
O O14 0.592834 0.918774 0.598420
O O15 0.621260 0.000000 0.960741
O O16 0.500000 0.939993 0.000000
O O17 0.603399 0.879374 0.107913
O O18 0.000000 0.915974 0.500000
O O19 0.000000 0.896900 0.000000
O O20 0.658672 0.824795 0.494004
O O21 0.500000 0.163053 0.500000
#
# Coordination Sequence:
#
# PCOD9148512 Si02
#       8
#     4   4   4   4   4   4   4   4
#     4  11  24  38  51  67  87 114 142 176 236 296
#     4  11  19  29  48  69  89 120 158 188 213 250
#     4  11  21  32  46  66  89 114 147 185 230 264
#     4   9  17  28  42  65  97 127 155 188 219 244
#     4   9  17  28  43  65  86 100 124 165 206 251
#     4  11  21  34  51  67  85 109 144 192 231 265
#     4  11  23  37  50  66  91 115 140 184 232 278
#     4  10  20  33  49  66  83 108 140 169 209 269
#
# _framework density 16.109967999999999
#
# number of rings (size 3 to 8) (size 9 to 14) (size 15 to 20)
#    0.000    1.625    0.000    8.250    0.000    5.000 
#    0.000    0.000    0.000    0.000    0.000    0.000 
#    0.000    0.000    0.000    0.000    0.000    3.750 
#
# Total GULP energy -178407.673274 kJ/mol
# GULP energy per Si atom -5575.239790 kJ/mol
# Density = 1.607330 g / cm^3
# Si number density = 16.109968 Si / 1000 Ang^3
#
#
#
# Elastic Constant Matrix: (Units=GPa)
#
#
# Indices 1 2 3 4 5 6 
#
# 1 89.2057 16.5307 19.9586 0.0000 13.3290 0.0000
# 2 16.5307 75.0562 18.0782 0.0000 8.3577 0.0000
# 3 19.9586 18.0782 101.3319 0.0000 8.5914 0.0000
# 4 0.0000 0.0000 0.0000 20.6524 0.0000 1.4116
# 5 13.3290 8.3577 8.5914 0.0000 26.0836 0.0000
# 6 0.0000 0.0000 0.0000 1.4116 0.0000 9.9240
#
#
#
# Elastic Compliance Matrix: (Units=1/GPa)
#
#
# Indices 1 2 3 4 5 6 
#
# 1 0.012731 -0.001789 -0.001734 0.000000 -0.005361 0.000000
# 2 -0.001789 0.014538 -0.001979 0.000000 -0.003092 0.000000
# 3 -0.001734 -0.001979 0.010734 0.000000 -0.002015 0.000000
# 4 0.000000 0.000000 0.000000 0.048896 0.000000 -0.006955
# 5 -0.005361 -0.003092 -0.002015 0.000000 0.042733 0.000000
# 6 0.000000 0.000000 0.000000 -0.006955 0.000000 0.101756
#
#
# Mechanical properties :
#
#
# Convention : Reuss Voigt Hill
#
# Bulk Modulus (GPa) = 37.03871 41.63652 39.33762
# Shear Modulus (GPa) = 19.88936 25.40041 22.64489
#
# Velocity S-wave (km/s) = 3.51750 3.97506 3.75326
# Velocity P-wave (km/s) = 6.28794 6.85343 6.57676
#
# Compressibility (1/GPa) = 0.02699878
#
# Stress axis : x y z
#
# Youngs Moduli (GPa) = 78.55113 68.78308 93.16188
#
# Poissons Ratio (x) = 0.12307 0.16151
# Poissons Ratio (y) = 0.14055 0.18438
# Poissons Ratio (z) = 0.13618 0.13613
#
# Static dielectric constant tensor:
#      x y z
#    x 1.606830 0.000000 -0.000740 
#    y 0.000000 1.559770 0.000000 
#    z -0.000740 0.000000 1.565330 
# 
# From -- ./inp_files/11672.got.cif
#   From: 2010.05.17/outbox.cif.g08.bks.cpg/sg10_6_cif.got.tgz:11672.got - 2010.06.03 11:33:40.
