data_PCOD9148476
_publ_section_title
;
Structure prediction by ZEFSAII (Michael W. Deem and Ramdas Pophale) SiO2 
 PCOD9148476
Probable space group: P 2/M
;
_chemical_formula_sum "Si O2"
_cell_formula_units_Z 32
_cell_length_a 15.183303
_cell_length_b 19.649726
_cell_length_c 8.903000
_cell_angle_alpha 90.000000
_cell_angle_beta 40.750534
_cell_angle_gamma 90.000000
_cell_volume 1733.872656
_symmetry_space_group_name_H-M "P 2/M"
_symmetry_group_IT_number 10
_symmetry_cell_setting 'monoclinic'
loop_
_space_group_symop_operation_xyz
x,y,z
-x,y,-z
-x,-y,-z
x,-y,z
loop_
_atom_site_type_symbol
_atom_site_label
_atom_site_fract_x
_atom_site_fract_y
_atom_site_fract_z
Si Si1 0.430306 0.419673 0.927621
Si Si2 0.602033 0.691063 0.566427
Si Si3 0.138281 0.150777 0.782660
Si Si4 0.780312 0.744289 0.078557
Si Si5 0.569694 0.919673 0.572379
Si Si6 0.780312 0.755711 0.578557
Si Si7 0.602033 0.191063 0.066426
Si Si8 0.861719 0.650777 0.717341
O O1 0.427534 0.500000 0.904503
O O2 0.524182 0.379097 0.689363
O O3 0.500000 0.406814 0.000000
O O4 0.278921 0.389419 0.119973
O O5 0.660958 0.708077 0.327621
O O6 0.721677 0.702275 0.532917
O O7 0.499999 0.750000 0.750002
O O8 0.141222 0.212371 0.899508
O O9 0.278921 0.110581 0.619973
O O10 0.143472 0.186074 0.612578
O O11 0.000000 0.111978 0.000000
O O12 0.721677 0.797726 0.032917
O O13 0.856527 0.686074 0.887423
O O14 0.500000 0.906815 0.500000
O O15 0.475818 0.879097 0.810636
O O16 0.572467 0.000000 0.595497
O O17 0.858777 0.712372 0.600492
O O18 0.660958 0.791923 0.827620
O O19 0.000000 0.611978 0.500000
#
# Coordination Sequence:
#
# PCOD9148476 Si02
#       8
#     4   4   4   4   4   4   4   4
#     4  11  22  36  57  82 108 146 187 224 273 331
#     4  11  17  33  59  83 107 139 180 233 274 317
#     4  11  22  36  54  83 114 146 180 224 273 324
#     4  10  20  32  58  84 110 139 182 226 276 319
#     4  11  22  36  57  82 108 146 187 224 273 331
#     4  10  20  32  58  84 110 139 182 226 276 319
#     4  11  17  33  59  83 107 139 180 233 274 317
#     4  11  22  36  54  83 114 146 180 224 273 324
#
# _framework density 18.455795999999999
#
# number of rings (size 3 to 8) (size 9 to 14) (size 15 to 20)
#    0.000    1.250    7.500    1.500    0.000    0.500 
#    0.000    2.500    0.000    0.000    0.000    3.500 
#    0.000    0.000    0.000    0.000    0.000    0.000 
#
# Total GULP energy -178506.391299 kJ/mol
# GULP energy per Si atom -5578.324728 kJ/mol
# Density = 1.841379 g / cm^3
# Si number density = 18.455796 Si / 1000 Ang^3
#
#
#
# Elastic Constant Matrix: (Units=GPa)
#
#
# Indices 1 2 3 4 5 6 
#
# 1 45.3288 12.3448 29.1219 0.0000 8.6972 0.0000
# 2 12.3448 74.4792 38.0803 0.0000 -1.6117 0.0000
# 3 29.1219 38.0803 131.5156 0.0000 -5.7380 0.0000
# 4 0.0000 0.0000 0.0000 14.2557 0.0000 7.1205
# 5 8.6972 -1.6117 -5.7380 0.0000 31.7333 0.0000
# 6 0.0000 0.0000 0.0000 7.1205 0.0000 15.3139
#
#
#
# Elastic Compliance Matrix: (Units=1/GPa)
#
#
# Indices 1 2 3 4 5 6 
#
# 1 0.028181 -0.001731 -0.006128 0.000000 -0.008920 0.000000
# 2 -0.001731 0.015866 -0.004188 0.000000 0.000523 0.000000
# 3 -0.006128 -0.004188 0.010319 0.000000 0.003333 0.000000
# 4 0.000000 0.000000 0.000000 0.091367 0.000000 -0.042482
# 5 -0.008920 0.000523 0.003333 0.000000 0.034586 0.000000
# 6 0.000000 0.000000 0.000000 -0.042482 0.000000 0.085053
#
#
# Mechanical properties :
#
#
# Convention : Reuss Voigt Hill
#
# Bulk Modulus (GPa) = 33.03399 45.60195 39.31797
# Shear Modulus (GPa) = 16.69138 23.71236 20.20187
#
# Velocity S-wave (km/s) = 3.01058 3.58833 3.31208
# Velocity P-wave (km/s) = 5.47929 6.47538 5.99805
#
# Compressibility (1/GPa) = 0.03027185
#
# Stress axis : x y z
#
# Youngs Moduli (GPa) = 35.48509 63.02798 96.91168
#
# Poissons Ratio (x) = 0.10908 0.59390
# Poissons Ratio (y) = 0.06141 0.40586
# Poissons Ratio (z) = 0.21746 0.26396
#
# Static dielectric constant tensor:
#      x y z
#    x 1.731450 0.000000 -0.046150 
#    y 0.000000 1.600080 0.000000 
#    z -0.046150 0.000000 1.670880 
# 
# From -- ./inp_files/30289.got.cif
#   From: 2010.05.17/outbox.cif.g08.bks.cpg/sg10_16_cif.got.tgz:30289.got - 2010.06.03 11:33:40.
