data_PCOD9148780
_publ_section_title
;
Structure prediction by ZEFSAII (Michael W. Deem and Ramdas Pophale) SiO2 
 PCOD9148780
Probable space group: P 2/M
;
_chemical_formula_sum "Si O2"
_cell_formula_units_Z 28
_cell_length_a 21.097115
_cell_length_b 7.791434
_cell_length_c 24.215633
_cell_angle_alpha 90.000000
_cell_angle_beta 19.759013
_cell_angle_gamma 90.000000
_cell_volume 1345.662666
_symmetry_space_group_name_H-M "P 2/M"
_symmetry_group_IT_number 10
_symmetry_cell_setting 'monoclinic'
loop_
_space_group_symop_operation_xyz
x,y,z
-x,y,-z
-x,-y,-z
x,-y,z
loop_
_atom_site_type_symbol
_atom_site_label
_atom_site_fract_x
_atom_site_fract_y
_atom_site_fract_z
Si Si1 0.830049 0.289976 0.100138
Si Si2 0.798051 0.708497 0.999545
Si Si3 0.452440 0.294678 0.893796
Si Si4 0.485083 0.702284 0.450609
Si Si5 0.932099 0.795579 0.726028
Si Si6 0.883441 0.707256 0.542466
Si Si7 0.157452 0.193574 0.641318
O O1 0.834957 0.500000 0.094813
O O2 0.646638 0.223841 0.280536
O O3 0.815616 0.239146 0.048469
O O4 0.000000 0.236051 0.000000
O O5 0.824270 0.500000 0.974924
O O6 0.962078 0.803431 0.833342
O O7 0.615103 0.748652 0.113221
O O8 0.462658 0.500000 0.889255
O O9 0.666319 0.229128 0.724796
O O10 0.278954 0.249646 0.078322
O O11 0.500000 0.775361 0.500000
O O12 0.525551 0.500000 0.423128
O O13 0.297480 0.717990 0.569137
O O14 0.999675 0.749725 0.609075
O O15 0.093439 0.724292 0.635673
O O16 0.940957 0.000000 0.724043
O O17 0.874084 0.500000 0.552106
O O18 0.000000 0.768042 0.500000
O O19 0.227306 0.000000 0.575205
#
# Coordination Sequence:
#
# PCOD9148780 Si02
#       7
#     4   4   4   4   4   4   4
#     4   9  17  29  48  75 104 131 170 224 272 318
#     4   9  17  32  54  77 100 135 181 227 272 325
#     4   9  19  36  59  85 113 150 194 240 290 344
#     4  10  20  33  53  79 105 140 182 227 278 329
#     4  10  22  39  59  85 118 157 197 238 288 348
#     4  10  22  39  61  90 121 152 191 242 296 349
#     4  10  21  36  53  77 108 143 180 225 278 332
#
# _framework density 20.807593000000001
#
# number of rings (size 3 to 8) (size 9 to 14) (size 15 to 20)
#    0.000    2.429    0.000    1.714    2.000    5.714 
#    0.000    3.571    0.000    1.714    0.000    0.000 
#    0.000    0.000    0.000    0.000    0.000    0.000 
#
# Total GULP energy -155907.738784 kJ/mol
# GULP energy per Si atom -5568.133528 kJ/mol
# Density = 2.076023 g / cm^3
# Si number density = 20.807593 Si / 1000 Ang^3
#
#
#
# Elastic Constant Matrix: (Units=GPa)
#
#
# Indices 1 2 3 4 5 6 
#
# 1 199.4468 5.4888 87.2062 0.0000 7.9430 0.0000
# 2 5.4888 21.6669 1.3521 0.0000 -0.1731 0.0000
# 3 87.2062 1.3521 97.5952 0.0000 -12.5721 0.0000
# 4 0.0000 0.0000 0.0000 14.1472 0.0000 -14.3372
# 5 7.9430 -0.1731 -12.5721 0.0000 38.4564 0.0000
# 6 0.0000 0.0000 0.0000 -14.3372 0.0000 11.5896
#
#
#
# Elastic Compliance Matrix: (Units=1/GPa)
#
#
# Indices 1 2 3 4 5 6 
#
# 1 0.009034 -0.001786 -0.008653 0.000000 -0.004703 0.000000
# 2 -0.001786 0.046546 0.001071 0.000000 0.000928 0.000000
# 3 -0.008653 0.001071 0.018995 0.000000 0.008002 0.000000
# 4 0.000000 0.000000 0.000000 -0.278634 0.000000 -0.344691
# 5 -0.004703 0.000928 0.008002 0.000000 0.029595 0.000000
# 6 0.000000 0.000000 0.000000 -0.344691 0.000000 -0.340123
#
#
# Mechanical properties :
#
#
# Convention : Reuss Voigt Hill
#
# Bulk Modulus (GPa) = 17.90913 56.31145 37.11029
# Shear Modulus (GPa) = -10.47696 27.81610 8.66957
#
# Velocity S-wave (km/s) = -2.24635 3.66023 2.04343
# Velocity P-wave (km/s) = 1.37753 6.70706 4.84161
#
# Compressibility (1/GPa) = 0.05583746
#
# Stress axis : x y z
#
# Youngs Moduli (GPa) = 110.69428 21.48391 52.64673
#
# Poissons Ratio (x) = 0.03837 0.45557
# Poissons Ratio (y) = 0.19771 -0.05637
# Poissons Ratio (z) = 0.95787 -0.02300
#
# Static dielectric constant tensor:
#      x y z
#    x 2.767510 0.000000 -0.123820 
#    y 0.000000 1.772550 0.000000 
#    z -0.123820 0.000000 1.946100 
# 
# From -- ./inp_files/38028.got.cif
#   From: 2010.05.17/outbox.cif.g08.bks.cpg/sg10_20_cif.got.tgz:38028.got - 2010.06.03 11:33:40.
