data_PCOD9148407
_publ_section_title
;
Structure prediction by ZEFSAII (Michael W. Deem and Ramdas Pophale) SiO2 
 PCOD9148407
Probable space group: P 2/M
;
_chemical_formula_sum "Si O2"
_cell_formula_units_Z 30
_cell_length_a 31.015145
_cell_length_b 10.254685
_cell_length_c 16.488652
_cell_angle_alpha 90.000000
_cell_angle_beta 18.959251
_cell_angle_gamma 90.000000
_cell_volume 1703.825614
_symmetry_space_group_name_H-M "P 2/M"
_symmetry_group_IT_number 10
_symmetry_cell_setting 'monoclinic'
loop_
_space_group_symop_operation_xyz
x,y,z
-x,y,-z
-x,-y,-z
x,-y,z
loop_
_atom_site_type_symbol
_atom_site_label
_atom_site_fract_x
_atom_site_fract_y
_atom_site_fract_z
Si Si1 0.250938 0.350904 0.352592
Si Si2 0.128471 0.157085 0.443293
Si Si3 0.148783 0.643439 0.706669
Si Si4 0.573598 0.157891 0.540154
Si Si5 0.500000 0.759909 0.000000
Si Si6 0.282447 0.842126 0.004528
Si Si7 0.181566 0.841443 0.007912
Si Si8 0.342064 0.852312 0.431424
O O1 0.241874 0.500000 0.338784
O O2 0.216326 0.242690 0.348023
O O3 0.152606 0.332219 0.603782
O O4 0.392070 0.325972 0.144604
O O5 0.972904 0.192939 0.730767
O O6 0.143090 0.000000 0.430800
O O7 0.183051 0.185424 0.255720
O O8 0.211356 0.500000 0.607895
O O9 0.226338 0.752046 0.617800
O O10 0.000000 0.640249 0.000000
O O11 0.432616 0.204737 0.755504
O O12 0.584380 0.186691 0.616559
O O13 0.571196 0.000000 0.537127
O O14 0.706172 0.201938 0.256418
O O15 0.432668 0.843907 0.190374
O O16 0.289441 0.000000 0.987586
O O17 0.227628 0.797356 0.015404
O O18 0.183289 0.000000 0.004133
O O19 0.293554 0.000000 0.528766
#
# Coordination Sequence:
#
# PCOD9148407 Si02
#       8
#     4   4   4   4   2   4   4   4
#     4  10  21  36  55  76 100 135 175 214 256 306
#     4  10  20  32  51  80 108 133 167 216 265 310
#     4   9  20  37  53  70  98 137 178 212 249 307
#     4   9  17  28  45  73 105 135 171 214 257 305
#     4  10  20  36  54  74 104 138 176 212 252 310
#     4   9  16  29  48  71 102 140 174 206 252 312
#     4   9  17  29  47  72 104 138 171 209 257 310
#     4  10  20  32  51  78 107 134 166 213 265 308
#
# _framework density 17.607434999999999
#
# number of rings (size 3 to 8) (size 9 to 14) (size 15 to 20)
#    0.000    2.533    0.000    2.000    1.867    7.733 
#    0.000    0.000    0.000    1.600    0.000    0.000 
#    0.000    4.267    0.000    0.000    0.000    0.000 
#
# Total GULP energy -167103.491354 kJ/mol
# GULP energy per Si atom -5570.116378 kJ/mol
# Density = 1.756736 g / cm^3
# Si number density = 17.607435 Si / 1000 Ang^3
#
#
#
# Elastic Constant Matrix: (Units=GPa)
#
#
# Indices 1 2 3 4 5 6 
#
# 1 107.9365 33.4454 35.4207 0.0000 -7.7924 0.0000
# 2 33.4454 43.0496 11.0490 0.0000 -1.9516 0.0000
# 3 35.4207 11.0490 88.5411 0.0000 -11.6669 0.0000
# 4 0.0000 0.0000 0.0000 24.9041 0.0000 -1.7944
# 5 -7.7924 -1.9516 -11.6669 0.0000 8.1325 0.0000
# 6 0.0000 0.0000 0.0000 -1.7944 0.0000 -9.3634
#
#
#
# Elastic Compliance Matrix: (Units=1/GPa)
#
#
# Indices 1 2 3 4 5 6 
#
# 1 0.013817 -0.009554 -0.003567 0.000000 0.005829 0.000000
# 2 -0.009554 0.030626 -0.000293 0.000000 -0.002225 0.000000
# 3 -0.003567 -0.000293 0.015165 0.000000 0.018267 0.000000
# 4 0.000000 0.000000 0.000000 0.039607 0.000000 -0.007590
# 5 0.005829 -0.002225 0.018267 0.000000 0.154220 0.000000
# 6 0.000000 0.000000 0.000000 -0.007590 0.000000 -0.105345
#
#
# Mechanical properties :
#
#
# Convention : Reuss Voigt Hill
#
# Bulk Modulus (GPa) = 30.50727 44.37304 37.44015
# Shear Modulus (GPa) = 26.90422 15.37547 21.13984
#
# Velocity S-wave (km/s) = 3.91321 2.95826 3.46876
# Velocity P-wave (km/s) = 6.14667 6.07655 6.11171
#
# Compressibility (1/GPa) = 0.03277907
#
# Stress axis : x y z
#
# Youngs Moduli (GPa) = 72.37670 32.65181 65.94252
#
# Poissons Ratio (x) = 0.31197 0.23522
# Poissons Ratio (y) = 0.69152 0.01931
# Poissons Ratio (z) = 0.25817 0.00956
#
# Static dielectric constant tensor:
#      x y z
#    x 1.600040 0.000000 0.005520 
#    y 0.000000 1.585470 0.000000 
#    z 0.005520 0.000000 1.632010 
# 
# From -- ./inp_files/72663.got.cif
#   From: 2010.05.17/outbox.cif.g08.bks.cpg/sg10_37_cif.got.tgz:72663.got - 2010.06.03 11:33:40.
