data_PCOD9148550
_publ_section_title
;
Structure prediction by ZEFSAII (Michael W. Deem and Ramdas Pophale) SiO2 
 PCOD9148550
Probable space group: P 2/M
;
_chemical_formula_sum "Si O2"
_cell_formula_units_Z 28
_cell_length_a 9.968038
_cell_length_b 14.031186
_cell_length_c 14.301999
_cell_angle_alpha 90.000000
_cell_angle_beta 119.746959
_cell_angle_gamma 90.000000
_cell_volume 1736.733462
_symmetry_space_group_name_H-M "P 2/M"
_symmetry_group_IT_number 10
_symmetry_cell_setting 'monoclinic'
loop_
_space_group_symop_operation_xyz
x,y,z
-x,y,-z
-x,-y,-z
x,-y,z
loop_
_atom_site_type_symbol
_atom_site_label
_atom_site_fract_x
_atom_site_fract_y
_atom_site_fract_z
Si Si1 0.343324 0.391488 0.008751
Si Si2 0.756457 0.110148 0.587796
Si Si3 0.406577 0.386844 0.559826
Si Si4 0.491641 0.109985 0.338120
Si Si5 0.803893 0.386402 0.229732
Si Si6 0.922584 0.714761 0.573172
Si Si7 0.506937 0.293424 0.224639
O O1 0.324680 0.500000 0.037130
O O2 0.374676 0.321186 0.105055
O O3 0.500000 0.390888 0.000000
O O4 0.211796 0.369806 0.887118
O O5 0.636669 0.119757 0.459290
O O6 0.657425 0.128236 0.647480
O O7 0.887236 0.187821 0.615818
O O8 0.808549 0.000000 0.607584
O O9 0.500000 0.357726 0.500000
O O10 0.385847 0.500000 0.552730
O O11 0.240515 0.336803 0.501403
O O12 0.500592 0.354731 0.683207
O O13 0.504833 0.185168 0.259411
O O14 0.486435 0.000000 0.305426
O O15 0.777731 0.500000 0.236268
O O16 0.668124 0.326455 0.232989
O O17 0.964116 0.352957 0.328941
O O18 0.000000 0.734943 0.500000
#
# Coordination Sequence:
#
# PCOD9148550 Si02
#       7
#     4   4   4   4   4   4   4
#     4   8  16  30  49  71  96 134 177 212 246 295
#     4   9  18  33  50  71 101 134 169 207 254 310
#     4  11  22  32  46  73 106 137 169 207 253 305
#     4   9  17  31  52  74  97 129 171 215 254 301
#     4  10  20  33  49  73 106 140 172 206 253 307
#     4  12  21  31  50  77 107 137 163 211 263 310
#     4  11  17  30  53  74  99 131 173 216 249 304
#
# _framework density 16.122219999999999
#
# number of rings (size 3 to 8) (size 9 to 14) (size 15 to 20)
#    0.000    2.000    2.857    4.286    0.000    0.857 
#    0.000    0.714    0.000    8.143    0.000   12.000 
#    0.000    0.000    0.000    0.000    0.000    0.000 
#
# Total GULP energy -156123.330761 kJ/mol
# GULP energy per Si atom -5575.833241 kJ/mol
# Density = 1.608552 g / cm^3
# Si number density = 16.122220 Si / 1000 Ang^3
#
#
#
# Elastic Constant Matrix: (Units=GPa)
#
#
# Indices 1 2 3 4 5 6 
#
# 1 53.2161 43.8338 21.9064 0.0000 -8.5813 0.0000
# 2 43.8338 118.1074 54.3084 0.0000 -12.2302 0.0000
# 3 21.9064 54.3084 93.2944 0.0000 -7.8119 0.0000
# 4 0.0000 0.0000 0.0000 -36.0750 0.0000 -32.7293
# 5 -8.5813 -12.2302 -7.8119 0.0000 15.2006 0.0000
# 6 0.0000 0.0000 0.0000 -32.7293 0.0000 14.4098
#
#
#
# Elastic Compliance Matrix: (Units=1/GPa)
#
#
# Indices 1 2 3 4 5 6 
#
# 1 0.027967 -0.009336 -0.000459 0.000000 0.008041 0.000000
# 2 -0.009336 0.015247 -0.006372 0.000000 0.003723 0.000000
# 3 -0.000459 -0.006372 0.014718 0.000000 0.002178 0.000000
# 4 0.000000 0.000000 0.000000 -0.009057 0.000000 -0.020571
# 5 0.008041 0.003723 0.002178 0.000000 0.074441 0.000000
# 6 0.000000 0.000000 0.000000 -0.020571 0.000000 0.022674
#
#
# Mechanical properties :
#
#
# Convention : Reuss Voigt Hill
#
# Bulk Modulus (GPa) = 39.06440 56.07945 47.57193
# Shear Modulus (GPa) = 26.75865 8.34504 17.55185
#
# Velocity S-wave (km/s) = 4.07841 2.27758 3.30309
# Velocity P-wave (km/s) = 6.81620 6.46343 6.64216
#
# Compressibility (1/GPa) = 0.02559875
#
# Stress axis : x y z
#
# Youngs Moduli (GPa) = 35.75687 65.58661 67.94378
#
# Poissons Ratio (x) = 0.61229 0.03119
# Poissons Ratio (y) = 0.33381 0.43292
# Poissons Ratio (z) = 0.01642 0.41790
#
# Static dielectric constant tensor:
#      x y z
#    x 1.539040 0.000000 0.001490 
#    y 0.000000 1.550810 0.000000 
#    z 0.001490 0.000000 1.546530 
# 
# From -- ./inp_files/42751.got.cif
#   From: 2010.05.17/outbox.cif.g08.bks.cpg/sg10_22_cif.got.tgz:42751.got - 2010.06.03 11:33:40.
