data_PCOD9148047
_publ_section_title
;
Structure prediction by ZEFSAII (Michael W. Deem and Ramdas Pophale) SiO2 
 PCOD9148047
Probable space group: P 2/M
;
_chemical_formula_sum "Si O2"
_cell_formula_units_Z 24
_cell_length_a 11.022754
_cell_length_b 7.927542
_cell_length_c 11.759113
_cell_angle_alpha 90.000000
_cell_angle_beta 86.558799
_cell_angle_gamma 90.000000
_cell_volume 1025.697879
_symmetry_space_group_name_H-M "P 2/M"
_symmetry_group_IT_number 10
_symmetry_cell_setting 'monoclinic'
loop_
_space_group_symop_operation_xyz
x,y,z
-x,y,-z
-x,-y,-z
x,-y,z
loop_
_atom_site_type_symbol
_atom_site_label
_atom_site_fract_x
_atom_site_fract_y
_atom_site_fract_z
Si Si1 0.667474 0.296004 0.403478
Si Si2 0.340243 0.500000 0.909391
Si Si3 0.189977 0.188617 0.938200
Si Si4 0.067929 0.810372 0.175432
Si Si5 0.384522 0.500000 0.175411
Si Si6 0.593240 0.804619 0.663230
Si Si7 0.938784 0.304577 0.392553
O O1 0.656787 0.500000 0.393194
O O2 0.553295 0.217142 0.342833
O O3 0.646272 0.245804 0.536828
O O4 0.805062 0.236216 0.367446
O O5 0.270152 0.332286 0.879110
O O6 0.345619 0.500000 0.046339
O O7 0.470556 0.500000 0.847847
O O8 0.160937 0.236320 0.071068
O O9 0.242472 0.000000 0.932830
O O10 0.061062 0.184803 0.883102
O O11 0.037502 0.702995 0.286861
O O12 0.096972 0.000000 0.211563
O O13 0.356477 0.668968 0.248872
O O14 0.619879 0.000000 0.688557
O O15 0.913159 0.500000 0.420785
O O16 0.000000 0.224134 0.500000
#
# Coordination Sequence:
#
# PCOD9148047 Si02
#       7
#     4   2   4   4   2   4   4
#     4  10  19  38  63  91 129 159 207 260 290 358
#     4  11  26  41  66  85 119 164 197 258 322 362
#     4   9  21  41  64  94 120 155 209 254 301 362
#     4   9  20  38  60  90 127 156 199 257 294 354
#     4  11  26  45  56  93 123 150 209 258 314 366
#     4  11  22  40  67  91 120 163 208 255 307 361
#     4  10  23  37  56  92 131 166 201 243 303 370
#
# _framework density 23.398705
#
# number of rings (size 3 to 8) (size 9 to 14) (size 15 to 20)
#    0.000    2.000    1.667    2.500    4.667    5.000 
#    0.000    3.333    0.000    0.000    0.000    0.000 
#    0.000    0.000    0.000    0.000    0.000    0.000 
#
# Total GULP energy -134132.867442 kJ/mol
# GULP energy per Si atom -5588.869477 kJ/mol
# Density = 2.334545 g / cm^3
# Si number density = 23.398705 Si / 1000 Ang^3
#
#
#
# Elastic Constant Matrix: (Units=GPa)
#
#
# Indices 1 2 3 4 5 6 
#
# 1 60.1260 32.9755 -8.5053 0.0000 -1.2054 0.0000
# 2 32.9755 96.0571 24.3950 0.0000 -13.8269 0.0000
# 3 -8.5053 24.3950 92.1542 0.0000 16.1521 0.0000
# 4 0.0000 0.0000 0.0000 -54.7674 0.0000 -5.6636
# 5 -1.2054 -13.8269 16.1521 0.0000 23.3409 0.0000
# 6 0.0000 0.0000 0.0000 -5.6636 0.0000 24.2625
#
#
#
# Elastic Compliance Matrix: (Units=1/GPa)
#
#
# Indices 1 2 3 4 5 6 
#
# 1 0.023675 -0.011409 0.007028 0.000000 -0.010399 0.000000
# 2 -0.011409 0.019081 -0.009084 0.000000 0.017000 0.000000
# 3 0.007028 -0.009084 0.016825 0.000000 -0.016661 0.000000
# 4 0.000000 0.000000 0.000000 -0.017829 0.000000 -0.004162
# 5 -0.010399 0.017000 -0.016661 0.000000 0.063907 0.000000
# 6 0.000000 0.000000 0.000000 -0.004162 0.000000 0.040244
#
#
# Mechanical properties :
#
#
# Convention : Reuss Voigt Hill
#
# Bulk Modulus (GPa) = 30.62710 38.45199 34.53955
# Shear Modulus (GPa) = 27.21578 11.86534 19.54056
#
# Velocity S-wave (km/s) = 3.41417 2.25432 2.89297
# Velocity P-wave (km/s) = 5.35348 4.82131 5.09435
#
# Compressibility (1/GPa) = 0.03265082
#
# Stress axis : x y z
#
# Youngs Moduli (GPa) = 42.23932 52.40758 59.43553
#
# Poissons Ratio (x) = 0.59792 -0.41771
# Poissons Ratio (y) = 0.48191 0.53990
# Poissons Ratio (z) = -0.29686 0.47606
#
# Static dielectric constant tensor:
#      x y z
#    x 1.899160 0.000000 0.028470 
#    y 0.000000 1.849880 0.000000 
#    z 0.028470 0.000000 1.890510 
# 
# From -- ./inp_files/45218.got.cif
#   From: 2010.05.17/outbox.cif.g08.bks.cpg/sg10_23_cif.got.tgz:45218.got - 2010.06.03 11:33:40.
