data_PCOD9148653
_publ_section_title
;
Structure prediction by ZEFSAII (Michael W. Deem and Ramdas Pophale) SiO2 
 PCOD9148653
Probable space group: P 2/M
;
_chemical_formula_sum "Si O2"
_cell_formula_units_Z 28
_cell_length_a 14.738888
_cell_length_b 7.617992
_cell_length_c 17.982573
_cell_angle_alpha 90.000000
_cell_angle_beta 138.785283
_cell_angle_gamma 90.000000
_cell_volume 1330.347721
_symmetry_space_group_name_H-M "P 2/M"
_symmetry_group_IT_number 10
_symmetry_cell_setting 'monoclinic'
loop_
_space_group_symop_operation_xyz
x,y,z
-x,y,-z
-x,-y,-z
x,-y,z
loop_
_atom_site_type_symbol
_atom_site_label
_atom_site_fract_x
_atom_site_fract_y
_atom_site_fract_z
Si Si1 0.137909 0.285385 0.629569
Si Si2 0.252982 0.788728 0.283405
Si Si3 0.061843 0.206896 0.907482
Si Si4 0.267901 0.290647 0.456121
Si Si5 0.049403 0.287621 0.735515
Si Si6 0.312268 0.210428 0.158888
Si Si7 0.389487 0.710776 0.684017
O O1 0.138440 0.500000 0.629688
O O2 0.124770 0.229362 0.707049
O O3 0.274075 0.225269 0.670415
O O4 0.000000 0.233096 0.500000
O O5 0.316898 0.743867 0.402590
O O6 0.321886 0.724287 0.249941
O O7 0.093999 0.722077 0.183851
O O8 0.250115 0.000000 0.279820
O O9 0.108366 0.228760 0.850862
O O10 0.049314 0.000000 0.916066
O O11 0.175738 0.279672 0.033797
O O12 0.262103 0.500000 0.460552
O O13 0.353122 0.221441 0.578608
O O14 0.109933 0.225916 0.365081
O O15 0.047865 0.500000 0.734763
O O16 0.452668 0.248121 0.202449
O O17 0.298574 0.000000 0.153707
O O18 0.377497 0.500000 0.675651
#
# Coordination Sequence:
#
# PCOD9148653 Si02
#       7
#     4   4   4   4   4   4   4
#     4   9  15  29  54  78  99 128 164 199 240 292
#     4   9  18  33  54  74  93 126 172 210 242 288
#     4   9  18  34  54  73  96 128 168 209 247 287
#     4   9  17  30  49  76 104 127 156 201 253 294
#     4   9  16  29  53  80 100 122 160 207 248 288
#     4  10  21  36  51  69  98 136 170 203 244 291
#     4  10  20  33  51  75 103 133 164 199 243 296
#
# _framework density 21.047129999999999
#
# number of rings (size 3 to 8) (size 9 to 14) (size 15 to 20)
#    0.000    2.714    1.429    0.429    0.000    4.000 
#    0.000    4.286    0.000    9.429    0.000    0.000 
#    0.000    0.000    0.000    0.000    0.000    0.000 
#
# Total GULP energy -156225.776815 kJ/mol
# GULP energy per Si atom -5579.492029 kJ/mol
# Density = 2.099923 g / cm^3
# Si number density = 21.047130 Si / 1000 Ang^3
#
#
#
# Elastic Constant Matrix: (Units=GPa)
#
#
# Indices 1 2 3 4 5 6 
#
# 1 103.8926 -7.8146 10.1713 0.0000 -2.6696 0.0000
# 2 -7.8146 40.2293 -6.2661 0.0000 0.8224 0.0000
# 3 10.1713 -6.2661 15.2381 0.0000 -1.0243 0.0000
# 4 0.0000 0.0000 0.0000 16.8831 0.0000 1.3151
# 5 -2.6696 0.8224 -1.0243 0.0000 23.6087 0.0000
# 6 0.0000 0.0000 0.0000 1.3151 0.0000 12.3340
#
#
#
# Elastic Compliance Matrix: (Units=1/GPa)
#
#
# Indices 1 2 3 4 5 6 
#
# 1 0.010353 0.000990 -0.006446 0.000000 0.000857 0.000000
# 2 0.000990 0.026658 0.010277 0.000000 -0.000371 0.000000
# 3 -0.006446 0.010277 0.074297 0.000000 0.002137 0.000000
# 4 0.000000 0.000000 0.000000 0.059727 0.000000 -0.006368
# 5 0.000857 -0.000371 0.002137 0.000000 0.042560 0.000000
# 6 0.000000 0.000000 0.000000 -0.006368 0.000000 0.081756
#
#
# Mechanical properties :
#
#
# Convention : Reuss Voigt Hill
#
# Bulk Modulus (GPa) = 8.26797 16.83792 12.55294
# Shear Modulus (GPa) = 15.33618 21.44977 18.39298
#
# Velocity S-wave (km/s) = 2.70230 3.19585 2.95938
# Velocity P-wave (km/s) = 3.69775 4.65138 4.20171
#
# Compressibility (1/GPa) = 0.12094874
#
# Stress axis : x y z
#
# Youngs Moduli (GPa) = 96.59183 37.51215 13.45943
#
# Poissons Ratio (x) = -0.03712 0.08676
# Poissons Ratio (y) = -0.09558 -0.13832
# Poissons Ratio (z) = 0.62263 -0.38550
#
# Static dielectric constant tensor:
#      x y z
#    x 1.760340 0.000000 -0.013180 
#    y 0.000000 1.797530 0.000000 
#    z -0.013180 0.000000 1.749340 
# 
# From -- ./inp_files/48738.got.cif
#   From: 2010.05.17/outbox.cif.g08.bks.cpg/sg10_25_cif.got.tgz:48738.got - 2010.06.03 11:33:40.
