data_PCOD9148685
_publ_section_title
;
Structure prediction by ZEFSAII (Michael W. Deem and Ramdas Pophale) SiO2 
 PCOD9148685
Probable space group: P 2/M
;
_chemical_formula_sum "Si O2"
_cell_formula_units_Z 32
_cell_length_a 14.405954
_cell_length_b 7.565080
_cell_length_c 25.056247
_cell_angle_alpha 90.000000
_cell_angle_beta 149.017264
_cell_angle_gamma 90.000000
_cell_volume 1405.701299
_symmetry_space_group_name_H-M "P 2/M"
_symmetry_group_IT_number 10
_symmetry_cell_setting 'monoclinic'
loop_
_space_group_symop_operation_xyz
x,y,z
-x,y,-z
-x,-y,-z
x,-y,z
loop_
_atom_site_type_symbol
_atom_site_label
_atom_site_fract_x
_atom_site_fract_y
_atom_site_fract_z
Si Si1 0.522019 0.295784 0.187225
Si Si2 0.217504 0.791336 0.457903
Si Si3 0.421939 0.294729 0.405958
Si Si4 0.047011 0.293910 0.178083
Si Si5 0.437361 0.786913 0.910322
Si Si6 0.864602 0.282915 0.980300
Si Si7 0.927553 0.286608 0.406565
Si Si8 0.058677 0.787010 0.761520
O O1 0.534960 0.500000 0.210307
O O2 0.481800 0.288409 0.103850
O O3 0.342813 0.220572 0.126689
O O4 0.722843 0.218900 0.295310
O O5 0.416437 0.712821 0.557255
O O6 0.077036 0.762558 0.436303
O O7 0.119474 0.722181 0.355932
O O8 0.241304 0.000000 0.463933
O O9 0.500000 0.216449 0.500000
O O10 0.381258 0.500000 0.397369
O O11 0.238733 0.215037 0.291678
O O12 0.079562 0.500000 0.181900
O O13 0.924447 0.279860 0.170313
O O14 0.950676 0.220139 0.078585
O O15 0.226457 0.738788 0.807352
O O16 0.458724 0.000000 0.918523
O O17 0.500000 0.730232 0.000000
O O18 0.856308 0.500000 0.977028
O O19 0.000000 0.232369 0.000000
O O20 0.919534 0.500000 0.401935
O O21 0.000000 0.229311 0.500000
O O22 0.055915 0.000000 0.762892
#
# Coordination Sequence:
#
# PCOD9148685 Si02
#       8
#     4   4   4   4   4   4   4   4
#     4  10  20  35  58  85 110 142 185 232 278 326
#     4  11  22  36  56  81 111 150 188 228 281 336
#     4  10  20  34  53  80 113 148 186 229 280 336
#     4  10  20  34  56  82 108 145 187 229 277 329
#     4  10  20  34  53  79 113 152 186 221 275 335
#     4   9  19  36  57  82 110 141 182 230 276 322
#     4  10  22  39  59  84 114 149 189 234 283 335
#     4  10  20  33  51  78 112 146 179 222 277 332
#
# _framework density 22.764437999999998
#
# number of rings (size 3 to 8) (size 9 to 14) (size 15 to 20)
#    0.000    2.000    2.500    1.125    0.000    3.250 
#    0.000    3.750    0.000    1.500    0.000    0.000 
#    0.000    0.000    0.000    0.000    0.000    0.000 
#
# Total GULP energy -178681.639801 kJ/mol
# GULP energy per Si atom -5583.801244 kJ/mol
# Density = 2.271263 g / cm^3
# Si number density = 22.764438 Si / 1000 Ang^3
#
#
#
# Elastic Constant Matrix: (Units=GPa)
#
#
# Indices 1 2 3 4 5 6 
#
# 1 144.5291 -5.6690 51.1227 0.0000 17.3855 0.0000
# 2 -5.6690 56.8384 4.5985 0.0000 3.6139 0.0000
# 3 51.1227 4.5985 86.6527 0.0000 12.0376 0.0000
# 4 0.0000 0.0000 0.0000 4.0320 0.0000 -2.9721
# 5 17.3855 3.6139 12.0376 0.0000 40.8567 0.0000
# 6 0.0000 0.0000 0.0000 -2.9721 0.0000 33.3307
#
#
#
# Elastic Compliance Matrix: (Units=1/GPa)
#
#
# Indices 1 2 3 4 5 6 
#
# 1 0.009076 0.001475 -0.005086 0.000000 -0.002494 0.000000
# 2 0.001475 0.017980 -0.001581 0.000000 -0.001752 0.000000
# 3 -0.005086 -0.001581 0.014915 0.000000 -0.002090 0.000000
# 4 0.000000 0.000000 0.000000 0.265462 0.000000 0.023671
# 5 -0.002494 -0.001752 -0.002090 0.000000 0.026308 0.000000
# 6 0.000000 0.000000 0.000000 0.023671 0.000000 0.032113
#
#
# Mechanical properties :
#
#
# Convention : Reuss Voigt Hill
#
# Bulk Modulus (GPa) = 31.65842 43.12496 37.39169
# Shear Modulus (GPa) = 12.92765 31.50844 22.21804
#
# Velocity S-wave (km/s) = 2.38563 3.72440 3.12749
# Velocity P-wave (km/s) = 4.63955 6.12209 5.43164
#
# Compressibility (1/GPa) = 0.03158717
#
# Stress axis : x y z
#
# Youngs Moduli (GPa) = 110.17985 55.61668 67.04441
#
# Poissons Ratio (x) = -0.08205 0.34102
# Poissons Ratio (y) = -0.16255 0.10601
# Poissons Ratio (z) = 0.56043 0.08794
#
# Static dielectric constant tensor:
#      x y z
#    x 1.830590 0.000000 0.026180 
#    y 0.000000 1.839960 0.000000 
#    z 0.026180 0.000000 1.885970 
# 
# From -- ./inp_files/66549.got.cif
#   From: 2010.05.17/outbox.cif.g08.bks.cpg/sg10_34_cif.got.tgz:66549.got - 2010.06.03 11:33:40.
