data_PCOD9148383
_publ_section_title
;
Structure prediction by ZEFSAII (Michael W. Deem and Ramdas Pophale) SiO2 
 PCOD9148383
Probable space group: P 2/M
;
_chemical_formula_sum "Si O2"
_cell_formula_units_Z 28
_cell_length_a 11.933637
_cell_length_b 13.998341
_cell_length_c 9.374910
_cell_angle_alpha 90.000000
_cell_angle_beta 52.434468
_cell_angle_gamma 90.000000
_cell_volume 1241.370877
_symmetry_space_group_name_H-M "P 2/M"
_symmetry_group_IT_number 10
_symmetry_cell_setting 'monoclinic'
loop_
_space_group_symop_operation_xyz
x,y,z
-x,y,-z
-x,-y,-z
x,-y,z
loop_
_atom_site_type_symbol
_atom_site_label
_atom_site_fract_x
_atom_site_fract_y
_atom_site_fract_z
Si Si1 0.226219 0.111999 0.298837
Si Si2 0.773416 0.801717 0.387943
Si Si3 0.364678 0.110149 0.766073
Si Si4 0.167705 0.389742 0.201752
Si Si5 0.056199 0.108945 0.157614
Si Si6 0.398798 0.751838 0.971221
Si Si7 0.831798 0.389953 0.458931
O O1 0.218615 0.152175 0.462002
O O2 0.093647 0.126786 0.294990
O O3 0.347974 0.166156 0.119478
O O4 0.252239 0.000000 0.283040
O O5 0.663262 0.855035 0.372287
O O6 0.752967 0.689278 0.427574
O O7 0.931810 0.822202 0.205837
O O8 0.415097 0.000000 0.736835
O O9 0.206885 0.111882 0.961139
O O10 0.446495 0.190950 0.793856
O O11 0.203839 0.500000 0.144423
O O12 0.265760 0.316151 0.041801
O O13 0.189344 0.372370 0.355031
O O14 0.000717 0.378310 0.304287
O O15 0.002118 0.000000 0.185002
O O16 0.500000 0.693269 0.000000
O O17 0.794601 0.500000 0.458284
#
# Coordination Sequence:
#
# PCOD9148383 Si02
#       7
#     4   4   4   4   4   4   4
#     4  10  20  32  50  78 105 140 192 231 262 319
#     4  12  19  30  54  79 113 148 181 220 271 332
#     4  10  22  36  50  78 115 150 185 224 279 334
#     4   9  18  35  58  87 112 138 184 231 275 325
#     4   9  18  30  47  75 112 147 177 214 268 331
#     4  11  22  39  59  77 104 149 192 238 283 323
#     4   9  18  32  56  86 117 143 169 223 284 331
#
# _framework density 22.555709
#
# number of rings (size 3 to 8) (size 9 to 14) (size 15 to 20)
#    0.000    2.000    1.429    6.000    2.000    3.714 
#    0.000    1.429    0.000    5.143    0.000    2.000 
#    0.000    0.000    0.000    0.000    0.000    0.000 
#
# Total GULP energy -156463.227114 kJ/mol
# GULP energy per Si atom -5587.972397 kJ/mol
# Density = 2.250437 g / cm^3
# Si number density = 22.555709 Si / 1000 Ang^3
#
#
#
# Elastic Constant Matrix: (Units=GPa)
#
#
# Indices 1 2 3 4 5 6 
#
# 1 45.6346 24.7346 15.1187 0.0000 9.3289 0.0000
# 2 24.7346 106.5120 16.1937 0.0000 9.4902 0.0000
# 3 15.1187 16.1937 70.3565 0.0000 17.9926 0.0000
# 4 0.0000 0.0000 0.0000 21.9499 0.0000 8.8628
# 5 9.3289 9.4902 17.9926 0.0000 31.1053 0.0000
# 6 0.0000 0.0000 0.0000 8.8628 0.0000 14.4021
#
#
#
# Elastic Compliance Matrix: (Units=1/GPa)
#
#
# Indices 1 2 3 4 5 6 
#
# 1 0.026833 -0.005317 -0.003403 0.000000 -0.004457 0.000000
# 2 -0.005317 0.010886 -0.001081 0.000000 -0.001101 0.000000
# 3 -0.003403 -0.001081 0.017426 0.000000 -0.008729 0.000000
# 4 0.000000 0.000000 0.000000 0.060621 0.000000 -0.037305
# 5 -0.004457 -0.001101 -0.008729 0.000000 0.038871 0.000000
# 6 0.000000 0.000000 0.000000 -0.037305 0.000000 0.092391
#
#
# Mechanical properties :
#
#
# Convention : Reuss Voigt Hill
#
# Bulk Modulus (GPa) = 28.13458 37.17747 32.65603
# Shear Modulus (GPa) = 17.95476 24.58854 21.27165
#
# Velocity S-wave (km/s) = 2.82444 3.30529 3.07428
# Velocity P-wave (km/s) = 4.81010 5.57538 5.20682
#
# Compressibility (1/GPa) = 0.03554345
#
# Stress axis : x y z
#
# Youngs Moduli (GPa) = 37.26689 91.86228 57.38617
#
# Poissons Ratio (x) = 0.48842 0.19526
# Poissons Ratio (y) = 0.19815 0.06206
# Poissons Ratio (z) = 0.12680 0.09934
#
# Static dielectric constant tensor:
#      x y z
#    x 1.955240 0.000000 -0.025500 
#    y 0.000000 1.816530 0.000000 
#    z -0.025500 0.000000 1.896590 
# 
# From -- ./inp_files/24928.got.cif
#   From: 2010.05.17/outbox.cif.g08.bks.cpg/sg10_13_cif.got.tgz:24928.got - 2010.06.03 11:33:40.
