data_PCOD9148465
_publ_section_title
;
Structure prediction by ZEFSAII (Michael W. Deem and Ramdas Pophale) SiO2 
 PCOD9148465
Probable space group: P 2/M
;
_chemical_formula_sum "Si O2"
_cell_formula_units_Z 32
_cell_length_a 14.904962
_cell_length_b 7.691626
_cell_length_c 15.199049
_cell_angle_alpha 90.000000
_cell_angle_beta 117.552893
_cell_angle_gamma 90.000000
_cell_volume 1544.846840
_symmetry_space_group_name_H-M "P 2/M"
_symmetry_group_IT_number 10
_symmetry_cell_setting 'monoclinic'
loop_
_space_group_symop_operation_xyz
x,y,z
-x,y,-z
-x,-y,-z
x,-y,z
loop_
_atom_site_type_symbol
_atom_site_label
_atom_site_fract_x
_atom_site_fract_y
_atom_site_fract_z
Si Si1 0.059046 0.200437 0.808022
Si Si2 0.487269 0.287994 0.596536
Si Si3 0.298369 0.290553 0.238703
Si Si4 0.164552 0.297155 0.338580
Si Si5 0.385060 0.211017 0.940880
Si Si6 0.216939 0.296315 0.732079
Si Si7 0.734351 0.286786 0.439465
Si Si8 0.774846 0.208320 0.987490
O O1 0.135480 0.210024 0.759894
O O2 0.953142 0.285915 0.736926
O O3 0.035148 0.000000 0.815886
O O4 0.122478 0.274986 0.919557
O O5 0.500000 0.235100 0.500000
O O6 0.485957 0.500000 0.595512
O O7 0.585892 0.230538 0.695875
O O8 0.380415 0.232864 0.589218
O O9 0.300977 0.500000 0.244475
O O10 0.231671 0.222463 0.289842
O O11 0.246895 0.247174 0.123037
O O12 0.192887 0.500000 0.355842
O O13 0.195170 0.227308 0.447946
O O14 0.325420 0.275043 0.828351
O O15 0.384644 0.000000 0.938368
O O16 0.500000 0.270269 0.000000
O O17 0.318627 0.268917 0.994433
O O18 0.190274 0.500000 0.717253
O O19 0.226272 0.227257 0.637494
O O20 0.734268 0.500000 0.434760
O O21 0.779158 0.000000 0.999015
#
# Coordination Sequence:
#
# PCOD9148465 Si02
#       8
#     4   4   4   4   4   4   4   4
#     4  10  22  41  59  75 103 146 185 224 275 328
#     4   9  15  29  52  78 112 147 174 208 260 323
#     4  10  20  32  55  86 111 139 178 223 266 313
#     4  10  20  36  57  82 109 141 180 224 272 321
#     4   9  19  36  54  74 107 150 187 219 265 324
#     4  10  20  34  55  83 110 138 178 229 273 316
#     4   9  18  32  52  81 115 145 174 213 272 329
#     4   9  20  37  54  73 104 144 181 219 270 323
#
# _framework density 20.714027999999999
#
# number of rings (size 3 to 8) (size 9 to 14) (size 15 to 20)
#    0.000    2.500    1.250    1.500    1.750    4.250 
#    0.000    6.250    0.000    1.125    0.000    0.000 
#    0.000    0.000    0.000    0.000    0.000    0.000 
#
# Total GULP energy -178595.044121 kJ/mol
# GULP energy per Si atom -5581.095129 kJ/mol
# Density = 2.066688 g / cm^3
# Si number density = 20.714028 Si / 1000 Ang^3
#
#
#
# Elastic Constant Matrix: (Units=GPa)
#
#
# Indices 1 2 3 4 5 6 
#
# 1 39.1023 -8.6638 50.4635 0.0000 20.2925 0.0000
# 2 -8.6638 30.4977 -6.2829 0.0000 -2.1169 0.0000
# 3 50.4635 -6.2829 169.3326 0.0000 -1.6271 0.0000
# 4 0.0000 0.0000 0.0000 30.7075 0.0000 -7.5068
# 5 20.2925 -2.1169 -1.6271 0.0000 33.2481 0.0000
# 6 0.0000 0.0000 0.0000 -7.5068 0.0000 -1.2129
#
#
#
# Elastic Compliance Matrix: (Units=1/GPa)
#
#
# Indices 1 2 3 4 5 6 
#
# 1 0.099066 0.017859 -0.029444 0.000000 -0.060768 0.000000
# 2 0.017859 0.036418 -0.004055 0.000000 -0.008780 0.000000
# 3 -0.029444 -0.004055 0.014707 0.000000 0.018433 0.000000
# 4 0.000000 0.000000 0.000000 0.012959 0.000000 -0.080202
# 5 -0.060768 -0.008780 0.018433 0.000000 0.067509 0.000000
# 6 0.000000 0.000000 0.000000 -0.080202 0.000000 -0.328076
#
#
# Mechanical properties :
#
#
# Convention : Reuss Voigt Hill
#
# Bulk Modulus (GPa) = 8.40978 34.44069 21.42524
# Shear Modulus (GPa) = -188.69017 26.10958 -81.29030
#
# Velocity S-wave (km/s) = -9.55462 3.55417 -6.27131
# Velocity P-wave (km/s) = 10.84676 5.78841 6.48639
#
# Compressibility (1/GPa) = 0.11890918
#
# Stress axis : x y z
#
# Youngs Moduli (GPa) = 10.09424 27.45912 67.99460
#
# Poissons Ratio (x) = -0.49038 2.00206
# Poissons Ratio (y) = -0.18027 0.27574
# Poissons Ratio (z) = 0.29722 0.11135
#
# Static dielectric constant tensor:
#      x y z
#    x 1.710340 0.000000 -0.003670 
#    y 0.000000 1.772250 0.000000 
#    z -0.003670 0.000000 1.738320 
# 
# From -- ./inp_files/66517.got.cif
#   From: 2010.05.17/outbox.cif.g08.bks.cpg/sg10_34_cif.got.tgz:66517.got - 2010.06.03 11:33:40.
