data_PCOD9148710
_publ_section_title
;
Structure prediction by ZEFSAII (Michael W. Deem and Ramdas Pophale) SiO2 
 PCOD9148710
Probable space group: P 2/M
;
_chemical_formula_sum "Si O2"
_cell_formula_units_Z 28
_cell_length_a 19.726757
_cell_length_b 7.534562
_cell_length_c 17.340512
_cell_angle_alpha 90.000000
_cell_angle_beta 30.921973
_cell_angle_gamma 90.000000
_cell_volume 1324.430354
_symmetry_space_group_name_H-M "P 2/M"
_symmetry_group_IT_number 10
_symmetry_cell_setting 'monoclinic'
loop_
_space_group_symop_operation_xyz
x,y,z
-x,y,-z
-x,-y,-z
x,-y,z
loop_
_atom_site_type_symbol
_atom_site_label
_atom_site_fract_x
_atom_site_fract_y
_atom_site_fract_z
Si Si1 0.952804 0.285258 0.631017
Si Si2 0.698396 0.206249 0.972168
Si Si3 0.153145 0.787564 0.686822
Si Si4 0.150056 0.217987 0.024152
Si Si5 0.839377 0.207430 0.154525
Si Si6 0.554957 0.297342 0.867773
Si Si7 0.210683 0.287052 0.464269
O O1 0.946606 0.500000 0.637857
O O2 0.811167 0.220136 0.796781
O O3 0.000000 0.231482 0.500000
O O4 0.065992 0.223883 0.579819
O O5 0.763900 0.275605 0.987127
O O6 0.665256 0.000000 0.015802
O O7 0.566920 0.299665 0.072033
O O8 0.202739 0.717579 0.721302
O O9 0.234712 0.752070 0.530324
O O10 0.002673 0.723820 0.819610
O O11 0.144208 0.000000 0.704146
O O12 0.149241 0.000000 0.025441
O O13 0.199045 0.279023 0.891915
O O14 0.801056 0.000000 0.190448
O O15 0.000000 0.214035 0.000000
O O16 0.594050 0.500000 0.850525
O O17 0.679677 0.217246 0.701861
O O18 0.500000 0.212712 0.000000
O O19 0.210186 0.500000 0.457561
#
# Coordination Sequence:
#
# PCOD9148710 Si02
#       7
#     4   4   4   4   4   4   4
#     4  10  20  35  54  74  98 133 173 208 249 307
#     4  11  21  33  53  81 108 130 160 213 268 304
#     4   9  15  27  49  75 103 133 165 204 250 299
#     4   8  14  26  45  74 107 133 161 200 249 300
#     4   7  11  21  42  70  99 134 168 194 233 296
#     4  10  22  41  58  70  94 138 184 214 245 303
#     4  10  20  33  52  75  99 130 170 216 256 296
#
# _framework density 21.141164
#
# number of rings (size 3 to 8) (size 9 to 14) (size 15 to 20)
#    0.000    2.714    1.429    3.000    0.000    3.429 
#    0.000    1.429    0.000    6.429    0.000    6.000 
#    0.000    0.000    0.000    0.000    0.000    0.000 
#
# Total GULP energy -156163.409178 kJ/mol
# GULP energy per Si atom -5577.264614 kJ/mol
# Density = 2.109305 g / cm^3
# Si number density = 21.141164 Si / 1000 Ang^3
#
#
#
# Elastic Constant Matrix: (Units=GPa)
#
#
# Indices 1 2 3 4 5 6 
#
# 1 61.8111 -4.3017 -2.1772 0.0000 25.6765 0.0000
# 2 -4.3017 54.5473 -4.7839 0.0000 1.2140 0.0000
# 3 -2.1772 -4.7839 57.7366 0.0000 15.1991 0.0000
# 4 0.0000 0.0000 0.0000 21.1370 0.0000 -5.9091
# 5 25.6765 1.2140 15.1991 0.0000 39.9432 0.0000
# 6 0.0000 0.0000 0.0000 -5.9091 0.0000 22.0919
#
#
#
# Elastic Compliance Matrix: (Units=1/GPa)
#
#
# Indices 1 2 3 4 5 6 
#
# 1 0.023909 0.002785 0.005780 0.000000 -0.017653 0.000000
# 2 0.002785 0.018850 0.002544 0.000000 -0.003331 0.000000
# 3 0.005780 0.002544 0.020834 0.000000 -0.011720 0.000000
# 4 0.000000 0.000000 0.000000 0.051134 0.000000 0.013677
# 5 -0.017653 -0.003331 -0.011720 0.000000 0.040944 0.000000
# 6 0.000000 0.000000 0.000000 0.013677 0.000000 0.048924
#
#
# Mechanical properties :
#
#
# Convention : Reuss Voigt Hill
#
# Bulk Modulus (GPa) = 11.65369 16.84105 14.24737
# Shear Modulus (GPa) = 23.69883 28.99162 26.34522
#
# Velocity S-wave (km/s) = 3.35174 3.70717 3.53393
# Velocity P-wave (km/s) = 4.52804 5.12908 4.83790
#
# Compressibility (1/GPa) = 0.08580976
#
# Stress axis : x y z
#
# Youngs Moduli (GPa) = 41.82544 53.05153 47.99829
#
# Poissons Ratio (x) = -0.14776 -0.27741
# Poissons Ratio (y) = -0.11650 -0.12210
# Poissons Ratio (z) = -0.24173 -0.13495
#
# Static dielectric constant tensor:
#      x y z
#    x 1.793690 0.000000 0.048950 
#    y 0.000000 1.813120 0.000000 
#    z 0.048950 0.000000 1.748380 
# 
# From -- ./inp_files/37015.got.cif
#   From: 2010.05.17/outbox.cif.g08.bks.cpg/sg10_19_cif.got.tgz:37015.got - 2010.06.03 11:33:40.
