data_PCOD9148319
_publ_section_title
;
Structure prediction by ZEFSAII (Michael W. Deem and Ramdas Pophale) SiO2 
 PCOD9148319
Probable space group: P 2/M
;
_chemical_formula_sum "Si O2"
_cell_formula_units_Z 28
_cell_length_a 9.371310
_cell_length_b 7.452271
_cell_length_c 23.508214
_cell_angle_alpha 90.000000
_cell_angle_beta 137.818608
_cell_angle_gamma 90.000000
_cell_volume 1102.406174
_symmetry_space_group_name_H-M "P 2/M"
_symmetry_group_IT_number 10
_symmetry_cell_setting 'monoclinic'
loop_
_space_group_symop_operation_xyz
x,y,z
-x,y,-z
-x,-y,-z
x,-y,z
loop_
_atom_site_type_symbol
_atom_site_label
_atom_site_fract_x
_atom_site_fract_y
_atom_site_fract_z
Si Si1 0.159087 0.788066 0.184234
Si Si2 0.835476 0.782482 0.999854
Si Si3 0.089578 0.284873 0.730171
Si Si4 0.600025 0.284822 0.277390
Si Si5 0.600757 0.707354 0.086662
Si Si6 0.654317 0.785273 0.642233
Si Si7 0.776062 0.797478 0.450381
O O1 0.352783 0.760987 0.197055
O O2 0.239647 0.710920 0.267944
O O3 0.945282 0.721725 0.091655
O O4 0.132830 0.000000 0.184463
O O5 0.826123 0.000000 0.996009
O O6 0.596688 0.712702 0.927482
O O7 0.000000 0.725534 0.000000
O O8 0.110311 0.500000 0.737819
O O9 0.235712 0.221421 0.721626
O O10 0.197529 0.213819 0.820506
O O11 0.840359 0.244345 0.651897
O O12 0.618026 0.500000 0.287856
O O13 0.661800 0.197748 0.355519
O O14 0.648449 0.500000 0.088030
O O15 0.500000 0.792393 0.000000
O O16 0.411598 0.717400 0.565601
O O17 0.629625 0.000000 0.640262
O O18 0.000000 0.708103 0.500000
O O19 0.825660 0.000000 0.485806
#
# Coordination Sequence:
#
# PCOD9148319 Si02
#       7
#     4   4   4   4   4   4   4
#     4   9  18  33  50  71 100 132 172 218 260 307
#     4  10  20  32  48  72  99 129 170 220 269 310
#     4  10  21  35  49  72 107 140 172 213 258 304
#     4  10  20  33  52  78 105 136 173 209 251 305
#     4  10  21  35  50  70  99 138 181 220 261 307
#     4   9  18  32  53  77  97 127 169 205 245 301
#     4   9  19  38  61  83 107 132 162 204 251 302
#
# _framework density 25.398987000000002
#
# number of rings (size 3 to 8) (size 9 to 14) (size 15 to 20)
#    0.000    2.429    0.000    3.000    0.000    5.429 
#    0.000    0.714    0.000    4.286    0.000    0.000 
#    0.000    0.000    0.000    0.000    0.000    0.000 
#
# Total GULP energy -156382.421416 kJ/mol
# GULP energy per Si atom -5585.086479 kJ/mol
# Density = 2.534118 g / cm^3
# Si number density = 25.398987 Si / 1000 Ang^3
#
#
#
# Elastic Constant Matrix: (Units=GPa)
#
#
# Indices 1 2 3 4 5 6 
#
# 1 111.4829 -4.0611 17.8632 0.0000 47.8662 0.0000
# 2 -4.0611 97.2785 -5.4702 0.0000 -1.1258 0.0000
# 3 17.8632 -5.4702 69.6906 0.0000 48.6316 0.0000
# 4 0.0000 0.0000 0.0000 8.6541 0.0000 13.6770
# 5 47.8662 -1.1258 48.6316 0.0000 57.0406 0.0000
# 6 0.0000 0.0000 0.0000 13.6770 0.0000 74.0398
#
#
#
# Elastic Compliance Matrix: (Units=1/GPa)
#
#
# Indices 1 2 3 4 5 6 
#
# 1 0.019162 0.001346 0.015792 0.000000 -0.029518 0.000000
# 2 0.001346 0.010453 0.002765 0.000000 -0.003281 0.000000
# 3 0.015792 0.002765 0.048704 0.000000 -0.054722 0.000000
# 4 0.000000 0.000000 0.000000 0.163195 0.000000 -0.030146
# 5 -0.029518 -0.003281 -0.054722 0.000000 0.088891 0.000000
# 6 0.000000 0.000000 0.000000 -0.030146 0.000000 0.019075
#
#
# Mechanical properties :
#
#
# Convention : Reuss Voigt Hill
#
# Bulk Modulus (GPa) = 8.46552 32.79064 20.62808
# Shear Modulus (GPa) = 14.32458 45.95491 30.13975
#
# Velocity S-wave (km/s) = 2.37741 4.25823 3.44852
# Velocity P-wave (km/s) = 3.29793 6.09220 4.89853
#
# Compressibility (1/GPa) = 0.11812627
#
# Stress axis : x y z
#
# Youngs Moduli (GPa) = 52.18592 95.66196 20.53203
#
# Poissons Ratio (x) = -0.12880 -0.32424
# Poissons Ratio (y) = -0.07026 -0.05677
# Poissons Ratio (z) = -0.82412 -0.26448
#
# Static dielectric constant tensor:
#      x y z
#    x 2.113440 0.000000 0.024670 
#    y 0.000000 1.957630 0.000000 
#    z 0.024670 0.000000 2.026460 
# 
# From -- ./inp_files/37050.got.cif
#   From: 2010.05.17/outbox.cif.g08.bks.cpg/sg10_19_cif.got.tgz:37050.got - 2010.06.03 11:33:40.
