data_PCOD9148331
_publ_section_title
;
Structure prediction by ZEFSAII (Michael W. Deem and Ramdas Pophale) SiO2 
 PCOD9148331
Probable space group: P 2/M
;
_chemical_formula_sum "Si O2"
_cell_formula_units_Z 28
_cell_length_a 7.788320
_cell_length_b 13.622786
_cell_length_c 10.405467
_cell_angle_alpha 90.000000
_cell_angle_beta 112.846834
_cell_angle_gamma 90.000000
_cell_volume 1017.392089
_symmetry_space_group_name_H-M "P 2/M"
_symmetry_group_IT_number 10
_symmetry_cell_setting 'monoclinic'
loop_
_space_group_symop_operation_xyz
x,y,z
-x,y,-z
-x,-y,-z
x,-y,z
loop_
_atom_site_type_symbol
_atom_site_label
_atom_site_fract_x
_atom_site_fract_y
_atom_site_fract_z
Si Si1 0.044563 0.380941 0.331936
Si Si2 0.222532 0.881557 0.692734
Si Si3 0.689885 0.612290 0.100509
Si Si4 0.638700 0.115039 0.832440
Si Si5 0.190219 0.882391 0.390755
Si Si6 0.735957 0.317535 0.857200
Si Si7 0.387656 0.381575 0.597422
O O1 0.041590 0.500000 0.323729
O O2 0.148625 0.339818 0.236699
O O3 0.175764 0.358573 0.491279
O O4 0.829811 0.349899 0.249049
O O5 0.425314 0.867106 0.811698
O O6 0.237511 0.847730 0.548204
O O7 0.024582 0.849823 0.694579
O O8 0.207655 0.000000 0.684027
O O9 0.647201 0.500000 0.123002
O O10 0.500000 0.663337 0.000000
O O11 0.790662 0.614055 0.991391
O O12 0.670777 0.133420 0.687482
O O13 0.758006 0.206140 0.916910
O O14 0.687128 0.000000 0.872462
O O15 0.188377 0.000000 0.399760
O O16 0.521600 0.338357 0.747310
O O17 0.500000 0.356475 0.500000
O O18 0.394573 0.500000 0.613278
#
# Coordination Sequence:
#
# PCOD9148331 Si02
#       7
#     4   4   4   4   4   4   4
#     4   9  18  35  60  87 115 150 190 233 293 364
#     4   8  14  26  44  65  96 142 192 243 294 341
#     4  10  21  39  63  89 117 150 192 244 299 362
#     4  10  20  32  48  76 114 158 205 250 296 347
#     4   8  14  26  44  66  95 139 195 245 290 343
#     4  11  20  33  57  88 117 155 198 246 294 353
#     4   8  15  29  52  85 120 148 180 230 292 359
#
# _framework density 27.521346999999999
#
# number of rings (size 3 to 8) (size 9 to 14) (size 15 to 20)
#    0.000    2.857    0.000    3.857    0.000    6.286 
#    2.571    0.714    0.000    5.571    0.000    0.000 
#    0.000    0.000    0.000    0.143    0.000    0.143 
#
# Total GULP energy -156419.762757 kJ/mol
# GULP energy per Si atom -5586.420098 kJ/mol
# Density = 2.745871 g / cm^3
# Si number density = 27.521347 Si / 1000 Ang^3
#
#
#
# Elastic Constant Matrix: (Units=GPa)
#
#
# Indices 1 2 3 4 5 6 
#
# 1 145.8311 -5.9893 52.9641 0.0000 39.3535 0.0000
# 2 -5.9893 123.2425 21.8812 0.0000 21.9342 0.0000
# 3 52.9641 21.8812 164.8986 0.0000 16.1966 0.0000
# 4 0.0000 0.0000 0.0000 0.2441 0.0000 -21.8154
# 5 39.3535 21.9342 16.1966 0.0000 41.1052 0.0000
# 6 0.0000 0.0000 0.0000 -21.8154 0.0000 -29.4371
#
#
#
# Elastic Compliance Matrix: (Units=1/GPa)
#
#
# Indices 1 2 3 4 5 6 
#
# 1 0.010978 0.002994 -0.002844 0.000000 -0.010987 0.000000
# 2 0.002994 0.009872 -0.001532 0.000000 -0.007530 0.000000
# 3 -0.002844 -0.001532 0.007109 0.000000 0.000739 0.000000
# 4 0.000000 0.000000 0.000000 0.060934 0.000000 -0.045157
# 5 -0.010987 -0.007530 0.000739 0.000000 0.038574 0.000000
# 6 0.000000 0.000000 0.000000 -0.045157 0.000000 -0.000505
#
#
# Mechanical properties :
#
#
# Convention : Reuss Voigt Hill
#
# Bulk Modulus (GPa) = 39.69175 63.52047 51.60611
# Shear Modulus (GPa) = 36.19951 26.72353 31.46152
#
# Velocity S-wave (km/s) = 3.63068 3.11949 3.38474
# Velocity P-wave (km/s) = 5.65944 6.00878 5.83672
#
# Compressibility (1/GPa) = 0.02519415
#
# Stress axis : x y z
#
# Youngs Moduli (GPa) = 91.08981 101.29863 140.67643
#
# Poissons Ratio (x) = -0.30328 0.40011
# Poissons Ratio (y) = -0.27272 0.21551
# Poissons Ratio (z) = 0.25908 0.15518
#
# Static dielectric constant tensor:
#      x y z
#    x 2.260090 0.000000 -0.011340 
#    y 0.000000 2.123090 0.000000 
#    z -0.011340 0.000000 2.097430 
# 
# From -- ./inp_files/43052.got.cif
#   From: 2010.05.17/outbox.cif.g08.bks.cpg/sg10_22_cif.got.tgz:43052.got - 2010.06.03 11:33:40.
