data_PCOD9148327
_publ_section_title
;
Structure prediction by ZEFSAII (Michael W. Deem and Ramdas Pophale) SiO2 
 PCOD9148327
Probable space group: P 2/M
;
_chemical_formula_sum "Si O2"
_cell_formula_units_Z 21
_cell_length_a 12.900369
_cell_length_b 7.421274
_cell_length_c 15.131958
_cell_angle_alpha 90.000000
_cell_angle_beta 142.912828
_cell_angle_gamma 90.000000
_cell_volume 873.603194
_symmetry_space_group_name_H-M "P 2/M"
_symmetry_group_IT_number 10
_symmetry_cell_setting 'monoclinic'
loop_
_space_group_symop_operation_xyz
x,y,z
-x,y,-z
-x,-y,-z
x,-y,z
loop_
_atom_site_type_symbol
_atom_site_label
_atom_site_fract_x
_atom_site_fract_y
_atom_site_fract_z
Si Si1 0.922918 0.218164 0.243186
Si Si2 0.713596 0.708839 0.577554
Si Si3 0.362764 0.791105 0.825288
Si Si4 0.658413 0.218505 0.908688
Si Si5 0.827207 0.709386 0.844450
Si Si6 0.500000 0.000000 0.500000
O O1 0.812486 0.283412 0.252525
O O2 0.120357 0.276060 0.371792
O O3 0.920308 0.000000 0.242461
O O4 0.812282 0.274157 0.080948
O O5 0.661065 0.500000 0.545983
O O6 0.782694 0.787017 0.719305
O O7 0.555576 0.842648 0.463744
O O8 0.475375 0.715110 0.821964
O O9 0.327249 0.000000 0.779209
O O10 0.500000 0.789959 0.000000
O O11 0.698763 0.282267 0.838601
O O12 0.656389 0.000000 0.908946
O O13 0.860745 0.500000 0.846277
O O14 0.000000 0.793985 0.000000
#
# Coordination Sequence:
#
# PCOD9148327 Si02
#       6
#     4   4   4   4   4   1
#     4   9  15  28  49  75 108 145 178 212 260 314
#     4  11  23  38  57  81 107 140 182 225 269 318
#     4   7  12  23  40  69 107 144 176 207 244 304
#     4   9  16  25  46  76 110 146 178 204 248 322
#     4  10  20  32  48  75 112 143 169 210 266 327
#     4  12  26  44  58  74 100 144 188 238 274 306
#
# _framework density 24.038371999999999
#
# number of rings (size 3 to 8) (size 9 to 14) (size 15 to 20)
#    0.000    2.667    2.857    2.571    1.333    0.381 
#    0.000    0.952    0.000    3.429    0.000    2.667 
#    0.000    4.571    0.000    0.000    0.000    0.000 
#
# Total GULP energy -116937.934919 kJ/mol
# GULP energy per Si atom -5568.473091 kJ/mol
# Density = 2.398366 g / cm^3
# Si number density = 24.038372 Si / 1000 Ang^3
#
#
#
# Elastic Constant Matrix: (Units=GPa)
#
#
# Indices 1 2 3 4 5 6 
#
# 1 140.6753 5.9753 20.4996 0.0000 53.9934 0.0000
# 2 5.9753 129.0018 8.0992 0.0000 15.9849 0.0000
# 3 20.4996 8.0992 33.6531 0.0000 24.7251 0.0000
# 4 0.0000 0.0000 0.0000 -12.0282 0.0000 4.9553
# 5 53.9934 15.9849 24.7251 0.0000 48.4257 0.0000
# 6 0.0000 0.0000 0.0000 4.9553 0.0000 42.2493
#
#
#
# Elastic Compliance Matrix: (Units=1/GPa)
#
#
# Indices 1 2 3 4 5 6 
#
# 1 0.012994 0.001246 0.004371 0.000000 -0.017131 0.000000
# 2 0.001246 0.008202 0.000443 0.000000 -0.004323 0.000000
# 3 0.004371 0.000443 0.049024 0.000000 -0.030051 0.000000
# 4 0.000000 0.000000 0.000000 -0.079306 0.000000 0.009302
# 5 -0.017131 -0.004323 -0.030051 0.000000 0.056521 0.000000
# 6 0.000000 0.000000 0.000000 0.009302 0.000000 0.022578
#
#
# Mechanical properties :
#
#
# Convention : Reuss Voigt Hill
#
# Bulk Modulus (GPa) = 12.14455 41.38647 26.76551
# Shear Modulus (GPa) = 58.59031 33.64643 46.11837
#
# Velocity S-wave (km/s) = 4.94232 3.74531 4.38486
# Velocity P-wave (km/s) = 6.13448 5.99644 6.06586
#
# Compressibility (1/GPa) = 0.08234145
#
# Stress axis : x y z
#
# Youngs Moduli (GPa) = 76.95985 121.92155 20.39819
#
# Poissons Ratio (x) = -0.15197 -0.08916
# Poissons Ratio (y) = -0.09593 -0.00904
# Poissons Ratio (z) = -0.33641 -0.05404
#
# Static dielectric constant tensor:
#      x y z
#    x 1.950130 0.000000 0.080960 
#    y 0.000000 1.915760 0.000000 
#    z 0.080960 0.000000 2.176810 
# 
# From -- ./inp_files/45310.got.cif
#   From: 2010.05.17/outbox.cif.g08.bks.cpg/sg10_23_cif.got.tgz:45310.got - 2010.06.03 11:33:40.
