data_PCOD9148363
_publ_section_title
;
Structure prediction by ZEFSAII (Michael W. Deem and Ramdas Pophale) SiO2 
 PCOD9148363
Probable space group: P 2/M
;
_chemical_formula_sum "Si O2"
_cell_formula_units_Z 24
_cell_length_a 17.850522
_cell_length_b 7.975715
_cell_length_c 19.444092
_cell_angle_alpha 90.000000
_cell_angle_beta 158.924991
_cell_angle_gamma 90.000000
_cell_volume 995.441243
_symmetry_space_group_name_H-M "P 2/M"
_symmetry_group_IT_number 10
_symmetry_cell_setting 'monoclinic'
loop_
_space_group_symop_operation_xyz
x,y,z
-x,y,-z
-x,-y,-z
x,-y,z
loop_
_atom_site_type_symbol
_atom_site_label
_atom_site_fract_x
_atom_site_fract_y
_atom_site_fract_z
Si Si1 0.771602 0.193300 0.075706
Si Si2 0.631756 0.500000 0.040407
Si Si3 0.293099 0.702100 0.278890
Si Si4 0.794631 0.822151 0.465507
Si Si5 0.937012 0.199801 0.791804
Si Si6 0.923612 0.500000 0.510427
Si Si7 0.537424 0.304361 0.363058
O O1 0.627708 0.330132 0.990545
O O2 0.992122 0.185379 0.306891
O O3 0.852429 0.247161 0.068701
O O4 0.694575 0.000000 0.009520
O O5 0.871520 0.500000 0.268572
O O6 0.500000 0.500000 0.000000
O O7 0.500000 0.749130 0.500000
O O8 0.281904 0.500000 0.265881
O O9 0.100729 0.762250 0.160135
O O10 0.352445 0.760924 0.253226
O O11 0.799511 0.665568 0.420617
O O12 0.603090 0.801153 0.353491
O O13 0.791736 0.000000 0.426931
O O14 0.746811 0.293912 0.590152
O O15 0.911793 0.000000 0.759897
O O16 0.000000 0.500000 0.500000
O O17 0.506568 0.500000 0.319019
#
# Coordination Sequence:
#
# PCOD9148363 Si02
#       7
#     4   2   4   4   4   2   4
#     4   8  16  27  40  60  83 109 143 180 214 255
#     4  10  20  32  50  69  85 113 147 178 220 268
#     4   8  14  19  26  42  68 103 140 175 206 240
#     4   9  16  27  43  61  81 111 147 177 212 261
#     4   9  15  20  29  47  71 104 143 176 208 247
#     4  10  20  34  50  67  91 115 139 182 228 262
#     4   9  14  21  31  47  73 106 142 176 210 246
#
# _framework density 24.109912000000001
#
# number of rings (size 3 to 8) (size 9 to 14) (size 15 to 20)
#    0.000    3.167    0.833    3.000    4.667    4.333 
#    0.000    0.000    0.000    0.000    0.000    0.000 
#    0.000    0.000    0.000    3.000    0.000   11.167 
#
# Total GULP energy -134034.133787 kJ/mol
# GULP energy per Si atom -5584.755574 kJ/mol
# Density = 2.405504 g / cm^3
# Si number density = 24.109912 Si / 1000 Ang^3
#
#
#
# Elastic Constant Matrix: (Units=GPa)
#
#
# Indices 1 2 3 4 5 6 
#
# 1 155.4390 87.8096 29.2844 0.0000 52.7865 0.0000
# 2 87.8096 156.7905 25.9183 0.0000 39.3097 0.0000
# 3 29.2844 25.9183 127.0280 0.0000 16.0709 0.0000
# 4 0.0000 0.0000 0.0000 -8.7988 0.0000 78.3528
# 5 52.7865 39.3097 16.0709 0.0000 43.0374 0.0000
# 6 0.0000 0.0000 0.0000 78.3528 0.0000 -399.3110
#
#
#
# Elastic Compliance Matrix: (Units=1/GPa)
#
#
# Indices 1 2 3 4 5 6 
#
# 1 0.012914 -0.004171 -0.000634 0.000000 -0.011793 0.000000
# 2 -0.004171 0.009691 -0.000570 0.000000 -0.003523 0.000000
# 3 -0.000634 -0.000570 0.008366 0.000000 -0.001825 0.000000
# 4 0.000000 0.000000 0.000000 0.152078 0.000000 0.029841
# 5 -0.011793 -0.003523 -0.001825 0.000000 0.041600 0.000000
# 6 0.000000 0.000000 0.000000 0.029841 0.000000 0.003351
#
#
# Mechanical properties :
#
#
# Convention : Reuss Voigt Hill
#
# Bulk Modulus (GPa) = 49.45411 80.58690 65.02051
# Shear Modulus (GPa) = 20.36742 -53.26481 -16.44870
#
# Velocity S-wave (km/s) = 2.90965 -4.70536 -2.61480
# Velocity P-wave (km/s) = 5.64310 1.99418 4.23210
#
# Compressibility (1/GPa) = 0.02022077
#
# Stress axis : x y z
#
# Youngs Moduli (GPa) = 77.43659 103.18400 119.53526
#
# Poissons Ratio (x) = 0.43037 0.07580
# Poissons Ratio (y) = 0.32298 0.06815
# Poissons Ratio (z) = 0.04910 0.05883
#
# Static dielectric constant tensor:
#      x y z
#    x 1.832510 0.000000 0.085100 
#    y 0.000000 1.849190 0.000000 
#    z 0.085100 0.000000 1.809890 
# 
# From -- ./inp_files/80148.got.cif
#   From: 2010.05.17/outbox.cif.g08.bks.cpg/sg10_41_cif.got.tgz:80148.got - 2010.06.03 11:33:40.
