data_PCOD9148860
_publ_section_title
;
Structure prediction by ZEFSAII (Michael W. Deem and Ramdas Pophale) SiO2 
 PCOD9148860
Probable space group: P 2/M
;
_chemical_formula_sum "Si O2"
_cell_formula_units_Z 20
_cell_length_a 8.905826
_cell_length_b 7.615515
_cell_length_c 20.297752
_cell_angle_alpha 90.000000
_cell_angle_beta 131.903697
_cell_angle_gamma 90.000000
_cell_volume 1024.592179
_symmetry_space_group_name_H-M "P 2/M"
_symmetry_group_IT_number 10
_symmetry_cell_setting 'monoclinic'
loop_
_space_group_symop_operation_xyz
x,y,z
-x,y,-z
-x,-y,-z
x,-y,z
loop_
_atom_site_type_symbol
_atom_site_label
_atom_site_fract_x
_atom_site_fract_y
_atom_site_fract_z
Si Si1 0.279402 0.200494 0.255038
Si Si2 0.428067 0.294717 0.909129
Si Si3 0.980700 0.700949 0.278070
Si Si4 0.665777 0.000000 0.392405
Si Si5 0.033187 0.000000 0.399042
Si Si6 0.221467 0.212900 0.089722
O O1 0.255848 0.273125 0.174738
O O2 0.156153 0.297391 0.274836
O O3 0.193151 0.000000 0.228463
O O4 0.513662 0.165259 0.340669
O O5 0.383211 0.500000 0.908652
O O6 0.222317 0.226441 0.816549
O O7 0.607581 0.278591 0.909510
O O8 0.500000 0.216825 0.000000
O O9 0.945238 0.500000 0.289771
O O10 0.037583 0.829669 0.353887
O O11 0.827350 0.000000 0.381160
O O12 0.784530 0.000000 0.495497
O O13 0.234500 0.000000 0.093359
O O14 0.000000 0.263715 0.000000
#
# Coordination Sequence:
#
# PCOD9148860 Si02
#       6
#     4   4   4   2   2   4
#     4   9  19  37  57  84 119 152 194 236 294 354
#     4  10  22  37  53  81 118 157 200 239 292 350
#     4  11  23  38  62  91 119 158 199 243 297 351
#     4   9  21  39  66  87 112 165 191 235 315 349
#     4  11  21  43  66  85 122 151 195 253 293 357
#     4  10  20  33  55  86 117 151 200 242 285 348
#
# _framework density 19.519963000000001
#
# number of rings (size 3 to 8) (size 9 to 14) (size 15 to 20)
#    0.600    1.400    1.000    2.400    1.400    3.200 
#    0.000    5.000    0.000    0.000    0.000    0.000 
#    0.000    0.000    0.000    0.000    0.000    0.000 
#
# Total GULP energy -111597.352333 kJ/mol
# GULP energy per Si atom -5579.867617 kJ/mol
# Density = 1.947553 g / cm^3
# Si number density = 19.519963 Si / 1000 Ang^3
#
#
#
# Elastic Constant Matrix: (Units=GPa)
#
#
# Indices 1 2 3 4 5 6 
#
# 1 121.3101 6.4463 89.8067 0.0000 -1.7711 0.0000
# 2 6.4463 60.8209 32.3809 0.0000 -10.1354 0.0000
# 3 89.8067 32.3809 175.1853 0.0000 -6.9131 0.0000
# 4 0.0000 0.0000 0.0000 -21.2923 0.0000 -24.5844
# 5 -1.7711 -10.1354 -6.9131 0.0000 37.2762 0.0000
# 6 0.0000 0.0000 0.0000 -24.5844 0.0000 -40.2647
#
#
#
# Elastic Compliance Matrix: (Units=1/GPa)
#
#
# Indices 1 2 3 4 5 6 
#
# 1 0.013626 0.002515 -0.007452 0.000000 -0.000051 0.000000
# 2 0.002515 0.019434 -0.004702 0.000000 0.004531 0.000000
# 3 -0.007452 -0.004702 0.010409 0.000000 0.000298 0.000000
# 4 0.000000 0.000000 0.000000 -0.159188 0.000000 0.097195
# 5 -0.000051 0.004531 0.000298 0.000000 0.028112 0.000000
# 6 0.000000 0.000000 0.000000 0.097195 0.000000 -0.084180
#
#
# Mechanical properties :
#
#
# Convention : Reuss Voigt Hill
#
# Bulk Modulus (GPa) = 41.33996 68.28712 54.81354
# Shear Modulus (GPa) = -34.61511 10.38933 -12.11289
#
# Velocity S-wave (km/s) = -4.21565 2.30954 -2.49376
# Velocity P-wave (km/s) = 1.57204 6.49393 4.45532
#
# Compressibility (1/GPa) = 0.02418967
#
# Stress axis : x y z
#
# Youngs Moduli (GPa) = 73.39126 51.45647 96.06823
#
# Poissons Ratio (x) = -0.12940 0.71588
# Poissons Ratio (y) = -0.18456 0.45175
# Poissons Ratio (z) = 0.54690 0.24197
#
# Static dielectric constant tensor:
#      x y z
#    x 1.644420 0.000000 0.005710 
#    y 0.000000 1.708240 0.000000 
#    z 0.005710 0.000000 1.677270 
# 
# From -- ./inp_files/74480.got.cif
#   From: 2010.05.17/outbox.cif.g08.bks.cpg/sg10_38_cif.got.tgz:74480.got - 2010.06.03 11:33:40.
