data_PCOD9148612
_publ_section_title
;
Structure prediction by ZEFSAII (Michael W. Deem and Ramdas Pophale) SiO2 
 PCOD9148612
Probable space group: P 2/M
;
_chemical_formula_sum "Si O2"
_cell_formula_units_Z 32
_cell_length_a 21.333485
_cell_length_b 8.228090
_cell_length_c 12.687833
_cell_angle_alpha 90.000000
_cell_angle_beta 128.038632
_cell_angle_gamma 90.000000
_cell_volume 1754.088490
_symmetry_space_group_name_H-M "P 2/M"
_symmetry_group_IT_number 10
_symmetry_cell_setting 'monoclinic'
loop_
_space_group_symop_operation_xyz
x,y,z
-x,y,-z
-x,-y,-z
x,-y,z
loop_
_atom_site_type_symbol
_atom_site_label
_atom_site_fract_x
_atom_site_fract_y
_atom_site_fract_z
Si Si1 0.128543 0.696338 0.646342
Si Si2 0.627558 0.801932 0.643280
Si Si3 0.538649 0.306784 0.932778
Si Si4 0.513794 0.195689 0.345827
Si Si5 0.717940 0.806711 0.083668
Si Si6 0.960983 0.195796 0.067843
Si Si7 0.013063 0.304034 0.344512
Si Si8 0.218762 0.198881 0.079317
O O1 0.131363 0.500000 0.650514
O O2 0.215226 0.762502 0.761694
O O3 0.066627 0.747970 0.674363
O O4 0.087687 0.747210 0.494107
O O5 0.564851 0.753556 0.669661
O O6 0.589575 0.748386 0.493168
O O7 0.715406 0.749077 0.767083
O O8 0.627994 0.000000 0.642786
O O9 0.533429 0.500000 0.930674
O O10 0.493299 0.250440 0.780831
O O11 0.500000 0.239420 0.000000
O O12 0.631103 0.260480 0.018315
O O13 0.513939 0.000000 0.346958
O O14 0.710506 0.000000 0.068416
O O15 0.750788 0.747470 0.004224
O O16 0.009654 0.241433 0.222719
O O17 0.957858 0.000000 0.059049
O O18 0.870346 0.255343 0.989286
O O19 0.000000 0.256004 0.000000
O O20 0.012563 0.500000 0.342501
O O21 0.217477 0.000000 0.076959
#
# Coordination Sequence:
#
# PCOD9148612 Si02
#       8
#     4   4   4   4   4   4   4   4
#     4   9  18  33  53  79 109 139 174 220 271 315
#     4   8  14  27  51  79 104 128 162 214 267 306
#     4  11  24  39  53  73 109 149 175 209 266 321
#     4   9  16  30  54  79 100 130 172 215 260 310
#     4  11  20  33  57  83 103 132 180 228 264 310
#     4  10  20  33  50  75 110 145 176 219 269 312
#     4   9  18  33  53  76 106 145 182 215 260 321
#     4   9  16  29  50  77 104 132 170 214 262 309
#
# _framework density 18.243093999999999
#
# number of rings (size 3 to 8) (size 9 to 14) (size 15 to 20)
#    0.000    2.500    2.500    2.250    0.000    1.750 
#    0.000    3.750    0.000    1.500    0.000    0.000 
#    0.000    0.000    0.000    0.000    0.000    0.000 
#
# Total GULP energy -178453.459950 kJ/mol
# GULP energy per Si atom -5576.670623 kJ/mol
# Density = 1.820157 g / cm^3
# Si number density = 18.243094 Si / 1000 Ang^3
#
#
#
# Elastic Constant Matrix: (Units=GPa)
#
#
# Indices 1 2 3 4 5 6 
#
# 1 107.8350 6.9631 80.1990 0.0000 -16.4797 0.0000
# 2 6.9631 4.4512 6.6567 0.0000 -5.3708 0.0000
# 3 80.1990 6.6567 172.0322 0.0000 -14.2548 0.0000
# 4 0.0000 0.0000 0.0000 45.6627 0.0000 -4.0963
# 5 -16.4797 -5.3708 -14.2548 0.0000 26.0512 0.0000
# 6 0.0000 0.0000 0.0000 -4.0963 0.0000 14.5676
#
#
#
# Elastic Compliance Matrix: (Units=1/GPa)
#
#
# Indices 1 2 3 4 5 6 
#
# 1 0.015294 -0.009169 -0.006421 0.000000 0.004271 0.000000
# 2 -0.009169 0.312265 -0.003095 0.000000 0.056884 0.000000
# 3 -0.006421 -0.003095 0.008942 0.000000 0.000193 0.000000
# 4 0.000000 0.000000 0.000000 0.022466 0.000000 0.006317
# 5 0.004271 0.056884 0.000193 0.000000 0.052920 0.000000
# 6 0.000000 0.000000 0.000000 0.006317 0.000000 0.070422
#
#
# Mechanical properties :
#
#
# Convention : Reuss Voigt Hill
#
# Bulk Modulus (GPa) = 3.34302 52.43956 27.89129
# Shear Modulus (GPa) = 8.07247 29.95629 19.01438
#
# Velocity S-wave (km/s) = 2.10584 4.05663 3.23194
# Velocity P-wave (km/s) = 2.78374 7.12383 5.40824
#
# Compressibility (1/GPa) = 0.29913107
#
# Stress axis : x y z
#
# Youngs Moduli (GPa) = 65.38697 3.20241 111.83180
#
# Poissons Ratio (x) = 0.02936 0.71807
# Poissons Ratio (y) = 0.59950 0.34614
# Poissons Ratio (z) = 0.41985 0.00991
#
# Static dielectric constant tensor:
#      x y z
#    x 1.610940 0.000000 -0.002580 
#    y 0.000000 1.640540 0.000000 
#    z -0.002580 0.000000 1.638940 
# 
# From -- ./inp_files/55311.got.cif
#   From: 2010.05.17/outbox.cif.g08.bks.cpg/sg10_28_cif.got.tgz:55311.got - 2010.06.03 11:33:40.
