data_PCOD9148447
_publ_section_title
;
Structure prediction by ZEFSAII (Michael W. Deem and Ramdas Pophale) SiO2 
 PCOD9148447
Probable space group: P 2/M
;
_chemical_formula_sum "Si O2"
_cell_formula_units_Z 30
_cell_length_a 20.254548
_cell_length_b 13.073617
_cell_length_c 11.054259
_cell_angle_alpha 90.000000
_cell_angle_beta 146.805763
_cell_angle_gamma 90.000000
_cell_volume 1602.564284
_symmetry_space_group_name_H-M "P 2/M"
_symmetry_group_IT_number 10
_symmetry_cell_setting 'monoclinic'
loop_
_space_group_symop_operation_xyz
x,y,z
-x,y,-z
-x,-y,-z
x,-y,z
loop_
_atom_site_type_symbol
_atom_site_label
_atom_site_fract_x
_atom_site_fract_y
_atom_site_fract_z
Si Si1 0.733153 0.683840 0.210348
Si Si2 0.942819 0.615337 0.699108
Si Si3 0.818411 0.380051 0.091014
Si Si4 0.540360 0.385733 0.234131
Si Si5 0.247185 0.882817 0.332775
Si Si6 0.000000 0.229349 0.000000
Si Si7 0.629615 0.817393 0.235759
Si Si8 0.381055 0.705226 0.395932
O O1 0.820007 0.626115 0.436426
O O2 0.704776 0.792549 0.230454
O O3 0.797939 0.685033 0.180404
O O4 0.603541 0.630795 0.991342
O O5 0.954814 0.500000 0.765861
O O6 0.952217 0.697454 0.819854
O O7 0.052381 0.633182 0.773624
O O8 0.805568 0.500000 0.104041
O O9 0.717903 0.348528 0.839628
O O10 0.571803 0.500000 0.242053
O O11 0.599140 0.295367 0.245485
O O12 0.583956 0.366764 0.437629
O O13 0.300784 0.874392 0.551349
O O14 0.326104 0.808147 0.369542
O O15 0.250404 0.000000 0.298193
O O16 0.111863 0.838699 0.127883
O O17 0.500000 0.862762 0.000000
O O18 0.500000 0.725747 0.500000
#
# Coordination Sequence:
#
# PCOD9148447 Si02
#       8
#     4   4   4   4   4   2   4   4
#     4  11  20  35  55  82 123 162 201 226 276 347
#     4  11  23  37  57  87 125 160 199 239 287 351
#     4  11  22  35  55  87 126 166 200 230 278 352
#     4  10  20  32  53  86 124 161 196 231 279 349
#     4  11  24  44  68  89 108 147 205 262 313 353
#     4  12  22  44  64  90 114 156 196 256 310 348
#     4   9  21  38  57  88 118 150 191 246 301 349
#     4  11  22  39  60  88 123 157 195 245 298 352
#
# _framework density 18.719996999999999
#
# number of rings (size 3 to 8) (size 9 to 14) (size 15 to 20)
#    0.000    1.333    4.000    2.400    0.000    5.600 
#    0.000    0.000    0.000    0.000    0.000    1.867 
#    0.000    0.000    0.000    0.000    0.000    0.000 
#
# Total GULP energy -167633.117160 kJ/mol
# GULP energy per Si atom -5587.770572 kJ/mol
# Density = 1.867739 g / cm^3
# Si number density = 18.719997 Si / 1000 Ang^3
#
#
#
# Elastic Constant Matrix: (Units=GPa)
#
#
# Indices 1 2 3 4 5 6 
#
# 1 59.4244 9.5206 13.5180 0.0000 0.5812 0.0000
# 2 9.5206 54.4061 9.9496 0.0000 9.9752 0.0000
# 3 13.5180 9.9496 92.1511 0.0000 1.2156 0.0000
# 4 0.0000 0.0000 0.0000 3.0370 0.0000 0.0016
# 5 0.5812 9.9752 1.2156 0.0000 36.8128 0.0000
# 6 0.0000 0.0000 0.0000 0.0016 0.0000 10.8777
#
#
#
# Elastic Compliance Matrix: (Units=1/GPa)
#
#
# Indices 1 2 3 4 5 6 
#
# 1 0.017797 -0.002792 -0.002317 0.000000 0.000552 0.000000
# 2 -0.002792 0.020163 -0.001697 0.000000 -0.005363 0.000000
# 3 -0.002317 -0.001697 0.011373 0.000000 0.000121 0.000000
# 4 0.000000 0.000000 0.000000 0.329269 0.000000 -0.000047
# 5 0.000552 -0.005363 0.000121 0.000000 0.028605 0.000000
# 6 0.000000 0.000000 0.000000 -0.000047 0.000000 0.091931
#
#
# Mechanical properties :
#
#
# Convention : Reuss Voigt Hill
#
# Bulk Modulus (GPa) = 27.99359 30.21755 29.10557
# Shear Modulus (GPa) = 9.53006 21.67841 15.60423
#
# Velocity S-wave (km/s) = 2.25874 3.40668 2.89028
# Velocity P-wave (km/s) = 4.66785 5.62591 5.16913
#
# Compressibility (1/GPa) = 0.03572247
#
# Stress axis : x y z
#
# Youngs Moduli (GPa) = 56.18930 49.59702 87.92636
#
# Poissons Ratio (x) = 0.13847 0.20368
# Poissons Ratio (y) = 0.15687 0.14918
# Poissons Ratio (z) = 0.13016 0.08415
#
# Static dielectric constant tensor:
#      x y z
#    x 1.659470 0.000000 -0.000190 
#    y 0.000000 1.617150 0.000000 
#    z -0.000190 0.000000 1.652310 
# 
# From -- ./inp_files/55943.got.cif
#   From: 2010.05.17/outbox.cif.g08.bks.cpg/sg10_28_cif.got.tgz:55943.got - 2010.06.03 11:33:40.
