data_PCOD9148038
_publ_section_title
;
Structure prediction by ZEFSAII (Michael W. Deem and Ramdas Pophale) SiO2 
 PCOD9148038
Probable space group: P 2/M
;
_chemical_formula_sum "Si O2"
_cell_formula_units_Z 14
_cell_length_a 4.938654
_cell_length_b 19.672224
_cell_length_c 5.284939
_cell_angle_alpha 90.000000
_cell_angle_beta 90.290933
_cell_angle_gamma 90.000000
_cell_volume 513.447971
_symmetry_space_group_name_H-M "P 2/M"
_symmetry_group_IT_number 10
_symmetry_cell_setting 'monoclinic'
loop_
_space_group_symop_operation_xyz
x,y,z
-x,y,-z
-x,-y,-z
x,-y,z
loop_
_atom_site_type_symbol
_atom_site_label
_atom_site_fract_x
_atom_site_fract_y
_atom_site_fract_z
Si Si1 0.250269 0.000000 0.305190
Si Si2 0.187691 0.500000 0.250683
Si Si3 0.000000 0.881562 0.000000
Si Si4 0.814789 0.645706 0.748627
Si Si5 0.347992 0.796169 0.256674
O O1 0.500000 0.000000 0.500000
O O2 0.000000 0.000000 0.500000
O O3 0.214152 0.064090 0.117744
O O4 0.336447 0.572717 0.249627
O O5 0.000000 0.500000 0.500000
O O6 0.000000 0.500000 0.000000
O O7 0.954914 0.825267 0.777120
O O8 0.647959 0.714682 0.739896
O O9 0.000000 0.646817 0.500000
O O10 0.000000 0.648884 0.000000
O O11 0.500000 0.823964 0.500000
O O12 0.500000 0.816705 0.000000
#
# Coordination Sequence:
#
# PCOD9148038 Si02
#       5
#     2   2   2   4   4
#     4  11  28  51  82 114 153 196 249 301 372 448
#     4   8  16  30  58  88 124 181 237 294 364 433
#     4  11  28  46  76 105 152 190 244 297 368 450
#     4  10  19  38  62  93 135 184 240 300 367 438
#     4  12  27  43  70 105 145 188 244 302 371 439
#
# _framework density 27.266635999999998
#
# number of rings (size 3 to 8) (size 9 to 14) (size 15 to 20)
#    0.000    1.429    1.429    2.571    8.000    1.143 
#    0.000    1.429    0.000    0.000    0.000    0.000 
#    0.000    0.000    0.000    0.000    0.000    0.000 
#
# Total GULP energy -78191.974029 kJ/mol
# GULP energy per Si atom -5585.141002 kJ/mol
# Density = 2.720458 g / cm^3
# Si number density = 27.266636 Si / 1000 Ang^3
#
#
#
# Elastic Constant Matrix: (Units=GPa)
#
#
# Indices 1 2 3 4 5 6 
#
# 1 109.7207 18.3107 83.9530 0.0000 4.2432 0.0000
# 2 18.3107 225.9820 46.0390 0.0000 17.1363 0.0000
# 3 83.9530 46.0390 287.4688 0.0000 36.6489 0.0000
# 4 0.0000 0.0000 0.0000 -684.9577 0.0000 -6.1884
# 5 4.2432 17.1363 36.6489 0.0000 79.7799 0.0000
# 6 0.0000 0.0000 0.0000 -6.1884 0.0000 22.4197
#
#
#
# Elastic Compliance Matrix: (Units=1/GPa)
#
#
# Indices 1 2 3 4 5 6 
#
# 1 0.011836 -0.000318 -0.003541 0.000000 0.001066 0.000000
# 2 -0.000318 0.004619 -0.000555 0.000000 -0.000720 0.000000
# 3 -0.003541 -0.000555 0.004846 0.000000 -0.001919 0.000000
# 4 0.000000 0.000000 0.000000 -0.001456 0.000000 -0.000402
# 5 0.001066 -0.000720 -0.001919 0.000000 0.013514 0.000000
# 6 0.000000 0.000000 0.000000 -0.000402 0.000000 0.044493
#
#
# Mechanical properties :
#
#
# Convention : Reuss Voigt Hill
#
# Bulk Modulus (GPa) = 80.18377 102.19746 91.19062
# Shear Modulus (GPa) = 55.04352 -84.89368 -14.92508
#
# Velocity S-wave (km/s) = 4.49788 -5.58590 -2.34214
# Velocity P-wave (km/s) = 7.51304 2.01018 5.11883
#
# Compressibility (1/GPa) = 0.01247135
#
# Stress axis : x y z
#
# Youngs Moduli (GPa) = 84.49037 216.51648 206.34035
#
# Poissons Ratio (x) = 0.06893 0.73073
# Poissons Ratio (y) = 0.02690 0.11450
# Poissons Ratio (z) = 0.29921 0.12014
#
# Static dielectric constant tensor:
#      x y z
#    x 3.277500 0.000000 -0.047710 
#    y 0.000000 2.145940 0.000000 
#    z -0.047710 0.000000 2.047690 
# 
# From -- ./inp_files/792.got.cif
#   From: 2010.05.17/outbox.cif.g08.bks.cpg/sg10_1_cif.got.tgz:792.got - 2010.06.03 11:33:40.
