data_PCOD9148335
_publ_section_title
;
Structure prediction by ZEFSAII (Michael W. Deem and Ramdas Pophale) SiO2 
 PCOD9148335
Probable space group: P 2/M
;
_chemical_formula_sum "Si O2"
_cell_formula_units_Z 32
_cell_length_a 18.312893
_cell_length_b 7.840206
_cell_length_c 26.645921
_cell_angle_alpha 90.000000
_cell_angle_beta 154.396179
_cell_angle_gamma 90.000000
_cell_volume 1653.276737
_symmetry_space_group_name_H-M "P 2/M"
_symmetry_group_IT_number 10
_symmetry_cell_setting 'monoclinic'
loop_
_space_group_symop_operation_xyz
x,y,z
-x,y,-z
-x,-y,-z
x,-y,z
loop_
_atom_site_type_symbol
_atom_site_label
_atom_site_fract_x
_atom_site_fract_y
_atom_site_fract_z
Si Si1 0.311875 0.798454 0.822745
Si Si2 0.217967 0.199079 0.490179
Si Si3 0.074243 0.304696 0.102818
Si Si4 0.275591 0.709500 0.076054
Si Si5 0.072764 0.695912 0.762162
Si Si6 0.332923 0.293293 0.000125
Si Si7 0.406456 0.297501 0.264345
Si Si8 0.021557 0.207898 0.569721
O O1 0.222995 0.705758 0.813967
O O2 0.202054 0.749279 0.705774
O O3 0.287394 0.000000 0.816685
O O4 0.505700 0.763275 0.931843
O O5 0.403673 0.273735 0.599854
O O6 0.119540 0.269796 0.478209
O O7 0.089638 0.220194 0.364229
O O8 0.242684 0.000000 0.514264
O O9 0.094939 0.500000 0.133818
O O10 0.259424 0.225608 0.209650
O O11 0.000000 0.310912 0.000000
O O12 0.919070 0.230747 0.038276
O O13 0.274384 0.500000 0.075546
O O14 0.377242 0.765274 0.188901
O O15 0.346354 0.763611 0.066154
O O16 0.026817 0.500000 0.742484
O O17 0.160400 0.767244 0.866472
O O18 0.329723 0.500000 0.997326
O O19 0.372808 0.500000 0.241317
O O20 0.000000 0.270626 0.500000
O O21 0.011634 0.000000 0.562576
#
# Coordination Sequence:
#
# PCOD9148335 Si02
#       8
#     4   4   4   4   4   4   4   4
#     4  10  20  32  49  70  93 126 163 197 235 282
#     4  10  20  32  49  70  94 125 160 197 237 283
#     4   7  11  23  45  71  97 126 154 185 228 278
#     4   8  15  28  47  74 103 125 153 192 236 283
#     4  10  20  35  51  66  91 126 165 204 240 274
#     4  10  20  32  49  72  97 125 157 201 243 276
#     4   9  16  28  50  76 100 125 155 190 231 286
#     4   8  16  30  44  60  88 123 153 184 224 271
#
# _framework density 19.355499999999999
#
# number of rings (size 3 to 8) (size 9 to 14) (size 15 to 20)
#    0.000    3.000    0.000    3.750    1.750    2.500 
#    0.000    0.000    0.000    7.125    0.000    5.250 
#    0.000    0.000    0.000    0.000    0.000    0.000 
#
# Total GULP energy -178267.619437 kJ/mol
# GULP energy per Si atom -5570.863107 kJ/mol
# Density = 1.931145 g / cm^3
# Si number density = 19.355500 Si / 1000 Ang^3
#
#
#
# Elastic Constant Matrix: (Units=GPa)
#
#
# Indices 1 2 3 4 5 6 
#
# 1 17.3035 -3.6170 16.8531 0.0000 5.9099 0.0000
# 2 -3.6170 20.7389 -3.0031 0.0000 -1.4439 0.0000
# 3 16.8531 -3.0031 100.7253 0.0000 18.2777 0.0000
# 4 0.0000 0.0000 0.0000 -53.8565 0.0000 -34.2993
# 5 5.9099 -1.4439 18.2777 0.0000 25.6852 0.0000
# 6 0.0000 0.0000 0.0000 -34.2993 0.0000 -12.2528
#
#
#
# Elastic Compliance Matrix: (Units=1/GPa)
#
#
# Indices 1 2 3 4 5 6 
#
# 1 0.073081 0.010636 -0.010297 0.000000 -0.008890 0.000000
# 2 0.010636 0.050060 -0.000406 0.000000 0.000656 0.000000
# 3 -0.010297 -0.000406 0.012876 0.000000 -0.006816 0.000000
# 4 0.000000 0.000000 0.000000 0.023721 0.000000 -0.066401
# 5 -0.008890 0.000656 -0.006816 0.000000 0.045865 0.000000
# 6 0.000000 0.000000 0.000000 -0.066401 0.000000 0.104262
#
#
# Mechanical properties :
#
#
# Convention : Reuss Voigt Hill
#
# Bulk Modulus (GPa) = 7.35939 17.69264 12.52601
# Shear Modulus (GPa) = 14.07287 0.48416 7.27851
#
# Velocity S-wave (km/s) = 2.69935 0.50068 1.94129
# Velocity P-wave (km/s) = 3.67775 3.08139 3.39270
#
# Compressibility (1/GPa) = 0.13588088
#
# Stress axis : x y z
#
# Youngs Moduli (GPa) = 13.68354 19.97592 77.66610
#
# Poissons Ratio (x) = -0.21246 0.79976
# Poissons Ratio (y) = -0.14553 0.03154
# Poissons Ratio (z) = 0.14091 0.00811
#
# Static dielectric constant tensor:
#      x y z
#    x 1.683560 0.000000 0.009230 
#    y 0.000000 1.711740 0.000000 
#    z 0.009230 0.000000 1.687710 
# 
# From -- ./inp_files/95667.got.cif
#   From: 2010.05.17/outbox.cif.g08.bks.cpg/sg10_48_cif.got.tgz:95667.got - 2010.06.03 11:33:40.
