data_PCOD9148131
_publ_section_title
;
Structure prediction by ZEFSAII (Michael W. Deem and Ramdas Pophale) SiO2 
 PCOD9148131
Probable space group: P 2/M
;
_chemical_formula_sum "Si O2"
_cell_formula_units_Z 32
_cell_length_a 20.281070
_cell_length_b 14.019331
_cell_length_c 23.005038
_cell_angle_alpha 90.000000
_cell_angle_beta 161.145785
_cell_angle_gamma 90.000000
_cell_volume 2113.783258
_symmetry_space_group_name_H-M "P 2/M"
_symmetry_group_IT_number 10
_symmetry_cell_setting 'monoclinic'
loop_
_space_group_symop_operation_xyz
x,y,z
-x,y,-z
-x,-y,-z
x,-y,z
loop_
_atom_site_type_symbol
_atom_site_label
_atom_site_fract_x
_atom_site_fract_y
_atom_site_fract_z
Si Si1 0.202055 0.385029 0.702009
Si Si2 0.166819 0.884031 0.091447
Si Si3 0.671312 0.885079 0.244129
Si Si4 0.771177 0.199394 0.097625
Si Si5 0.665637 0.613485 0.056872
Si Si6 0.022185 0.115524 0.843829
Si Si7 0.927076 0.884972 0.346349
Si Si8 0.437063 0.115945 0.512357
O O1 0.187661 0.500000 0.688139
O O2 0.230275 0.362770 0.793806
O O3 0.000000 0.347653 0.500000
O O4 0.423061 0.363550 0.858633
O O5 0.387549 0.853746 0.297378
O O6 0.159682 0.000000 0.085978
O O7 0.120903 0.855428 0.987598
O O8 0.000000 0.852979 0.000000
O O9 0.754297 0.855735 0.249479
O O10 0.854568 0.863827 0.442012
O O11 0.647782 0.000000 0.222930
O O12 0.458341 0.839944 0.084529
O O13 0.761876 0.313936 0.091702
O O14 0.868381 0.159672 0.120210
O O15 0.893186 0.161649 0.255872
O O16 0.687125 0.500000 0.064764
O O17 0.785863 0.144354 0.652821
O O18 0.032184 0.000000 0.847493
O O19 0.912974 0.000000 0.328737
O O20 0.500000 0.147148 0.500000
O O21 0.435476 0.000000 0.509041
#
# Coordination Sequence:
#
# PCOD9148131 Si02
#       8
#     4   4   4   4   4   4   4   4
#     4   8  15  31  52  69  85 108 146 200 254 294
#     4   9  15  26  45  65  88 120 152 180 215 265
#     4   9  19  34  49  65  88 124 169 204 230 270
#     4  12  22  31  47  68  95 128 158 198 246 287
#     4   9  20  34  47  69  94 118 154 200 248 300
#     4  10  20  30  42  67  96 123 157 188 223 272
#     4   9  19  34  49  65  88 124 169 204 230 270
#     4   9  15  26  45  65  88 120 152 180 215 265
#
# _framework density 15.138733
#
# number of rings (size 3 to 8) (size 9 to 14) (size 15 to 20)
#    0.000    2.625    1.250    3.000    3.500    3.000 
#    0.000    2.500    0.000    0.000    0.000    0.000 
#    0.000    1.000    0.000    0.000    0.000    0.250 
#
# Total GULP energy -178374.748926 kJ/mol
# GULP energy per Si atom -5574.210904 kJ/mol
# Density = 1.510428 g / cm^3
# Si number density = 15.138733 Si / 1000 Ang^3
#
#
#
# Elastic Constant Matrix: (Units=GPa)
#
#
# Indices 1 2 3 4 5 6 
#
# 1 117.8636 33.7980 49.7594 0.0000 -12.3915 0.0000
# 2 33.7980 47.5573 20.1185 0.0000 -2.8709 0.0000
# 3 49.7594 20.1185 91.7666 0.0000 -21.9390 0.0000
# 4 0.0000 0.0000 0.0000 4.4297 0.0000 3.8203
# 5 -12.3915 -2.8709 -21.9390 0.0000 12.5477 0.0000
# 6 0.0000 0.0000 0.0000 3.8203 0.0000 11.2982
#
#
#
# Elastic Compliance Matrix: (Units=1/GPa)
#
#
# Indices 1 2 3 4 5 6 
#
# 1 0.012752 -0.006886 -0.004761 0.000000 0.002693 0.000000
# 2 -0.006886 0.027175 -0.004061 0.000000 -0.007682 0.000000
# 3 -0.004761 -0.004061 0.022377 0.000000 0.033493 0.000000
# 4 0.000000 0.000000 0.000000 0.318687 0.000000 -0.107759
# 5 0.002693 -0.007682 0.033493 0.000000 0.139160 0.000000
# 6 0.000000 0.000000 0.000000 -0.107759 0.000000 0.124947
#
#
# Mechanical properties :
#
#
# Convention : Reuss Voigt Hill
#
# Bulk Modulus (GPa) = 32.37466 51.61549 41.99507
# Shear Modulus (GPa) = 7.28004 15.88920 11.58462
#
# Velocity S-wave (km/s) = 2.19530 3.24323 2.76928
# Velocity P-wave (km/s) = 5.27802 6.94217 6.16649
#
# Compressibility (1/GPa) = 0.03088835
#
# Stress axis : x y z
#
# Youngs Moduli (GPa) = 78.41781 36.79855 44.68967
#
# Poissons Ratio (x) = 0.25339 0.21278
# Poissons Ratio (y) = 0.53998 0.18146
# Poissons Ratio (z) = 0.37336 0.14942
#
# Static dielectric constant tensor:
#      x y z
#    x 1.475050 0.000000 -0.012480 
#    y 0.000000 1.507640 0.000000 
#    z -0.012480 0.000000 1.523150 
# 
# From -- ./inp_files/79700.got.cif
#   From: 2010.05.17/outbox.cif.g08.bks.cpg/sg10_40_cif.got.tgz:79700.got - 2010.06.03 11:33:40.
