data_PCOD9148066
_publ_section_title
;
Structure prediction by ZEFSAII (Michael W. Deem and Ramdas Pophale) SiO2 
 PCOD9148066
Probable space group: P 2/M
;
_chemical_formula_sum "Si O2"
_cell_formula_units_Z 28
_cell_length_a 27.594063
_cell_length_b 8.070914
_cell_length_c 10.384823
_cell_angle_alpha 90.000000
_cell_angle_beta 144.337753
_cell_angle_gamma 90.000000
_cell_volume 1348.374367
_symmetry_space_group_name_H-M "P 2/M"
_symmetry_group_IT_number 10
_symmetry_cell_setting 'monoclinic'
loop_
_space_group_symop_operation_xyz
x,y,z
-x,y,-z
-x,-y,-z
x,-y,z
loop_
_atom_site_type_symbol
_atom_site_label
_atom_site_fract_x
_atom_site_fract_y
_atom_site_fract_z
Si Si1 0.335808 0.808232 0.602735
Si Si2 0.434674 0.500000 0.474285
Si Si3 0.600084 0.815976 0.709818
Si Si4 0.148308 0.698201 0.171085
Si Si5 0.309734 0.199107 0.834383
Si Si6 0.878212 0.199511 0.602795
Si Si7 0.439807 0.500000 0.751656
Si Si8 0.989468 0.699700 0.328250
O O1 0.237218 0.788388 0.366914
O O2 0.349487 0.762778 0.782908
O O3 0.385038 0.666161 0.636319
O O4 0.360576 0.000000 0.632989
O O5 0.500000 0.500000 0.500000
O O6 0.381377 0.666369 0.345652
O O7 0.485246 0.500000 0.714084
O O8 0.500000 0.830575 0.500000
O O9 0.632218 0.000000 0.746005
O O10 0.636636 0.760817 0.925745
O O11 0.161630 0.500000 0.193414
O O12 0.104215 0.736201 0.213893
O O13 0.093520 0.751179 0.929715
O O14 0.215240 0.262092 0.631372
O O15 0.303027 0.000000 0.820846
O O16 0.937731 0.251252 0.614501
O O17 0.878911 0.000000 0.612020
O O18 0.500000 0.500000 0.000000
O O19 0.987787 0.500000 0.330750
O O20 0.000000 0.759309 0.500000
#
# Coordination Sequence:
#
# PCOD9148066 Si02
#       8
#     4   2   4   4   4   4   2   4
#     4  10  22  42  67  95 129 164 206 260 318 374
#     4  10  24  42  60  92 119 156 211 248 294 373
#     4   9  18  35  60  85 118 158 200 252 306 360
#     4  10  19  38  65  90 121 162 208 257 310 375
#     4   8  17  35  60  91 121 157 205 256 310 373
#     4  10  20  35  57  89 121 157 210 259 307 370
#     4  12  28  44  66  98 129 165 214 257 313 378
#     4  10  22  39  57  84 124 166 208 260 317 373
#
# _framework density 20.765747999999999
#
# number of rings (size 3 to 8) (size 9 to 14) (size 15 to 20)
#    0.000    2.286    0.714    2.143    4.000    4.000 
#    5.143    0.000    0.000    0.000    0.000    0.000 
#    0.000    0.000    0.000    0.000    0.000    0.000 
#
# Total GULP energy -156108.337302 kJ/mol
# GULP energy per Si atom -5575.297761 kJ/mol
# Density = 2.071848 g / cm^3
# Si number density = 20.765748 Si / 1000 Ang^3
#
#
#
# Elastic Constant Matrix: (Units=GPa)
#
#
# Indices 1 2 3 4 5 6 
#
# 1 79.4127 29.4366 48.0738 0.0000 -26.0191 0.0000
# 2 29.4366 97.5692 30.2143 0.0000 -12.0379 0.0000
# 3 48.0738 30.2143 148.1780 0.0000 -41.5151 0.0000
# 4 0.0000 0.0000 0.0000 25.4305 0.0000 -24.9627
# 5 -26.0191 -12.0379 -41.5151 0.0000 33.3863 0.0000
# 6 0.0000 0.0000 0.0000 -24.9627 0.0000 254.8028
#
#
#
# Elastic Compliance Matrix: (Units=1/GPa)
#
#
# Indices 1 2 3 4 5 6 
#
# 1 0.018806 -0.003639 -0.002487 0.000000 0.010251 0.000000
# 2 -0.003639 0.011715 -0.001257 0.000000 -0.000175 0.000000
# 3 -0.002487 -0.001257 0.010960 0.000000 0.011237 0.000000
# 4 0.000000 0.000000 0.000000 0.043507 0.000000 0.004262
# 5 0.010251 -0.000175 0.011237 0.000000 0.051851 0.000000
# 6 0.000000 0.000000 0.000000 0.004262 0.000000 0.004342
#
#
# Mechanical properties :
#
#
# Convention : Reuss Voigt Hill
#
# Bulk Modulus (GPa) = 37.43316 60.06769 48.75042
# Shear Modulus (GPa) = 30.33030 77.21960 53.77495
#
# Velocity S-wave (km/s) = 3.82592 6.10465 5.09433
# Velocity P-wave (km/s) = 6.13045 8.87007 7.62432
#
# Compressibility (1/GPa) = 0.02671428
#
# Stress axis : x y z
#
# Youngs Moduli (GPa) = 53.17577 85.36325 91.23905
#
# Poissons Ratio (x) = 0.31061 0.22692
# Poissons Ratio (y) = 0.19349 0.11471
# Poissons Ratio (z) = 0.13225 0.10732
#
# Static dielectric constant tensor:
#      x y z
#    x 1.740220 0.000000 -0.008050 
#    y 0.000000 1.790350 0.000000 
#    z -0.008050 0.000000 1.764930 
# 
# From -- ./inp_files/37374.got.cif
#   From: 2010.05.17/outbox.cif.g08.bks.cpg/sg10_19_cif.got.tgz:37374.got - 2010.06.03 11:33:40.
