data_PCOD9148081
_publ_section_title
;
Structure prediction by ZEFSAII (Michael W. Deem and Ramdas Pophale) SiO2 
 PCOD9148081
Probable space group: P 2/M
;
_chemical_formula_sum "Si O2"
_cell_formula_units_Z 28
_cell_length_a 11.080673
_cell_length_b 15.421672
_cell_length_c 9.495047
_cell_angle_alpha 90.000000
_cell_angle_beta 64.589192
_cell_angle_gamma 90.000000
_cell_volume 1465.563999
_symmetry_space_group_name_H-M "P 2/M"
_symmetry_group_IT_number 10
_symmetry_cell_setting 'monoclinic'
loop_
_space_group_symop_operation_xyz
x,y,z
-x,y,-z
-x,-y,-z
x,-y,z
loop_
_atom_site_type_symbol
_atom_site_label
_atom_site_fract_x
_atom_site_fract_y
_atom_site_fract_z
Si Si1 0.340063 0.596554 0.821958
Si Si2 0.572511 0.705989 0.659732
Si Si3 0.846588 0.902679 0.132828
Si Si4 0.780378 0.728855 0.317752
Si Si5 0.010250 0.401935 0.662887
Si Si6 0.391812 0.835536 0.937619
Si Si7 0.721802 0.332952 0.865586
O O1 0.296989 0.500000 0.810678
O O2 0.478156 0.623565 0.680879
O O3 0.243245 0.670935 0.810502
O O4 0.357212 0.609281 0.980749
O O5 0.650988 0.735357 0.482763
O O6 0.481273 0.782195 0.776877
O O7 0.671349 0.671882 0.731890
O O8 0.826405 0.823785 0.250600
O O9 0.722499 0.891908 0.083090
O O10 0.835609 0.000000 0.197824
O O11 0.000000 0.894578 0.000000
O O12 0.884317 0.670893 0.350313
O O13 0.041874 0.500000 0.696417
O O14 0.000000 0.405336 0.500000
O O15 0.869838 0.369982 0.794959
O O16 0.500000 0.871202 0.000000
O O17 0.305322 0.763653 0.064309
#
# Coordination Sequence:
#
# PCOD9148081 Si02
#       7
#     4   4   4   4   4   4   4
#     4  11  23  35  57  89 123 164 210 256 302 360
#     4  10  21  37  60  86 124 167 204 250 311 374
#     4  11  24  43  69  97 126 164 211 266 332 391
#     4  12  23  40  61  88 127 162 204 264 325 374
#     4  11  23  37  57  88 124 170 217 254 306 374
#     4   9  19  39  67  93 124 166 217 253 316 384
#     4  10  19  39  58  85 121 167 211 257 301 364
#
# _framework density 19.105271999999999
#
# number of rings (size 3 to 8) (size 9 to 14) (size 15 to 20)
#    0.000    1.429    4.286    3.429    0.000    3.714 
#    0.000    2.857    0.000    1.286    0.000    0.000 
#    0.000    0.000    0.000    0.000    0.000    0.000 
#
# Total GULP energy -155996.960023 kJ/mol
# GULP energy per Si atom -5571.320001 kJ/mol
# Density = 1.906179 g / cm^3
# Si number density = 19.105272 Si / 1000 Ang^3
#
#
#
# Elastic Constant Matrix: (Units=GPa)
#
#
# Indices 1 2 3 4 5 6 
#
# 1 86.9319 41.5555 24.1878 0.0000 -1.8329 0.0000
# 2 41.5555 130.2939 37.3959 0.0000 -5.7938 0.0000
# 3 24.1878 37.3959 88.1190 0.0000 -8.5644 0.0000
# 4 0.0000 0.0000 0.0000 8.7152 0.0000 8.2368
# 5 -1.8329 -5.7938 -8.5644 0.0000 30.8757 0.0000
# 6 0.0000 0.0000 0.0000 8.2368 0.0000 9.6150
#
#
#
# Elastic Compliance Matrix: (Units=1/GPa)
#
#
# Indices 1 2 3 4 5 6 
#
# 1 0.013948 -0.003824 -0.002256 0.000000 -0.000515 0.000000
# 2 -0.003824 0.009800 -0.003034 0.000000 0.000770 0.000000
# 3 -0.002256 -0.003034 0.013552 0.000000 0.003056 0.000000
# 4 0.000000 0.000000 0.000000 0.602738 0.000000 -0.516343
# 5 -0.000515 0.000770 0.003056 0.000000 0.033350 0.000000
# 6 0.000000 0.000000 0.000000 -0.516343 0.000000 0.546337
#
#
# Mechanical properties :
#
#
# Convention : Reuss Voigt Hill
#
# Bulk Modulus (GPa) = 52.43384 56.84702 54.64043
# Shear Modulus (GPa) = 4.01829 23.32154 13.66992
#
# Velocity S-wave (km/s) = 1.45183 3.49762 2.67779
# Velocity P-wave (km/s) = 5.50588 6.79193 6.18244
#
# Compressibility (1/GPa) = 0.01907165
#
# Stress axis : x y z
#
# Youngs Moduli (GPa) = 71.69479 102.04395 73.78880
#
# Poissons Ratio (x) = 0.39022 0.16646
# Poissons Ratio (y) = 0.27416 0.22390
# Poissons Ratio (z) = 0.16173 0.30963
#
# Static dielectric constant tensor:
#      x y z
#    x 1.758410 0.000000 0.007930 
#    y 0.000000 1.640970 0.000000 
#    z 0.007930 0.000000 1.677120 
# 
# From -- ./inp_files/25195.got.cif
#   From: 2010.05.17/outbox.cif.g08.bks.cpg/sg10_13_cif.got.tgz:25195.got - 2010.06.03 11:33:40.
