data_PCOD9148800
_publ_section_title
;
Structure prediction by ZEFSAII (Michael W. Deem and Ramdas Pophale) SiO2 
 PCOD9148800
Probable space group: P 2/M
;
_chemical_formula_sum "Si O2"
_cell_formula_units_Z 26
_cell_length_a 9.153524
_cell_length_b 12.028882
_cell_length_c 14.394278
_cell_angle_alpha 90.000000
_cell_angle_beta 117.430422
_cell_angle_gamma 90.000000
_cell_volume 1406.716350
_symmetry_space_group_name_H-M "P 2/M"
_symmetry_group_IT_number 10
_symmetry_cell_setting 'monoclinic'
loop_
_space_group_symop_operation_xyz
x,y,z
-x,y,-z
-x,-y,-z
x,-y,z
loop_
_atom_site_type_symbol
_atom_site_label
_atom_site_fract_x
_atom_site_fract_y
_atom_site_fract_z
Si Si1 0.683973 0.229486 0.289725
Si Si2 0.341292 0.229700 0.080154
Si Si3 0.168215 0.630776 0.181544
Si Si4 0.985977 0.000000 0.211682
Si Si5 0.155818 0.756590 0.846768
Si Si6 0.181322 0.000000 0.095751
Si Si7 0.873743 0.000000 0.378825
Si Si8 0.502043 0.632615 0.392013
O O1 0.521805 0.224603 0.177206
O O2 0.811665 0.277144 0.250578
O O3 0.757609 0.109534 0.340188
O O4 0.629993 0.300620 0.363794
O O5 0.235436 0.320394 0.105171
O O6 0.268546 0.109810 0.085741
O O7 0.307417 0.256147 0.962583
O O8 0.139329 0.500000 0.167197
O O9 0.318995 0.651376 0.297236
O O10 0.003352 0.693012 0.162553
O O11 0.886602 0.887743 0.161321
O O12 0.993962 0.000000 0.324524
O O13 0.150303 0.000000 0.197759
O O14 0.000000 0.000000 0.000000
O O15 0.000000 0.000000 0.500000
O O16 0.500000 0.664258 0.500000
O O17 0.536484 0.500000 0.395543
#
# Coordination Sequence:
#
# PCOD9148800 Si02
#       8
#     4   4   4   2   4   2   2   4
#     4  10  23  38  57  85 114 148 187 229 287 342
#     4  11  20  34  56  82 116 149 188 228 276 335
#     4  10  21  35  54  83 115 149 190 234 281 336
#     4  10  20  33  53  82 108 143 187 231 271 314
#     4  11  20  35  55  82 116 152 183 229 278 338
#     4  12  17  31  56  85 107 146 197 227 263 331
#     4  10  23  42  57  81 122 152 178 233 296 337
#     4   9  20  41  63  81 108 146 195 248 286 320
#
# _framework density 18.482759000000001
#
# number of rings (size 3 to 8) (size 9 to 14) (size 15 to 20)
#    0.000    1.692    3.077    1.385    0.000    4.308 
#    0.000    3.462    0.000    7.846    0.000    0.000 
#    0.000    0.000    0.000    0.000    0.000    0.000 
#
# Total GULP energy -144948.775451 kJ/mol
# GULP energy per Si atom -5574.952902 kJ/mol
# Density = 1.844069 g / cm^3
# Si number density = 18.482759 Si / 1000 Ang^3
#
#
#
# Elastic Constant Matrix: (Units=GPa)
#
#
# Indices 1 2 3 4 5 6 
#
# 1 84.8268 35.4517 50.5674 0.0000 -14.1043 0.0000
# 2 35.4517 71.7484 51.4106 0.0000 -5.1413 0.0000
# 3 50.5674 51.4106 111.5143 0.0000 -33.7470 0.0000
# 4 0.0000 0.0000 0.0000 29.7412 0.0000 -13.7514
# 5 -14.1043 -5.1413 -33.7470 0.0000 31.1082 0.0000
# 6 0.0000 0.0000 0.0000 -13.7514 0.0000 11.2777
#
#
#
# Elastic Compliance Matrix: (Units=1/GPa)
#
#
# Indices 1 2 3 4 5 6 
#
# 1 0.017030 -0.004587 -0.005212 0.000000 0.001310 0.000000
# 2 -0.004587 0.024570 -0.012875 0.000000 -0.011986 0.000000
# 3 -0.005212 -0.012875 0.023682 0.000000 0.021200 0.000000
# 4 0.000000 0.000000 0.000000 0.077080 0.000000 0.093988
# 5 0.001310 -0.011986 0.021200 0.000000 0.053757 0.000000
# 6 0.000000 0.000000 0.000000 0.093988 0.000000 0.203274
#
#
# Mechanical properties :
#
#
# Convention : Reuss Voigt Hill
#
# Bulk Modulus (GPa) = 50.15963 60.32766 55.24365
# Shear Modulus (GPa) = 11.07700 23.13606 17.10653
#
# Velocity S-wave (km/s) = 2.45075 3.54187 3.04557
# Velocity P-wave (km/s) = 5.93344 7.03116 6.50550
#
# Compressibility (1/GPa) = 0.01993635
#
# Stress axis : x y z
#
# Youngs Moduli (GPa) = 58.71932 40.69944 42.22608
#
# Poissons Ratio (x) = 0.18667 0.22007
# Poissons Ratio (y) = 0.26932 0.54365
# Poissons Ratio (z) = 0.30603 0.52400
#
# Static dielectric constant tensor:
#      x y z
#    x 1.654170 0.000000 -0.021580 
#    y 0.000000 1.607770 0.000000 
#    z -0.021580 0.000000 1.662440 
# 
# From -- ./inp_files/61095.got.cif
#   From: 2010.05.17/outbox.cif.g08.bks.cpg/sg10_31_cif.got.tgz:61095.got - 2010.06.03 11:33:40.
