data_PCOD9148019
_publ_section_title
;
Structure prediction by ZEFSAII (Michael W. Deem and Ramdas Pophale) SiO2 
 PCOD9148019
Probable space group: P 2/M
;
_chemical_formula_sum "Si O2"
_cell_formula_units_Z 28
_cell_length_a 13.685037
_cell_length_b 21.685449
_cell_length_c 5.221207
_cell_angle_alpha 90.000000
_cell_angle_beta 118.255707
_cell_angle_gamma 90.000000
_cell_volume 1364.847422
_symmetry_space_group_name_H-M "P 2/M"
_symmetry_group_IT_number 10
_symmetry_cell_setting 'monoclinic'
loop_
_space_group_symop_operation_xyz
x,y,z
-x,y,-z
-x,-y,-z
x,-y,z
loop_
_atom_site_type_symbol
_atom_site_label
_atom_site_fract_x
_atom_site_fract_y
_atom_site_fract_z
Si Si1 0.761761 0.727831 0.256646
Si Si2 0.565876 0.262075 0.337934
Si Si3 0.161023 0.500000 0.523516
Si Si4 0.133973 0.854568 0.683896
Si Si5 0.308351 0.500000 0.201021
Si Si6 0.108133 0.369089 0.288007
Si Si7 0.134640 0.929593 0.181380
Si Si8 0.661817 0.634136 0.735401
O O1 0.692676 0.752299 0.418451
O O2 0.812194 0.788325 0.194940
O O3 0.858193 0.681683 0.463305
O O4 0.680885 0.685183 0.981349
O O5 0.500000 0.235138 0.500000
O O6 0.582341 0.334783 0.426194
O O7 0.500000 0.248208 0.000000
O O8 0.260517 0.500000 0.432960
O O9 0.095505 0.437091 0.390971
O O10 0.209726 0.500000 0.868932
O O11 0.167333 0.885855 0.456954
O O12 0.000000 0.847682 0.500000
O O13 0.167475 0.900386 0.952509
O O14 0.369729 0.564868 0.229126
O O15 0.215518 0.372154 0.236486
O O16 0.000000 0.351311 0.000000
O O17 0.172383 0.000000 0.263308
O O18 0.000000 0.931138 0.000000
#
# Coordination Sequence:
#
# PCOD9148019 Si02
#       8
#     4   4   2   4   2   4   4   4
#     4  11  23  37  58  86 121 152 192 241 303 345
#     4  11  23  42  65  81 108 148 193 248 310 360
#     4  10  19  38  52  77 103 155 205 238 270 339
#     4  10  22  33  55  87 126 160 195 233 273 334
#     4  10  20  38  59  78 111 142 195 240 306 351
#     4  10  22  34  54  80 117 157 198 237 285 346
#     4   9  18  35  55  80 118 168 206 230 261 312
#     4  10  22  39  59  83 111 153 189 250 301 362
#
# _framework density 20.515111999999998
#
# number of rings (size 3 to 8) (size 9 to 14) (size 15 to 20)
#    0.000    1.857    2.857    0.643    6.000    2.286 
#    0.000    2.143    0.000    0.000    0.000    0.000 
#    0.000   11.429    0.000    0.000    0.000    0.000 
#
# Total GULP energy -156192.520833 kJ/mol
# GULP energy per Si atom -5578.304315 kJ/mol
# Density = 2.046842 g / cm^3
# Si number density = 20.515112 Si / 1000 Ang^3
#
#
#
# Elastic Constant Matrix: (Units=GPa)
#
#
# Indices 1 2 3 4 5 6 
#
# 1 42.7714 6.7338 4.9820 0.0000 -12.3024 0.0000
# 2 6.7338 120.0996 31.2121 0.0000 -5.3913 0.0000
# 3 4.9820 31.2121 94.3993 0.0000 -12.4290 0.0000
# 4 0.0000 0.0000 0.0000 31.3410 0.0000 -7.7935
# 5 -12.3024 -5.3913 -12.4290 0.0000 25.7242 0.0000
# 6 0.0000 0.0000 0.0000 -7.7935 0.0000 10.1497
#
#
#
# Elastic Compliance Matrix: (Units=1/GPa)
#
#
# Indices 1 2 3 4 5 6 
#
# 1 0.027251 -0.001110 0.000656 0.000000 0.013117 0.000000
# 2 -0.001110 0.009160 -0.002977 0.000000 -0.000049 0.000000
# 3 0.000656 -0.002977 0.012283 0.000000 0.005625 0.000000
# 4 0.000000 0.000000 0.000000 0.039437 0.000000 0.030282
# 5 0.013117 -0.000049 0.005625 0.000000 0.047854 0.000000
# 6 0.000000 0.000000 0.000000 0.030282 0.000000 0.121777
#
#
# Mechanical properties :
#
#
# Convention : Reuss Voigt Hill
#
# Bulk Modulus (GPa) = 23.90406 38.12513 31.01460
# Shear Modulus (GPa) = 17.94890 27.73247 22.84069
#
# Velocity S-wave (km/s) = 2.96110 3.68068 3.34032
# Velocity P-wave (km/s) = 4.83405 6.05702 5.47976
#
# Compressibility (1/GPa) = 0.04183389
#
# Stress axis : x y z
#
# Youngs Moduli (GPa) = 36.69552 109.17041 81.41052
#
# Poissons Ratio (x) = 0.12113 -0.05338
# Poissons Ratio (y) = 0.04071 0.24232
# Poissons Ratio (z) = -0.02406 0.32495
#
# Static dielectric constant tensor:
#      x y z
#    x 1.821590 0.000000 -0.025390 
#    y 0.000000 1.720250 0.000000 
#    z -0.025390 0.000000 1.765490 
# 
# From -- ./inp_files/9854.got.cif
#   From: 2010.05.17/outbox.cif.g08.bks.cpg/sg10_5_cif.got.tgz:9854.got - 2010.06.03 11:33:40.
