data_PCOD9148802
_publ_section_title
;
Structure prediction by ZEFSAII (Michael W. Deem and Ramdas Pophale) SiO2 
 PCOD9148802
Probable space group: P 2/M
;
_chemical_formula_sum "Si O2"
_cell_formula_units_Z 28
_cell_length_a 29.541826
_cell_length_b 8.944129
_cell_length_c 9.175081
_cell_angle_alpha 90.000000
_cell_angle_beta 38.737730
_cell_angle_gamma 90.000000
_cell_volume 1517.017630
_symmetry_space_group_name_H-M "P 2/M"
_symmetry_group_IT_number 10
_symmetry_cell_setting 'monoclinic'
loop_
_space_group_symop_operation_xyz
x,y,z
-x,y,-z
-x,-y,-z
x,-y,z
loop_
_atom_site_type_symbol
_atom_site_label
_atom_site_fract_x
_atom_site_fract_y
_atom_site_fract_z
Si Si1 0.652857 0.677791 0.461647
Si Si2 0.346874 0.180302 0.219967
Si Si3 0.073410 0.822349 0.224232
Si Si4 0.796240 0.320510 0.921219
Si Si5 0.073385 0.322228 0.907018
Si Si6 0.505140 0.827958 0.809928
Si Si7 0.203996 0.820407 0.397697
O O1 0.650169 0.500000 0.485783
O O2 0.664068 0.750485 0.592689
O O3 0.576082 0.735320 0.593535
O O4 0.719859 0.716178 0.189688
O O5 0.280384 0.216918 0.282559
O O6 0.350326 0.000000 0.227979
O O7 0.425889 0.227489 0.961446
O O8 0.139562 0.746311 0.142659
O O9 0.000000 0.799928 0.500000
O O10 0.086137 0.000000 0.178676
O O11 0.065921 0.749640 0.084584
O O12 0.803131 0.500000 0.895577
O O13 0.799682 0.249831 0.752855
O O14 0.085948 0.500000 0.888064
O O15 0.139689 0.245928 0.656549
O O16 0.000000 0.298998 0.000000
O O17 0.515044 0.000000 0.739105
O O18 0.500000 0.826557 0.000000
O O19 0.197620 0.000000 0.405798
#
# Coordination Sequence:
#
# PCOD9148802 Si02
#       7
#     4   4   4   4   4   4   4
#     4  10  20  33  53  82 111 143 185 230 277 332
#     4   9  19  35  55  81 110 142 183 231 282 334
#     4  11  24  41  63  90 117 147 188 235 277 324
#     4  11  24  40  57  81 116 153 189 231 283 340
#     4  11  24  41  62  88 119 153 186 225 278 337
#     4   8  15  30  52  77 107 142 181 227 278 332
#     4  11  23  39  60  84 112 148 192 238 281 330
#
# _framework density 18.457267000000002
#
# number of rings (size 3 to 8) (size 9 to 14) (size 15 to 20)
#    0.000    1.857    0.000    4.714    0.000   12.857 
#    0.000    0.714    0.000    4.286    0.000    0.000 
#    0.000    0.000    0.000    0.000    0.000    0.000 
#
# Total GULP energy -156424.511707 kJ/mol
# GULP energy per Si atom -5586.589704 kJ/mol
# Density = 1.841526 g / cm^3
# Si number density = 18.457267 Si / 1000 Ang^3
#
#
#
# Elastic Constant Matrix: (Units=GPa)
#
#
# Indices 1 2 3 4 5 6 
#
# 1 143.3441 75.0492 98.8809 0.0000 -4.8487 0.0000
# 2 75.0492 77.5187 81.9565 0.0000 -7.8113 0.0000
# 3 98.8809 81.9565 141.4775 0.0000 -9.9139 0.0000
# 4 0.0000 0.0000 0.0000 33.0777 0.0000 -1.9822
# 5 -4.8487 -7.8113 -9.9139 0.0000 32.9568 0.0000
# 6 0.0000 0.0000 0.0000 -1.9822 0.0000 27.1303
#
#
#
# Elastic Compliance Matrix: (Units=1/GPa)
#
#
# Indices 1 2 3 4 5 6 
#
# 1 0.015776 -0.009443 -0.005670 0.000000 -0.001623 0.000000
# 2 -0.009443 0.039086 -0.015824 0.000000 0.003115 0.000000
# 3 -0.005670 -0.015824 0.020305 0.000000 0.001523 0.000000
# 4 0.000000 0.000000 0.000000 0.030365 0.000000 0.002219
# 5 -0.001623 0.003115 0.001523 0.000000 0.031300 0.000000
# 6 0.000000 0.000000 0.000000 0.002219 0.000000 0.037021
#
#
# Mechanical properties :
#
#
# Convention : Reuss Voigt Hill
#
# Bulk Modulus (GPa) = 75.22659 97.12372 86.17515
# Shear Modulus (GPa) = 20.81960 25.72986 23.27473
#
# Velocity S-wave (km/s) = 3.36220 3.73771 3.55492
# Velocity P-wave (km/s) = 7.47784 8.44763 7.97749
#
# Compressibility (1/GPa) = 0.01329317
#
# Stress axis : x y z
#
# Youngs Moduli (GPa) = 63.38573 25.58470 49.24974
#
# Poissons Ratio (x) = 0.24159 0.27925
# Poissons Ratio (y) = 0.59853 0.77934
# Poissons Ratio (z) = 0.35940 0.40486
#
# Static dielectric constant tensor:
#      x y z
#    x 1.620070 0.000000 -0.023400 
#    y 0.000000 1.617490 0.000000 
#    z -0.023400 0.000000 1.620510 
# 
# From -- ./inp_files/37029.got.cif
#   From: 2010.05.17/outbox.cif.g08.bks.cpg/sg10_19_cif.got.tgz:37029.got - 2010.06.03 11:33:40.
