data_PCOD9148181
_publ_section_title
;
Structure prediction by ZEFSAII (Michael W. Deem and Ramdas Pophale) SiO2 
 PCOD9148181
Probable space group: P 2/M
;
_chemical_formula_sum "Si O2"
_cell_formula_units_Z 25
_cell_length_a 12.724106
_cell_length_b 7.782489
_cell_length_c 23.023963
_cell_angle_alpha 90.000000
_cell_angle_beta 42.770365
_cell_angle_gamma 90.000000
_cell_volume 1548.228700
_symmetry_space_group_name_H-M "P 2/M"
_symmetry_group_IT_number 10
_symmetry_cell_setting 'monoclinic'
loop_
_space_group_symop_operation_xyz
x,y,z
-x,y,-z
-x,-y,-z
x,-y,z
loop_
_atom_site_type_symbol
_atom_site_label
_atom_site_fract_x
_atom_site_fract_y
_atom_site_fract_z
Si Si1 0.425454 0.801530 0.788624
Si Si2 0.647748 0.500000 0.676502
Si Si3 0.920716 0.291208 0.092789
Si Si4 0.000000 0.500000 0.500000
Si Si5 0.804035 0.195920 0.788412
Si Si6 0.855990 0.300835 0.894264
Si Si7 0.553078 0.794756 0.083297
Si Si8 0.118451 0.500000 0.322956
O O1 0.543748 0.669059 0.711368
O O2 0.252976 0.777724 0.834502
O O3 0.419181 0.757363 0.859972
O O4 0.475245 0.000000 0.763413
O O5 0.710198 0.500000 0.717633
O O6 0.807617 0.500000 0.576409
O O7 0.914674 0.500000 0.094904
O O8 0.026435 0.236696 0.103972
O O9 0.000000 0.237170 0.000000
O O10 0.011711 0.500000 0.423194
O O11 0.861456 0.204919 0.831066
O O12 0.622587 0.248777 0.862181
O O13 0.892453 0.330378 0.711795
O O14 0.812426 0.000000 0.762866
O O15 0.891811 0.500000 0.867997
O O16 0.684596 0.289396 0.991005
O O17 0.569587 0.000000 0.068707
#
# Coordination Sequence:
#
# PCOD9148181 Si02
#       8
#     4   2   4   1   4   4   4   2
#     4  11  21  33  55  80 109 152 189 226 274 316
#     4  10  20  38  59  83 116 133 166 227 268 346
#     4  10  20  34  50  72 108 154 201 240 268 301
#     4   8  20  40  66  86 116 140 156 214 294 350
#     4  11  22  36  52  76 109 144 183 225 269 323
#     4  11  22  31  49  73 104 151 198 229 268 307
#     4  10  20  31  45  70 103 144 192 230 264 307
#     4  10  20  38  59  83 107 138 161 208 272 345
#
# _framework density 16.147485
#
# number of rings (size 3 to 8) (size 9 to 14) (size 15 to 20)
#    0.480    1.120    4.800    0.960    2.240    3.520 
#    0.000    1.600    0.000    0.000    0.000    2.240 
#    0.000    2.560    0.000    0.000    0.000    0.000 
#
# Total GULP energy -139180.656184 kJ/mol
# GULP energy per Si atom -5567.226247 kJ/mol
# Density = 1.611073 g / cm^3
# Si number density = 16.147485 Si / 1000 Ang^3
#
#
#
# Elastic Constant Matrix: (Units=GPa)
#
#
# Indices 1 2 3 4 5 6 
#
# 1 87.7915 20.7400 45.1492 0.0000 11.8124 0.0000
# 2 20.7400 68.0168 52.1424 0.0000 0.3635 0.0000
# 3 45.1492 52.1424 106.0689 0.0000 -3.9540 0.0000
# 4 0.0000 0.0000 0.0000 -0.4695 0.0000 1.4498
# 5 11.8124 0.3635 -3.9540 0.0000 20.7550 0.0000
# 6 0.0000 0.0000 0.0000 1.4498 0.0000 17.2854
#
#
#
# Elastic Compliance Matrix: (Units=1/GPa)
#
#
# Indices 1 2 3 4 5 6 
#
# 1 0.016799 0.001183 -0.008147 0.000000 -0.011134 0.000000
# 2 0.001183 0.023822 -0.012342 0.000000 -0.003442 0.000000
# 3 -0.008147 -0.012342 0.019281 0.000000 0.008526 0.000000
# 4 0.000000 0.000000 0.000000 -1.691711 0.000000 0.141892
# 5 -0.011134 -0.003442 0.008526 0.000000 0.056202 0.000000
# 6 0.000000 0.000000 0.000000 0.141892 0.000000 0.045951
#
#
# Mechanical properties :
#
#
# Convention : Reuss Voigt Hill
#
# Bulk Modulus (GPa) = 46.97393 55.32672 51.15033
# Shear Modulus (GPa) = -3.36939 17.10388 6.86724
#
# Velocity S-wave (km/s) = -1.44609 3.25811 2.06448
# Velocity P-wave (km/s) = 5.13473 6.96358 6.11788
#
# Compressibility (1/GPa) = 0.02128840
#
# Stress axis : x y z
#
# Youngs Moduli (GPa) = 59.52658 41.97858 51.86471
#
# Poissons Ratio (x) = -0.04965 0.42255
# Poissons Ratio (y) = -0.07040 0.64013
# Poissons Ratio (z) = 0.48498 0.51811
#
# Static dielectric constant tensor:
#      x y z
#    x 1.557170 0.000000 0.007440 
#    y 0.000000 1.575220 0.000000 
#    z 0.007440 0.000000 1.494210 
# 
# From -- ./inp_files/83191.got.cif
#   From: 2010.05.17/outbox.cif.g08.bks.cpg/sg10_42_cif.got.tgz:83191.got - 2010.06.03 11:33:40.
