data_PCOD9148430
_publ_section_title
;
Structure prediction by ZEFSAII (Michael W. Deem and Ramdas Pophale) SiO2 
 PCOD9148430
Probable space group: P 2/M
;
_chemical_formula_sum "Si O2"
_cell_formula_units_Z 32
_cell_length_a 15.434465
_cell_length_b 8.911876
_cell_length_c 23.327309
_cell_angle_alpha 90.000000
_cell_angle_beta 30.495976
_cell_angle_gamma 90.000000
_cell_volume 1628.330085
_symmetry_space_group_name_H-M "P 2/M"
_symmetry_group_IT_number 10
_symmetry_cell_setting 'monoclinic'
loop_
_space_group_symop_operation_xyz
x,y,z
-x,y,-z
-x,-y,-z
x,-y,z
loop_
_atom_site_type_symbol
_atom_site_label
_atom_site_fract_x
_atom_site_fract_y
_atom_site_fract_z
Si Si1 0.949878 0.820544 0.093256
Si Si2 0.516768 0.680461 0.925649
Si Si3 0.810353 0.177175 0.686847
Si Si4 0.567798 0.822164 0.716949
Si Si5 0.275077 0.320389 0.576015
Si Si6 0.825719 0.180534 0.478952
Si Si7 0.327275 0.320048 0.674146
Si Si8 0.278696 0.679761 0.957032
O O1 0.769893 0.759323 0.218778
O O2 0.949317 0.000000 0.095587
O O3 0.000000 0.774144 0.000000
O O4 0.096910 0.754189 0.050101
O O5 0.513774 0.500000 0.928241
O O6 0.693286 0.734770 0.798020
O O7 0.368550 0.727540 0.965530
O O8 0.500000 0.736213 0.000000
O O9 0.719855 0.193973 0.677061
O O10 0.006177 0.224522 0.581199
O O11 0.803347 0.000000 0.704180
O O12 0.653310 0.767706 0.609398
O O13 0.407040 0.734000 0.833550
O O14 0.524567 0.000000 0.737770
O O15 0.254989 0.500000 0.584272
O O16 0.163548 0.242040 0.591247
O O17 0.246119 0.276333 0.658577
O O18 0.472451 0.285709 0.447467
O O19 0.817427 0.000000 0.483148
O O20 0.311237 0.500000 0.689316
O O21 0.263882 0.500000 0.964688
#
# Coordination Sequence:
#
# PCOD9148430 Si02
#       8
#     4   4   4   4   4   4   4   4
#     4  11  25  41  59  85 116 148 187 235 287 337
#     4   9  19  36  56  78 107 143 181 224 274 326
#     4   9  18  33  51  75 107 144 182 219 264 319
#     4   9  18  34  54  75 110 150 182 222 270 321
#     4   9  20  38  59  83 110 144 184 228 279 331
#     4  10  20  32  52  82 111 142 183 224 269 326
#     4   9  20  41  62  80 109 146 185 228 277 334
#     4  10  21  37  57  82 110 145 188 229 278 335
#
# _framework density 19.652035000000001
#
# number of rings (size 3 to 8) (size 9 to 14) (size 15 to 20)
#    0.000    2.500    0.000    1.875    1.750    6.250 
#    0.000    5.000    0.000    3.750    0.000    0.000 
#    0.000    0.000    0.000    0.000    0.000    0.000 
#
# Total GULP energy -178581.094240 kJ/mol
# GULP energy per Si atom -5580.659195 kJ/mol
# Density = 1.960731 g / cm^3
# Si number density = 19.652035 Si / 1000 Ang^3
#
#
#
# Elastic Constant Matrix: (Units=GPa)
#
#
# Indices 1 2 3 4 5 6 
#
# 1 35.6948 11.6489 15.2483 0.0000 13.0737 0.0000
# 2 11.6489 11.6935 18.0601 0.0000 3.8673 0.0000
# 3 15.2483 18.0601 62.9559 0.0000 13.1303 0.0000
# 4 0.0000 0.0000 0.0000 20.2500 0.0000 -0.1751
# 5 13.0737 3.8673 13.1303 0.0000 31.8853 0.0000
# 6 0.0000 0.0000 0.0000 -0.1751 0.0000 28.6176
#
#
#
# Elastic Compliance Matrix: (Units=1/GPa)
#
#
# Indices 1 2 3 4 5 6 
#
# 1 0.048559 -0.053989 0.007125 0.000000 -0.016296 0.000000
# 2 -0.053989 0.213583 -0.051862 0.000000 0.017588 0.000000
# 3 0.007125 -0.051862 0.030995 0.000000 -0.009395 0.000000
# 4 0.000000 0.000000 0.000000 0.049385 0.000000 0.000302
# 5 -0.016296 0.017588 -0.009395 0.000000 0.039780 0.000000
# 6 0.000000 0.000000 0.000000 0.000302 0.000000 0.034945
#
#
# Mechanical properties :
#
#
# Convention : Reuss Voigt Hill
#
# Bulk Modulus (GPa) = 10.45086 22.25095 16.35091
# Shear Modulus (GPa) = 7.73280 20.50971 14.12125
#
# Velocity S-wave (km/s) = 1.98580 3.23405 2.68351
# Velocity P-wave (km/s) = 3.25382 5.02916 4.23556
#
# Compressibility (1/GPa) = 0.09568588
#
# Stress axis : x y z
#
# Youngs Moduli (GPa) = 20.59332 4.68201 32.26290
#
# Poissons Ratio (x) = 0.25278 -0.22988
# Poissons Ratio (y) = 1.11182 1.67322
# Poissons Ratio (z) = -0.14673 0.24282
#
# Static dielectric constant tensor:
#      x y z
#    x 1.712800 0.000000 -0.001270 
#    y 0.000000 1.654980 0.000000 
#    z -0.001270 0.000000 1.689330 
# 
# From -- ./inp_files/89558.got.cif
#   From: 2010.05.17/outbox.cif.g08.bks.cpg/sg10_45_cif.got.tgz:89558.got - 2010.06.03 11:33:40.
