data_PCOD9148452
_publ_section_title
;
Structure prediction by ZEFSAII (Michael W. Deem and Ramdas Pophale) SiO2 
 PCOD9148452
Probable space group: P 2/M
;
_chemical_formula_sum "Si O2"
_cell_formula_units_Z 24
_cell_length_a 10.433389
_cell_length_b 7.749644
_cell_length_c 22.671258
_cell_angle_alpha 90.000000
_cell_angle_beta 134.974819
_cell_angle_gamma 90.000000
_cell_volume 1296.756874
_symmetry_space_group_name_H-M "P 2/M"
_symmetry_group_IT_number 10
_symmetry_cell_setting 'monoclinic'
loop_
_space_group_symop_operation_xyz
x,y,z
-x,y,-z
-x,-y,-z
x,-y,z
loop_
_atom_site_type_symbol
_atom_site_label
_atom_site_fract_x
_atom_site_fract_y
_atom_site_fract_z
Si Si1 0.893085 0.196893 0.741895
Si Si2 0.542629 0.789232 0.697368
Si Si3 0.829086 0.798894 0.479733
Si Si4 0.200541 0.000000 0.895531
Si Si5 0.987331 0.301871 0.346215
Si Si6 0.532936 0.000000 0.911623
Si Si7 0.570345 0.297491 0.209233
O O1 0.724913 0.268445 0.723652
O O2 0.947587 0.289400 0.699755
O O3 0.842769 0.000000 0.706751
O O4 0.068793 0.162973 0.840095
O O5 0.365025 0.729862 0.603359
O O6 0.520754 0.723100 0.756621
O O7 0.549291 0.000000 0.702297
O O8 0.877786 0.787072 0.564170
O O9 0.000000 0.721376 0.500000
O O10 0.820989 0.000000 0.460229
O O11 0.356620 0.000000 0.896795
O O12 0.294632 0.000000 0.989222
O O13 0.981485 0.500000 0.362924
O O14 0.780677 0.236330 0.283294
O O15 0.522041 0.169770 0.867430
O O16 0.570469 0.500000 0.191779
#
# Coordination Sequence:
#
# PCOD9148452 Si02
#       7
#     4   4   4   2   4   2   4
#     4   9  19  38  59  81 112 148 194 226 294 349
#     4  10  20  36  58  85 114 155 192 240 284 339
#     4  10  20  32  54  81 111 147 201 241 278 325
#     4   9  20  37  65  90 109 150 186 241 299 345
#     4  11  22  35  54  81 117 156 192 242 287 335
#     4  11  20  39  67  90 116 143 196 241 292 350
#     4  11  22  36  60  90 118 153 193 239 290 344
#
# _framework density 18.507708999999998
#
# number of rings (size 3 to 8) (size 9 to 14) (size 15 to 20)
#    0.500    1.333    4.167    0.500    1.167    2.333 
#    0.000    7.500    0.000    1.000    0.000    0.000 
#    0.000    0.000    0.000    0.000    0.000    0.000 
#
# Total GULP energy -133798.736654 kJ/mol
# GULP energy per Si atom -5574.947361 kJ/mol
# Density = 1.846559 g / cm^3
# Si number density = 18.507709 Si / 1000 Ang^3
#
#
#
# Elastic Constant Matrix: (Units=GPa)
#
#
# Indices 1 2 3 4 5 6 
#
# 1 126.9239 4.5684 62.0416 0.0000 4.0200 0.0000
# 2 4.5684 46.6014 20.1007 0.0000 -3.1190 0.0000
# 3 62.0416 20.1007 142.0529 0.0000 -2.2429 0.0000
# 4 0.0000 0.0000 0.0000 -6.7871 0.0000 0.5701
# 5 4.0200 -3.1190 -2.2429 0.0000 24.0144 0.0000
# 6 0.0000 0.0000 0.0000 0.5701 0.0000 8.2323
#
#
#
# Elastic Compliance Matrix: (Units=1/GPa)
#
#
# Indices 1 2 3 4 5 6 
#
# 1 0.010154 0.000848 -0.004587 0.000000 -0.002018 0.000000
# 2 0.000848 0.023096 -0.003599 0.000000 0.002522 0.000000
# 3 -0.004587 -0.003599 0.009571 0.000000 0.001194 0.000000
# 4 0.000000 0.000000 0.000000 -0.146487 0.000000 0.010144
# 5 -0.002018 0.002522 0.001194 0.000000 0.042419 0.000000
# 6 0.000000 0.000000 0.000000 0.010144 0.000000 0.120770
#
#
# Mechanical properties :
#
#
# Convention : Reuss Voigt Hill
#
# Bulk Modulus (GPa) = 35.52822 54.33329 44.93076
# Shear Modulus (GPa) = 59.82255 20.34976 40.08616
#
# Velocity S-wave (km/s) = 5.69150 3.31951 4.65899
# Velocity P-wave (km/s) = 7.90121 6.64177 7.29870
#
# Compressibility (1/GPa) = 0.02814664
#
# Stress axis : x y z
#
# Youngs Moduli (GPa) = 98.48209 43.29660 104.48306
#
# Poissons Ratio (x) = -0.03671 0.47923
# Poissons Ratio (y) = -0.08350 0.37600
# Poissons Ratio (z) = 0.45170 0.15581
#
# Static dielectric constant tensor:
#      x y z
#    x 1.634880 0.000000 0.022610 
#    y 0.000000 1.662430 0.000000 
#    z 0.022610 0.000000 1.626140 
# 
# From -- ./inp_files/82076.got.cif
#   From: 2010.05.17/outbox.cif.g08.bks.cpg/sg10_42_cif.got.tgz:82076.got - 2010.06.03 11:33:40.
