data_PCOD9148015
_publ_section_title
;
Structure prediction by ZEFSAII (Michael W. Deem and Ramdas Pophale) SiO2 
 PCOD9148015
Probable space group: P 2/M
;
_chemical_formula_sum "Si O2"
_cell_formula_units_Z 15
_cell_length_a 7.384138
_cell_length_b 10.007089
_cell_length_c 14.873278
_cell_angle_alpha 90.000000
_cell_angle_beta 137.684448
_cell_angle_gamma 90.000000
_cell_volume 739.889590
_symmetry_space_group_name_H-M "P 2/M"
_symmetry_group_IT_number 10
_symmetry_cell_setting 'monoclinic'
loop_
_space_group_symop_operation_xyz
x,y,z
-x,y,-z
-x,-y,-z
x,-y,z
loop_
_atom_site_type_symbol
_atom_site_label
_atom_site_fract_x
_atom_site_fract_y
_atom_site_fract_z
Si Si1 0.500000 0.500000 0.000000
Si Si2 0.396638 0.000000 0.320861
Si Si3 0.942421 0.000000 0.291482
Si Si4 0.709619 0.292848 0.934187
Si Si5 0.254514 0.776054 0.643642
Si Si6 0.194353 0.000000 0.958385
O O1 0.655194 0.383902 0.998993
O O2 0.577164 0.128241 0.362609
O O3 0.243321 0.000000 0.360411
O O4 0.135660 0.000000 0.158881
O O5 0.767828 0.000000 0.135990
O O6 0.875405 0.873505 0.328482
O O7 0.470878 0.313908 0.774301
O O8 0.708807 0.136983 0.962361
O O9 0.000000 0.321481 0.000000
O O10 0.000000 0.711792 0.500000
#
# Coordination Sequence:
#
# PCOD9148015 Si02
#       6
#     1   2   2   4   4   2
#     4  12  30  42  70  96 118 172 220 262 316 368
#     4   9  18  34  55  97 132 166 196 256 329 356
#     4   9  18  32  50  90 133 160 198 248 304 381
#     4  12  23  45  67  94 130 162 213 267 315 377
#     4  11  22  34  58  92 130 168 204 252 320 381
#     4  10  19  37  70  97 121 166 207 265 320 349
#
# _framework density 20.273294
#
# number of rings (size 3 to 8) (size 9 to 14) (size 15 to 20)
#    0.800    0.533    2.667    5.600    0.000    3.733 
#    0.000    0.667    0.000    1.600    0.000    0.000 
#    0.000    0.000    0.000    0.000    0.000    0.000 
#
# Total GULP energy -83506.322299 kJ/mol
# GULP energy per Si atom -5567.088153 kJ/mol
# Density = 2.022715 g / cm^3
# Si number density = 20.273294 Si / 1000 Ang^3
#
#
#
# Elastic Constant Matrix: (Units=GPa)
#
#
# Indices 1 2 3 4 5 6 
#
# 1 197.8088 42.4850 13.5534 0.0000 17.1499 0.0000
# 2 42.4850 78.2706 9.5856 0.0000 8.2201 0.0000
# 3 13.5534 9.5856 130.1853 0.0000 18.4453 0.0000
# 4 0.0000 0.0000 0.0000 -7.7400 0.0000 0.0127
# 5 17.1499 8.2201 18.4453 0.0000 23.1035 0.0000
# 6 0.0000 0.0000 0.0000 0.0127 0.0000 17.9619
#
#
#
# Elastic Compliance Matrix: (Units=1/GPa)
#
#
# Indices 1 2 3 4 5 6 
#
# 1 0.005971 -0.002886 0.000083 0.000000 -0.003471 0.000000
# 2 -0.002886 0.014681 -0.000388 0.000000 -0.002771 0.000000
# 3 0.000083 -0.000388 0.008671 0.000000 -0.006846 0.000000
# 4 0.000000 0.000000 0.000000 -0.129199 0.000000 0.000091
# 5 -0.003471 -0.002771 -0.006846 0.000000 0.052312 0.000000
# 6 0.000000 0.000000 0.000000 0.000091 0.000000 0.055673
#
#
# Mechanical properties :
#
#
# Convention : Reuss Voigt Hill
#
# Bulk Modulus (GPa) = 43.59127 59.72365 51.65746
# Shear Modulus (GPa) = 225.83285 29.37444 127.60365
#
# Velocity S-wave (km/s) = 10.56580 3.81060 7.94219
# Velocity P-wave (km/s) = 13.05361 6.99172 10.47093
#
# Compressibility (1/GPa) = 0.02294037
#
# Stress axis : x y z
#
# Youngs Moduli (GPa) = 167.48734 68.11303 115.32239
#
# Poissons Ratio (x) = 0.19660 -0.00954
# Poissons Ratio (y) = 0.48344 0.04473
# Poissons Ratio (z) = -0.01386 0.02642
#
# Static dielectric constant tensor:
#      x y z
#    x 1.741420 0.000000 0.011840 
#    y 0.000000 1.638200 0.000000 
#    z 0.011840 0.000000 1.829890 
# 
# From -- ./inp_files/74535.got.cif
#   From: 2010.05.17/outbox.cif.g08.bks.cpg/sg10_38_cif.got.tgz:74535.got - 2010.06.03 11:33:40.
