data_PCOD9148334
_publ_section_title
;
Structure prediction by ZEFSAII (Michael W. Deem and Ramdas Pophale) SiO2 
 PCOD9148334
Probable space group: P 2/M
;
_chemical_formula_sum "Si O2"
_cell_formula_units_Z 32
_cell_length_a 21.823233
_cell_length_b 18.191695
_cell_length_c 23.923827
_cell_angle_alpha 90.000000
_cell_angle_beta 168.103589
_cell_angle_gamma 90.000000
_cell_volume 1957.903451
_symmetry_space_group_name_H-M "P 2/M"
_symmetry_group_IT_number 10
_symmetry_cell_setting 'monoclinic'
loop_
_space_group_symop_operation_xyz
x,y,z
-x,y,-z
-x,-y,-z
x,-y,z
loop_
_atom_site_type_symbol
_atom_site_label
_atom_site_fract_x
_atom_site_fract_y
_atom_site_fract_z
Si Si1 0.656106 0.581836 0.555116
Si Si2 0.811656 0.912882 0.889722
Si Si3 0.736597 0.588654 0.093011
Si Si4 0.928682 0.410419 0.499516
Si Si5 0.178617 0.304583 0.011397
Si Si6 0.316840 0.285524 0.261308
Si Si7 0.645943 0.583373 0.411641
Si Si8 0.216902 0.824157 0.336314
O O1 0.685308 0.500000 0.603266
O O2 0.384091 0.629845 0.335036
O O3 0.621414 0.577892 0.456778
O O4 0.943918 0.632291 0.819424
O O5 0.484701 0.875125 0.598625
O O6 0.779368 0.000000 0.869107
O O7 0.000000 0.903136 0.000000
O O8 0.011507 0.875637 0.115634
O O9 0.716811 0.500000 0.076937
O O10 0.836635 0.613549 0.244271
O O11 0.017667 0.603486 0.304325
O O12 0.405491 0.613713 0.782957
O O13 0.936182 0.500000 0.506591
O O14 0.000000 0.387575 0.500000
O O15 0.317153 0.277946 0.193969
O O16 0.424026 0.351049 0.196737
O O17 0.006474 0.234138 0.831627
O O18 0.587476 0.235640 0.522679
O O19 0.000000 0.262546 0.000000
O O20 0.578385 0.500000 0.328791
#
# Coordination Sequence:
#
# PCOD9148334 Si02
#       8
#     4   4   4   4   4   4   4   4
#     4   9  19  32  46  63  86 113 147 195 237 273
#     4  11  23  36  54  77  97 114 135 168 212 265
#     4   9  17  26  41  60  79 112 144 181 231 273
#     4   9  16  26  38  57  83 108 139 178 227 282
#     4  10  20  32  49  67  88 117 148 184 231 268
#     4  10  21  34  49  67  86 116 147 178 223 283
#     4   9  18  31  45  64  89 114 156 200 236 276
#     4  11  21  35  52  71  95 118 141 168 213 270
#
# _framework density 16.344011999999999
#
# number of rings (size 3 to 8) (size 9 to 14) (size 15 to 20)
#    0.000    2.250    1.250    1.875    3.500    4.750 
#    0.000    0.625    0.000    0.000    0.000    0.000 
#    0.000    0.000    0.000    0.000    0.000    0.000 
#
# Total GULP energy -178284.598548 kJ/mol
# GULP energy per Si atom -5571.393705 kJ/mol
# Density = 1.630681 g / cm^3
# Si number density = 16.344012 Si / 1000 Ang^3
#
#
#
# Elastic Constant Matrix: (Units=GPa)
#
#
# Indices 1 2 3 4 5 6 
#
# 1 27.4889 5.8987 6.6395 0.0000 0.2686 0.0000
# 2 5.8987 107.4163 37.3033 0.0000 -1.4429 0.0000
# 3 6.6395 37.3033 83.8181 0.0000 -6.9995 0.0000
# 4 0.0000 0.0000 0.0000 27.2187 0.0000 -5.3799
# 5 0.2686 -1.4429 -6.9995 0.0000 24.2784 0.0000
# 6 0.0000 0.0000 0.0000 -5.3799 0.0000 3.7507
#
#
#
# Elastic Compliance Matrix: (Units=1/GPa)
#
#
# Indices 1 2 3 4 5 6 
#
# 1 0.037254 -0.001185 -0.002525 0.000000 -0.001210 0.000000
# 2 -0.001185 0.011064 -0.004892 0.000000 -0.000740 0.000000
# 3 -0.002525 -0.004892 0.014638 0.000000 0.003957 0.000000
# 4 0.000000 0.000000 0.000000 0.051277 0.000000 0.073549
# 5 -0.001210 -0.000740 0.003957 0.000000 0.042299 0.000000
# 6 0.000000 0.000000 0.000000 0.073549 0.000000 0.372112
#
#
# Mechanical properties :
#
#
# Convention : Reuss Voigt Hill
#
# Bulk Modulus (GPa) = 21.85663 35.37849 28.61756
# Shear Modulus (GPa) = 8.91109 22.30832 15.60971
#
# Velocity S-wave (km/s) = 2.33753 3.69849 3.09378
# Velocity P-wave (km/s) = 4.54833 6.31915 5.50540
#
# Compressibility (1/GPa) = 0.04575271
#
# Stress axis : x y z
#
# Youngs Moduli (GPa) = 26.84251 90.38719 68.31482
#
# Poissons Ratio (x) = 0.10714 0.17247
# Poissons Ratio (y) = 0.03182 0.33418
# Poissons Ratio (z) = 0.06777 0.44215
#
# Static dielectric constant tensor:
#      x y z
#    x 1.600790 0.000000 -0.042550 
#    y 0.000000 1.575700 0.000000 
#    z -0.042550 0.000000 1.631030 
# 
# From -- ./inp_files/93951.got.cif
#   From: 2010.05.17/outbox.cif.g08.bks.cpg/sg10_47_cif.got.tgz:93951.got - 2010.06.03 11:33:40.
