data_PCOD9148796
_publ_section_title
;
Structure prediction by ZEFSAII (Michael W. Deem and Ramdas Pophale) SiO2 
 PCOD9148796
Probable space group: P 2/M
;
_chemical_formula_sum "Si O2"
_cell_formula_units_Z 32
_cell_length_a 11.259688
_cell_length_b 17.748782
_cell_length_c 24.366591
_cell_angle_alpha 90.000000
_cell_angle_beta 23.473547
_cell_angle_gamma 90.000000
_cell_volume 1939.670381
_symmetry_space_group_name_H-M "P 2/M"
_symmetry_group_IT_number 10
_symmetry_cell_setting 'monoclinic'
loop_
_space_group_symop_operation_xyz
x,y,z
-x,y,-z
-x,-y,-z
x,-y,z
loop_
_atom_site_type_symbol
_atom_site_label
_atom_site_fract_x
_atom_site_fract_y
_atom_site_fract_z
Si Si1 0.886775 0.086266 0.991814
Si Si2 0.342190 0.090601 0.507281
Si Si3 0.464465 0.584272 0.767669
Si Si4 0.694361 0.832563 0.772086
Si Si5 0.339003 0.730066 0.010681
Si Si6 0.248764 0.820386 0.753893
Si Si7 0.812619 0.583822 0.993277
Si Si8 0.314056 0.748110 0.341383
O O1 0.054608 0.119416 0.869195
O O2 0.966356 0.000000 0.960170
O O3 0.536387 0.098844 0.136585
O O4 0.000000 0.124670 0.000000
O O5 0.500000 0.095306 0.500000
O O6 0.545228 0.136642 0.377409
O O7 0.021700 0.133298 0.643778
O O8 0.313983 0.000000 0.506136
O O9 0.591423 0.500000 0.704599
O O10 0.355423 0.588103 0.877021
O O11 0.659055 0.657719 0.674290
O O12 0.162769 0.590818 0.859534
O O13 0.546251 0.782060 0.883144
O O14 0.671432 0.784812 0.725263
O O15 0.292659 0.650740 0.000281
O O16 0.500000 0.722114 0.000000
O O17 0.009047 0.765462 0.159646
O O18 0.440306 0.777781 0.719574
O O19 0.761421 0.500000 0.992061
O O20 0.000000 0.770397 0.500000
#
# Coordination Sequence:
#
# PCOD9148796 Si02
#       8
#     4   4   4   4   4   4   4   4
#     4  10  20  33  53  81 111 140 170 220 287 336
#     4  11  24  43  61  77 109 155 192 230 277 329
#     4   9  18  33  55  82 111 145 181 225 278 333
#     4  11  22  37  56  84 112 139 189 234 277 337
#     4  11  22  35  57  82 112 152 191 230 272 326
#     4  11  22  37  56  84 112 139 189 234 277 337
#     4   9  17  31  55  83 111 143 184 229 275 329
#     4  12  21  34  57  85 109 148 178 231 288 333
#
# _framework density 16.497648000000002
#
# number of rings (size 3 to 8) (size 9 to 14) (size 15 to 20)
#    0.000    1.500    5.000    2.250    0.000    0.500 
#    0.000    0.625    0.000    6.000    0.000    0.000 
#    0.000    8.000    0.000    0.000    0.000    0.000 
#
# Total GULP energy -178314.786990 kJ/mol
# GULP energy per Si atom -5572.337093 kJ/mol
# Density = 1.646010 g / cm^3
# Si number density = 16.497648 Si / 1000 Ang^3
#
#
#
# Elastic Constant Matrix: (Units=GPa)
#
#
# Indices 1 2 3 4 5 6 
#
# 1 100.1356 41.1865 33.7569 0.0000 -12.7456 0.0000
# 2 41.1865 92.5248 26.1076 0.0000 -8.7568 0.0000
# 3 33.7569 26.1076 94.1147 0.0000 -10.3953 0.0000
# 4 0.0000 0.0000 0.0000 23.2318 0.0000 -0.8333
# 5 -12.7456 -8.7568 -10.3953 0.0000 26.9109 0.0000
# 6 0.0000 0.0000 0.0000 -0.8333 0.0000 19.8327
#
#
#
# Elastic Compliance Matrix: (Units=1/GPa)
#
#
# Indices 1 2 3 4 5 6 
#
# 1 0.013456 -0.004772 -0.003103 0.000000 0.003622 0.000000
# 2 -0.004772 0.013605 -0.001904 0.000000 0.001431 0.000000
# 3 -0.003103 -0.001904 0.012572 0.000000 0.002767 0.000000
# 4 0.000000 0.000000 0.000000 0.043109 0.000000 0.001811
# 5 0.003622 0.001431 0.002767 0.000000 0.040410 0.000000
# 6 0.000000 0.000000 0.000000 0.001811 0.000000 0.050498
#
#
# Mechanical properties :
#
#
# Convention : Reuss Voigt Hill
#
# Bulk Modulus (GPa) = 49.81182 54.31970 52.06576
# Shear Modulus (GPa) = 25.01262 26.37669 25.69465
#
# Velocity S-wave (km/s) = 3.89798 4.00286 3.95077
# Velocity P-wave (km/s) = 7.10759 7.37299 7.24151
#
# Compressibility (1/GPa) = 0.02007556
#
# Stress axis : x y z
#
# Youngs Moduli (GPa) = 74.31642 73.50372 79.54091
#
# Poissons Ratio (x) = 0.35073 0.24679
# Poissons Ratio (y) = 0.35460 0.15148
# Poissons Ratio (z) = 0.23058 0.13998
#
# Static dielectric constant tensor:
#      x y z
#    x 1.554270 0.000000 -0.013140 
#    y 0.000000 1.559560 0.000000 
#    z -0.013140 0.000000 1.545960 
# 
# From -- ./inp_files/92898.got.cif
#   From: 2010.05.17/outbox.cif.g08.bks.cpg/sg10_47_cif.got.tgz:92898.got - 2010.06.03 11:33:40.
