data_PCOD9148737
_publ_section_title
;
Structure prediction by ZEFSAII (Michael W. Deem and Ramdas Pophale) SiO2 
 PCOD9148737
Probable space group: P 2/M
;
_chemical_formula_sum "Si O2"
_cell_formula_units_Z 20
_cell_length_a 15.588410
_cell_length_b 17.072281
_cell_length_c 8.764487
_cell_angle_alpha 90.000000
_cell_angle_beta 28.096912
_cell_angle_gamma 90.000000
_cell_volume 1098.519813
_symmetry_space_group_name_H-M "P 2/M"
_symmetry_group_IT_number 10
_symmetry_cell_setting 'monoclinic'
loop_
_space_group_symop_operation_xyz
x,y,z
-x,y,-z
-x,-y,-z
x,-y,z
loop_
_atom_site_type_symbol
_atom_site_label
_atom_site_fract_x
_atom_site_fract_y
_atom_site_fract_z
Si Si1 0.814018 0.089894 0.203443
Si Si2 0.501527 0.200645 0.816497
Si Si3 0.802057 0.500000 0.228173
Si Si4 0.499324 0.383843 0.816707
Si Si5 0.318447 0.087785 0.895221
Si Si6 0.210740 0.500000 0.120238
O O1 0.678897 0.155110 0.478625
O O2 0.837411 0.100383 0.985193
O O3 0.743453 0.000000 0.335704
O O4 0.000000 0.095392 0.000000
O O5 0.498705 0.291972 0.780578
O O6 0.339469 0.153227 0.988879
O O7 0.500000 0.193869 0.000000
O O8 0.682044 0.425752 0.470452
O O9 0.797115 0.500000 0.051655
O O10 0.000000 0.500000 0.000000
O O11 0.500000 0.393505 0.000000
O O12 0.327409 0.427273 0.007186
O O13 0.500000 0.090836 0.500000
O O14 0.305766 0.000000 0.978659
O O15 0.000000 0.500000 0.500000
#
# Coordination Sequence:
#
# PCOD9148737 Si02
#       6
#     4   4   2   4   4   2
#     4   9  18  33  52  74 103 141 183 224 265 312
#     4  10  20  33  52  78 106 137 173 218 268 315
#     4  11  22  37  60  84 106 143 182 215 272 332
#     4  10  21  38  56  81 114 142 180 228 270 325
#     4   8  15  29  49  71  98 136 175 209 252 307
#     4  11  22  39  62  84 108 141 178 223 276 328
#
# _framework density 18.206316999999999
#
# number of rings (size 3 to 8) (size 9 to 14) (size 15 to 20)
#    0.000    2.400    0.000    5.400    0.000    7.200 
#    0.000    5.000    0.000    3.600    0.000    0.000 
#    0.000    0.000    0.000    0.000    0.000    0.000 
#
# Total GULP energy -111442.085491 kJ/mol
# GULP energy per Si atom -5572.104275 kJ/mol
# Density = 1.816488 g / cm^3
# Si number density = 18.206317 Si / 1000 Ang^3
#
#
#
# Elastic Constant Matrix: (Units=GPa)
#
#
# Indices 1 2 3 4 5 6 
#
# 1 166.1032 101.1876 55.8426 0.0000 -20.0443 0.0000
# 2 101.1876 188.5195 57.1852 0.0000 2.3940 0.0000
# 3 55.8426 57.1852 71.4733 0.0000 -9.4648 0.0000
# 4 0.0000 0.0000 0.0000 11.5804 0.0000 9.8214
# 5 -20.0443 2.3940 -9.4648 0.0000 33.1857 0.0000
# 6 0.0000 0.0000 0.0000 9.8214 0.0000 29.3278
#
#
#
# Elastic Compliance Matrix: (Units=1/GPa)
#
#
# Indices 1 2 3 4 5 6 
#
# 1 0.010954 -0.004742 -0.003994 0.000000 0.005819 0.000000
# 2 -0.004742 0.009213 -0.004296 0.000000 -0.004754 0.000000
# 3 -0.003994 -0.004296 0.021066 0.000000 0.003906 0.000000
# 4 0.000000 0.000000 0.000000 0.120607 0.000000 -0.040389
# 5 0.005819 -0.004754 0.003906 0.000000 0.035105 0.000000
# 6 0.000000 0.000000 0.000000 -0.040389 0.000000 0.047623
#
#
# Mechanical properties :
#
#
# Convention : Reuss Voigt Hill
#
# Bulk Modulus (GPa) = 65.92105 94.94743 80.43424
# Shear Modulus (GPa) = 18.13635 28.94414 23.54024
#
# Velocity S-wave (km/s) = 3.15962 3.99154 3.59969
# Velocity P-wave (km/s) = 7.04254 8.57363 7.84552
#
# Compressibility (1/GPa) = 0.01516966
#
# Stress axis : x y z
#
# Youngs Moduli (GPa) = 91.29055 108.53889 47.46953
#
# Poissons Ratio (x) = 0.51469 0.18959
# Poissons Ratio (y) = 0.43290 0.20393
# Poissons Ratio (z) = 0.36460 0.46629
#
# Static dielectric constant tensor:
#      x y z
#    x 1.678160 0.000000 -0.020980 
#    y 0.000000 1.614440 0.000000 
#    z -0.020980 0.000000 1.642230 
# 
# From -- ./inp_files/29967.got.cif
#   From: 2010.05.17/outbox.cif.g08.bks.cpg/sg10_15_cif.got.tgz:29967.got - 2010.06.03 11:33:40.
