data_PCOD9148759
_publ_section_title
;
Structure prediction by ZEFSAII (Michael W. Deem and Ramdas Pophale) SiO2 
 PCOD9148759
Probable space group: P 2/M
;
_chemical_formula_sum "Si O2"
_cell_formula_units_Z 18
_cell_length_a 12.138893
_cell_length_b 9.322437
_cell_length_c 15.930065
_cell_angle_alpha 90.000000
_cell_angle_beta 26.378250
_cell_angle_gamma 90.000000
_cell_volume 800.935675
_symmetry_space_group_name_H-M "P 2/M"
_symmetry_group_IT_number 10
_symmetry_cell_setting 'monoclinic'
loop_
_space_group_symop_operation_xyz
x,y,z
-x,y,-z
-x,-y,-z
x,-y,z
loop_
_atom_site_type_symbol
_atom_site_label
_atom_site_fract_x
_atom_site_fract_y
_atom_site_fract_z
Si Si1 0.983838 0.841319 0.912987
Si Si2 0.500000 0.752320 0.500000
Si Si3 0.288050 0.170782 0.313878
Si Si4 0.243057 0.663187 0.507751
Si Si5 0.269374 0.330918 0.054466
O O1 0.263206 0.841973 0.688887
O O2 0.871694 0.000000 0.974625
O O3 0.000000 0.813528 0.000000
O O4 0.846099 0.718208 0.955893
O O5 0.404076 0.668018 0.483269
O O6 0.345287 0.228160 0.368672
O O7 0.472635 0.245490 0.121577
O O8 0.000000 0.211782 0.500000
O O9 0.308037 0.000000 0.293990
O O10 0.245334 0.500000 0.473275
O O11 0.958490 0.702264 0.726992
O O12 0.316041 0.500000 0.027088
#
# Coordination Sequence:
#
# PCOD9148759 Si02
#       5
#     4   2   4   4   4
#     4  10  20  33  52  81 118 158 198 239 287 348
#     4  10  20  34  58  90 122 156 196 240 292 350
#     4  11  25  43  63  88 119 157 201 250 302 355
#     4  10  22  40  63  91 123 159 199 245 297 354
#     4  10  22  39  60  87 118 154 197 246 299 354
#
# _framework density 22.473714000000001
#
# number of rings (size 3 to 8) (size 9 to 14) (size 15 to 20)
#    0.000    1.778    0.000    3.333    0.000   11.111 
#    0.000    4.444    0.000    0.000    0.000    0.000 
#    0.000    0.000    0.000    0.000    0.000    0.000 
#
# Total GULP energy -100574.969729 kJ/mol
# GULP energy per Si atom -5587.498318 kJ/mol
# Density = 2.242256 g / cm^3
# Si number density = 22.473714 Si / 1000 Ang^3
#
#
#
# Elastic Constant Matrix: (Units=GPa)
#
#
# Indices 1 2 3 4 5 6 
#
# 1 53.3272 -0.9663 9.3912 0.0000 -0.7572 0.0000
# 2 -0.9663 67.2460 31.8495 0.0000 12.6501 0.0000
# 3 9.3912 31.8495 131.7940 0.0000 -7.1646 0.0000
# 4 0.0000 0.0000 0.0000 39.0731 0.0000 19.6984
# 5 -0.7572 12.6501 -7.1646 0.0000 37.4253 0.0000
# 6 0.0000 0.0000 0.0000 19.6984 0.0000 136.5016
#
#
#
# Elastic Compliance Matrix: (Units=1/GPa)
#
#
# Indices 1 2 3 4 5 6 
#
# 1 0.019057 0.001109 -0.001642 0.000000 -0.000304 0.000000
# 2 0.001109 0.018595 -0.004965 0.000000 -0.007213 0.000000
# 3 -0.001642 -0.004965 0.009088 0.000000 0.003385 0.000000
# 4 0.000000 0.000000 0.000000 0.027601 0.000000 -0.003983
# 5 -0.000304 -0.007213 0.003385 0.000000 0.029800 0.000000
# 6 0.000000 0.000000 0.000000 -0.003983 0.000000 0.007901
#
#
# Mechanical properties :
#
#
# Convention : Reuss Voigt Hill
#
# Bulk Modulus (GPa) = 27.97681 36.99067 32.48374
# Shear Modulus (GPa) = 37.04963 56.73951 46.89457
#
# Velocity S-wave (km/s) = 4.06467 5.03010 4.57293
# Velocity P-wave (km/s) = 5.87405 7.08739 6.50905
#
# Compressibility (1/GPa) = 0.03574389
#
# Stress axis : x y z
#
# Youngs Moduli (GPa) = 52.47368 53.77744 110.02977
#
# Poissons Ratio (x) = -0.05963 0.18072
# Poissons Ratio (y) = -0.05819 0.54628
# Poissons Ratio (z) = 0.08618 0.26700
#
# Static dielectric constant tensor:
#      x y z
#    x 1.863340 0.000000 -0.046640 
#    y 0.000000 1.770740 0.000000 
#    z -0.046640 0.000000 1.852460 
# 
# From -- ./inp_files/84585.got.cif
#   From: 2010.05.17/outbox.cif.g08.bks.cpg/sg10_43_cif.got.tgz:84585.got - 2010.06.03 11:33:40.
