data_PCOD9148987
_publ_section_title
;
Structure prediction by ZEFSAII (Michael W. Deem and Ramdas Pophale) SiO2 
 PCOD9148987
Probable space group: P 2/M
;
_chemical_formula_sum "Si O2"
_cell_formula_units_Z 24
_cell_length_a 11.450868
_cell_length_b 9.027865
_cell_length_c 24.130908
_cell_angle_alpha 90.000000
_cell_angle_beta 35.154114
_cell_angle_gamma 90.000000
_cell_volume 1436.322545
_symmetry_space_group_name_H-M "P 2/M"
_symmetry_group_IT_number 10
_symmetry_cell_setting 'monoclinic'
loop_
_space_group_symop_operation_xyz
x,y,z
-x,y,-z
-x,-y,-z
x,-y,z
loop_
_atom_site_type_symbol
_atom_site_label
_atom_site_fract_x
_atom_site_fract_y
_atom_site_fract_z
Si Si1 0.200551 0.823505 0.848512
Si Si2 0.031737 0.178197 0.721627
Si Si3 0.405183 0.324238 0.097346
Si Si4 0.352206 0.675739 0.681452
Si Si5 0.337611 0.169746 0.512370
Si Si6 0.732070 0.823271 0.048847
O O1 0.319995 0.734095 0.755904
O O2 0.269654 0.793604 0.884630
O O3 0.221766 0.000000 0.830481
O O4 0.959926 0.788739 0.939466
O O5 0.806564 0.239152 0.814578
O O6 0.175536 0.249617 0.712636
O O7 0.130845 0.215274 0.623209
O O8 0.038890 0.000000 0.724534
O O9 0.372202 0.500000 0.115781
O O10 0.565032 0.266225 0.080368
O O11 0.500000 0.295921 0.000000
O O12 0.334560 0.500000 0.685195
O O13 0.564578 0.729188 0.572512
O O14 0.500000 0.170047 0.500000
O O15 0.321449 0.000000 0.498920
O O16 0.701374 0.000000 0.053148
#
# Coordination Sequence:
#
# PCOD9148987 Si02
#       6
#     4   4   4   4   4   4
#     4   9  18  34  54  74  98 129 168 209 243 285
#     4  10  20  34  52  72  98 134 171 206 244 288
#     4  11  23  35  49  74 106 135 162 197 246 300
#     4  11  20  29  48  78 106 131 161 200 251 300
#     4   8  16  31  49  70  96 128 166 205 245 289
#     4   9  19  35  54  74  96 130 172 207 242 285
#
# _framework density 16.709339
#
# number of rings (size 3 to 8) (size 9 to 14) (size 15 to 20)
#    0.000    2.333    0.000    5.500    0.000    9.000 
#    0.000    1.667    0.000    1.000    0.000    7.000 
#    0.000    0.000    0.000    0.000    0.000    0.000 
#
# Total GULP energy -133899.648392 kJ/mol
# GULP energy per Si atom -5579.152016 kJ/mol
# Density = 1.667131 g / cm^3
# Si number density = 16.709339 Si / 1000 Ang^3
#
#
#
# Elastic Constant Matrix: (Units=GPa)
#
#
# Indices 1 2 3 4 5 6 
#
# 1 47.1280 39.9374 43.0156 0.0000 -0.7115 0.0000
# 2 39.9374 84.0346 79.8730 0.0000 9.6919 0.0000
# 3 43.0156 79.8730 137.1786 0.0000 11.3282 0.0000
# 4 0.0000 0.0000 0.0000 -718.5859 0.0000-1761.2461
# 5 -0.7115 9.6919 11.3282 0.0000 22.6320 0.0000
# 6 0.0000 0.0000 0.0000-1761.2461 0.0000-4181.7874
#
#
#
# Elastic Compliance Matrix: (Units=1/GPa)
#
#
# Indices 1 2 3 4 5 6 
#
# 1 0.037989 -0.015877 -0.003471 0.000000 0.009731 0.000000
# 2 -0.015877 0.033600 -0.013931 0.000000 -0.007915 0.000000
# 3 -0.003471 -0.013931 0.016696 0.000000 -0.002500 0.000000
# 4 0.000000 0.000000 0.000000 0.043105 0.000000 -0.018155
# 5 0.009731 -0.007915 -0.002500 0.000000 0.049132 0.000000
# 6 0.000000 0.000000 0.000000 -0.018155 0.000000 0.007407
#
#
# Mechanical properties :
#
#
# Convention : Reuss Voigt Hill
#
# Bulk Modulus (GPa) = 46.02924 65.99924 56.01424
# Shear Modulus (GPa) = 19.10363 -968.51394 -474.70516
#
# Velocity S-wave (km/s) = 3.38493 -24.10151 -16.87342
# Velocity P-wave (km/s) = 6.54857 27.10952 18.60164
#
# Compressibility (1/GPa) = 0.02172532
#
# Stress axis : x y z
#
# Youngs Moduli (GPa) = 26.32358 29.76218 59.89287
#
# Poissons Ratio (x) = 0.47253 0.20791
# Poissons Ratio (y) = 0.41794 0.83439
# Poissons Ratio (z) = 0.09138 0.41463
#
# Static dielectric constant tensor:
#      x y z
#    x 1.535620 0.000000 0.007120 
#    y 0.000000 1.552010 0.000000 
#    z 0.007120 0.000000 1.576160 
# 
# From -- ./inp_files/56523.got.cif
#   From: 2010.05.17/outbox.cif.g08.bks.cpg/sg10_29_cif.got.tgz:56523.got - 2010.06.03 11:33:40.
