data_PCOD9148854
_publ_section_title
;
Structure prediction by ZEFSAII (Michael W. Deem and Ramdas Pophale) SiO2 
 PCOD9148854
Probable space group: P 2/M
;
_chemical_formula_sum "Si O2"
_cell_formula_units_Z 26
_cell_length_a 8.552501
_cell_length_b 9.966399
_cell_length_c 22.222535
_cell_angle_alpha 90.000000
_cell_angle_beta 45.208555
_cell_angle_gamma 90.000000
_cell_volume 1344.265596
_symmetry_space_group_name_H-M "P 2/M"
_symmetry_group_IT_number 10
_symmetry_cell_setting 'monoclinic'
loop_
_space_group_symop_operation_xyz
x,y,z
-x,y,-z
-x,-y,-z
x,-y,z
loop_
_atom_site_type_symbol
_atom_site_label
_atom_site_fract_x
_atom_site_fract_y
_atom_site_fract_z
Si Si1 0.226749 0.338301 0.466182
Si Si2 0.356333 0.652283 0.226970
Si Si3 0.705898 0.849509 0.188054
Si Si4 0.000000 0.780470 0.000000
Si Si5 0.159215 0.344464 0.614587
Si Si6 0.579925 0.657082 0.043171
Si Si7 0.702644 0.339927 0.292569
O O1 0.202178 0.500000 0.479044
O O2 0.254773 0.286784 0.526883
O O3 0.438364 0.320019 0.367294
O O4 0.000000 0.286029 0.500000
O O5 0.441157 0.500000 0.217942
O O6 0.495727 0.767729 0.220509
O O7 0.390008 0.670072 0.145928
O O8 0.105269 0.656528 0.316213
O O9 0.799740 0.752374 0.214336
O O10 0.656448 0.000000 0.222632
O O11 0.870882 0.855973 0.087307
O O12 0.196145 0.705743 0.984132
O O13 0.235101 0.500000 0.597419
O O14 0.220773 0.289858 0.662844
O O15 0.617461 0.500000 0.022439
O O16 0.500000 0.715299 0.000000
O O17 0.749952 0.500000 0.272296
#
# Coordination Sequence:
#
# PCOD9148854 Si02
#       7
#     4   4   4   2   4   4   4
#     4   9  16  28  50  82 115 145 178 220 267 322
#     4   9  18  34  55  80 107 141 182 226 277 331
#     4  11  23  39  57  77 108 145 188 234 281 333
#     4  10  22  38  58  76 109 152 195 234 287 340
#     4   9  17  30  53  84 116 143 178 226 272 324
#     4   9  18  31  53  85 117 143 180 234 289 340
#     4  10  20  33  55  84 112 144 182 225 277 330
#
# _framework density 19.341417
#
# number of rings (size 3 to 8) (size 9 to 14) (size 15 to 20)
#    0.000    2.462    0.000    2.308    2.154    6.154 
#    0.000    0.769    0.000    8.308    0.000    0.000 
#    0.000    0.000    0.000    0.000    0.000    0.000 
#
# Total GULP energy -144782.641438 kJ/mol
# GULP energy per Si atom -5568.563132 kJ/mol
# Density = 1.929740 g / cm^3
# Si number density = 19.341417 Si / 1000 Ang^3
#
#
#
# Elastic Constant Matrix: (Units=GPa)
#
#
# Indices 1 2 3 4 5 6 
#
# 1 66.3893 21.2158 23.4585 0.0000 22.8293 0.0000
# 2 21.2158 64.9176 35.4987 0.0000 11.7157 0.0000
# 3 23.4585 35.4987 83.0672 0.0000 22.9958 0.0000
# 4 0.0000 0.0000 0.0000 0.7446 0.0000 0.0883
# 5 22.8293 11.7157 22.9958 0.0000 35.2855 0.0000
# 6 0.0000 0.0000 0.0000 0.0883 0.0000 -8.8584
#
#
#
# Elastic Compliance Matrix: (Units=1/GPa)
#
#
# Indices 1 2 3 4 5 6 
#
# 1 0.020630 -0.004209 -0.000878 0.000000 -0.011378 0.000000
# 2 -0.004209 0.021010 -0.008068 0.000000 0.001005 0.000000
# 3 -0.000878 -0.008068 0.018101 0.000000 -0.008550 0.000000
# 4 0.000000 0.000000 0.000000 1.341372 0.000000 0.013377
# 5 -0.011378 0.001005 -0.008550 0.000000 0.040940 0.000000
# 6 0.000000 0.000000 0.000000 0.013377 0.000000 -0.112754
#
#
# Mechanical properties :
#
#
# Convention : Reuss Voigt Hill
#
# Bulk Modulus (GPa) = 29.91141 41.63557 35.77349
# Shear Modulus (GPa) = 3.65830 14.38109 9.01970
#
# Velocity S-wave (km/s) = 1.37679 2.72975 2.16184
# Velocity P-wave (km/s) = 4.24569 5.61326 4.97668
#
# Compressibility (1/GPa) = 0.03343206
#
# Stress axis : x y z
#
# Youngs Moduli (GPa) = 48.47214 47.59578 55.24487
#
# Poissons Ratio (x) = 0.20033 0.04848
# Poissons Ratio (y) = 0.20402 0.44574
# Poissons Ratio (z) = 0.04254 0.38402
#
# Static dielectric constant tensor:
#      x y z
#    x 1.745990 0.000000 0.026530 
#    y 0.000000 1.630050 0.000000 
#    z 0.026530 0.000000 1.717090 
# 
# From -- ./inp_files/34289.got.cif
#   From: 2010.05.17/outbox.cif.g08.bks.cpg/sg10_18_cif.got.tgz:34289.got - 2010.06.03 11:33:40.
