data_PCOD9148307
_publ_section_title
;
Structure prediction by ZEFSAII (Michael W. Deem and Ramdas Pophale) SiO2 
 PCOD9148307
Probable space group: P 2/M
;
_chemical_formula_sum "Si O2"
_cell_formula_units_Z 32
_cell_length_a 11.429705
_cell_length_b 7.462562
_cell_length_c 19.945451
_cell_angle_alpha 90.000000
_cell_angle_beta 118.045690
_cell_angle_gamma 90.000000
_cell_volume 1501.472701
_symmetry_space_group_name_H-M "P 2/M"
_symmetry_group_IT_number 10
_symmetry_cell_setting 'monoclinic'
loop_
_space_group_symop_operation_xyz
x,y,z
-x,y,-z
-x,-y,-z
x,-y,z
loop_
_atom_site_type_symbol
_atom_site_label
_atom_site_fract_x
_atom_site_fract_y
_atom_site_fract_z
Si Si1 0.062913 0.289671 0.761988
Si Si2 0.247053 0.713035 0.693570
Si Si3 0.198109 0.217086 0.386933
Si Si4 0.450923 0.717059 0.231975
Si Si5 0.757377 0.215592 0.457075
Si Si6 0.544223 0.790726 0.616281
Si Si7 0.944263 0.281010 0.089596
Si Si8 0.207037 0.718192 0.080508
O O1 0.095203 0.500000 0.776419
O O2 0.156476 0.213068 0.728659
O O3 0.075735 0.215335 0.840344
O O4 0.913768 0.275660 0.694644
O O5 0.255396 0.500000 0.704865
O O6 0.398270 0.782481 0.736432
O O7 0.192877 0.739288 0.603604
O O8 0.169668 0.275081 0.455662
O O9 0.343360 0.281467 0.402615
O O10 0.200027 0.000000 0.385971
O O11 0.453100 0.500000 0.232054
O O12 0.405515 0.773441 0.293930
O O13 0.346685 0.778004 0.148166
O O14 0.604991 0.283736 0.422802
O O15 0.754178 0.000000 0.457747
O O16 0.529409 0.000000 0.595016
O O17 0.944788 0.500000 0.090857
O O18 0.086765 0.228442 0.097365
O O19 0.834387 0.225643 0.005404
O O20 0.208811 0.500000 0.080632
#
# Coordination Sequence:
#
# PCOD9148307 Si02
#       8
#     4   4   4   4   4   4   4   4
#     4  10  20  33  47  64  91 125 156 186 225 268
#     4   9  19  33  46  64  92 122 153 192 228 258
#     4  10  20  32  48  70  92 115 149 191 229 270
#     4   9  16  28  47  69  92 120 154 187 220 262
#     4   9  18  33  51  68  88 118 152 185 226 274
#     4   9  17  30  48  70  95 118 142 181 232 277
#     4   8  14  25  42  66  93 118 145 180 223 269
#     4   8  13  23  43  69  92 114 145 184 222 264
#
# _framework density 21.312408000000001
#
# number of rings (size 3 to 8) (size 9 to 14) (size 15 to 20)
#    0.000    3.000    0.000    1.875    0.000    4.500 
#    0.000    3.125    0.000    8.250    0.000    3.500 
#    0.000    5.000    0.000    0.000    0.000    0.000 
#
# Total GULP energy -178538.233377 kJ/mol
# GULP energy per Si atom -5579.319793 kJ/mol
# Density = 2.126390 g / cm^3
# Si number density = 21.312408 Si / 1000 Ang^3
#
#
#
# Elastic Constant Matrix: (Units=GPa)
#
#
# Indices 1 2 3 4 5 6 
#
# 1 65.3408 1.2006 33.6897 0.0000 -41.1501 0.0000
# 2 1.2006 62.7488 -3.6924 0.0000 -4.1140 0.0000
# 3 33.6897 -3.6924 132.2642 0.0000 -42.0268 0.0000
# 4 0.0000 0.0000 0.0000 12.6437 0.0000 -4.5840
# 5 -41.1501 -4.1140 -42.0268 0.0000 30.6250 0.0000
# 6 0.0000 0.0000 0.0000 -4.5840 0.0000 8.9209
#
#
#
# Elastic Compliance Matrix: (Units=1/GPa)
#
#
# Indices 1 2 3 4 5 6 
#
# 1 0.445146 0.052367 0.142507 0.000000 0.800729 0.000000
# 2 0.052367 0.022547 0.018816 0.000000 0.099213 0.000000
# 3 0.142507 0.018816 0.059285 0.000000 0.275367 0.000000
# 4 0.000000 0.000000 0.000000 0.097199 0.000000 0.049945
# 5 0.800729 0.099213 0.275367 0.000000 1.499787 0.000000
# 6 0.000000 0.000000 0.000000 0.049945 0.000000 0.137761
#
#
# Mechanical properties :
#
#
# Convention : Reuss Voigt Hill
#
# Bulk Modulus (GPa) = 1.04783 35.86110 18.45446
# Shear Modulus (GPa) = 2.32292 25.71498 14.01895
#
# Velocity S-wave (km/s) = 1.04513 3.47734 2.56751
# Velocity P-wave (km/s) = 1.39611 5.74330 4.17939
#
# Compressibility (1/GPa) = 0.95435534
#
# Stress axis : x y z
#
# Youngs Moduli (GPa) = 2.24645 44.35274 16.86779
#
# Poissons Ratio (x) = -2.32260 -2.40377
# Poissons Ratio (y) = -0.11764 -0.31738
# Poissons Ratio (z) = -0.32013 -0.83453
#
# Static dielectric constant tensor:
#      x y z
#    x 1.765770 0.000000 -0.007270 
#    y 0.000000 1.831900 0.000000 
#    z -0.007270 0.000000 1.760180 
# 
# From -- ./inp_files/83392.got.cif
#   From: 2010.05.17/outbox.cif.g08.bks.cpg/sg10_42_cif.got.tgz:83392.got - 2010.06.03 11:33:40.
