data_PCOD9148426
_publ_section_title
;
Structure prediction by ZEFSAII (Michael W. Deem and Ramdas Pophale) SiO2 
 PCOD9148426
Probable space group: P 2/M
;
_chemical_formula_sum "Si O2"
_cell_formula_units_Z 24
_cell_length_a 11.186729
_cell_length_b 13.191457
_cell_length_c 17.358782
_cell_angle_alpha 90.000000
_cell_angle_beta 32.045592
_cell_angle_gamma 90.000000
_cell_volume 1359.181319
_symmetry_space_group_name_H-M "P 2/M"
_symmetry_group_IT_number 10
_symmetry_cell_setting 'monoclinic'
loop_
_space_group_symop_operation_xyz
x,y,z
-x,y,-z
-x,-y,-z
x,-y,z
loop_
_atom_site_type_symbol
_atom_site_label
_atom_site_fract_x
_atom_site_fract_y
_atom_site_fract_z
Si Si1 0.057616 0.195569 0.646162
Si Si2 0.510205 0.882961 0.669211
Si Si3 0.698153 0.117649 0.739120
Si Si4 0.909390 0.734048 0.129398
Si Si5 0.770117 0.617209 0.354682
Si Si6 0.208985 0.883122 0.060908
O O1 0.288741 0.137819 0.500675
O O2 0.123287 0.306381 0.641256
O O3 0.897769 0.188823 0.658989
O O4 0.915244 0.141429 0.791457
O O5 0.614770 0.868089 0.697376
O O6 0.311013 0.803665 0.763333
O O7 0.432956 0.000000 0.706002
O O8 0.774646 0.000000 0.704538
O O9 0.477374 0.131871 0.912867
O O10 0.859400 0.652579 0.222591
O O11 0.098694 0.809874 0.058628
O O12 0.000000 0.690324 0.000000
O O13 0.500000 0.629895 0.500000
O O14 0.821709 0.500000 0.341957
O O15 0.170578 0.000000 0.060910
#
# Coordination Sequence:
#
# PCOD9148426 Si02
#       6
#     4   4   4   4   4   4
#     4  11  21  35  56  81 109 146 188 231 268 326
#     4  11  21  33  53  85 120 154 183 216 262 321
#     4  10  20  34  53  80 119 161 185 207 257 328
#     4  11  21  36  57  84 112 145 186 230 277 323
#     4  10  22  42  63  81 102 135 185 243 298 331
#     4  10  20  32  52  81 116 156 187 216 260 322
#
# _framework density 17.657688
#
# number of rings (size 3 to 8) (size 9 to 14) (size 15 to 20)
#    0.000    1.500    3.333    3.000    0.000    3.667 
#    0.000    2.500    0.000   11.000    0.000    0.000 
#    0.000    0.000    0.000    0.000    0.000    0.000 
#
# Total GULP energy -134024.497901 kJ/mol
# GULP energy per Si atom -5584.354079 kJ/mol
# Density = 1.761750 g / cm^3
# Si number density = 17.657688 Si / 1000 Ang^3
#
#
#
# Elastic Constant Matrix: (Units=GPa)
#
#
# Indices 1 2 3 4 5 6 
#
# 1 63.5442 33.9137 6.2689 0.0000 -6.6940 0.0000
# 2 33.9137 81.2357 21.7741 0.0000 -8.9415 0.0000
# 3 6.2689 21.7741 76.8255 0.0000 1.1937 0.0000
# 4 0.0000 0.0000 0.0000 16.2576 0.0000 -4.7525
# 5 -6.6940 -8.9415 1.1937 0.0000 23.7968 0.0000
# 6 0.0000 0.0000 0.0000 -4.7525 0.0000 20.4094
#
#
#
# Elastic Compliance Matrix: (Units=1/GPa)
#
#
# Indices 1 2 3 4 5 6 
#
# 1 0.020440 -0.008436 0.000684 0.000000 0.002546 0.000000
# 2 -0.008436 0.017479 -0.004334 0.000000 0.004412 0.000000
# 3 0.000684 -0.004334 0.014223 0.000000 -0.002150 0.000000
# 4 0.000000 0.000000 0.000000 0.066003 0.000000 0.015369
# 5 0.002546 0.004412 -0.002150 0.000000 0.044504 0.000000
# 6 0.000000 0.000000 0.000000 0.015369 0.000000 0.052576
#
#
# Mechanical properties :
#
#
# Convention : Reuss Voigt Hill
#
# Bulk Modulus (GPa) = 35.75490 38.39100 37.07295
# Shear Modulus (GPa) = 20.10284 22.73600 21.41942
#
# Velocity S-wave (km/s) = 3.37779 3.59220 3.48665
# Velocity P-wave (km/s) = 5.95865 6.24454 6.10327
#
# Compressibility (1/GPa) = 0.02796819
#
# Stress axis : x y z
#
# Youngs Moduli (GPa) = 48.92300 57.21118 70.31099
#
# Poissons Ratio (x) = 0.48265 -0.04806
# Poissons Ratio (y) = 0.41273 0.30474
# Poissons Ratio (z) = -0.03344 0.24796
#
# Static dielectric constant tensor:
#      x y z
#    x 1.620740 0.000000 0.023950 
#    y 0.000000 1.552200 0.000000 
#    z 0.023950 0.000000 1.634890 
# 
# From -- ./inp_files/23941.got.cif
#   From: 2010.05.17/outbox.cif.g08.bks.cpg/sg10_12_cif.got.tgz:23941.got - 2010.06.03 11:33:40.
