data_PCOD9148297
_publ_section_title
;
Structure prediction by ZEFSAII (Michael W. Deem and Ramdas Pophale) SiO2 
 PCOD9148297
Probable space group: P 2/M
;
_chemical_formula_sum "Si O2"
_cell_formula_units_Z 32
_cell_length_a 9.052370
_cell_length_b 13.098331
_cell_length_c 14.895715
_cell_angle_alpha 90.000000
_cell_angle_beta 111.171576
_cell_angle_gamma 90.000000
_cell_volume 1646.985932
_symmetry_space_group_name_H-M "P 2/M"
_symmetry_group_IT_number 10
_symmetry_cell_setting 'monoclinic'
loop_
_space_group_symop_operation_xyz
x,y,z
-x,y,-z
-x,-y,-z
x,-y,z
loop_
_atom_site_type_symbol
_atom_site_label
_atom_site_fract_x
_atom_site_fract_y
_atom_site_fract_z
Si Si1 0.361336 0.750543 0.900096
Si Si2 0.677079 0.817596 0.505400
Si Si3 0.865237 0.114068 0.394205
Si Si4 0.157719 0.885217 0.989953
Si Si5 0.193711 0.881451 0.280905
Si Si6 0.873577 0.615051 0.553547
Si Si7 0.937244 0.275839 0.256935
Si Si8 0.441980 0.115105 0.193603
O O1 0.255201 0.830694 0.933049
O O2 0.217485 0.682445 0.828730
O O3 0.446254 0.806883 0.835073
O O4 0.500000 0.713732 0.000000
O O5 0.500000 0.819884 0.500000
O O6 0.706748 0.872551 0.417601
O O7 0.779001 0.871243 0.606471
O O8 0.743373 0.702635 0.511922
O O9 0.876525 0.197911 0.320598
O O10 0.000000 0.130217 0.500000
O O11 0.881272 0.000000 0.361614
O O12 0.115724 0.000000 0.951360
O O13 0.286146 0.891328 0.096936
O O14 0.000000 0.838139 0.000000
O O15 0.359762 0.854934 0.269028
O O16 0.059214 0.797589 0.228527
O O17 0.157229 0.000000 0.251725
O O18 0.810712 0.500000 0.540181
O O19 0.000000 0.623096 0.500000
O O20 0.963027 0.640592 0.666532
O O21 0.510886 0.000000 0.213054
#
# Coordination Sequence:
#
# PCOD9148297 Si02
#       8
#     4   4   4   4   4   4   4   4
#     4  10  21  33  48  71 103 137 178 231 277 317
#     4  11  22  35  51  78 116 144 176 220 271 325
#     4  11  20  34  52  77 112 152 189 220 253 312
#     4   9  16  28  44  62  91 131 180 225 259 299
#     4  10  20  32  47  72 105 148 187 217 256 313
#     4  10  20  39  63  83 104 134 178 227 278 332
#     4  11  20  35  55  77 103 141 188 224 269 320
#     4   9  18  29  41  64  98 137 180 219 258 302
#
# _framework density 19.429431999999998
#
# number of rings (size 3 to 8) (size 9 to 14) (size 15 to 20)
#    0.000    1.875    3.750    1.875    1.750    5.750 
#    0.000    0.000    0.000    0.375    0.000    0.000 
#    0.000   28.500    0.000    0.000    0.000    1.500 
#
# Total GULP energy -178445.903023 kJ/mol
# GULP energy per Si atom -5576.434469 kJ/mol
# Density = 1.938521 g / cm^3
# Si number density = 19.429432 Si / 1000 Ang^3
#
#
#
# Elastic Constant Matrix: (Units=GPa)
#
#
# Indices 1 2 3 4 5 6 
#
# 1 98.4668 -2.5626 13.0011 0.0000 -0.8880 0.0000
# 2 -2.5626 46.1956 -3.5752 0.0000 0.5711 0.0000
# 3 13.0011 -3.5752 44.3457 0.0000 -2.5389 0.0000
# 4 0.0000 0.0000 0.0000 8.0137 0.0000 -3.3124
# 5 -0.8880 0.5711 -2.5389 0.0000 48.2142 0.0000
# 6 0.0000 0.0000 0.0000 -3.3124 0.0000 12.4768
#
#
#
# Elastic Compliance Matrix: (Units=1/GPa)
#
#
# Indices 1 2 3 4 5 6 
#
# 1 0.010570 0.000348 -0.003069 0.000000 0.000029 0.000000
# 2 0.000348 0.021796 0.001646 0.000000 -0.000165 0.000000
# 3 -0.003069 0.001646 0.023650 0.000000 0.001169 0.000000
# 4 0.000000 0.000000 0.000000 0.140167 0.000000 0.037213
# 5 0.000029 -0.000165 0.001169 0.000000 0.020805 0.000000
# 6 0.000000 0.000000 0.000000 0.037213 0.000000 0.090028
#
#
# Mechanical properties :
#
#
# Convention : Reuss Voigt Hill
#
# Bulk Modulus (GPa) = 18.56483 22.52609 20.54546
# Shear Modulus (GPa) = 15.28482 25.88394 20.58438
#
# Velocity S-wave (km/s) = 2.80783 3.65389 3.25844
# Velocity P-wave (km/s) = 4.48192 5.42404 4.97533
#
# Compressibility (1/GPa) = 0.05386530
#
# Stress axis : x y z
#
# Youngs Moduli (GPa) = 94.60488 45.88041 42.28408
#
# Poissons Ratio (x) = -0.01599 0.12978
# Poissons Ratio (y) = -0.03297 -0.06958
# Poissons Ratio (z) = 0.29036 -0.07550
#
# Static dielectric constant tensor:
#      x y z
#    x 1.742780 0.000000 0.025700 
#    y 0.000000 1.634260 0.000000 
#    z 0.025700 0.000000 1.779200 
# 
# From -- ./inp_files/61566.got.cif
#   From: 2010.05.17/outbox.cif.g08.bks.cpg/sg10_31_cif.got.tgz:61566.got - 2010.06.03 11:33:40.
