data_PCOD9148271
_publ_section_title
;
Structure prediction by ZEFSAII (Michael W. Deem and Ramdas Pophale) SiO2 
 PCOD9148271
Probable space group: P 2/M
;
_chemical_formula_sum "Si O2"
_cell_formula_units_Z 28
_cell_length_a 14.195398
_cell_length_b 8.918086
_cell_length_c 33.566367
_cell_angle_alpha 90.000000
_cell_angle_beta 155.140958
_cell_angle_gamma 90.000000
_cell_volume 1786.377168
_symmetry_space_group_name_H-M "P 2/M"
_symmetry_group_IT_number 10
_symmetry_cell_setting 'monoclinic'
loop_
_space_group_symop_operation_xyz
x,y,z
-x,y,-z
-x,-y,-z
x,-y,z
loop_
_atom_site_type_symbol
_atom_site_label
_atom_site_fract_x
_atom_site_fract_y
_atom_site_fract_z
Si Si1 0.924587 0.172121 0.517551
Si Si2 0.671107 0.319875 0.974766
Si Si3 0.587332 0.819138 0.281261
Si Si4 0.479221 0.321911 0.325387
Si Si5 0.298820 0.327932 0.890238
Si Si6 0.750883 0.820325 0.919865
Si Si7 0.985961 0.178217 0.830180
O O1 0.704423 0.272386 0.435002
O O2 0.000000 0.172167 0.500000
O O3 0.152405 0.220961 0.626873
O O4 0.870180 0.000000 0.507303
O O5 0.692002 0.500000 0.985935
O O6 0.427412 0.279104 0.899656
O O7 0.699936 0.264497 0.941084
O O8 0.860399 0.245328 0.075298
O O9 0.506756 0.740232 0.290819
O O10 0.426110 0.783734 0.182734
O O11 0.581863 0.000000 0.285876
O O12 0.457994 0.500000 0.316472
O O13 0.259604 0.247562 0.259797
O O14 0.220504 0.500000 0.856300
O O15 0.106331 0.227085 0.835310
O O16 0.500000 0.328372 0.000000
O O17 0.741591 0.000000 0.923405
O O18 0.000000 0.784529 0.000000
O O19 0.978165 0.000000 0.830817
#
# Coordination Sequence:
#
# PCOD9148271 Si02
#       7
#     4   4   4   4   4   4   4
#     4   8  15  29  46  63  88 121 154 188 229 274
#     4  10  20  33  48  67  94 125 154 188 228 269
#     4   9  18  32  47  65  93 127 159 192 227 264
#     4  11  20  29  45  69  95 120 150 191 235 277
#     4   8  16  31  47  65  91 119 148 185 229 272
#     4  10  20  32  47  68  94 126 162 193 219 257
#     4  11  20  30  47  69  93 121 153 188 228 275
#
# _framework density 15.674181000000001
#
# number of rings (size 3 to 8) (size 9 to 14) (size 15 to 20)
#    0.000    2.429    0.000    5.571    0.000    7.714 
#    0.000    0.000    0.000    0.000    0.000    1.000 
#    0.000    8.000    0.000    0.000    0.000    0.000 
#
# Total GULP energy -156100.478422 kJ/mol
# GULP energy per Si atom -5575.017086 kJ/mol
# Density = 1.563851 g / cm^3
# Si number density = 15.674181 Si / 1000 Ang^3
#
#
#
# Elastic Constant Matrix: (Units=GPa)
#
#
# Indices 1 2 3 4 5 6 
#
# 1 103.4583 56.3971 59.7063 0.0000 18.5556 0.0000
# 2 56.3971 85.3115 56.9320 0.0000 19.1038 0.0000
# 3 59.7063 56.9320 121.0210 0.0000 17.1799 0.0000
# 4 0.0000 0.0000 0.0000 -1.6167 0.0000 22.9810
# 5 18.5556 19.1038 17.1799 0.0000 22.5467 0.0000
# 6 0.0000 0.0000 0.0000 22.9810 0.0000 9.9410
#
#
#
# Elastic Compliance Matrix: (Units=1/GPa)
#
#
# Indices 1 2 3 4 5 6 
#
# 1 0.016932 -0.007350 -0.004263 0.000000 -0.004459 0.000000
# 2 -0.007350 0.022243 -0.005630 0.000000 -0.008508 0.000000
# 3 -0.004263 -0.005630 0.013275 0.000000 -0.001837 0.000000
# 4 0.000000 0.000000 0.000000 -0.018267 0.000000 0.042229
# 5 -0.004459 -0.008508 -0.001837 0.000000 0.056630 0.000000
# 6 0.000000 0.000000 0.000000 0.042229 0.000000 0.002971
#
#
# Mechanical properties :
#
#
# Convention : Reuss Voigt Hill
#
# Bulk Modulus (GPa) = 55.66424 72.87350 64.26887
# Shear Modulus (GPa) = 37.24165 15.29123 26.26644
#
# Velocity S-wave (km/s) = 4.87970 3.12680 4.09807
# Velocity P-wave (km/s) = 8.20604 7.72201 7.96770
#
# Compressibility (1/GPa) = 0.01796486
#
# Stress axis : x y z
#
# Youngs Moduli (GPa) = 59.05868 44.95839 75.32769
#
# Poissons Ratio (x) = 0.33045 0.32111
# Poissons Ratio (y) = 0.43409 0.42407
# Poissons Ratio (z) = 0.25176 0.25310
#
# Static dielectric constant tensor:
#      x y z
#    x 1.515150 0.000000 0.011650 
#    y 0.000000 1.523740 0.000000 
#    z 0.011650 0.000000 1.529620 
# 
# From -- ./inp_files/66427.got.cif
#   From: 2010.05.17/outbox.cif.g08.bks.cpg/sg10_34_cif.got.tgz:66427.got - 2010.06.03 11:33:40.
