data_PCOD9148074
_publ_section_title
;
Structure prediction by ZEFSAII (Michael W. Deem and Ramdas Pophale) SiO2 
 PCOD9148074
Probable space group: P 2/M
;
_chemical_formula_sum "Si O2"
_cell_formula_units_Z 24
_cell_length_a 8.476164
_cell_length_b 15.631868
_cell_length_c 14.067423
_cell_angle_alpha 90.000000
_cell_angle_beta 43.410241
_cell_angle_gamma 90.000000
_cell_volume 1280.910846
_symmetry_space_group_name_H-M "P 2/M"
_symmetry_group_IT_number 10
_symmetry_cell_setting 'monoclinic'
loop_
_space_group_symop_operation_xyz
x,y,z
-x,y,-z
-x,-y,-z
x,-y,z
loop_
_atom_site_type_symbol
_atom_site_label
_atom_site_fract_x
_atom_site_fract_y
_atom_site_fract_z
Si Si1 0.075752 0.601106 0.356728
Si Si2 0.065717 0.000000 0.082714
Si Si3 0.581872 0.743996 0.821214
Si Si4 0.555074 0.000000 0.365778
Si Si5 0.759039 0.853451 0.569412
Si Si6 0.773813 0.264966 0.383157
Si Si7 0.835870 0.190052 0.898609
O O1 0.085057 0.500000 0.337772
O O2 0.316345 0.648699 0.230162
O O3 0.000000 0.616665 0.500000
O O4 0.896288 0.648547 0.365493
O O5 0.178513 0.909403 0.063487
O O6 0.824397 0.000000 0.241050
O O7 0.000000 0.000000 0.000000
O O8 0.661849 0.789507 0.690509
O O9 0.710985 0.791917 0.852194
O O10 0.313756 0.755532 0.960763
O O11 0.500000 0.000000 0.500000
O O12 0.437818 0.920083 0.367055
O O13 0.814872 0.803159 0.449010
O O14 0.000000 0.891806 0.500000
O O15 0.500000 0.275319 0.500000
O O16 0.906240 0.225682 0.233488
#
# Coordination Sequence:
#
# PCOD9148074 Si02
#       7
#     4   2   4   2   4   4   4
#     4  10  19  38  66  92 118 151 197 247 294 362
#     4  12  24  41  52  81 120 167 206 228 301 360
#     4  10  20  38  60  88 113 148 206 244 299 343
#     4  12  27  36  54  85 121 155 199 256 299 334
#     4  12  20  38  59  82 114 158 209 245 291 352
#     4  11  21  38  59  89 124 157 195 245 303 361
#     4  10  22  37  58  83 120 155 201 253 286 340
#
# _framework density 18.736668000000002
#
# number of rings (size 3 to 8) (size 9 to 14) (size 15 to 20)
#    0.000    1.167    5.000    3.750    0.000    2.333 
#    0.000    6.667    0.000    0.000    0.000    2.333 
#    0.000    0.000    0.000    0.000    0.000    0.000 
#
# Total GULP energy -133915.984325 kJ/mol
# GULP energy per Si atom -5579.832680 kJ/mol
# Density = 1.869402 g / cm^3
# Si number density = 18.736668 Si / 1000 Ang^3
#
#
#
# Elastic Constant Matrix: (Units=GPa)
#
#
# Indices 1 2 3 4 5 6 
#
# 1 29.0693 22.7256 0.9543 0.0000 -14.0032 0.0000
# 2 22.7256 134.1660 29.5807 0.0000 -9.2156 0.0000
# 3 0.9543 29.5807 114.9793 0.0000 -23.5190 0.0000
# 4 0.0000 0.0000 0.0000 27.7741 0.0000 -12.8935
# 5 -14.0032 -9.2156 -23.5190 0.0000 28.5312 0.0000
# 6 0.0000 0.0000 0.0000 -12.8935 0.0000 29.3290
#
#
#
# Elastic Compliance Matrix: (Units=1/GPa)
#
#
# Indices 1 2 3 4 5 6 
#
# 1 0.056667 -0.009272 0.008409 0.000000 0.031750 0.000000
# 2 -0.009272 0.009445 -0.003199 0.000000 -0.004137 0.000000
# 3 0.008409 -0.003199 0.012128 0.000000 0.013092 0.000000
# 4 0.000000 0.000000 0.000000 0.045237 0.000000 0.019887
# 5 0.031750 -0.004137 0.013092 0.000000 0.060088 0.000000
# 6 0.000000 0.000000 0.000000 0.019887 0.000000 0.042838
#
#
# Mechanical properties :
#
#
# Convention : Reuss Voigt Hill
#
# Bulk Modulus (GPa) = 14.26170 42.74842 28.50506
# Shear Modulus (GPa) = 19.38736 32.12379 25.75558
#
# Velocity S-wave (km/s) = 3.22021 4.14513 3.71159
# Velocity P-wave (km/s) = 4.63190 6.76568 5.79780
#
# Compressibility (1/GPa) = 0.07011787
#
# Stress axis : x y z
#
# Youngs Moduli (GPa) = 17.64680 105.87459 82.45106
#
# Poissons Ratio (x) = 0.98165 -0.69337
# Poissons Ratio (y) = 0.16362 0.26378
# Poissons Ratio (z) = -0.14840 0.33872
#
# Static dielectric constant tensor:
#      x y z
#    x 1.674400 0.000000 -0.034280 
#    y 0.000000 1.639700 0.000000 
#    z -0.034280 0.000000 1.692090 
# 
# From -- ./inp_files/61716.got.cif
#   From: 2010.05.17/outbox.cif.g08.bks.cpg/sg10_31_cif.got.tgz:61716.got - 2010.06.03 11:33:40.
