data_PCOD9148432
_publ_section_title
;
Structure prediction by ZEFSAII (Michael W. Deem and Ramdas Pophale) SiO2 
 PCOD9148432
Probable space group: P 2/M
;
_chemical_formula_sum "Si O2"
_cell_formula_units_Z 30
_cell_length_a 13.169263
_cell_length_b 10.230543
_cell_length_c 12.623092
_cell_angle_alpha 90.000000
_cell_angle_beta 90.620719
_cell_angle_gamma 90.000000
_cell_volume 1700.593118
_symmetry_space_group_name_H-M "P 2/M"
_symmetry_group_IT_number 10
_symmetry_cell_setting 'monoclinic'
loop_
_space_group_symop_operation_xyz
x,y,z
-x,y,-z
-x,-y,-z
x,-y,z
loop_
_atom_site_type_symbol
_atom_site_label
_atom_site_fract_x
_atom_site_fract_y
_atom_site_fract_z
Si Si1 0.794180 0.157243 0.764373
Si Si2 0.446613 0.645332 0.886207
Si Si3 0.500000 0.276143 0.500000
Si Si4 0.726550 0.843148 0.169607
Si Si5 0.705905 0.156288 0.414005
Si Si6 0.115076 0.841641 0.007580
Si Si7 0.616807 0.644262 0.707735
Si Si8 0.896607 0.158141 0.553405
O O1 0.828806 0.196384 0.882724
O O2 0.697148 0.240036 0.725785
O O3 0.881821 0.183120 0.677993
O O4 0.773431 0.000000 0.762326
O O5 0.399056 0.500000 0.874131
O O6 0.367506 0.761393 0.874825
O O7 0.531603 0.657341 0.797013
O O8 0.500000 0.650814 0.000000
O O9 0.592810 0.199537 0.444693
O O10 0.441410 0.348819 0.404847
O O11 0.734463 0.809323 0.293741
O O12 0.710735 0.000000 0.161731
O O13 0.821949 0.808669 0.096857
O O14 0.795025 0.206309 0.492361
O O15 0.706759 0.000000 0.421566
O O16 0.110699 0.000000 0.011730
O O17 0.000000 0.792489 0.000000
O O18 0.664964 0.500000 0.718758
O O19 0.000000 0.206721 0.500000
O O20 0.897693 0.000000 0.542308
#
# Coordination Sequence:
#
# PCOD9148432 Si02
#       8
#     4   4   2   4   4   4   4   4
#     4  10  20  35  56  82 109 145 183 224 276 326
#     4  10  21  37  55  75 103 141 180 216 262 318
#     4  12  20  36  54  78 111 150 187 226 271 342
#     4  10  20  34  53  80 108 137 176 221 269 314
#     4  10  20  32  52  82 113 143 178 229 277 321
#     4   9  19  34  55  84 114 141 176 228 281 327
#     4  11  23  37  55  80 110 145 182 224 274 330
#     4   9  18  31  51  80 109 140 182 225 269 324
#
# _framework density 17.640903999999999
#
# number of rings (size 3 to 8) (size 9 to 14) (size 15 to 20)
#    0.000    2.000    2.667    1.200    1.867    1.333 
#    0.000    0.000    0.000    2.000    0.000    0.000 
#    0.000    0.000    0.000    0.000    0.000    0.000 
#
# Total GULP energy -167165.793433 kJ/mol
# GULP energy per Si atom -5572.193114 kJ/mol
# Density = 1.760075 g / cm^3
# Si number density = 17.640904 Si / 1000 Ang^3
#
#
#
# Elastic Constant Matrix: (Units=GPa)
#
#
# Indices 1 2 3 4 5 6 
#
# 1 90.4263 25.6980 54.1843 0.0000 -11.4533 0.0000
# 2 25.6980 28.8702 30.1826 0.0000 -3.3380 0.0000
# 3 54.1843 30.1826 140.2231 0.0000 -12.9079 0.0000
# 4 0.0000 0.0000 0.0000 18.3623 0.0000 2.8056
# 5 -11.4533 -3.3380 -12.9079 0.0000 28.9872 0.0000
# 6 0.0000 0.0000 0.0000 2.8056 0.0000 -3.8230
#
#
#
# Elastic Compliance Matrix: (Units=1/GPa)
#
#
# Indices 1 2 3 4 5 6 
#
# 1 0.016852 -0.010479 -0.003915 0.000000 0.003709 0.000000
# 2 -0.010479 0.051234 -0.007108 0.000000 -0.001406 0.000000
# 3 -0.003915 -0.007108 0.010382 0.000000 0.002258 0.000000
# 4 0.000000 0.000000 0.000000 0.048969 0.000000 0.035937
# 5 0.003709 -0.001406 0.002258 0.000000 0.036807 0.000000
# 6 0.000000 0.000000 0.000000 0.035937 0.000000 -0.235199
#
#
# Mechanical properties :
#
#
# Convention : Reuss Voigt Hill
#
# Bulk Modulus (GPa) = 28.19730 53.29437 40.74584
# Shear Modulus (GPa) = -309.99626 18.66894 -145.66366
#
# Velocity S-wave (km/s) = -13.27054 3.25664 -9.09675
# Velocity P-wave (km/s) = 14.79159 6.66463 9.33739
#
# Compressibility (1/GPa) = 0.03546438
#
# Stress axis : x y z
#
# Youngs Moduli (GPa) = 59.33890 19.51825 96.31877
#
# Poissons Ratio (x) = 0.20453 0.37710
# Poissons Ratio (y) = 0.62180 0.68466
# Poissons Ratio (z) = 0.23232 0.13874
#
# Static dielectric constant tensor:
#      x y z
#    x 1.602740 0.000000 0.026450 
#    y 0.000000 1.585260 0.000000 
#    z 0.026450 0.000000 1.678680 
# 
# From -- ./inp_files/46647.got.cif
#   From: 2010.05.17/outbox.cif.g08.bks.cpg/sg10_24_cif.got.tgz:46647.got - 2010.06.03 11:33:40.
