data_PCOD9148554
_publ_section_title
;
Structure prediction by ZEFSAII (Michael W. Deem and Ramdas Pophale) SiO2 
 PCOD9148554
Probable space group: P 2/M
;
_chemical_formula_sum "Si O2"
_cell_formula_units_Z 32
_cell_length_a 20.207957
_cell_length_b 7.480366
_cell_length_c 21.649016
_cell_angle_alpha 90.000000
_cell_angle_beta 26.421082
_cell_angle_gamma 90.000000
_cell_volume 1456.159684
_symmetry_space_group_name_H-M "P 2/M"
_symmetry_group_IT_number 10
_symmetry_cell_setting 'monoclinic'
loop_
_space_group_symop_operation_xyz
x,y,z
-x,y,-z
-x,-y,-z
x,-y,z
loop_
_atom_site_type_symbol
_atom_site_label
_atom_site_fract_x
_atom_site_fract_y
_atom_site_fract_z
Si Si1 0.389481 0.297126 0.643171
Si Si2 0.241823 0.283839 0.885660
Si Si3 0.803313 0.296960 0.841267
Si Si4 0.718585 0.715666 0.581138
Si Si5 0.003999 0.280907 0.567434
Si Si6 0.922895 0.208672 0.302936
Si Si7 0.094386 0.789912 0.822610
Si Si8 0.388052 0.280604 0.890200
O O1 0.500000 0.213996 0.500000
O O2 0.445692 0.500000 0.606316
O O3 0.358480 0.217139 0.736675
O O4 0.225198 0.301279 0.750947
O O5 0.247549 0.500000 0.879511
O O6 0.286175 0.225430 0.917414
O O7 0.072671 0.231209 0.012828
O O8 0.757278 0.500000 0.865463
O O9 0.866462 0.217843 0.725000
O O10 0.947631 0.300824 0.765728
O O11 0.676658 0.215899 0.990467
O O12 0.717229 0.500000 0.582254
O O13 0.845214 0.774056 0.523691
O O14 0.773323 0.773032 0.467798
O O15 0.555513 0.775844 0.736369
O O16 0.000922 0.500000 0.571048
O O17 0.000000 0.224392 0.500000
O O18 0.908085 0.277554 0.246034
O O19 0.963425 0.000000 0.265465
O O20 0.131025 0.000000 0.791328
O O21 0.383896 0.500000 0.895215
#
# Coordination Sequence:
#
# PCOD9148554 Si02
#       8
#     4   4   4   4   4   4   4   4
#     4  10  23  39  56  78 101 130 170 213 257 302
#     4  10  20  36  56  76  99 130 169 214 253 297
#     4   9  16  30  52  74  98 132 168 205 248 294
#     4   9  18  31  51  75 102 136 170 208 254 296
#     4   8  14  26  46  74 106 137 169 202 242 296
#     4  10  20  33  49  74 102 130 168 208 249 299
#     4  11  23  37  54  76 103 135 168 206 257 311
#     4   9  17  30  51  78 101 125 169 215 252 295
#
# _framework density 21.975611000000001
#
# number of rings (size 3 to 8) (size 9 to 14) (size 15 to 20)
#    0.000    2.500    1.250    1.875    1.750    3.750 
#    0.000    1.875    0.000    9.750    0.000    0.000 
#    0.000    8.000    0.000    0.000    0.000    0.000 
#
# Total GULP energy -178661.862520 kJ/mol
# GULP energy per Si atom -5583.183204 kJ/mol
# Density = 2.192559 g / cm^3
# Si number density = 21.975611 Si / 1000 Ang^3
#
#
#
# Elastic Constant Matrix: (Units=GPa)
#
#
# Indices 1 2 3 4 5 6 
#
# 1 57.8212 -2.1633 31.5381 0.0000 29.6506 0.0000
# 2 -2.1633 68.9375 -5.8707 0.0000 1.8584 0.0000
# 3 31.5381 -5.8707 166.2132 0.0000 26.3956 0.0000
# 4 0.0000 0.0000 0.0000 23.0078 0.0000 -8.9073
# 5 29.6506 1.8584 26.3956 0.0000 39.9618 0.0000
# 6 0.0000 0.0000 0.0000 -8.9073 0.0000 -13.6240
#
#
#
# Elastic Compliance Matrix: (Units=1/GPa)
#
#
# Indices 1 2 3 4 5 6 
#
# 1 0.028792 0.001249 -0.002254 0.000000 -0.019932 0.000000
# 2 0.001249 0.014650 0.000599 0.000000 -0.002003 0.000000
# 3 -0.002254 0.000599 0.006931 0.000000 -0.002934 0.000000
# 4 0.000000 0.000000 0.000000 0.034685 0.000000 -0.022676
# 5 -0.019932 -0.002003 -0.002934 0.000000 0.041844 0.000000
# 6 0.000000 0.000000 0.000000 -0.022676 0.000000 -0.058574
#
#
# Mechanical properties :
#
#
# Convention : Reuss Voigt Hill
#
# Bulk Modulus (GPa) = 20.17728 37.77558 28.97643
# Shear Modulus (GPa) = 58.37025 27.83363 43.10194
#
# Velocity S-wave (km/s) = 5.15936 3.56275 4.43352
# Velocity P-wave (km/s) = 6.68533 5.84391 6.27873
#
# Compressibility (1/GPa) = 0.04956070
#
# Stress axis : x y z
#
# Youngs Moduli (GPa) = 34.73204 68.25911 144.27870
#
# Poissons Ratio (x) = -0.08525 0.32515
# Poissons Ratio (y) = -0.04338 -0.08637
# Poissons Ratio (z) = 0.07827 -0.04086
#
# Static dielectric constant tensor:
#      x y z
#    x 1.769070 0.000000 0.036610 
#    y 0.000000 1.841340 0.000000 
#    z 0.036610 0.000000 1.815200 
# 
# From -- ./inp_files/86804.got.cif
#   From: 2010.05.17/outbox.cif.g08.bks.cpg/sg10_44_cif.got.tgz:86804.got - 2010.06.03 11:33:40.
