data_PCOD9148559
_publ_section_title
;
Structure prediction by ZEFSAII (Michael W. Deem and Ramdas Pophale) SiO2 
 PCOD9148559
Probable space group: P 2/M
;
_chemical_formula_sum "Si O2"
_cell_formula_units_Z 32
_cell_length_a 29.698405
_cell_length_b 7.598144
_cell_length_c 12.769063
_cell_angle_alpha 90.000000
_cell_angle_beta 146.158976
_cell_angle_gamma 90.000000
_cell_volume 1604.609851
_symmetry_space_group_name_H-M "P 2/M"
_symmetry_group_IT_number 10
_symmetry_cell_setting 'monoclinic'
loop_
_space_group_symop_operation_xyz
x,y,z
-x,y,-z
-x,-y,-z
x,-y,z
loop_
_atom_site_type_symbol
_atom_site_label
_atom_site_fract_x
_atom_site_fract_y
_atom_site_fract_z
Si Si1 0.512999 0.787693 0.694202
Si Si2 0.986460 0.784772 0.808094
Si Si3 0.131141 0.212535 0.241340
Si Si4 0.208595 0.705404 0.056459
Si Si5 0.459931 0.291764 0.816820
Si Si6 0.971871 0.796059 0.336446
Si Si7 0.370665 0.787142 0.264191
Si Si8 0.714764 0.294063 0.581524
O O1 0.512355 0.728669 0.812657
O O2 0.430947 0.730444 0.475027
O O3 0.586835 0.730966 0.762032
O O4 0.512607 0.000000 0.693195
O O5 0.909126 0.731392 0.727145
O O6 0.991713 0.719380 0.700147
O O7 0.987561 0.000000 0.809511
O O8 0.066940 0.732305 0.027640
O O9 0.219165 0.279138 0.381976
O O10 0.133969 0.000000 0.246014
O O11 0.189740 0.500000 0.036025
O O12 0.280859 0.722920 0.112924
O O13 0.244696 0.781803 0.234832
O O14 0.124883 0.791604 0.861584
O O15 0.448297 0.500000 0.813052
O O16 0.371373 0.216496 0.617650
O O17 0.500000 0.218735 0.000000
O O18 0.000000 0.714705 0.500000
O O19 0.998678 0.000000 0.389665
O O20 0.369455 0.000000 0.262626
O O21 0.700951 0.500000 0.578810
#
# Coordination Sequence:
#
# PCOD9148559 Si02
#       8
#     4   4   4   4   4   4   4   4
#     4   9  18  33  54  80 107 134 172 222 268 310
#     4   8  15  29  49  75 100 125 165 205 246 300
#     4   9  16  29  52  75  97 127 163 210 253 292
#     4  11  21  33  52  79 107 135 173 219 257 304
#     4  10  21  37  54  73 106 147 178 210 259 320
#     4  10  20  35  55  76 103 139 172 208 259 315
#     4   9  18  33  54  80 107 135 170 219 272 313
#     4  10  20  33  49  76 105 130 170 215 255 300
#
# _framework density 19.942542
#
# number of rings (size 3 to 8) (size 9 to 14) (size 15 to 20)
#    0.000    2.500    2.500    1.875    0.000    2.000 
#    0.000    4.375    0.000    4.500    0.000    0.000 
#    0.000    0.000    0.000    0.000    0.000    0.000 
#
# Total GULP energy -178534.184552 kJ/mol
# GULP energy per Si atom -5579.193267 kJ/mol
# Density = 1.989715 g / cm^3
# Si number density = 19.942542 Si / 1000 Ang^3
#
#
#
# Elastic Constant Matrix: (Units=GPa)
#
#
# Indices 1 2 3 4 5 6 
#
# 1 151.2332 -11.7638 73.0819 0.0000 -16.8471 0.0000
# 2 -11.7638 41.9998 1.9056 0.0000 -5.0520 0.0000
# 3 73.0819 1.9056 104.5551 0.0000 -21.6685 0.0000
# 4 0.0000 0.0000 0.0000 1.1265 0.0000 6.1550
# 5 -16.8471 -5.0520 -21.6685 0.0000 31.0659 0.0000
# 6 0.0000 0.0000 0.0000 6.1550 0.0000 22.8090
#
#
#
# Elastic Compliance Matrix: (Units=1/GPa)
#
#
# Indices 1 2 3 4 5 6 
#
# 1 0.010451 0.003402 -0.007105 0.000000 0.001265 0.000000
# 2 0.003402 0.025409 -0.001873 0.000000 0.004671 0.000000
# 3 -0.007105 -0.001873 0.016019 0.000000 0.007015 0.000000
# 4 0.000000 0.000000 0.000000 -1.871257 0.000000 0.504960
# 5 0.001265 0.004671 0.007015 0.000000 0.038529 0.000000
# 6 0.000000 0.000000 0.000000 0.504960 0.000000 -0.092421
#
#
# Mechanical properties :
#
#
# Convention : Reuss Voigt Hill
#
# Bulk Modulus (GPa) = 24.55381 47.13727 35.84554
# Shear Modulus (GPa) = -2.70483 26.63790 11.96653
#
# Velocity S-wave (km/s) = -1.16587 3.65873 2.45225
# Velocity P-wave (km/s) = 3.24448 6.44486 5.10210
#
# Compressibility (1/GPa) = 0.04072687
#
# Stress axis : x y z
#
# Youngs Moduli (GPa) = 95.68183 39.35576 62.42717
#
# Poissons Ratio (x) = -0.13388 0.44355
# Poissons Ratio (y) = -0.32550 0.11693
# Poissons Ratio (z) = 0.67982 0.07371
#
# Static dielectric constant tensor:
#      x y z
#    x 1.719280 0.000000 -0.016900 
#    y 0.000000 1.739400 0.000000 
#    z -0.016900 0.000000 1.688370 
# 
# From -- ./inp_files/52727.got.cif
#   From: 2010.05.17/outbox.cif.g08.bks.cpg/sg10_27_cif.got.tgz:52727.got - 2010.06.03 11:33:40.
