data_PCOD9148451
_publ_section_title
;
Structure prediction by ZEFSAII (Michael W. Deem and Ramdas Pophale) SiO2 
 PCOD9148451
Probable space group: P 2/M
;
_chemical_formula_sum "Si O2"
_cell_formula_units_Z 26
_cell_length_a 20.929023
_cell_length_b 9.012010
_cell_length_c 11.803215
_cell_angle_alpha 90.000000
_cell_angle_beta 38.217690
_cell_angle_gamma 90.000000
_cell_volume 1377.262289
_symmetry_space_group_name_H-M "P 2/M"
_symmetry_group_IT_number 10
_symmetry_cell_setting 'monoclinic'
loop_
_space_group_symop_operation_xyz
x,y,z
-x,y,-z
-x,-y,-z
x,-y,z
loop_
_atom_site_type_symbol
_atom_site_label
_atom_site_fract_x
_atom_site_fract_y
_atom_site_fract_z
Si Si1 0.032692 0.176932 0.823730
Si Si2 0.500000 0.246570 0.500000
Si Si3 0.339609 0.670075 0.910625
Si Si4 0.167563 0.679262 0.984792
Si Si5 0.316075 0.167654 0.599833
Si Si6 0.745879 0.324095 0.526089
Si Si7 0.597392 0.321557 0.935449
O O1 0.143652 0.247874 0.644286
O O2 0.945417 0.252182 0.867492
O O3 0.034897 0.000000 0.804424
O O4 0.000000 0.205736 0.000000
O O5 0.573476 0.330111 0.308393
O O6 0.418960 0.163758 0.532131
O O7 0.313904 0.500000 0.973936
O O8 0.235943 0.732352 0.997013
O O9 0.382279 0.739498 0.966959
O O10 0.164474 0.500000 0.986891
O O11 0.231935 0.739207 0.787419
O O12 0.329267 0.251224 0.462973
O O13 0.278310 0.000000 0.634108
O O14 0.753062 0.500000 0.495524
O O15 0.697189 0.301272 0.717358
O O16 0.578670 0.500000 0.973402
O O17 0.500000 0.261867 0.000000
#
# Coordination Sequence:
#
# PCOD9148451 Si02
#       7
#     4   2   4   4   4   4   4
#     4  11  22  37  58  83 114 152 185 231 290 341
#     4  10  20  32  54  80 109 150 191 226 277 342
#     4   9  18  33  54  84 117 145 184 237 288 331
#     4  10  20  34  56  84 112 143 183 234 282 335
#     4  11  21  34  51  77 114 150 183 228 283 335
#     4  11  22  35  58  86 111 147 192 235 278 332
#     4   9  18  34  56  83 117 152 186 229 281 332
#
# _framework density 18.878031
#
# number of rings (size 3 to 8) (size 9 to 14) (size 15 to 20)
#    0.000    1.846    1.538    3.231    0.000    3.692 
#    0.000    0.769    0.000   22.154    0.000    0.000 
#    0.000    0.000    0.000    0.000    0.000    0.000 
#
# Total GULP energy -144987.847018 kJ/mol
# GULP energy per Si atom -5576.455655 kJ/mol
# Density = 1.883506 g / cm^3
# Si number density = 18.878031 Si / 1000 Ang^3
#
#
#
# Elastic Constant Matrix: (Units=GPa)
#
#
# Indices 1 2 3 4 5 6 
#
# 1 155.7223 38.2700 53.6472 0.0000 2.2139 0.0000
# 2 38.2700 70.0768 32.2950 0.0000 -1.9855 0.0000
# 3 53.6472 32.2950 52.2213 0.0000 -5.1514 0.0000
# 4 0.0000 0.0000 0.0000 -1.7812 0.0000 -2.6096
# 5 2.2139 -1.9855 -5.1514 0.0000 35.2336 0.0000
# 6 0.0000 0.0000 0.0000 -2.6096 0.0000 11.1512
#
#
#
# Elastic Compliance Matrix: (Units=1/GPa)
#
#
# Indices 1 2 3 4 5 6 
#
# 1 0.010150 -0.000980 -0.010034 0.000000 -0.002160 0.000000
# 2 -0.000980 0.020069 -0.011452 0.000000 -0.000482 0.000000
# 3 -0.010034 -0.011452 0.037073 0.000000 0.005406 0.000000
# 4 0.000000 0.000000 0.000000 -0.418071 0.000000 -0.097837
# 5 -0.002160 -0.000482 0.005406 0.000000 0.029281 0.000000
# 6 0.000000 0.000000 0.000000 -0.097837 0.000000 0.066780
#
#
# Mechanical properties :
#
#
# Convention : Reuss Voigt Hill
#
# Bulk Modulus (GPa) = 44.72346 58.49387 51.60867
# Shear Modulus (GPa) = -24.71196 19.17460 -2.76868
#
# Velocity S-wave (km/s) = -3.62198 3.19048 -1.21235
# Velocity P-wave (km/s) = 2.50010 6.68017 5.04357
#
# Compressibility (1/GPa) = 0.02235963
#
# Stress axis : x y z
#
# Youngs Moduli (GPa) = 98.52117 49.82722 26.97381
#
# Poissons Ratio (x) = 0.04883 0.27066
# Poissons Ratio (y) = 0.09655 0.30891
# Poissons Ratio (z) = 0.98859 0.57063
#
# Static dielectric constant tensor:
#      x y z
#    x 1.710110 0.000000 -0.003630 
#    y 0.000000 1.643150 0.000000 
#    z -0.003630 0.000000 1.637850 
# 
# From -- ./inp_files/55110.got.cif
#   From: 2010.05.17/outbox.cif.g08.bks.cpg/sg10_28_cif.got.tgz:55110.got - 2010.06.03 11:33:40.
