data_PCOD9148842
_publ_section_title
;
Structure prediction by ZEFSAII (Michael W. Deem and Ramdas Pophale) SiO2 
 PCOD9148842
Probable space group: P 2/M
;
_chemical_formula_sum "Si O2"
_cell_formula_units_Z 29
_cell_length_a 12.127525
_cell_length_b 9.635758
_cell_length_c 14.750946
_cell_angle_alpha 90.000000
_cell_angle_beta 122.960573
_cell_angle_gamma 90.000000
_cell_volume 1446.316259
_symmetry_space_group_name_H-M "P 2/M"
_symmetry_group_IT_number 10
_symmetry_cell_setting 'monoclinic'
loop_
_space_group_symop_operation_xyz
x,y,z
-x,y,-z
-x,-y,-z
x,-y,z
loop_
_atom_site_type_symbol
_atom_site_label
_atom_site_fract_x
_atom_site_fract_y
_atom_site_fract_z
Si Si1 0.586484 0.152725 0.855072
Si Si2 0.265212 0.715982 0.927987
Si Si3 0.551830 0.337669 0.676003
Si Si4 0.799016 0.336177 0.658269
Si Si5 0.004772 0.341847 0.101119
Si Si6 0.500000 0.500000 0.000000
Si Si7 0.273738 0.840012 0.744345
Si Si8 0.282293 0.167820 0.544658
O O1 0.615454 0.274561 0.796257
O O2 0.433567 0.169321 0.814866
O O3 0.597918 0.000000 0.817002
O O4 0.679166 0.161807 0.983573
O O5 0.140364 0.655606 0.923355
O O6 0.389899 0.617425 0.975554
O O7 0.224809 0.755120 0.807974
O O8 0.515257 0.500000 0.672490
O O9 0.655474 0.330164 0.640998
O O10 0.425501 0.241080 0.602724
O O11 0.825182 0.500000 0.649276
O O12 0.801001 0.240553 0.570887
O O13 0.899499 0.282765 0.779677
O O14 0.055388 0.500000 0.110308
O O15 0.000000 0.273866 0.000000
O O16 0.232385 0.799492 0.624254
O O17 0.238402 0.000000 0.741865
O O18 0.291334 0.000000 0.540331
#
# Coordination Sequence:
#
# PCOD9148842 Si02
#       8
#     4   4   4   4   4   1   4   4
#     4  10  20  33  54  85 120 157 193 241 308 368
#     4  12  21  36  58  87 126 150 199 253 303 349
#     4  10  20  33  58  86 118 154 200 256 302 352
#     4  10  21  39  57  83 114 158 206 242 297 359
#     4  10  22  40  61  84 119 164 198 235 292 363
#     4  12  24  32  56 104 118 150 200 262 304 356
#     4   9  19  36  55  79 111 151 191 237 301 362
#     4  10  21  37  59  86 118 156 199 251 307 357
#
# _framework density 20.050937999999999
#
# number of rings (size 3 to 8) (size 9 to 14) (size 15 to 20)
#    0.000    1.793    2.069    3.310    0.966    4.966 
#    1.241    2.069    0.000    6.207    0.000    0.000 
#    0.000    0.000    0.000    0.000    0.000    0.000 
#
# Total GULP energy -161507.742981 kJ/mol
# GULP energy per Si atom -5569.232517 kJ/mol
# Density = 2.000530 g / cm^3
# Si number density = 20.050938 Si / 1000 Ang^3
#
#
#
# Elastic Constant Matrix: (Units=GPa)
#
#
# Indices 1 2 3 4 5 6 
#
# 1 63.6222 18.3100 32.9529 0.0000 -17.6447 0.0000
# 2 18.3100 86.4620 46.8665 0.0000 -19.8117 0.0000
# 3 32.9529 46.8665 153.2619 0.0000 -23.1360 0.0000
# 4 0.0000 0.0000 0.0000 229.2388 0.0000 -129.9890
# 5 -17.6447 -19.8117 -23.1360 0.0000 26.5900 0.0000
# 6 0.0000 0.0000 0.0000 -129.9890 0.0000 87.3136
#
#
#
# Elastic Compliance Matrix: (Units=1/GPa)
#
#
# Indices 1 2 3 4 5 6 
#
# 1 0.020176 -0.000386 -0.002581 0.000000 0.010855 0.000000
# 2 -0.000386 0.015367 -0.003369 0.000000 0.008262 0.000000
# 3 -0.002581 -0.003369 0.008602 0.000000 0.003262 0.000000
# 4 0.000000 0.000000 0.000000 0.027998 0.000000 0.041683
# 5 0.010855 0.008262 0.003262 0.000000 0.053805 0.000000
# 6 0.000000 0.000000 0.000000 0.041683 0.000000 0.073509
#
#
# Mechanical properties :
#
#
# Convention : Reuss Voigt Hill
#
# Bulk Modulus (GPa) = 31.77360 55.51166 43.64263
# Shear Modulus (GPa) = 22.45958 82.30959 52.38458
#
# Velocity S-wave (km/s) = 3.35046 6.41400 5.11688
# Velocity P-wave (km/s) = 5.55412 9.08834 7.53147
#
# Compressibility (1/GPa) = 0.03147266
#
# Stress axis : x y z
#
# Youngs Moduli (GPa) = 49.56277 65.07555 116.24695
#
# Poissons Ratio (x) = 0.02514 0.30008
# Poissons Ratio (y) = 0.01914 0.39161
# Poissons Ratio (z) = 0.12794 0.21923
#
# Static dielectric constant tensor:
#      x y z
#    x 1.684850 0.000000 -0.009280 
#    y 0.000000 1.695240 0.000000 
#    z -0.009280 0.000000 1.774940 
# 
# From -- ./inp_files/63959.got.cif
#   From: 2010.05.17/outbox.cif.g08.bks.cpg/sg10_32_cif.got.tgz:63959.got - 2010.06.03 11:33:40.
