data_PCOD9148287
_publ_section_title
;
Structure prediction by ZEFSAII (Michael W. Deem and Ramdas Pophale) SiO2 
 PCOD9148287
Probable space group: P 2/M
;
_chemical_formula_sum "Si O2"
_cell_formula_units_Z 32
_cell_length_a 21.675129
_cell_length_b 7.424159
_cell_length_c 21.675139
_cell_angle_alpha 90.000000
_cell_angle_beta 154.889248
_cell_angle_gamma 90.000000
_cell_volume 1480.181113
_symmetry_space_group_name_H-M "P 2/M"
_symmetry_group_IT_number 10
_symmetry_cell_setting 'monoclinic'
loop_
_space_group_symop_operation_xyz
x,y,z
-x,y,-z
-x,-y,-z
x,-y,z
loop_
_atom_site_type_symbol
_atom_site_label
_atom_site_fract_x
_atom_site_fract_y
_atom_site_fract_z
Si Si1 0.125930 0.283237 0.196867
Si Si2 0.803134 0.283237 0.874070
Si Si3 0.006224 0.779688 0.320038
Si Si4 0.882701 0.780178 0.444749
Si Si5 0.562376 0.787082 0.756476
Si Si6 0.444749 0.780178 0.882702
Si Si7 0.320037 0.779689 0.006223
Si Si8 0.756475 0.787082 0.562375
O O1 0.123096 0.500000 0.192410
O O2 0.200019 0.221767 0.200019
O O3 0.204869 0.232906 0.330995
O O4 0.957702 0.221416 0.042299
O O5 0.807590 0.500000 0.876905
O O6 0.669006 0.232905 0.795133
O O7 0.066801 0.724601 0.441487
O O8 0.114682 0.716888 0.364422
O O9 0.004029 0.000000 0.317678
O O10 0.841322 0.721133 0.158679
O O11 0.719398 0.721920 0.280602
O O12 0.000000 0.723200 0.500000
O O13 0.881472 0.000000 0.443264
O O14 0.635579 0.716887 0.885318
O O15 0.402249 0.712273 0.597752
O O16 0.544979 0.000000 0.751093
O O17 0.558513 0.724601 0.933200
O O18 0.443264 0.000000 0.881472
O O19 0.500000 0.723200 0.000000
O O20 0.317677 0.000000 0.004028
O O21 0.751093 0.000000 0.544979
#
# Coordination Sequence:
#
# PCOD9148287 Si02
#       8
#     4   4   4   4   4   4   4   4
#     4   9  19  36  55  73  94 122 157 196 237 282
#     4   9  19  36  55  73  94 122 157 196 237 282
#     4   9  16  26  40  58  83 117 155 193 234 278
#     4   9  15  22  33  51  78 113 152 191 231 277
#     4  10  20  32  47  70  99 128 158 194 237 285
#     4   9  15  22  33  51  78 113 152 191 231 277
#     4   9  16  26  40  58  83 117 155 193 234 278
#     4  10  20  32  47  70  99 128 158 194 237 285
#
# _framework density 21.618977000000001
#
# number of rings (size 3 to 8) (size 9 to 14) (size 15 to 20)
#    0.000    2.750    0.000    3.000    0.000    9.000 
#    0.000    3.750    0.000    0.000    0.000    0.000 
#    0.000    1.000    0.000    3.750    0.000    8.250 
#
# Total GULP energy -178766.750146 kJ/mol
# GULP energy per Si atom -5586.460942 kJ/mol
# Density = 2.156977 g / cm^3
# Si number density = 21.618977 Si / 1000 Ang^3
#
#
#
# Elastic Constant Matrix: (Units=GPa)
#
#
# Indices 1 2 3 4 5 6 
#
# 1 194.5874 -1.8716 148.1621 0.0000 7.6817 0.0000
# 2 -1.8716 67.0058 5.0991 0.0000 2.0120 0.0000
# 3 148.1621 5.0991 240.2029 0.0000 5.4842 0.0000
# 4 0.0000 0.0000 0.0000 -14.2143 0.0000 -24.6382
# 5 7.6817 2.0120 5.4842 0.0000 35.8851 0.0000
# 6 0.0000 0.0000 0.0000 -24.6382 0.0000 71.1322
#
#
#
# Elastic Compliance Matrix: (Units=1/GPa)
#
#
# Indices 1 2 3 4 5 6 
#
# 1 0.009778 0.000768 -0.006020 0.000000 -0.001216 0.000000
# 2 0.000768 0.015031 -0.000772 0.000000 -0.000889 0.000000
# 3 -0.006020 -0.000772 0.007890 0.000000 0.000126 0.000000
# 4 0.000000 0.000000 0.000000 -0.043959 0.000000 -0.015226
# 5 -0.001216 -0.000889 0.000126 0.000000 0.028158 0.000000
# 6 0.000000 0.000000 0.000000 -0.015226 0.000000 0.008784
#
#
# Mechanical properties :
#
#
# Convention : Reuss Voigt Hill
#
# Bulk Modulus (GPa) = 48.42610 89.39725 68.91167
# Shear Modulus (GPa) = 112.07292 41.92104 76.99698
#
# Velocity S-wave (km/s) = 7.20782 4.40828 5.97434
# Velocity P-wave (km/s) = 9.57698 8.20681 8.91825
#
# Compressibility (1/GPa) = 0.02065002
#
# Stress axis : x y z
#
# Youngs Moduli (GPa) = 102.26930 66.52914 126.74522
#
# Poissons Ratio (x) = -0.05108 0.76299
# Poissons Ratio (y) = -0.07852 0.09789
# Poissons Ratio (z) = 0.61565 0.05138
#
# Static dielectric constant tensor:
#      x y z
#    x 1.736710 0.000000 0.001730 
#    y 0.000000 1.840330 0.000000 
#    z 0.001730 0.000000 1.742710 
# 
# From -- ./inp_files/78923.got.cif
#   From: 2010.05.17/outbox.cif.g08.bks.cpg/sg10_40_cif.got.tgz:78923.got - 2010.06.03 11:33:40.
