data_PCOD9148204
_publ_section_title
;
Structure prediction by ZEFSAII (Michael W. Deem and Ramdas Pophale) SiO2 
 PCOD9148204
Probable space group: P 2/M
;
_chemical_formula_sum "Si O2"
_cell_formula_units_Z 28
_cell_length_a 15.425379
_cell_length_b 7.568155
_cell_length_c 14.540555
_cell_angle_alpha 90.000000
_cell_angle_beta 102.439400
_cell_angle_gamma 90.000000
_cell_volume 1657.638925
_symmetry_space_group_name_H-M "P 2/M"
_symmetry_group_IT_number 10
_symmetry_cell_setting 'monoclinic'
loop_
_space_group_symop_operation_xyz
x,y,z
-x,y,-z
-x,-y,-z
x,-y,z
loop_
_atom_site_type_symbol
_atom_site_label
_atom_site_fract_x
_atom_site_fract_y
_atom_site_fract_z
Si Si1 0.613647 0.207814 0.370853
Si Si2 0.736203 0.296380 0.229318
Si Si3 0.700019 0.286514 0.585967
Si Si4 0.431885 0.000000 0.121512
Si Si5 0.109015 0.715437 0.429818
Si Si6 0.416671 0.295810 0.269040
Si Si7 0.087558 0.715108 0.636864
Si Si8 0.634692 0.000000 0.096943
O O1 0.682055 0.288969 0.313265
O O2 0.647961 0.233041 0.481963
O O3 0.516174 0.285569 0.332953
O O4 0.608646 0.000000 0.349551
O O5 0.739117 0.500000 0.199338
O O6 0.835198 0.230193 0.276462
O O7 0.686125 0.170422 0.147226
O O8 0.700298 0.500000 0.587134
O O9 0.801696 0.224938 0.599549
O O10 0.649630 0.230198 0.666344
O O11 0.413798 0.829321 0.180158
O O12 0.535574 0.000000 0.116691
O O13 0.376360 0.000000 0.015011
O O14 0.109284 0.500000 0.429385
O O15 0.110815 0.769388 0.537595
O O16 0.013662 0.771255 0.368113
O O17 0.396918 0.500000 0.242324
O O18 0.088984 0.500000 0.637143
#
# Coordination Sequence:
#
# PCOD9148204 Si02
#       8
#     4   4   4   2   4   4   4   2
#     4  12  21  32  49  75 111 147 179 208 245 297
#     4  11  19  33  55  79 106 140 174 210 256 310
#     4  10  20  31  50  77 107 145 182 209 243 297
#     4  11  24  42  56  76 103 129 169 226 274 314
#     4   8  13  25  43  73 107 139 174 208 241 289
#     4  11  22  37  55  76 103 140 179 213 256 307
#     4   8  14  24  47  73 103 141 173 204 249 295
#     4  11  24  40  57  78 100 129 173 219 276 321
#
# _framework density 16.891494000000002
#
# number of rings (size 3 to 8) (size 9 to 14) (size 15 to 20)
#    0.000    1.857    4.286    2.571    1.000    2.286 
#    0.000    1.429    1.571    1.714    0.000    2.000 
#    0.000    5.714    0.000    0.000    0.000    0.000 
#
# Total GULP energy -156317.013933 kJ/mol
# GULP energy per Si atom -5582.750498 kJ/mol
# Density = 1.685305 g / cm^3
# Si number density = 16.891494 Si / 1000 Ang^3
#
#
#
# Elastic Constant Matrix: (Units=GPa)
#
#
# Indices 1 2 3 4 5 6 
#
# 1 106.3778 24.0095 75.7436 0.0000 7.5175 0.0000
# 2 24.0095 78.8139 41.5072 0.0000 6.3020 0.0000
# 3 75.7436 41.5072 124.9368 0.0000 10.5034 0.0000
# 4 0.0000 0.0000 0.0000 -32.0289 0.0000 27.0076
# 5 7.5175 6.3020 10.5034 0.0000 23.9940 0.0000
# 6 0.0000 0.0000 0.0000 27.0076 0.0000 -19.8079
#
#
#
# Elastic Compliance Matrix: (Units=1/GPa)
#
#
# Indices 1 2 3 4 5 6 
#
# 1 0.016563 0.000331 -0.010079 0.000000 -0.000864 0.000000
# 2 0.000331 0.015467 -0.005180 0.000000 -0.001899 0.000000
# 3 -0.010079 -0.005180 0.016046 0.000000 -0.002506 0.000000
# 4 0.000000 0.000000 0.000000 0.208536 0.000000 0.284335
# 5 -0.000864 -0.001899 -0.002506 0.000000 0.043544 0.000000
# 6 0.000000 0.000000 0.000000 0.284335 0.000000 0.337199
#
#
# Mechanical properties :
#
#
# Convention : Reuss Voigt Hill
#
# Bulk Modulus (GPa) = 54.88040 65.84990 60.36515
# Shear Modulus (GPa) = 7.42629 5.68932 6.55781
#
# Velocity S-wave (km/s) = 2.09905 1.83724 1.97250
# Velocity P-wave (km/s) = 6.19961 6.60071 6.40330
#
# Compressibility (1/GPa) = 0.01822144
#
# Stress axis : x y z
#
# Youngs Moduli (GPa) = 60.37469 64.65414 62.32075
#
# Poissons Ratio (x) = -0.02143 0.62813
# Poissons Ratio (y) = -0.02001 0.32281
# Poissons Ratio (z) = 0.60852 0.33490
#
# Static dielectric constant tensor:
#      x y z
#    x 1.589420 0.000000 0.005910 
#    y 0.000000 1.616040 0.000000 
#    z 0.005910 0.000000 1.527230 
# 
# From -- ./inp_files/65808.got.cif
#   From: 2010.05.17/outbox.cif.g08.bks.cpg/sg10_33_cif.got.tgz:65808.got - 2010.06.03 11:33:40.
