data_PCOD9148325
_publ_section_title
;
Structure prediction by ZEFSAII (Michael W. Deem and Ramdas Pophale) SiO2 
 PCOD9148325
Probable space group: P 2/M
;
_chemical_formula_sum "Si O2"
_cell_formula_units_Z 30
_cell_length_a 17.128474
_cell_length_b 8.074176
_cell_length_c 11.406334
_cell_angle_alpha 90.000000
_cell_angle_beta 79.779388
_cell_angle_gamma 90.000000
_cell_volume 1552.445102
_symmetry_space_group_name_H-M "P 2/M"
_symmetry_group_IT_number 10
_symmetry_cell_setting 'monoclinic'
loop_
_space_group_symop_operation_xyz
x,y,z
-x,y,-z
-x,-y,-z
x,-y,z
loop_
_atom_site_type_symbol
_atom_site_label
_atom_site_fract_x
_atom_site_fract_y
_atom_site_fract_z
Si Si1 0.679893 0.192490 0.849808
Si Si2 0.006395 0.807769 0.640341
Si Si3 0.834907 0.309280 0.708474
Si Si4 0.660536 0.200597 0.355999
Si Si5 0.822551 0.799338 0.441925
Si Si6 0.500000 0.247484 0.500000
Si Si7 0.394570 0.801787 0.886617
Si Si8 0.547065 0.688398 0.726040
O O1 0.773198 0.210033 0.804200
O O2 0.632015 0.284624 0.760396
O O3 0.657695 0.000000 0.845573
O O4 0.649585 0.253144 0.984127
O O5 0.927756 0.721416 0.708482
O O6 0.000000 0.802114 0.500000
O O7 0.094893 0.741350 0.639479
O O8 0.002336 0.000000 0.676678
O O9 0.816256 0.500000 0.729775
O O10 0.820356 0.261764 0.576248
O O11 0.743852 0.244634 0.391991
O O12 0.588102 0.300661 0.433773
O O13 0.655840 0.229072 0.218128
O O14 0.646464 0.000000 0.379311
O O15 0.827028 0.000000 0.445863
O O16 0.472119 0.189602 0.377109
O O17 0.479911 0.719806 0.841551
O O18 0.406902 0.000000 0.891065
O O19 0.539337 0.500000 0.682500
#
# Coordination Sequence:
#
# PCOD9148325 Si02
#       8
#     4   4   4   4   4   2   4   4
#     4  11  22  36  53  72  98 131 169 209 247 291
#     4   8  15  29  48  71 100 132 163 198 245 297
#     4  11  21  31  48  75 104 131 162 203 249 297
#     4   9  17  31  52  76  99 128 168 208 245 289
#     4   9  17  31  52  76 103 133 164 200 246 300
#     4  10  20  32  48  74 109 140 161 194 247 296
#     4   9  20  37  54  72  96 130 170 209 247 288
#     4  11  22  35  52  74 102 133 166 204 245 292
#
# _framework density 19.324354
#
# number of rings (size 3 to 8) (size 9 to 14) (size 15 to 20)
#    0.000    2.267    0.000    4.400    0.000    7.733 
#    0.000    2.667    0.000    0.800    0.000    5.600 
#    0.000    0.000    0.000    0.000    0.000    0.000 
#
# Total GULP energy -167083.635849 kJ/mol
# GULP energy per Si atom -5569.454528 kJ/mol
# Density = 1.928037 g / cm^3
# Si number density = 19.324354 Si / 1000 Ang^3
#
#
#
# Elastic Constant Matrix: (Units=GPa)
#
#
# Indices 1 2 3 4 5 6 
#
# 1 126.2100 15.9028 35.3674 0.0000 -12.2679 0.0000
# 2 15.9028 38.6704 9.1778 0.0000 1.8941 0.0000
# 3 35.3674 9.1778 86.1869 0.0000 -14.6809 0.0000
# 4 0.0000 0.0000 0.0000 15.1727 0.0000 -9.1887
# 5 -12.2679 1.8941 -14.6809 0.0000 17.0833 0.0000
# 6 0.0000 0.0000 0.0000 -9.1887 0.0000 15.3396
#
#
#
# Elastic Compliance Matrix: (Units=1/GPa)
#
#
# Indices 1 2 3 4 5 6 
#
# 1 0.009616 -0.003551 -0.002723 0.000000 0.004959 0.000000
# 2 -0.003551 0.028431 -0.002978 0.000000 -0.008261 0.000000
# 3 -0.002723 -0.002978 0.014949 0.000000 0.011221 0.000000
# 4 0.000000 0.000000 0.000000 0.103429 0.000000 0.061956
# 5 0.004959 -0.008261 0.011221 0.000000 0.072657 0.000000
# 6 0.000000 0.000000 0.000000 0.061956 0.000000 0.102303
#
#
# Mechanical properties :
#
#
# Convention : Reuss Voigt Hill
#
# Bulk Modulus (GPa) = 28.99202 41.32926 35.16064
# Shear Modulus (GPa) = 13.83563 22.22705 18.03134
#
# Velocity S-wave (km/s) = 2.67866 3.39515 3.05796
# Velocity P-wave (km/s) = 4.96008 6.06655 5.54100
#
# Compressibility (1/GPa) = 0.03449225
#
# Stress axis : x y z
#
# Youngs Moduli (GPa) = 103.99504 35.17259 66.89594
#
# Poissons Ratio (x) = 0.12490 0.18216
# Poissons Ratio (y) = 0.36929 0.19919
# Poissons Ratio (z) = 0.28319 0.10473
#
# Static dielectric constant tensor:
#      x y z
#    x 1.676150 0.000000 -0.015150 
#    y 0.000000 1.754990 0.000000 
#    z -0.015150 0.000000 1.660600 
# 
# From -- ./inp_files/53061.got.cif
#   From: 2010.05.17/outbox.cif.g08.bks.cpg/sg10_27_cif.got.tgz:53061.got - 2010.06.03 11:33:40.
