data_PCOD9148765
_publ_section_title
;
Structure prediction by ZEFSAII (Michael W. Deem and Ramdas Pophale) SiO2 
 PCOD9148765
Probable space group: P 2/M
;
_chemical_formula_sum "Si O2"
_cell_formula_units_Z 30
_cell_length_a 11.756490
_cell_length_b 12.639947
_cell_length_c 20.994509
_cell_angle_alpha 90.000000
_cell_angle_beta 28.699585
_cell_angle_gamma 90.000000
_cell_volume 1498.188001
_symmetry_space_group_name_H-M "P 2/M"
_symmetry_group_IT_number 10
_symmetry_cell_setting 'monoclinic'
loop_
_space_group_symop_operation_xyz
x,y,z
-x,y,-z
-x,-y,-z
x,-y,z
loop_
_atom_site_type_symbol
_atom_site_label
_atom_site_fract_x
_atom_site_fract_y
_atom_site_fract_z
Si Si1 0.834811 0.119834 0.238730
Si Si2 0.181824 0.124563 0.612350
Si Si3 0.268188 0.879423 0.947976
Si Si4 0.724286 0.321644 0.136321
Si Si5 0.642302 0.182576 0.864137
Si Si6 0.577121 0.210205 0.625666
Si Si7 0.687490 0.620511 0.755465
Si Si8 0.000000 0.743278 0.500000
O O1 0.757610 0.160228 0.345521
O O2 0.625029 0.125780 0.291481
O O3 0.063808 0.169470 0.093871
O O4 0.906769 0.000000 0.216920
O O5 0.282985 0.204113 0.509829
O O6 0.898504 0.131776 0.747023
O O7 0.255902 0.000000 0.566126
O O8 0.214258 0.000000 0.956760
O O9 0.278746 0.801338 0.883921
O O10 0.502340 0.874450 0.875648
O O11 0.573332 0.313175 0.276422
O O12 0.556926 0.375810 0.165831
O O13 0.000000 0.356503 0.000000
O O14 0.664685 0.302687 0.827243
O O15 0.500000 0.175366 0.000000
O O16 0.781595 0.191833 0.577434
O O17 0.742849 0.500000 0.744238
O O18 0.885838 0.671323 0.611436
#
# Coordination Sequence:
#
# PCOD9148765 Si02
#       8
#     4   4   4   4   4   4   4   2
#     4  10  20  34  54  79 113 159 201 229 267 327
#     4  11  22  36  56  84 120 160 198 235 272 327
#     4  10  20  33  52  82 116 156 191 222 271 335
#     4  10  21  37  58  83 116 148 188 234 289 345
#     4  11  21  37  59  84 116 148 189 240 290 337
#     4  11  21  37  55  81 118 151 196 237 277 330
#     4  10  22  40  63  86 110 141 187 243 300 356
#     4  10  21  40  63  84 112 150 191 236 297 352
#
# _framework density 20.024189
#
# number of rings (size 3 to 8) (size 9 to 14) (size 15 to 20)
#    0.000    1.600    4.000    1.400    0.000    3.467 
#    0.000    1.333    0.000    0.000    0.000    2.800 
#    0.000    0.000    0.000    0.000    0.000    0.000 
#
# Total GULP energy -167167.677729 kJ/mol
# GULP energy per Si atom -5572.255924 kJ/mol
# Density = 1.997861 g / cm^3
# Si number density = 20.024189 Si / 1000 Ang^3
#
#
#
# Elastic Constant Matrix: (Units=GPa)
#
#
# Indices 1 2 3 4 5 6 
#
# 1 80.1054 12.1381 28.1247 0.0000 -12.1780 0.0000
# 2 12.1381 52.2676 -2.5425 0.0000 9.3675 0.0000
# 3 28.1247 -2.5425 97.4843 0.0000 0.1790 0.0000
# 4 0.0000 0.0000 0.0000 6.5742 0.0000 -0.8053
# 5 -12.1780 9.3675 0.1790 0.0000 43.3184 0.0000
# 6 0.0000 0.0000 0.0000 -0.8053 0.0000 1.5556
#
#
#
# Elastic Compliance Matrix: (Units=1/GPa)
#
#
# Indices 1 2 3 4 5 6 
#
# 1 0.015689 -0.004852 -0.004663 0.000000 0.005479 0.000000
# 2 -0.004852 0.021432 0.001970 0.000000 -0.006007 0.000000
# 3 -0.004663 0.001970 0.011658 0.000000 -0.001785 0.000000
# 4 0.000000 0.000000 0.000000 0.162408 0.000000 0.084071
# 5 0.005479 -0.006007 -0.001785 0.000000 0.025932 0.000000
# 6 0.000000 0.000000 0.000000 0.084071 0.000000 0.686350
#
#
# Mechanical properties :
#
#
# Convention : Reuss Voigt Hill
#
# Bulk Modulus (GPa) = 29.68432 33.92198 31.80315
# Shear Modulus (GPa) = 5.26433 23.09877 14.18155
#
# Velocity S-wave (km/s) = 1.62317 3.40007 2.66413
# Velocity P-wave (km/s) = 4.28595 5.69133 5.03789
#
# Compressibility (1/GPa) = 0.03368782
#
# Stress axis : x y z
#
# Youngs Moduli (GPa) = 63.73938 46.66028 85.77802
#
# Poissons Ratio (x) = 0.22641 0.39998
# Poissons Ratio (y) = 0.30928 -0.16897
# Poissons Ratio (z) = 0.29721 -0.09192
#
# Static dielectric constant tensor:
#      x y z
#    x 1.727410 0.000000 0.014500 
#    y 0.000000 1.673350 0.000000 
#    z 0.014500 0.000000 1.816410 
# 
# From -- ./inp_files/84032.got.cif
#   From: 2010.05.17/outbox.cif.g08.bks.cpg/sg10_43_cif.got.tgz:84032.got - 2010.06.03 11:33:40.
