data_PCOD9148173
_publ_section_title
;
Structure prediction by ZEFSAII (Michael W. Deem and Ramdas Pophale) SiO2 
 PCOD9148173
Probable space group: P 2/M
;
_chemical_formula_sum "Si O2"
_cell_formula_units_Z 28
_cell_length_a 27.355871
_cell_length_b 7.299548
_cell_length_c 8.139933
_cell_angle_alpha 90.000000
_cell_angle_beta 141.332146
_cell_angle_gamma 90.000000
_cell_volume 1015.574132
_symmetry_space_group_name_H-M "P 2/M"
_symmetry_group_IT_number 10
_symmetry_cell_setting 'monoclinic'
loop_
_space_group_symop_operation_xyz
x,y,z
-x,y,-z
-x,-y,-z
x,-y,z
loop_
_atom_site_type_symbol
_atom_site_label
_atom_site_fract_x
_atom_site_fract_y
_atom_site_fract_z
Si Si1 0.023568 0.214785 0.815522
Si Si2 0.163920 0.280457 0.981527
Si Si3 0.688946 0.277631 0.455974
Si Si4 0.875837 0.221535 0.609089
Si Si5 0.450837 0.280438 0.702377
Si Si6 0.732217 0.290513 0.040648
Si Si7 0.594217 0.275328 0.883039
O O1 0.075011 0.231998 0.787179
O O2 0.936367 0.284705 0.622997
O O3 0.015257 0.000000 0.822766
O O4 0.080299 0.283999 0.110649
O O5 0.164216 0.500000 0.975211
O O6 0.209823 0.208157 0.942897
O O7 0.222447 0.219483 0.281517
O O8 0.687502 0.500000 0.450369
O O9 0.635430 0.218341 0.471568
O O10 0.645391 0.221090 0.177018
O O11 0.789554 0.294419 0.349219
O O12 0.869068 0.000000 0.594281
O O13 0.446284 0.500000 0.669238
O O14 0.500000 0.249219 0.000000
O O15 0.506345 0.215833 0.699510
O O16 0.717058 0.500000 0.949454
O O17 0.648252 0.213954 0.873435
O O18 0.592156 0.500000 0.868456
#
# Coordination Sequence:
#
# PCOD9148173 Si02
#       7
#     4   4   4   4   4   4   4
#     4   9  19  36  55  72  89 113 151 196 236 276
#     4  10  20  31  44  68 101 130 155 185 224 273
#     4   8  13  23  40  61  87 120 156 192 228 265
#     4   9  19  36  55  72  89 113 151 196 236 276
#     4   7  10  18  35  59  84 113 152 193 228 262
#     4  10  20  31  44  68 101 130 155 185 224 273
#     4   8  13  23  40  61  87 120 156 192 228 265
#
# _framework density 27.570612000000001
#
# number of rings (size 3 to 8) (size 9 to 14) (size 15 to 20)
#    0.000    3.286    0.000    3.429    0.000    3.429 
#    0.000    5.000    0.000    4.286    0.000    1.000 
#    0.000    8.000    0.000    0.000    0.000    0.000 
#
# Total GULP energy -156487.425569 kJ/mol
# GULP energy per Si atom -5588.836627 kJ/mol
# Density = 2.750786 g / cm^3
# Si number density = 27.570612 Si / 1000 Ang^3
#
#
#
# Elastic Constant Matrix: (Units=GPa)
#
#
# Indices 1 2 3 4 5 6 
#
# 1 221.3120 -2.9883 44.9042 0.0000 46.6933 0.0000
# 2 -2.9883 114.6166 -7.8113 0.0000 1.3562 0.0000
# 3 44.9042 -7.8113 122.7529 0.0000 42.6074 0.0000
# 4 0.0000 0.0000 0.0000 -1.7316 0.0000 -5.0640
# 5 46.6933 1.3562 42.6074 0.0000 61.9244 0.0000
# 6 0.0000 0.0000 0.0000 -5.0640 0.0000 -1.4959
#
#
#
# Elastic Compliance Matrix: (Units=1/GPa)
#
#
# Indices 1 2 3 4 5 6 
#
# 1 0.005426 0.000134 -0.000729 0.000000 -0.003593 0.000000
# 2 0.000134 0.008793 0.000805 0.000000 -0.000847 0.000000
# 3 -0.000729 0.000805 0.010877 0.000000 -0.006952 0.000000
# 4 0.000000 0.000000 0.000000 0.064888 0.000000 -0.219662
# 5 -0.003593 -0.000847 -0.006952 0.000000 0.023660 0.000000
# 6 0.000000 0.000000 0.000000 -0.219662 0.000000 0.075113
#
#
# Mechanical properties :
#
#
# Convention : Reuss Voigt Hill
#
# Bulk Modulus (GPa) = 39.19157 58.54341 48.86749
# Shear Modulus (GPa) = 25.40086 40.04450 32.72268
#
# Velocity S-wave (km/s) = 3.03859 3.81522 3.44883
# Velocity P-wave (km/s) = 5.15330 6.37871 5.79847
#
# Compressibility (1/GPa) = 0.02551569
#
# Stress axis : x y z
#
# Youngs Moduli (GPa) = 184.28676 113.72553 91.93310
#
# Poissons Ratio (x) = -0.01527 0.06706
# Poissons Ratio (y) = -0.02475 -0.07397
# Poissons Ratio (z) = 0.13443 -0.09150
#
# Static dielectric constant tensor:
#      x y z
#    x 2.210550 0.000000 -0.076610 
#    y 0.000000 2.069150 0.000000 
#    z -0.076610 0.000000 2.132080 
# 
# From -- ./inp_files/37293.got.cif
#   From: 2010.05.17/outbox.cif.g08.bks.cpg/sg10_19_cif.got.tgz:37293.got - 2010.06.03 11:33:40.
