data_PCOD9148672
_publ_section_title
;
Structure prediction by ZEFSAII (Michael W. Deem and Ramdas Pophale) SiO2 
 PCOD9148672
Probable space group: P 2/M
;
_chemical_formula_sum "Si O2"
_cell_formula_units_Z 32
_cell_length_a 20.396088
_cell_length_b 7.654883
_cell_length_c 11.721670
_cell_angle_alpha 90.000000
_cell_angle_beta 55.402205
_cell_angle_gamma 90.000000
_cell_volume 1506.462220
_symmetry_space_group_name_H-M "P 2/M"
_symmetry_group_IT_number 10
_symmetry_cell_setting 'monoclinic'
loop_
_space_group_symop_operation_xyz
x,y,z
-x,y,-z
-x,-y,-z
x,-y,z
loop_
_atom_site_type_symbol
_atom_site_label
_atom_site_fract_x
_atom_site_fract_y
_atom_site_fract_z
Si Si1 0.177434 0.291082 0.159893
Si Si2 0.956842 0.286960 0.869136
Si Si3 0.420199 0.211594 0.015749
Si Si4 0.336515 0.294745 0.873321
Si Si5 0.739970 0.790036 0.698305
Si Si6 0.721411 0.792875 0.463301
Si Si7 0.117542 0.710698 0.815360
Si Si8 0.413088 0.203299 0.562794
O O1 0.178499 0.500000 0.145073
O O2 0.095410 0.226166 0.185854
O O3 0.191929 0.256083 0.278430
O O4 0.254665 0.225401 0.011878
O O5 0.959480 0.500000 0.864010
O O6 0.047713 0.229051 0.797945
O O7 0.909416 0.237133 0.031228
O O8 0.343034 0.270084 0.163375
O O9 0.421299 0.000000 0.012765
O O10 0.500000 0.270873 0.000000
O O11 0.404653 0.271323 0.902024
O O12 0.325547 0.500000 0.861294
O O13 0.363040 0.210222 0.729264
O O14 0.744081 0.722098 0.565546
O O15 0.738029 0.000000 0.696731
O O16 0.796165 0.771354 0.306359
O O17 0.642091 0.719035 0.482350
O O18 0.707995 0.000000 0.490592
O O19 0.118439 0.500000 0.813725
O O20 0.500000 0.282894 0.500000
O O21 0.426725 0.000000 0.518645
#
# Coordination Sequence:
#
# PCOD9148672 Si02
#       8
#     4   4   4   4   4   4   4   4
#     4   9  17  32  53  76 102 133 168 208 253 299
#     4   8  15  30  54  80 104 130 168 212 247 295
#     4   9  18  32  55  76  94 130 178 217 250 299
#     4  10  20  33  51  77 107 130 159 210 266 309
#     4   9  19  34  50  72 100 133 172 212 255 301
#     4  10  21  36  52  73 105 136 166 211 260 303
#     4   9  17  32  55  80 103 134 170 204 251 306
#     4  10  22  37  55  74  97 134 177 213 249 305
#
# _framework density 21.241821000000002
#
# number of rings (size 3 to 8) (size 9 to 14) (size 15 to 20)
#    0.000    2.750    0.000    1.875    1.750    3.000 
#    0.000    3.125    0.000    3.750    0.000    0.000 
#    0.000    0.000    0.000    0.000    0.000    0.000 
#
# Total GULP energy -178545.770733 kJ/mol
# GULP energy per Si atom -5579.555335 kJ/mol
# Density = 2.119347 g / cm^3
# Si number density = 21.241821 Si / 1000 Ang^3
#
#
#
# Elastic Constant Matrix: (Units=GPa)
#
#
# Indices 1 2 3 4 5 6 
#
# 1 182.9805 6.5767 30.6223 0.0000 4.4325 0.0000
# 2 6.5767 38.5360 -3.3578 0.0000 -1.8974 0.0000
# 3 30.6223 -3.3578 34.3599 0.0000 6.0400 0.0000
# 4 0.0000 0.0000 0.0000 28.5504 0.0000 2.9189
# 5 4.4325 -1.8974 6.0400 0.0000 20.1734 0.0000
# 6 0.0000 0.0000 0.0000 2.9189 0.0000 14.5268
#
#
#
# Elastic Compliance Matrix: (Units=1/GPa)
#
#
# Indices 1 2 3 4 5 6 
#
# 1 0.006524 -0.001627 -0.006011 0.000000 0.000213 0.000000
# 2 -0.001627 0.026640 0.003747 0.000000 0.001741 0.000000
# 3 -0.006011 0.003747 0.036451 0.000000 -0.009240 0.000000
# 4 0.000000 0.000000 0.000000 0.035760 0.000000 -0.007185
# 5 0.000213 0.001741 -0.009240 0.000000 0.052454 0.000000
# 6 0.000000 0.000000 0.000000 -0.007185 0.000000 0.070282
#
#
# Mechanical properties :
#
#
# Convention : Reuss Voigt Hill
#
# Bulk Modulus (GPa) = 16.17238 35.95098 26.06168
# Shear Modulus (GPa) = 19.49284 27.45246 23.47265
#
# Velocity S-wave (km/s) = 3.03258 3.59887 3.32779
# Velocity P-wave (km/s) = 4.46005 5.85068 5.20204
#
# Compressibility (1/GPa) = 0.06183381
#
# Stress axis : x y z
#
# Youngs Moduli (GPa) = 153.27227 37.53811 27.43376
#
# Poissons Ratio (x) = 0.06106 0.16491
# Poissons Ratio (y) = 0.24933 -0.10280
# Poissons Ratio (z) = 0.92133 -0.14066
#
# Static dielectric constant tensor:
#      x y z
#    x 1.803860 0.000000 0.009720 
#    y 0.000000 1.808730 0.000000 
#    z 0.009720 0.000000 1.727670 
# 
# From -- ./inp_files/55220.got.cif
#   From: 2010.05.17/outbox.cif.g08.bks.cpg/sg10_28_cif.got.tgz:55220.got - 2010.06.03 11:33:40.
