data_PCOD9148248
_publ_section_title
;
Structure prediction by ZEFSAII (Michael W. Deem and Ramdas Pophale) SiO2 
 PCOD9148248
Probable space group: P 2/M
;
_chemical_formula_sum "Si O2"
_cell_formula_units_Z 32
_cell_length_a 12.400025
_cell_length_b 7.378116
_cell_length_c 18.015637
_cell_angle_alpha 90.000000
_cell_angle_beta 133.625639
_cell_angle_gamma 90.000000
_cell_volume 1193.092615
_symmetry_space_group_name_H-M "P 2/M"
_symmetry_group_IT_number 10
_symmetry_cell_setting 'monoclinic'
loop_
_space_group_symop_operation_xyz
x,y,z
-x,y,-z
-x,-y,-z
x,-y,z
loop_
_atom_site_type_symbol
_atom_site_label
_atom_site_fract_x
_atom_site_fract_y
_atom_site_fract_z
Si Si1 0.572963 0.218658 0.609049
Si Si2 0.533976 0.211412 0.287264
Si Si3 0.320926 0.280586 0.835764
Si Si4 0.147544 0.716841 0.528462
Si Si5 0.351980 0.720518 0.023896
Si Si6 0.009004 0.722039 0.314442
Si Si7 0.200180 0.292140 0.087776
Si Si8 0.906385 0.293153 0.806856
O O1 0.500000 0.283829 0.500000
O O2 0.465100 0.261410 0.625218
O O3 0.732718 0.299298 0.701631
O O4 0.592696 0.000000 0.615057
O O5 0.706034 0.245687 0.352352
O O6 0.378830 0.298074 0.188508
O O7 0.504096 0.000000 0.265737
O O8 0.325363 0.500000 0.831638
O O9 0.478187 0.218570 0.874681
O O10 0.155537 0.224561 0.735548
O O11 0.332331 0.233152 0.928654
O O12 0.139700 0.500000 0.521075
O O13 0.129152 0.780463 0.433571
O O14 0.000000 0.782682 0.500000
O O15 0.349361 0.500000 0.025359
O O16 0.216883 0.786484 0.012395
O O17 0.013557 0.500000 0.312427
O O18 0.025964 0.786436 0.237100
O O19 0.154646 0.500000 0.062341
O O20 0.110644 0.215046 0.116413
O O21 0.963360 0.500000 0.840150
#
# Coordination Sequence:
#
# PCOD9148248 Si02
#       8
#     4   4   4   4   4   4   4   4
#     4   9  17  29  45  63  84 116 157 195 228 266
#     4  10  20  32  46  67  94 124 157 193 235 276
#     4   8  14  25  43  68  94 121 151 190 235 276
#     4  10  21  33  47  68  92 124 164 198 230 272
#     4   8  14  25  44  70  95 117 151 194 234 273
#     4   9  17  29  44  64  96 127 153 189 236 282
#     4   9  17  29  48  71  96 122 155 195 230 273
#     4   9  17  28  42  65  93 122 150 184 232 277
#
# _framework density 26.821051000000001
#
# number of rings (size 3 to 8) (size 9 to 14) (size 15 to 20)
#    0.000    3.000    0.000    1.875    1.750    1.000 
#    0.000    0.625    0.000    3.750    0.000    3.500 
#    0.000    4.000    0.000    0.000    0.000    0.000 
#
# Total GULP energy -178611.277376 kJ/mol
# GULP energy per Si atom -5581.602418 kJ/mol
# Density = 2.676001 g / cm^3
# Si number density = 26.821051 Si / 1000 Ang^3
#
#
#
# Elastic Constant Matrix: (Units=GPa)
#
#
# Indices 1 2 3 4 5 6 
#
# 1 192.4900 3.8699 25.3536 0.0000 3.1799 0.0000
# 2 3.8699 88.3362 0.2359 0.0000 -1.4541 0.0000
# 3 25.3536 0.2359 105.8785 0.0000 16.4796 0.0000
# 4 0.0000 0.0000 0.0000 -12.5977 0.0000 0.0751
# 5 3.1799 -1.4541 16.4796 0.0000 55.6872 0.0000
# 6 0.0000 0.0000 0.0000 0.0751 0.0000 -10.1035
#
#
#
# Elastic Compliance Matrix: (Units=1/GPa)
#
#
# Indices 1 2 3 4 5 6 
#
# 1 0.005369 -0.000231 -0.001296 0.000000 0.000071 0.000000
# 2 -0.000231 0.011336 -0.000019 0.000000 0.000315 0.000000
# 3 -0.001296 -0.000019 0.010214 0.000000 -0.002949 0.000000
# 4 0.000000 0.000000 0.000000 -0.079383 0.000000 -0.000590
# 5 0.000071 0.000315 -0.002949 0.000000 0.018834 0.000000
# 6 0.000000 0.000000 0.000000 -0.000590 0.000000 -0.098980
#
#
# Mechanical properties :
#
#
# Convention : Reuss Voigt Hill
#
# Bulk Modulus (GPa) = 41.96835 49.51375 45.74105
# Shear Modulus (GPa) = -41.12696 30.41354 -5.35671
#
# Velocity S-wave (km/s) = -3.92009 3.37106 -1.41476
# Velocity P-wave (km/s) = 2.19271 5.80111 3.79769
#
# Compressibility (1/GPa) = 0.02382748
#
# Stress axis : x y z
#
# Youngs Moduli (GPa) = 186.24497 88.21674 97.90226
#
# Poissons Ratio (x) = 0.02034 0.12691
# Poissons Ratio (y) = 0.04295 0.00186
# Poissons Ratio (z) = 0.24142 0.00168
#
# Static dielectric constant tensor:
#      x y z
#    x 2.157350 0.000000 -0.034790 
#    y 0.000000 2.030310 0.000000 
#    z -0.034790 0.000000 2.187970 
# 
# From -- ./inp_files/83777.got.cif
#   From: 2010.05.17/outbox.cif.g08.bks.cpg/sg10_42_cif.got.tgz:83777.got - 2010.06.03 11:33:40.
