data_PCOD9148715
_publ_section_title
;
Structure prediction by ZEFSAII (Michael W. Deem and Ramdas Pophale) SiO2 
 PCOD9148715
Probable space group: P 2/M
;
_chemical_formula_sum "Si O2"
_cell_formula_units_Z 28
_cell_length_a 23.285807
_cell_length_b 13.713760
_cell_length_c 9.263151
_cell_angle_alpha 90.000000
_cell_angle_beta 151.720030
_cell_angle_gamma 90.000000
_cell_volume 1401.469494
_symmetry_space_group_name_H-M "P 2/M"
_symmetry_group_IT_number 10
_symmetry_cell_setting 'monoclinic'
loop_
_space_group_symop_operation_xyz
x,y,z
-x,y,-z
-x,-y,-z
x,-y,z
loop_
_atom_site_type_symbol
_atom_site_label
_atom_site_fract_x
_atom_site_fract_y
_atom_site_fract_z
Si Si1 0.133030 0.266197 0.743190
Si Si2 0.515432 0.110530 0.364075
Si Si3 0.443302 0.390151 0.214080
Si Si4 0.661849 0.709158 0.564979
Si Si5 0.952573 0.392481 0.696272
Si Si6 0.274486 0.198735 0.799662
Si Si7 0.170302 0.302682 0.325298
O O1 0.107971 0.359692 0.585615
O O2 0.199434 0.190882 0.781524
O O3 0.000000 0.233341 0.500000
O O4 0.225121 0.294786 0.073699
O O5 0.500000 0.138005 0.500000
O O6 0.598008 0.187366 0.461730
O O7 0.560340 0.000000 0.455116
O O8 0.377829 0.119939 0.004051
O O9 0.500000 0.381432 0.500000
O O10 0.394728 0.500000 0.089718
O O11 0.558798 0.370112 0.368304
O O12 0.350005 0.301434 0.982992
O O13 0.713542 0.695831 0.519443
O O14 0.005393 0.500000 0.801529
O O15 0.859122 0.387032 0.622969
O O16 0.054753 0.313460 0.965108
O O17 0.187192 0.211430 0.469579
#
# Coordination Sequence:
#
# PCOD9148715 Si02
#       7
#     4   4   4   4   4   4   4
#     4  11  20  35  58  83 108 153 198 243 286 334
#     4  10  20  38  67  94 115 143 187 246 302 356
#     4  10  20  33  52  76 106 146 187 234 286 336
#     4  11  20  38  57  87 114 147 195 243 291 348
#     4  10  22  37  51  79 118 164 211 241 279 333
#     4  10  20  38  57  82 114 151 186 234 295 356
#     4  10  21  35  53  76 116 156 183 236 290 338
#
# _framework density 19.979030000000002
#
# number of rings (size 3 to 8) (size 9 to 14) (size 15 to 20)
#    0.000    1.714    4.286    1.714    0.000    7.143 
#    0.000    2.143    0.000    1.714    0.000    5.000 
#    0.000    0.000    0.000    0.000    0.000    0.000 
#
# Total GULP energy -156032.455814 kJ/mol
# GULP energy per Si atom -5572.587708 kJ/mol
# Density = 1.993356 g / cm^3
# Si number density = 19.979030 Si / 1000 Ang^3
#
#
#
# Elastic Constant Matrix: (Units=GPa)
#
#
# Indices 1 2 3 4 5 6 
#
# 1 118.0831 12.1901 12.4139 0.0000 24.8742 0.0000
# 2 12.1901 64.7281 9.9302 0.0000 4.8978 0.0000
# 3 12.4139 9.9302 72.8663 0.0000 9.4675 0.0000
# 4 0.0000 0.0000 0.0000 11.7237 0.0000 1.0518
# 5 24.8742 4.8978 9.4675 0.0000 32.1923 0.0000
# 6 0.0000 0.0000 0.0000 1.0518 0.0000 9.5651
#
#
#
# Elastic Compliance Matrix: (Units=1/GPa)
#
#
# Indices 1 2 3 4 5 6 
#
# 1 0.010253 -0.001268 -0.000592 0.000000 -0.007555 0.000000
# 2 -0.001268 0.016041 -0.001851 0.000000 -0.000916 0.000000
# 3 -0.000592 -0.001851 0.014536 0.000000 -0.003536 0.000000
# 4 0.000000 0.000000 0.000000 0.086147 0.000000 -0.009473
# 5 -0.007555 -0.000916 -0.003536 0.000000 0.038080 0.000000
# 6 0.000000 0.000000 0.000000 -0.009473 0.000000 0.105589
#
#
# Mechanical properties :
#
#
# Convention : Reuss Voigt Hill
#
# Bulk Modulus (GPa) = 29.93329 36.08290 33.00809
# Shear Modulus (GPa) = 17.28867 25.43911 21.36389
#
# Velocity S-wave (km/s) = 2.94486 3.57219 3.27359
# Velocity P-wave (km/s) = 5.15537 5.92568 5.55389
#
# Compressibility (1/GPa) = 0.03340763
#
# Stress axis : x y z
#
# Youngs Moduli (GPa) = 97.52913 62.33869 68.79321
#
# Poissons Ratio (x) = 0.07907 0.04075
# Poissons Ratio (y) = 0.12371 0.12734
# Poissons Ratio (z) = 0.05777 0.11539
#
# Static dielectric constant tensor:
#      x y z
#    x 1.745630 0.000000 0.007300 
#    y 0.000000 1.678540 0.000000 
#    z 0.007300 0.000000 1.784980 
# 
# From -- ./inp_files/35297.got.cif
#   From: 2010.05.17/outbox.cif.g08.bks.cpg/sg10_18_cif.got.tgz:35297.got - 2010.06.03 11:33:40.
