data_PCOD9148441
_publ_section_title
;
Structure prediction by ZEFSAII (Michael W. Deem and Ramdas Pophale) SiO2 
 PCOD9148441
Probable space group: P 2/M
;
_chemical_formula_sum "Si O2"
_cell_formula_units_Z 24
_cell_length_a 14.831524
_cell_length_b 15.877002
_cell_length_c 10.268994
_cell_angle_alpha 90.000000
_cell_angle_beta 150.433091
_cell_angle_gamma 90.000000
_cell_volume 1193.208085
_symmetry_space_group_name_H-M "P 2/M"
_symmetry_group_IT_number 10
_symmetry_cell_setting 'monoclinic'
loop_
_space_group_symop_operation_xyz
x,y,z
-x,y,-z
-x,-y,-z
x,-y,z
loop_
_atom_site_type_symbol
_atom_site_label
_atom_site_fract_x
_atom_site_fract_y
_atom_site_fract_z
Si Si1 0.220764 0.904081 0.924114
Si Si2 0.207685 0.233463 0.111838
Si Si3 0.227147 0.235107 0.430791
Si Si4 0.405806 0.594828 0.741824
Si Si5 0.774758 0.096144 0.367727
Si Si6 0.657699 0.409182 0.807563
O O1 0.275576 0.883124 0.844710
O O2 0.997681 0.903497 0.647808
O O3 0.278393 0.000000 0.024888
O O4 0.282726 0.836749 0.107989
O O5 0.291862 0.229340 0.362321
O O6 0.230895 0.326111 0.081959
O O7 0.990298 0.221676 0.848925
O O8 0.274041 0.327435 0.544636
O O9 0.294560 0.163177 0.614433
O O10 0.323310 0.500000 0.632611
O O11 0.560685 0.597139 0.825016
O O12 0.500000 0.605323 0.000000
O O13 0.718180 0.000000 0.325957
O O14 0.500000 0.410395 0.500000
O O15 0.755385 0.500000 0.922142
#
# Coordination Sequence:
#
# PCOD9148441 Si02
#       6
#     4   4   4   4   4   4
#     4   8  15  29  49  74 104 138 173 209 254 308
#     4  10  20  32  53  83 108 134 172 218 261 301
#     4  10  20  33  52  82 110 133 171 221 262 296
#     4  10  22  39  56  75 103 140 177 212 258 315
#     4   8  15  29  49  73 104 140 173 207 254 309
#     4  10  20  37  56  74 102 142 179 206 251 321
#
# _framework density 20.113842999999999
#
# number of rings (size 3 to 8) (size 9 to 14) (size 15 to 20)
#    0.000    2.667    1.667    1.000    2.333    1.333 
#    0.000    5.000    0.000    5.000    0.000    0.000 
#    0.000    0.000    0.000    0.000    0.000    0.000 
#
# Total GULP energy -133876.153714 kJ/mol
# GULP energy per Si atom -5578.173071 kJ/mol
# Density = 2.006806 g / cm^3
# Si number density = 20.113843 Si / 1000 Ang^3
#
#
#
# Elastic Constant Matrix: (Units=GPa)
#
#
# Indices 1 2 3 4 5 6 
#
# 1 71.0747 70.4407 46.1611 0.0000 -41.7889 0.0000
# 2 70.4407 172.3089 58.8875 0.0000 -46.6544 0.0000
# 3 46.1611 58.8875 64.6930 0.0000 -29.7611 0.0000
# 4 0.0000 0.0000 0.0000 79.4248 0.0000 32.1501
# 5 -41.7889 -46.6544 -29.7611 0.0000 45.0288 0.0000
# 6 0.0000 0.0000 0.0000 32.1501 0.0000 65.8520
#
#
#
# Elastic Compliance Matrix: (Units=1/GPa)
#
#
# Indices 1 2 3 4 5 6 
#
# 1 0.044694 -0.006543 -0.014329 0.000000 0.025228 0.000000
# 2 -0.006543 0.010348 -0.003753 0.000000 0.002169 0.000000
# 3 -0.014329 -0.003753 0.030450 0.000000 0.002939 0.000000
# 4 0.000000 0.000000 0.000000 0.015692 0.000000 -0.007661
# 5 0.025228 0.002169 0.002939 0.000000 0.049811 0.000000
# 6 0.000000 0.000000 0.000000 -0.007661 0.000000 0.018926
#
#
# Mechanical properties :
#
#
# Convention : Reuss Voigt Hill
#
# Bulk Modulus (GPa) = 27.59233 73.22837 50.41035
# Shear Modulus (GPa) = 21.62139 46.90026 34.26083
#
# Velocity S-wave (km/s) = 3.28220 4.83405 4.13164
# Velocity P-wave (km/s) = 5.30204 8.22456 6.91936
#
# Compressibility (1/GPa) = 0.03624195
#
# Stress axis : x y z
#
# Youngs Moduli (GPa) = 22.37427 96.63387 32.84036
#
# Poissons Ratio (x) = 0.63231 0.47057
# Poissons Ratio (y) = 0.14640 0.12325
# Poissons Ratio (z) = 0.32060 0.36266
#
# Static dielectric constant tensor:
#      x y z
#    x 1.721860 0.000000 0.020320 
#    y 0.000000 1.712990 0.000000 
#    z 0.020320 0.000000 1.719430 
# 
# From -- ./inp_files/29271.got.cif
#   From: 2010.05.17/outbox.cif.g08.bks.cpg/sg10_15_cif.got.tgz:29271.got - 2010.06.03 11:33:40.
