data_PCOD9148794
_publ_section_title
;
Structure prediction by ZEFSAII (Michael W. Deem and Ramdas Pophale) SiO2 
 PCOD9148794
Probable space group: P 2/M
;
_chemical_formula_sum "Si O2"
_cell_formula_units_Z 32
_cell_length_a 8.143218
_cell_length_b 24.534484
_cell_length_c 7.473042
_cell_angle_alpha 90.000000
_cell_angle_beta 95.187656
_cell_angle_gamma 90.000000
_cell_volume 1486.920834
_symmetry_space_group_name_H-M "P 2/M"
_symmetry_group_IT_number 10
_symmetry_cell_setting 'monoclinic'
loop_
_space_group_symop_operation_xyz
x,y,z
-x,y,-z
-x,-y,-z
x,-y,z
loop_
_atom_site_type_symbol
_atom_site_label
_atom_site_fract_x
_atom_site_fract_y
_atom_site_fract_z
Si Si1 0.687553 0.761031 0.724632
Si Si2 0.804921 0.649737 0.275916
Si Si3 0.688021 0.768222 0.292766
Si Si4 0.507829 0.062364 0.219340
Si Si5 0.203025 0.357018 0.315503
Si Si6 0.201619 0.438028 0.016712
Si Si7 0.189670 0.125165 0.197349
Si Si8 0.838362 0.883729 0.223114
O O1 0.695290 0.764640 0.509316
O O2 0.503931 0.773963 0.773186
O O3 0.732686 0.698703 0.767229
O O4 0.803158 0.809191 0.804523
O O5 0.753400 0.711172 0.222802
O O6 0.744137 0.639901 0.472703
O O7 0.746858 0.602883 0.136241
O O8 0.004031 0.647366 0.295867
O O9 0.790326 0.820772 0.247802
O O10 0.364097 0.101421 0.278654
O O11 0.690425 0.081466 0.291684
O O12 0.476805 0.000000 0.265692
O O13 0.500000 0.065899 0.000000
O O14 0.253126 0.409206 0.205967
O O15 0.258284 0.500000 0.001501
O O16 0.000000 0.439103 0.000000
O O17 0.028708 0.107104 0.290400
O O18 0.170841 0.106155 0.991153
#
# Coordination Sequence:
#
# PCOD9148794 Si02
#       8
#     4   4   4   4   4   4   4   4
#     4  10  20  34  53  77 107 141 177 224 285 342
#     4   9  18  32  50  75 106 140 181 230 285 342
#     4  10  20  34  53  77 107 141 177 224 285 342
#     4   9  18  34  53  77 113 149 185 230 275 326
#     4   9  18  32  50  75 106 140 181 230 285 342
#     4   9  18  32  51  77 107 141 185 234 281 335
#     4  10  20  33  53  81 109 142 184 229 281 335
#     4  10  20  33  53  81 109 142 184 229 281 335
#
# _framework density 21.520983999999999
#
# number of rings (size 3 to 8) (size 9 to 14) (size 15 to 20)
#    0.000    2.500    1.250    0.750    1.750    2.500 
#    0.000    5.000    0.000    3.000    0.000    5.250 
#    0.000    0.000    0.000    0.000    0.000    0.000 
#
# Total GULP energy -178692.360129 kJ/mol
# GULP energy per Si atom -5584.136254 kJ/mol
# Density = 2.147200 g / cm^3
# Si number density = 21.520984 Si / 1000 Ang^3
#
#
#
# Elastic Constant Matrix: (Units=GPa)
#
#
# Indices 1 2 3 4 5 6 
#
# 1 75.4280 30.1261 4.2236 0.0000 -16.1122 0.0000
# 2 30.1261 116.6127 7.9418 0.0000 -13.8866 0.0000
# 3 4.2236 7.9418 51.7589 0.0000 -13.3174 0.0000
# 4 0.0000 0.0000 0.0000 -308.1465 0.0000 112.2750
# 5 -16.1122 -13.8866 -13.3174 0.0000 10.1914 0.0000
# 6 0.0000 0.0000 0.0000 112.2750 0.0000 -12.6157
#
#
#
# Elastic Compliance Matrix: (Units=1/GPa)
#
#
# Indices 1 2 3 4 5 6 
#
# 1 0.024036 -0.000806 0.011535 0.000000 0.051976 0.000000
# 2 -0.000806 0.010591 0.002751 0.000000 0.016752 0.000000
# 3 0.011535 0.002751 0.035574 0.000000 0.068471 0.000000
# 4 0.000000 0.000000 0.000000 0.001447 0.000000 0.012878
# 5 0.051976 0.016752 0.068471 0.000000 0.292591 0.000000
# 6 0.000000 0.000000 0.000000 0.012878 0.000000 0.035345
#
#
# Mechanical properties :
#
#
# Convention : Reuss Voigt Hill
#
# Bulk Modulus (GPa) = 10.29203 36.48696 23.38950
# Shear Modulus (GPa) = 12.34535 -48.68028 -18.16747
#
# Velocity S-wave (km/s) = 2.39768 -4.76120 -2.90862
# Velocity P-wave (km/s) = 3.52957 3.63791 0.62312
#
# Compressibility (1/GPa) = 0.09716252
#
# Stress axis : x y z
#
# Youngs Moduli (GPa) = 41.60404 94.41909 28.11020
#
# Poissons Ratio (x) = 0.07608 -0.32426
# Poissons Ratio (y) = 0.03352 -0.07733
# Poissons Ratio (z) = -0.47992 -0.25973
#
# Static dielectric constant tensor:
#      x y z
#    x 1.796950 0.000000 0.009010 
#    y 0.000000 1.730030 0.000000 
#    z 0.009010 0.000000 1.820260 
# 
# From -- ./inp_files/20566.got.cif
#   From: 2010.05.17/outbox.cif.g08.bks.cpg/sg10_11_cif.got.tgz:20566.got - 2010.06.03 11:33:40.
