data_PCOD9148808
_publ_section_title
;
Structure prediction by ZEFSAII (Michael W. Deem and Ramdas Pophale) SiO2 
 PCOD9148808
Probable space group: P 2/M
;
_chemical_formula_sum "Si O2"
_cell_formula_units_Z 22
_cell_length_a 10.550638
_cell_length_b 10.073067
_cell_length_c 11.754371
_cell_angle_alpha 90.000000
_cell_angle_beta 111.531156
_cell_angle_gamma 90.000000
_cell_volume 1162.049536
_symmetry_space_group_name_H-M "P 2/M"
_symmetry_group_IT_number 10
_symmetry_cell_setting 'monoclinic'
loop_
_space_group_symop_operation_xyz
x,y,z
-x,y,-z
-x,-y,-z
x,-y,z
loop_
_atom_site_type_symbol
_atom_site_label
_atom_site_fract_x
_atom_site_fract_y
_atom_site_fract_z
Si Si1 0.338249 0.656015 0.462370
Si Si2 0.569607 0.847781 0.872027
Si Si3 0.000000 0.738180 0.000000
Si Si4 0.202236 0.146699 0.246566
Si Si5 0.668543 0.651831 0.277325
Si Si6 0.752096 0.352670 0.065719
O O1 0.500000 0.691986 0.500000
O O2 0.328117 0.500000 0.429209
O O3 0.241178 0.743096 0.351138
O O4 0.294287 0.673378 0.579320
O O5 0.671411 0.853547 0.798820
O O6 0.443220 0.759860 0.791988
O O7 0.537384 0.000000 0.891404
O O8 0.651039 0.764619 0.994244
O O9 0.074492 0.821583 0.123295
O O10 0.883920 0.658432 0.029307
O O11 0.187757 0.000000 0.292946
O O12 0.612758 0.500000 0.255782
O O13 0.777047 0.658924 0.209670
O O14 0.690875 0.500000 0.026981
#
# Coordination Sequence:
#
# PCOD9148808 Si02
#       6
#     4   4   2   4   4   4
#     4  10  20  35  57  85 116 149 184 226 277 335
#     4  10  20  33  53  83 116 147 181 227 281 335
#     4  10  22  40  60  82 108 146 194 238 276 326
#     4  10  21  37  59  84 113 150 189 230 276 331
#     4  10  20  35  54  81 115 146 181 229 280 330
#     4  10  21  36  56  80 108 146 190 233 277 327
#
# _framework density 18.932068000000001
#
# number of rings (size 3 to 8) (size 9 to 14) (size 15 to 20)
#    0.000    2.000    1.818    1.636    0.000    8.364 
#    0.000    0.909    0.000    4.364    0.000    0.000 
#    0.000    0.000    0.000    0.000    0.000    0.000 
#
# Total GULP energy -122608.781542 kJ/mol
# GULP energy per Si atom -5573.126434 kJ/mol
# Density = 1.888898 g / cm^3
# Si number density = 18.932068 Si / 1000 Ang^3
#
#
#
# Elastic Constant Matrix: (Units=GPa)
#
#
# Indices 1 2 3 4 5 6 
#
# 1 29.9398 29.9837 33.0874 0.0000 3.0161 0.0000
# 2 29.9837 131.8772 80.4357 0.0000 4.8701 0.0000
# 3 33.0874 80.4357 134.0340 0.0000 -5.2821 0.0000
# 4 0.0000 0.0000 0.0000 -17.0933 0.0000 18.3856
# 5 3.0161 4.8701 -5.2821 0.0000 24.7286 0.0000
# 6 0.0000 0.0000 0.0000 18.3856 0.0000 -4.8545
#
#
#
# Elastic Compliance Matrix: (Units=1/GPa)
#
#
# Indices 1 2 3 4 5 6 
#
# 1 0.049817 -0.005359 -0.009358 0.000000 -0.007020 0.000000
# 2 -0.005359 0.012927 -0.006564 0.000000 -0.003294 0.000000
# 3 -0.009358 -0.006564 0.013923 0.000000 0.005408 0.000000
# 4 0.000000 0.000000 0.000000 0.019033 0.000000 0.072086
# 5 -0.007020 -0.003294 0.005408 0.000000 0.043099 0.000000
# 6 0.000000 0.000000 0.000000 0.072086 0.000000 0.067019
#
#
# Mechanical properties :
#
#
# Convention : Reuss Voigt Hill
#
# Bulk Modulus (GPa) = 29.32269 64.76273 47.04271
# Shear Modulus (GPa) = 19.24930 10.71244 14.98087
#
# Velocity S-wave (km/s) = 3.19212 2.38131 2.81605
# Velocity P-wave (km/s) = 5.39520 6.46862 5.95614
#
# Compressibility (1/GPa) = 0.03410328
#
# Stress axis : x y z
#
# Youngs Moduli (GPa) = 20.07358 77.35888 71.82155
#
# Poissons Ratio (x) = 0.41460 0.67211
# Poissons Ratio (y) = 0.10758 0.47146
# Poissons Ratio (z) = 0.18785 0.50781
#
# Static dielectric constant tensor:
#      x y z
#    x 1.672130 0.000000 -0.026290 
#    y 0.000000 1.666820 0.000000 
#    z -0.026290 0.000000 1.661730 
# 
# From -- ./inp_files/45262.got.cif
#   From: 2010.05.17/outbox.cif.g08.bks.cpg/sg10_23_cif.got.tgz:45262.got - 2010.06.03 11:33:40.
