data_PCOD9148417
_publ_section_title
;
Structure prediction by ZEFSAII (Michael W. Deem and Ramdas Pophale) SiO2 
 PCOD9148417
Probable space group: P 2/M
;
_chemical_formula_sum "Si O2"
_cell_formula_units_Z 28
_cell_length_a 9.552211
_cell_length_b 9.306921
_cell_length_c 25.269497
_cell_angle_alpha 90.000000
_cell_angle_beta 133.854503
_cell_angle_gamma 90.000000
_cell_volume 1619.954916
_symmetry_space_group_name_H-M "P 2/M"
_symmetry_group_IT_number 10
_symmetry_cell_setting 'monoclinic'
loop_
_space_group_symop_operation_xyz
x,y,z
-x,y,-z
-x,-y,-z
x,-y,z
loop_
_atom_site_type_symbol
_atom_site_label
_atom_site_fract_x
_atom_site_fract_y
_atom_site_fract_z
Si Si1 0.105550 0.836433 0.683115
Si Si2 0.703863 0.328943 0.703539
Si Si3 0.679440 0.173175 0.585340
Si Si4 0.085908 0.838358 0.805255
Si Si5 0.454283 0.339803 0.926525
Si Si6 0.498741 0.672561 0.759094
Si Si7 0.214844 0.672386 0.071666
O O1 0.097976 0.840821 0.744839
O O2 0.290145 0.742747 0.715617
O O3 0.886454 0.784539 0.613031
O O4 0.130386 0.000000 0.669883
O O5 0.710744 0.500000 0.697323
O O6 0.655520 0.250479 0.635637
O O7 0.563206 0.297254 0.715892
O O8 0.913989 0.268661 0.775371
O O9 0.500000 0.203844 0.500000
O O10 0.689713 0.000000 0.596697
O O11 0.289337 0.776893 0.876680
O O12 0.047159 0.000000 0.813815
O O13 0.386423 0.500000 0.891020
O O14 0.641452 0.305341 0.940210
O O15 0.500000 0.347772 0.000000
O O16 0.483428 0.500000 0.761448
O O17 0.664829 0.723090 0.844787
O O18 0.191830 0.500000 0.073273
O O19 0.000000 0.728872 0.000000
#
# Coordination Sequence:
#
# PCOD9148417 Si02
#       7
#     4   4   4   4   4   4   4
#     4   9  18  33  55  79 103 136 177 218 262 318
#     4  10  21  34  54  83 111 139 181 223 265 321
#     4   9  19  38  61  84 111 143 179 217 263 321
#     4  10  20  35  53  74 104 142 182 224 271 321
#     4  10  20  32  52  77 101 134 181 231 279 325
#     4  10  20  34  54  79 108 143 181 224 272 322
#     4   9  18  32  50  73 104 140 179 226 274 315
#
# _framework density 17.284431999999999
#
# number of rings (size 3 to 8) (size 9 to 14) (size 15 to 20)
#    0.000    2.429    1.429    1.714    2.000    4.000 
#    0.000    0.714    0.000    5.143    0.000    0.000 
#    0.000    0.000    0.000    0.000    0.000    0.000 
#
# Total GULP energy -155975.760141 kJ/mol
# GULP energy per Si atom -5570.562862 kJ/mol
# Density = 1.724509 g / cm^3
# Si number density = 17.284432 Si / 1000 Ang^3
#
#
#
# Elastic Constant Matrix: (Units=GPa)
#
#
# Indices 1 2 3 4 5 6 
#
# 1 98.7482 40.4013 54.1822 0.0000 12.3535 0.0000
# 2 40.4013 34.2246 36.8584 0.0000 5.7814 0.0000
# 3 54.1822 36.8584 128.0446 0.0000 19.4586 0.0000
# 4 0.0000 0.0000 0.0000 35.8563 0.0000 -41.7368
# 5 12.3535 5.7814 19.4586 0.0000 20.1054 0.0000
# 6 0.0000 0.0000 0.0000 -41.7368 0.0000 158.9022
#
#
#
# Elastic Compliance Matrix: (Units=1/GPa)
#
#
# Indices 1 2 3 4 5 6 
#
# 1 0.020464 -0.021460 -0.001769 0.000000 -0.004691 0.000000
# 2 -0.021460 0.064854 -0.010268 0.000000 0.004474 0.000000
# 3 -0.001769 -0.010268 0.012780 0.000000 -0.008329 0.000000
# 4 0.000000 0.000000 0.000000 0.040171 0.000000 0.010551
# 5 -0.004691 0.004474 -0.008329 0.000000 0.059395 0.000000
# 6 0.000000 0.000000 0.000000 0.010551 0.000000 0.009064
#
#
# Mechanical properties :
#
#
# Convention : Reuss Voigt Hill
#
# Bulk Modulus (GPa) = 32.15005 58.21123 45.18064
# Shear Modulus (GPa) = 17.60014 51.61117 34.60565
#
# Velocity S-wave (km/s) = 3.19449 5.47035 4.47937
# Velocity P-wave (km/s) = 5.67867 8.58203 7.27662
#
# Compressibility (1/GPa) = 0.03110415
#
# Stress axis : x y z
#
# Youngs Moduli (GPa) = 48.86554 15.41937 78.24832
#
# Poissons Ratio (x) = 0.33090 0.13845
# Poissons Ratio (y) = 1.04864 0.80343
# Poissons Ratio (z) = 0.08646 0.15832
#
# Static dielectric constant tensor:
#      x y z
#    x 1.569310 0.000000 0.003210 
#    y 0.000000 1.601690 0.000000 
#    z 0.003210 0.000000 1.619000 
# 
# From -- ./inp_files/86668.got.cif
#   From: 2010.05.17/outbox.cif.g08.bks.cpg/sg10_44_cif.got.tgz:86668.got - 2010.06.03 11:33:40.
