data_PCOD9148919
_publ_section_title
;
Structure prediction by ZEFSAII (Michael W. Deem and Ramdas Pophale) SiO2 
 PCOD9148919
Probable space group: P 2/M
;
_chemical_formula_sum "Si O2"
_cell_formula_units_Z 32
_cell_length_a 27.627441
_cell_length_b 7.495050
_cell_length_c 11.062767
_cell_angle_alpha 90.000000
_cell_angle_beta 143.349985
_cell_angle_gamma 90.000000
_cell_volume 1367.410953
_symmetry_space_group_name_H-M "P 2/M"
_symmetry_group_IT_number 10
_symmetry_cell_setting 'monoclinic'
loop_
_space_group_symop_operation_xyz
x,y,z
-x,y,-z
-x,-y,-z
x,-y,z
loop_
_atom_site_type_symbol
_atom_site_label
_atom_site_fract_x
_atom_site_fract_y
_atom_site_fract_z
Si Si1 0.278378 0.211386 0.536373
Si Si2 0.092227 0.285417 0.152215
Si Si3 0.406321 0.782773 0.296543
Si Si4 0.016836 0.715162 0.768360
Si Si5 0.841423 0.298592 0.405106
Si Si6 0.136539 0.206313 0.818453
Si Si7 0.335735 0.200954 0.900698
Si Si8 0.288741 0.782187 0.280024
O O1 0.181915 0.231150 0.373293
O O2 0.331865 0.282446 0.756986
O O3 0.294251 0.280048 0.431208
O O4 0.294099 0.000000 0.565251
O O5 0.090647 0.500000 0.161349
O O6 0.086340 0.229592 0.000518
O O7 0.000000 0.227536 0.000000
O O8 0.500000 0.736227 0.500000
O O9 0.356288 0.727166 0.315980
O O10 0.398811 0.000000 0.277903
O O11 0.374354 0.718396 0.100587
O O12 0.011660 0.500000 0.757997
O O13 0.050025 0.778632 0.708386
O O14 0.926727 0.776315 0.624574
O O15 0.828930 0.500000 0.425597
O O16 0.858037 0.306410 0.295862
O O17 0.759766 0.193189 0.260110
O O18 0.154194 0.000000 0.826752
O O19 0.205128 0.273125 0.048026
O O20 0.369634 0.000000 0.957698
O O21 0.289699 0.000000 0.287679
#
# Coordination Sequence:
#
# PCOD9148919 Si02
#       8
#     4   4   4   4   4   4   4   4
#     4  10  20  34  53  78 110 144 181 228 272 318
#     4  10  20  34  50  69 100 144 194 236 271 316
#     4   9  17  33  59  86 111 140 173 215 273 337
#     4  10  21  34  47  70 105 143 188 236 275 321
#     4  11  22  35  52  75 108 146 184 229 279 319
#     4  11  20  33  53  75 105 142 184 230 278 326
#     4  10  20  35  55  82 110 140 182 225 268 323
#     4   9  17  32  53  79 110 141 174 217 271 327
#
# _framework density 23.401889000000001
#
# number of rings (size 3 to 8) (size 9 to 14) (size 15 to 20)
#    0.000    2.000    2.500    1.875    0.000    4.250 
#    0.000    0.625    0.000    4.125    0.000    0.000 
#    0.000    2.000    0.000    0.000    0.000    0.000 
#
# Total GULP energy -178469.123202 kJ/mol
# GULP energy per Si atom -5577.160100 kJ/mol
# Density = 2.334863 g / cm^3
# Si number density = 23.401889 Si / 1000 Ang^3
#
#
#
# Elastic Constant Matrix: (Units=GPa)
#
#
# Indices 1 2 3 4 5 6 
#
# 1 99.7880 -2.5619 76.4535 0.0000 -20.8620 0.0000
# 2 -2.5619 63.7836 4.2213 0.0000 -4.7716 0.0000
# 3 76.4535 4.2213 164.0994 0.0000 -30.1540 0.0000
# 4 0.0000 0.0000 0.0000 16.2736 0.0000 11.5180
# 5 -20.8620 -4.7716 -30.1540 0.0000 45.3975 0.0000
# 6 0.0000 0.0000 0.0000 11.5180 0.0000 7.3117
#
#
#
# Elastic Compliance Matrix: (Units=1/GPa)
#
#
# Indices 1 2 3 4 5 6 
#
# 1 0.015981 0.001316 -0.006953 0.000000 0.002864 0.000000
# 2 0.001316 0.015913 -0.000688 0.000000 0.001820 0.000000
# 3 -0.006953 -0.000688 0.009967 0.000000 0.003353 0.000000
# 4 0.000000 0.000000 0.000000 -0.534668 0.000000 0.842248
# 5 0.002864 0.001820 0.003353 0.000000 0.025762 0.000000
# 6 0.000000 0.000000 0.000000 0.842248 0.000000 -1.190003
#
#
# Mechanical properties :
#
#
# Convention : Reuss Voigt Hill
#
# Bulk Modulus (GPa) = 34.23384 53.76629 44.00006
# Shear Modulus (GPa) = -3.05874 30.43378 13.68752
#
# Velocity S-wave (km/s) = -1.14450 3.61013 2.42107
# Velocity P-wave (km/s) = 3.59359 6.35630 5.16316
#
# Compressibility (1/GPa) = 0.02921087
#
# Stress axis : x y z
#
# Youngs Moduli (GPa) = 62.57455 62.84323 100.33028
#
# Poissons Ratio (x) = -0.08272 0.69761
# Poissons Ratio (y) = -0.08237 0.06904
# Poissons Ratio (z) = 0.43509 0.04324
#
# Static dielectric constant tensor:
#      x y z
#    x 1.957470 0.000000 -0.097340 
#    y 0.000000 1.920100 0.000000 
#    z -0.097340 0.000000 1.891630 
# 
# From -- ./inp_files/58233.got.cif
#   From: 2010.05.17/outbox.cif.g08.bks.cpg/sg10_30_cif.got.tgz:58233.got - 2010.06.03 11:33:40.
