data_PCOD9148692
_publ_section_title
;
Structure prediction by ZEFSAII (Michael W. Deem and Ramdas Pophale) SiO2 
 PCOD9148692
Probable space group: P 2/M
;
_chemical_formula_sum "Si O2"
_cell_formula_units_Z 29
_cell_length_a 9.034969
_cell_length_b 10.240454
_cell_length_c 27.638601
_cell_angle_alpha 90.000000
_cell_angle_beta 140.876002
_cell_angle_gamma 90.000000
_cell_volume 1613.584971
_symmetry_space_group_name_H-M "P 2/M"
_symmetry_group_IT_number 10
_symmetry_cell_setting 'monoclinic'
loop_
_space_group_symop_operation_xyz
x,y,z
-x,y,-z
-x,-y,-z
x,-y,z
loop_
_atom_site_type_symbol
_atom_site_label
_atom_site_fract_x
_atom_site_fract_y
_atom_site_fract_z
Si Si1 0.763499 0.842650 0.575433
Si Si2 0.558714 0.647907 0.155185
Si Si3 0.641421 0.151776 0.727294
Si Si4 0.814119 0.215659 0.876645
Si Si5 0.993607 0.157079 0.260300
Si Si6 0.308457 0.349028 0.987941
Si Si7 0.114304 0.159531 0.580304
Si Si8 0.000000 0.000000 0.000000
O O1 0.500000 0.792538 0.500000
O O2 0.856077 0.820602 0.652946
O O3 0.949990 0.795354 0.582822
O O4 0.753293 0.000000 0.566891
O O5 0.650829 0.500000 0.184072
O O6 0.369671 0.681392 0.148333
O O7 0.759578 0.757383 0.205042
O O8 0.419748 0.654274 0.069292
O O9 0.705671 0.159428 0.799866
O O10 0.850349 0.202000 0.746006
O O11 0.381876 0.207744 0.652599
O O12 0.625429 0.000000 0.708783
O O13 0.873179 0.112576 0.933651
O O14 0.062599 0.277615 0.925507
O O15 0.941599 0.000000 0.243725
O O16 0.270009 0.500000 0.964138
O O17 0.500000 0.290457 0.000000
O O18 0.000000 0.194207 0.500000
O O19 0.120631 0.000000 0.584256
#
# Coordination Sequence:
#
# PCOD9148692 Si02
#       8
#     4   4   4   4   4   4   4   1
#     4   9  16  28  48  77 111 146 182 223 272 329
#     4  11  23  38  57  79 108 144 184 228 276 331
#     4  10  20  33  51  79 113 144 180 228 276 329
#     4  12  22  38  55  80 110 143 187 224 280 325
#     4  10  21  35  55  83 111 145 183 231 280 326
#     4  10  21  38  58  77 100 136 180 227 275 325
#     4   9  16  27  45  72 108 148 180 217 268 325
#     4  12  24  36  56  84 106 152 180 236 268 340
#
# _framework density 17.972404000000001
#
# number of rings (size 3 to 8) (size 9 to 14) (size 15 to 20)
#    0.000    1.793    2.069    2.897    0.966    5.517 
#    0.000    1.034    0.000    0.414    0.000    0.000 
#    0.000    6.621    0.000    0.000    0.000    0.000 
#
# Total GULP energy -161447.645672 kJ/mol
# GULP energy per Si atom -5567.160196 kJ/mol
# Density = 1.793150 g / cm^3
# Si number density = 17.972404 Si / 1000 Ang^3
#
#
#
# Elastic Constant Matrix: (Units=GPa)
#
#
# Indices 1 2 3 4 5 6 
#
# 1 113.7656 17.5047 33.1259 0.0000 11.3840 0.0000
# 2 17.5047 43.5848 23.7575 0.0000 11.7384 0.0000
# 3 33.1259 23.7575 97.1576 0.0000 13.9700 0.0000
# 4 0.0000 0.0000 0.0000 1.8939 0.0000 -6.7659
# 5 11.3840 11.7384 13.9700 0.0000 36.3946 0.0000
# 6 0.0000 0.0000 0.0000 -6.7659 0.0000 3.0727
#
#
#
# Elastic Compliance Matrix: (Units=1/GPa)
#
#
# Indices 1 2 3 4 5 6 
#
# 1 0.010051 -0.002193 -0.002689 0.000000 -0.001405 0.000000
# 2 -0.002193 0.028442 -0.005278 0.000000 -0.006461 0.000000
# 3 -0.002689 -0.005278 0.012843 0.000000 -0.002386 0.000000
# 4 0.000000 0.000000 0.000000 -0.076898 0.000000 -0.169325
# 5 -0.001405 -0.006461 -0.002386 0.000000 0.030916 0.000000
# 6 0.000000 0.000000 0.000000 -0.169325 0.000000 -0.047396
#
#
# Mechanical properties :
#
#
# Convention : Reuss Voigt Hill
#
# Bulk Modulus (GPa) = 32.24087 44.80935 38.52511
# Shear Modulus (GPa) = -439.17246 20.28021 -209.44612
#
# Velocity S-wave (km/s) = -15.64896 3.36282 -10.80697
# Velocity P-wave (km/s) = 17.56536 6.32966 11.58614
#
# Compressibility (1/GPa) = 0.03101653
#
# Stress axis : x y z
#
# Youngs Moduli (GPa) = 99.49428 35.15969 77.86340
#
# Poissons Ratio (x) = 0.07710 0.20935
# Poissons Ratio (y) = 0.21817 0.41096
# Poissons Ratio (z) = 0.26751 0.18557
#
# Static dielectric constant tensor:
#      x y z
#    x 1.642150 0.000000 0.006470 
#    y 0.000000 1.605390 0.000000 
#    z 0.006470 0.000000 1.594130 
# 
# From -- ./inp_files/92138.got.cif
#   From: 2010.05.17/outbox.cif.g08.bks.cpg/sg10_47_cif.got.tgz:92138.got - 2010.06.03 11:33:40.
