data_PCOD9148208
_publ_section_title
;
Structure prediction by ZEFSAII (Michael W. Deem and Ramdas Pophale) SiO2 
 PCOD9148208
Probable space group: P 2/M
;
_chemical_formula_sum "Si O2"
_cell_formula_units_Z 18
_cell_length_a 13.059111
_cell_length_b 10.705942
_cell_length_c 15.932160
_cell_angle_alpha 90.000000
_cell_angle_beta 152.105472
_cell_angle_gamma 90.000000
_cell_volume 1042.114720
_symmetry_space_group_name_H-M "P 2/M"
_symmetry_group_IT_number 10
_symmetry_cell_setting 'monoclinic'
loop_
_space_group_symop_operation_xyz
x,y,z
-x,y,-z
-x,-y,-z
x,-y,z
loop_
_atom_site_type_symbol
_atom_site_label
_atom_site_fract_x
_atom_site_fract_y
_atom_site_fract_z
Si Si1 0.869326 0.148745 0.158593
Si Si2 0.500000 0.717916 0.000000
Si Si3 0.254843 0.635477 0.661294
Si Si4 0.324174 0.147373 0.579193
Si Si5 0.814004 0.849812 0.927535
O O1 0.117393 0.170888 0.369367
O O2 0.835333 0.000000 0.132711
O O3 0.694747 0.203850 0.097327
O O4 0.834711 0.196722 0.038512
O O5 0.608347 0.642775 0.154182
O O6 0.297049 0.500000 0.650233
O O7 0.305481 0.756279 0.642196
O O8 0.000000 0.640907 0.500000
O O9 0.565699 0.168773 0.716333
O O10 0.315037 0.000000 0.598507
O O11 0.845754 0.000000 0.955485
O O12 0.000000 0.800092 0.000000
#
# Coordination Sequence:
#
# PCOD9148208 Si02
#       5
#     4   2   4   4   4
#     4  10  20  31  51  83 112 141 177 222 270 316
#     4  12  20  34  54  78 107 144 183 218 263 330
#     4  11  23  37  53  79 112 145 181 221 269 323
#     4  10  20  35  55  81 109 142 181 221 270 320
#     4   9  18  33  53  79 111 142 178 225 272 316
#
# _framework density 17.272570999999999
#
# number of rings (size 3 to 8) (size 9 to 14) (size 15 to 20)
#    0.000    1.778    4.444    0.667    0.000    2.222 
#    0.000    4.444    0.000    0.667    0.000    1.556 
#    0.000    0.000    0.000    0.000    0.000    0.000 
#
# Total GULP energy -100281.057969 kJ/mol
# GULP energy per Si atom -5571.169887 kJ/mol
# Density = 1.723326 g / cm^3
# Si number density = 17.272571 Si / 1000 Ang^3
#
#
#
# Elastic Constant Matrix: (Units=GPa)
#
#
# Indices 1 2 3 4 5 6 
#
# 1 92.9899 26.3437 44.0446 0.0000 23.8119 0.0000
# 2 26.3437 44.1093 39.5892 0.0000 10.9587 0.0000
# 3 44.0446 39.5892 120.5035 0.0000 16.3967 0.0000
# 4 0.0000 0.0000 0.0000 20.1062 0.0000 -3.8688
# 5 23.8119 10.9587 16.3967 0.0000 25.4051 0.0000
# 6 0.0000 0.0000 0.0000 -3.8688 0.0000 2.0327
#
#
#
# Elastic Compliance Matrix: (Units=1/GPa)
#
#
# Indices 1 2 3 4 5 6 
#
# 1 0.016325 -0.004163 -0.003027 0.000000 -0.011552 0.000000
# 2 -0.004163 0.034660 -0.009167 0.000000 -0.005133 0.000000
# 3 -0.003027 -0.009167 0.012599 0.000000 -0.001340 0.000000
# 4 0.000000 0.000000 0.000000 0.078476 0.000000 0.149359
# 5 -0.011552 -0.005133 -0.001340 0.000000 0.053268 0.000000
# 6 0.000000 0.000000 0.000000 0.149359 0.000000 0.776215
#
#
# Mechanical properties :
#
#
# Convention : Reuss Voigt Hill
#
# Bulk Modulus (GPa) = 32.39438 53.06198 42.72818
# Shear Modulus (GPa) = 4.92831 19.35051 12.13941
#
# Velocity S-wave (km/s) = 1.69099 3.35072 2.65394
# Velocity P-wave (km/s) = 4.75480 6.76438 5.84658
#
# Compressibility (1/GPa) = 0.03086955
#
# Stress axis : x y z
#
# Youngs Moduli (GPa) = 61.25509 28.85184 79.37138
#
# Poissons Ratio (x) = 0.12010 0.24030
# Poissons Ratio (y) = 0.25499 0.72759
# Poissons Ratio (z) = 0.18545 0.26448
#
# Static dielectric constant tensor:
#      x y z
#    x 1.575290 0.000000 -0.000380 
#    y 0.000000 1.585620 0.000000 
#    z -0.000380 0.000000 1.607180 
# 
# From -- ./inp_files/23404.got.cif
#   From: 2010.05.17/outbox.cif.g08.bks.cpg/sg10_12_cif.got.tgz:23404.got - 2010.06.03 11:33:40.
