data_PCOD9148782
_publ_section_title
;
Structure prediction by ZEFSAII (Michael W. Deem and Ramdas Pophale) SiO2 
 PCOD9148782
Probable space group: P 2/M
;
_chemical_formula_sum "Si O2"
_cell_formula_units_Z 32
_cell_length_a 26.595610
_cell_length_b 13.631750
_cell_length_c 10.183701
_cell_angle_alpha 90.000000
_cell_angle_beta 27.620253
_cell_angle_gamma 90.000000
_cell_volume 1711.667137
_symmetry_space_group_name_H-M "P 2/M"
_symmetry_group_IT_number 10
_symmetry_cell_setting 'monoclinic'
loop_
_space_group_symop_operation_xyz
x,y,z
-x,y,-z
-x,-y,-z
x,-y,z
loop_
_atom_site_type_symbol
_atom_site_label
_atom_site_fract_x
_atom_site_fract_y
_atom_site_fract_z
Si Si1 0.976405 0.612406 0.707158
Si Si2 0.290338 0.110102 0.125410
Si Si3 0.419421 0.385133 0.309956
Si Si4 0.212367 0.756869 0.775805
Si Si5 0.700875 0.114670 0.195348
Si Si6 0.508537 0.249445 0.329540
Si Si7 0.891309 0.394828 0.342174
Si Si8 0.868831 0.815251 0.304130
O O1 0.935704 0.500000 0.806723
O O2 0.000000 0.633756 0.500000
O O3 0.075329 0.615640 0.582193
O O4 0.889331 0.686630 0.964750
O O5 0.188674 0.117092 0.456855
O O6 0.338757 0.000000 0.021079
O O7 0.257172 0.125237 0.050660
O O8 0.378153 0.193702 0.955520
O O9 0.390355 0.500000 0.400744
O O10 0.315823 0.315222 0.521684
O O11 0.479756 0.335151 0.294577
O O12 0.500000 0.381700 0.000000
O O13 0.230091 0.825084 0.860371
O O14 0.184144 0.823693 0.716074
O O15 0.582781 0.164842 0.471281
O O16 0.695358 0.000000 0.240001
O O17 0.500000 0.285012 0.500000
O O18 0.834623 0.500000 0.454798
O O19 0.837413 0.295913 0.419998
O O20 0.000000 0.399322 0.000000
O O21 0.000000 0.824197 0.000000
#
# Coordination Sequence:
#
# PCOD9148782 Si02
#       8
#     4   4   4   4   4   4   4   4
#     4  10  20  33  53  79 107 142 183 225 268 315
#     4  10  21  38  60  82 107 141 183 228 278 331
#     4  10  21  36  55  83 117 149 179 214 266 330
#     4  11  21  35  57  80 112 148 183 226 275 324
#     4   9  20  37  59  84 107 137 179 228 281 334
#     4   9  18  37  62  85 109 138 177 227 275 325
#     4   9  17  33  53  74 103 139 183 226 262 308
#     4  11  22  36  54  80 111 148 189 229 270 317
#
# _framework density 18.695222999999999
#
# number of rings (size 3 to 8) (size 9 to 14) (size 15 to 20)
#    0.000    2.125    2.500    1.500    1.750    3.000 
#    0.000    0.625    0.000    6.000    0.000    0.000 
#    0.000    0.000    0.000    0.000    0.000    0.000 
#
# Total GULP energy -178412.028351 kJ/mol
# GULP energy per Si atom -5575.375886 kJ/mol
# Density = 1.865267 g / cm^3
# Si number density = 18.695223 Si / 1000 Ang^3
#
#
#
# Elastic Constant Matrix: (Units=GPa)
#
#
# Indices 1 2 3 4 5 6 
#
# 1 92.4259 26.8687 29.6933 0.0000 7.4966 0.0000
# 2 26.8687 62.9263 21.7568 0.0000 6.4533 0.0000
# 3 29.6933 21.7568 62.9010 0.0000 11.7900 0.0000
# 4 0.0000 0.0000 0.0000 16.2151 0.0000 7.0497
# 5 7.4966 6.4533 11.7900 0.0000 20.3127 0.0000
# 6 0.0000 0.0000 0.0000 7.0497 0.0000 19.7709
#
#
#
# Elastic Compliance Matrix: (Units=1/GPa)
#
#
# Indices 1 2 3 4 5 6 
#
# 1 0.013633 -0.004045 -0.004863 0.000000 -0.000923 0.000000
# 2 -0.004045 0.019352 -0.004389 0.000000 -0.002108 0.000000
# 3 -0.004863 -0.004389 0.021448 0.000000 -0.009259 0.000000
# 4 0.000000 0.000000 0.000000 0.072985 0.000000 -0.026024
# 5 -0.000923 -0.002108 -0.009259 0.000000 0.055615 0.000000
# 6 0.000000 0.000000 0.000000 -0.026024 0.000000 0.059859
#
#
# Mechanical properties :
#
#
# Convention : Reuss Voigt Hill
#
# Bulk Modulus (GPa) = 35.92244 41.65455 38.78850
# Shear Modulus (GPa) = 17.93620 20.58870 19.26245
#
# Velocity S-wave (km/s) = 3.10078 3.32216 3.21337
# Velocity P-wave (km/s) = 5.66359 6.08645 5.87882
#
# Compressibility (1/GPa) = 0.02783775
#
# Stress axis : x y z
#
# Youngs Moduli (GPa) = 73.35337 51.67308 46.62530
#
# Poissons Ratio (x) = 0.20900 0.22676
# Poissons Ratio (y) = 0.29670 0.20465
# Poissons Ratio (z) = 0.35674 0.22681
#
# Static dielectric constant tensor:
#      x y z
#    x 1.671250 0.000000 0.006270 
#    y 0.000000 1.642260 0.000000 
#    z 0.006270 0.000000 1.632460 
# 
# From -- ./inp_files/36362.got.cif
#   From: 2010.05.17/outbox.cif.g08.bks.cpg/sg10_19_cif.got.tgz:36362.got - 2010.06.03 11:33:40.
