data_PCOD9148226
_publ_section_title
;
Structure prediction by ZEFSAII (Michael W. Deem and Ramdas Pophale) SiO2 
 PCOD9148226
Probable space group: P 2/M
;
_chemical_formula_sum "Si O2"
_cell_formula_units_Z 32
_cell_length_a 16.139961
_cell_length_b 15.699239
_cell_length_c 16.139959
_cell_angle_alpha 90.000000
_cell_angle_beta 148.241363
_cell_angle_gamma 90.000000
_cell_volume 2152.541934
_symmetry_space_group_name_H-M "P 2/M"
_symmetry_group_IT_number 10
_symmetry_cell_setting 'monoclinic'
loop_
_space_group_symop_operation_xyz
x,y,z
-x,y,-z
-x,-y,-z
x,-y,z
loop_
_atom_site_type_symbol
_atom_site_label
_atom_site_fract_x
_atom_site_fract_y
_atom_site_fract_z
Si Si1 0.275646 0.396747 0.870877
Si Si2 0.316243 0.398854 0.541905
Si Si3 0.979738 0.906631 0.883258
Si Si4 0.383259 0.906631 0.479739
Si Si5 0.882313 0.732846 0.978041
Si Si6 0.370877 0.603253 0.775646
Si Si7 0.521959 0.267154 0.617687
Si Si8 0.958095 0.601146 0.183757
O O1 0.270839 0.500000 0.864279
O O2 0.272643 0.367416 0.772643
O O3 0.138914 0.370755 0.817141
O O4 0.446822 0.373399 0.053178
O O5 0.353143 0.500000 0.570684
O O6 0.317142 0.370755 0.638914
O O7 0.440985 0.344610 0.596610
O O8 0.143067 0.386849 0.356932
O O9 0.795904 0.897266 0.704095
O O10 0.032679 0.000000 0.896798
O O11 0.000000 0.909366 0.000000
O O12 0.071718 0.821467 0.937217
O O13 0.500000 0.909366 0.500000
O O14 0.437218 0.821467 0.571719
O O15 0.396799 0.000000 0.532680
O O16 0.705581 0.738140 0.794419
O O17 0.903390 0.655390 0.059015
O O18 0.000000 0.722687 0.000000
O O19 0.364279 0.500000 0.770839
O O20 0.500000 0.277312 0.500000
O O21 0.929315 0.500000 0.146856
#
# Coordination Sequence:
#
# PCOD9148226 Si02
#       8
#     4   4   4   4   4   4   4   4
#     4   8  14  26  44  64  85 109 138 174 217 261
#     4  10  20  32  45  62  86 116 150 185 218 255
#     4   9  16  27  44  64  85 108 136 173 216 259
#     4   9  16  27  44  64  85 108 136 173 216 259
#     4  11  21  32  46  62  85 116 149 184 218 256
#     4   8  14  26  44  64  85 109 138 174 217 261
#     4  11  21  32  46  62  85 116 149 184 218 256
#     4  10  20  32  45  62  86 116 150 185 218 255
#
# _framework density 14.866144999999999
#
# number of rings (size 3 to 8) (size 9 to 14) (size 15 to 20)
#    0.000    2.500    0.000    6.000    0.000    4.000 
#    0.000    2.500    0.000    0.000    0.000    0.000 
#    0.000    1.000    0.000   10.500    0.000    5.000 
#
# Total GULP energy -178173.214778 kJ/mol
# GULP energy per Si atom -5567.912962 kJ/mol
# Density = 1.483231 g / cm^3
# Si number density = 14.866145 Si / 1000 Ang^3
#
#
#
# Elastic Constant Matrix: (Units=GPa)
#
#
# Indices 1 2 3 4 5 6 
#
# 1 67.5579 36.0272 39.3861 0.0000 5.4661 0.0000
# 2 36.0272 63.9638 47.7680 0.0000 3.3894 0.0000
# 3 39.3861 47.7680 93.9418 0.0000 2.1503 0.0000
# 4 0.0000 0.0000 0.0000 21.1421 0.0000 6.1191
# 5 5.4661 3.3894 2.1503 0.0000 22.5963 0.0000
# 6 0.0000 0.0000 0.0000 6.1191 0.0000 -0.0554
#
#
#
# Elastic Compliance Matrix: (Units=1/GPa)
#
#
# Indices 1 2 3 4 5 6 
#
# 1 0.022726 -0.008952 -0.004892 0.000000 -0.003689 0.000000
# 2 -0.008952 0.028880 -0.010906 0.000000 -0.001129 0.000000
# 3 -0.004892 -0.010906 0.018217 0.000000 0.001086 0.000000
# 4 0.000000 0.000000 0.000000 0.001434 0.000000 0.158468
# 5 -0.003689 -0.001129 0.001086 0.000000 0.045213 0.000000
# 6 0.000000 0.000000 0.000000 0.158468 0.000000 -0.547521
#
#
# Mechanical properties :
#
#
# Convention : Reuss Voigt Hill
#
# Bulk Modulus (GPa) = 49.20405 52.42511 50.81458
# Shear Modulus (GPa) = -13.34134 15.55542 1.10704
#
# Velocity S-wave (km/s) = -2.99897 3.23827 0.86388
# Velocity P-wave (km/s) = 4.60198 7.02304 5.93723
#
# Compressibility (1/GPa) = 0.02032353
#
# Stress axis : x y z
#
# Youngs Moduli (GPa) = 44.00166 34.62548 54.89438
#
# Poissons Ratio (x) = 0.30996 0.26855
# Poissons Ratio (y) = 0.39389 0.59870
# Poissons Ratio (z) = 0.21526 0.37764
#
# Static dielectric constant tensor:
#      x y z
#    x 1.487390 0.000000 0.002160 
#    y 0.000000 1.519720 0.000000 
#    z 0.002160 0.000000 1.494870 
# 
# From -- ./inp_files/67758.got.cif
#   From: 2010.05.17/outbox.cif.g08.bks.cpg/sg10_34_cif.got.tgz:67758.got - 2010.06.03 11:33:40.
