data_PCOD9148517
_publ_section_title
;
Structure prediction by ZEFSAII (Michael W. Deem and Ramdas Pophale) SiO2 
 PCOD9148517
Probable space group: P 2/M
;
_chemical_formula_sum "Si O2"
_cell_formula_units_Z 28
_cell_length_a 20.223065
_cell_length_b 7.519638
_cell_length_c 15.419182
_cell_angle_alpha 90.000000
_cell_angle_beta 145.362722
_cell_angle_gamma 90.000000
_cell_volume 1332.733778
_symmetry_space_group_name_H-M "P 2/M"
_symmetry_group_IT_number 10
_symmetry_cell_setting 'monoclinic'
loop_
_space_group_symop_operation_xyz
x,y,z
-x,y,-z
-x,-y,-z
x,-y,z
loop_
_atom_site_type_symbol
_atom_site_label
_atom_site_fract_x
_atom_site_fract_y
_atom_site_fract_z
Si Si1 0.931671 0.781723 0.717792
Si Si2 0.189515 0.786441 0.047039
Si Si3 0.116570 0.702222 0.665859
Si Si4 0.518435 0.714563 0.118981
Si Si5 0.221908 0.791546 0.606598
Si Si6 0.300159 0.712692 0.994105
Si Si7 0.862663 0.206836 0.825924
O O1 0.871352 0.724868 0.564050
O O2 0.860544 0.719813 0.726352
O O3 0.064909 0.723869 0.874484
O O4 0.930892 0.000000 0.717517
O O5 0.286876 0.745805 0.081475
O O6 0.180723 0.000000 0.044579
O O7 0.201213 0.717317 0.158248
O O8 0.084460 0.500000 0.656029
O O9 0.206229 0.699577 0.682360
O O10 0.185813 0.785579 0.820553
O O11 0.000000 0.786456 0.500000
O O12 0.514611 0.500000 0.113610
O O13 0.647613 0.767876 0.286272
O O14 0.500000 0.777170 0.000000
O O15 0.416204 0.778807 0.072024
O O16 0.201040 0.000000 0.598547
O O17 0.297749 0.500000 0.978317
O O18 0.827935 0.000000 0.780901
O O19 0.000000 0.210158 0.000000
#
# Coordination Sequence:
#
# PCOD9148517 Si02
#       7
#     4   4   4   4   4   4   4
#     4   8  15  28  46  73 105 129 150 186 239 288
#     4   9  16  28  50  76  99 125 157 192 231 283
#     4  10  20  34  50  68  95 132 165 188 227 294
#     4  10  20  38  55  63  85 128 174 204 232 284
#     4  11  21  31  49  75 100 122 154 205 250 279
#     4  10  20  33  49  68  92 125 159 199 242 278
#     4   7  11  23  45  70  96 128 159 182 219 284
#
# _framework density 21.009447000000002
#
# number of rings (size 3 to 8) (size 9 to 14) (size 15 to 20)
#    0.000    2.714    1.429    3.000    0.000    1.714 
#    0.000    0.714    0.000    6.429    0.000    6.000 
#    0.000    0.000    0.000    0.000    0.000    0.000 
#
# Total GULP energy -156175.043887 kJ/mol
# GULP energy per Si atom -5577.680139 kJ/mol
# Density = 2.096163 g / cm^3
# Si number density = 21.009447 Si / 1000 Ang^3
#
#
#
# Elastic Constant Matrix: (Units=GPa)
#
#
# Indices 1 2 3 4 5 6 
#
# 1 142.1205 -0.4327 2.4469 0.0000 -4.9383 0.0000
# 2 -0.4327 60.9444 -0.2395 0.0000 -0.8336 0.0000
# 3 2.4469 -0.2395 12.9059 0.0000 3.3788 0.0000
# 4 0.0000 0.0000 0.0000 4.1043 0.0000 0.1301
# 5 -4.9383 -0.8336 3.3788 0.0000 34.9126 0.0000
# 6 0.0000 0.0000 0.0000 0.1301 0.0000 17.7995
#
#
#
# Elastic Compliance Matrix: (Units=1/GPa)
#
#
# Indices 1 2 3 4 5 6 
#
# 1 0.007105 0.000060 -0.001651 0.000000 0.001166 0.000000
# 2 0.000060 0.016415 0.000193 0.000000 0.000382 0.000000
# 3 -0.001651 0.000193 0.079884 0.000000 -0.007960 0.000000
# 4 0.000000 0.000000 0.000000 0.243704 0.000000 -0.001782
# 5 0.001166 0.000382 -0.007960 0.000000 0.029587 0.000000
# 6 0.000000 0.000000 0.000000 -0.001782 0.000000 0.056194
#
#
# Mechanical properties :
#
#
# Convention : Reuss Voigt Hill
#
# Bulk Modulus (GPa) = 9.93951 24.39111 17.16531
# Shear Modulus (GPa) = 10.65591 25.64302 18.14947
#
# Velocity S-wave (km/s) = 2.25454 3.49742 2.94236
# Velocity P-wave (km/s) = 3.39390 5.28622 4.44199
#
# Compressibility (1/GPa) = 0.10060860
#
# Stress axis : x y z
#
# Youngs Moduli (GPa) = 140.73758 60.92065 12.51807
#
# Poissons Ratio (x) = -0.00365 0.02067
# Poissons Ratio (y) = -0.00843 -0.00242
# Poissons Ratio (z) = 0.23241 -0.01178
#
# Static dielectric constant tensor:
#      x y z
#    x 1.802860 0.000000 -0.002720 
#    y 0.000000 1.808650 0.000000 
#    z -0.002720 0.000000 1.735950 
# 
# From -- ./inp_files/54976.got.cif
#   From: 2010.05.17/outbox.cif.g08.bks.cpg/sg10_28_cif.got.tgz:54976.got - 2010.06.03 11:33:40.
