data_PCOD9148406
_publ_section_title
;
Structure prediction by ZEFSAII (Michael W. Deem and Ramdas Pophale) SiO2 
 PCOD9148406
Probable space group: P 2/M
;
_chemical_formula_sum "Si O2"
_cell_formula_units_Z 28
_cell_length_a 14.857468
_cell_length_b 14.090734
_cell_length_c 8.288736
_cell_angle_alpha 90.000000
_cell_angle_beta 129.182379
_cell_angle_gamma 90.000000
_cell_volume 1345.074130
_symmetry_space_group_name_H-M "P 2/M"
_symmetry_group_IT_number 10
_symmetry_cell_setting 'monoclinic'
loop_
_space_group_symop_operation_xyz
x,y,z
-x,y,-z
-x,-y,-z
x,-y,z
loop_
_atom_site_type_symbol
_atom_site_label
_atom_site_fract_x
_atom_site_fract_y
_atom_site_fract_z
Si Si1 0.896739 0.894155 0.651055
Si Si2 0.820537 0.692200 0.037760
Si Si3 0.168695 0.107188 0.053960
Si Si4 0.365028 0.609633 0.972048
Si Si5 0.160529 0.612309 0.267580
Si Si6 0.154979 0.292999 0.585983
Si Si7 0.431835 0.385055 0.580348
O O1 0.858832 0.814365 0.484874
O O2 0.034484 0.887803 0.842776
O O3 0.872311 0.000000 0.563489
O O4 0.836325 0.882003 0.757534
O O5 0.774469 0.799633 0.959250
O O6 0.716545 0.618713 0.958982
O O7 0.892359 0.692343 0.286156
O O8 0.883402 0.661713 0.945601
O O9 0.211144 0.000000 0.065289
O O10 0.363986 0.500000 0.915537
O O11 0.289385 0.675631 0.770360
O O12 0.508110 0.639078 0.824899
O O13 0.148380 0.500000 0.237796
O O14 0.114623 0.645012 0.388639
O O15 0.297386 0.640971 0.426226
O O16 0.500000 0.348917 0.500000
O O17 0.435095 0.500000 0.579718
#
# Coordination Sequence:
#
# PCOD9148406 Si02
#       7
#     4   4   4   4   4   4   4
#     4   9  18  35  58  82 104 126 164 217 264 309
#     4  10  20  32  51  78 106 135 171 210 255 310
#     4   9  18  35  59  82 102 127 165 216 265 308
#     4   9  18  32  47  73 109 135 170 214 241 290
#     4  11  20  32  53  75 106 146 174 211 256 292
#     4  10  21  32  50  79 106 136 171 207 259 311
#     4   9  15  27  48  73 100 136 178 214 251 288
#
# _framework density 20.816696
#
# number of rings (size 3 to 8) (size 9 to 14) (size 15 to 20)
#    0.857    1.571    2.857    1.714    0.000    1.714 
#    0.000    3.571    0.000    5.143    0.000    6.000 
#    0.000    0.000    0.000    0.000    0.000    0.000 
#
# Total GULP energy -156137.985224 kJ/mol
# GULP energy per Si atom -5576.356615 kJ/mol
# Density = 2.076932 g / cm^3
# Si number density = 20.816696 Si / 1000 Ang^3
#
#
#
# Elastic Constant Matrix: (Units=GPa)
#
#
# Indices 1 2 3 4 5 6 
#
# 1 63.9202 23.4622 30.7820 0.0000 -8.3229 0.0000
# 2 23.4622 115.7976 54.3988 0.0000 -10.1016 0.0000
# 3 30.7820 54.3988 158.8029 0.0000 -14.0114 0.0000
# 4 0.0000 0.0000 0.0000 42.8842 0.0000 -5.4718
# 5 -8.3229 -10.1016 -14.0114 0.0000 33.5340 0.0000
# 6 0.0000 0.0000 0.0000 -5.4718 0.0000 6.0551
#
#
#
# Elastic Compliance Matrix: (Units=1/GPa)
#
#
# Indices 1 2 3 4 5 6 
#
# 1 0.018023 -0.002245 -0.002481 0.000000 0.002760 0.000000
# 2 -0.002245 0.010665 -0.003098 0.000000 0.001361 0.000000
# 3 -0.002481 -0.003098 0.007997 0.000000 0.001793 0.000000
# 4 0.000000 0.000000 0.000000 0.026358 0.000000 0.023819
# 5 0.002760 0.001361 0.001793 0.000000 0.031664 0.000000
# 6 0.000000 0.000000 0.000000 0.023819 0.000000 0.186674
#
#
# Mechanical properties :
#
#
# Convention : Reuss Voigt Hill
#
# Bulk Modulus (GPa) = 47.53636 61.75630 54.64633
# Shear Modulus (GPa) = 16.44509 31.81983 24.13246
#
# Velocity S-wave (km/s) = 2.81373 3.91394 3.40852
# Velocity P-wave (km/s) = 5.78285 7.08211 6.46520
#
# Compressibility (1/GPa) = 0.02103653
#
# Stress axis : x y z
#
# Youngs Moduli (GPa) = 55.48535 93.76657 125.04126
#
# Poissons Ratio (x) = 0.21055 0.31020
# Poissons Ratio (y) = 0.12459 0.38737
# Poissons Ratio (z) = 0.13765 0.29048
#
# Static dielectric constant tensor:
#      x y z
#    x 1.829010 0.000000 -0.042730 
#    y 0.000000 1.720490 0.000000 
#    z -0.042730 0.000000 1.811500 
# 
# From -- ./inp_files/32505.got.cif
#   From: 2010.05.17/outbox.cif.g08.bks.cpg/sg10_17_cif.got.tgz:32505.got - 2010.06.03 11:33:40.
