data_PCOD9148143
_publ_section_title
;
Structure prediction by ZEFSAII (Michael W. Deem and Ramdas Pophale) SiO2 
 PCOD9148143
Probable space group: P 2/M
;
_chemical_formula_sum "Si O2"
_cell_formula_units_Z 32
_cell_length_a 29.192814
_cell_length_b 13.727207
_cell_length_c 9.653953
_cell_angle_alpha 90.000000
_cell_angle_beta 32.983917
_cell_angle_gamma 90.000000
_cell_volume 2106.125806
_symmetry_space_group_name_H-M "P 2/M"
_symmetry_group_IT_number 10
_symmetry_cell_setting 'monoclinic'
loop_
_space_group_symop_operation_xyz
x,y,z
-x,y,-z
-x,-y,-z
x,-y,z
loop_
_atom_site_type_symbol
_atom_site_label
_atom_site_fract_x
_atom_site_fract_y
_atom_site_fract_z
Si Si1 0.707024 0.291208 0.243643
Si Si2 0.587853 0.887272 0.099111
Si Si3 0.360325 0.683874 0.098296
Si Si4 0.610150 0.112406 0.373689
Si Si5 0.095395 0.382179 0.755535
Si Si6 0.234301 0.617095 0.185785
Si Si7 0.771734 0.615495 0.344917
Si Si8 0.529353 0.384147 0.773735
O O1 0.675081 0.183779 0.283779
O O2 0.762883 0.314143 0.236465
O O3 0.619184 0.346002 0.498564
O O4 0.754095 0.336658 0.992902
O O5 0.487341 0.872404 0.333982
O O6 0.607641 0.874271 0.212982
O O7 0.607040 0.000000 0.014376
O O8 0.636462 0.801049 0.898274
O O9 0.312054 0.651573 0.083223
O O10 0.310050 0.633674 0.351326
O O11 0.455646 0.647210 0.857178
O O12 0.630822 0.000000 0.348328
O O13 0.092206 0.500000 0.757021
O O14 0.150937 0.351587 0.482196
O O15 0.149117 0.360562 0.757263
O O16 0.000000 0.345375 0.000000
O O17 0.234859 0.500000 0.175563
O O18 0.774417 0.500000 0.300364
O O19 0.533571 0.500000 0.770634
O O20 0.500000 0.346719 0.000000
#
# Coordination Sequence:
#
# PCOD9148143 Si02
#       8
#     4   4   4   4   4   4   4   4
#     4  12  20  31  46  69 100 128 164 204 244 275
#     4   9  17  31  47  63  85 123 176 221 250 272
#     4  11  18  31  46  65  92 130 173 202 234 280
#     4   9  18  32  46  62  89 128 168 210 254 280
#     4   8  16  34  55  71  93 129 160 184 232 298
#     4  10  20  30  46  73 100 122 158 207 237 276
#     4  10  20  32  48  70 102 134 155 191 243 289
#     4  11  21  30  42  60  95 143 174 192 228 287
#
# _framework density 15.193773999999999
#
# number of rings (size 3 to 8) (size 9 to 14) (size 15 to 20)
#    0.000    2.000    3.750    3.750    0.000    0.500 
#    0.000    2.500    0.000    5.250    0.000    0.000 
#    0.000   19.000    0.000    0.000    0.000    0.000 
#
# Total GULP energy -178333.233780 kJ/mol
# GULP energy per Si atom -5572.913556 kJ/mol
# Density = 1.515919 g / cm^3
# Si number density = 15.193774 Si / 1000 Ang^3
#
#
#
# Elastic Constant Matrix: (Units=GPa)
#
#
# Indices 1 2 3 4 5 6 
#
# 1 73.6624 26.2243 47.9186 0.0000 -1.4161 0.0000
# 2 26.2243 79.3291 24.4122 0.0000 -1.1083 0.0000
# 3 47.9186 24.4122 66.9625 0.0000 -5.4125 0.0000
# 4 0.0000 0.0000 0.0000 1.9417 0.0000 3.0550
# 5 -1.4161 -1.1083 -5.4125 0.0000 21.9328 0.0000
# 6 0.0000 0.0000 0.0000 3.0550 0.0000 19.0119
#
#
#
# Elastic Compliance Matrix: (Units=1/GPa)
#
#
# Indices 1 2 3 4 5 6 
#
# 1 0.026297 -0.003234 -0.017872 0.000000 -0.002876 0.000000
# 2 -0.003234 0.014603 -0.003027 0.000000 -0.000218 0.000000
# 3 -0.017872 -0.003027 0.029306 0.000000 0.005925 0.000000
# 4 0.000000 0.000000 0.000000 0.689282 0.000000 -0.110759
# 5 -0.002876 -0.000218 0.005925 0.000000 0.046859 0.000000
# 6 0.000000 0.000000 0.000000 -0.110759 0.000000 0.070396
#
#
# Mechanical properties :
#
#
# Convention : Reuss Voigt Hill
#
# Bulk Modulus (GPa) = 45.57886 46.34045 45.95965
# Shear Modulus (GPa) = 5.36294 16.67054 11.01674
#
# Velocity S-wave (km/s) = 1.88079 3.31599 2.69566
# Velocity P-wave (km/s) = 5.89746 6.72509 6.32483
#
# Compressibility (1/GPa) = 0.02194000
#
# Stress axis : x y z
#
# Youngs Moduli (GPa) = 38.02647 68.47769 34.12305
#
# Poissons Ratio (x) = 0.22143 0.60985
# Poissons Ratio (y) = 0.12297 0.10331
# Poissons Ratio (z) = 0.67961 0.20731
#
# Static dielectric constant tensor:
#      x y z
#    x 1.524960 0.000000 0.017750 
#    y 0.000000 1.504040 0.000000 
#    z 0.017750 0.000000 1.501310 
# 
# From -- ./inp_files/37637.got.cif
#   From: 2010.05.17/outbox.cif.g08.bks.cpg/sg10_19_cif.got.tgz:37637.got - 2010.06.03 11:33:40.
