data_PCOD9148998
_publ_section_title
;
Structure prediction by ZEFSAII (Michael W. Deem and Ramdas Pophale) SiO2 
 PCOD9148998
Probable space group: P 2/M
;
_chemical_formula_sum "Si O2"
_cell_formula_units_Z 28
_cell_length_a 25.024144
_cell_length_b 7.883937
_cell_length_c 22.381876
_cell_angle_alpha 90.000000
_cell_angle_beta 18.102042
_cell_angle_gamma 90.000000
_cell_volume 1372.001288
_symmetry_space_group_name_H-M "P 2/M"
_symmetry_group_IT_number 10
_symmetry_cell_setting 'monoclinic'
loop_
_space_group_symop_operation_xyz
x,y,z
-x,y,-z
-x,-y,-z
x,-y,z
loop_
_atom_site_type_symbol
_atom_site_label
_atom_site_fract_x
_atom_site_fract_y
_atom_site_fract_z
Si Si1 0.200977 0.800149 0.295123
Si Si2 0.331566 0.702752 0.864383
Si Si3 0.909520 0.795045 0.156916
Si Si4 0.443913 0.701758 0.145394
Si Si5 0.613132 0.708711 0.658491
Si Si6 0.476462 0.795063 0.457039
Si Si7 0.970569 0.297496 0.225018
O O1 0.294166 0.772331 0.260658
O O2 0.000000 0.735172 0.500000
O O3 0.189921 0.000000 0.295974
O O4 0.358446 0.734500 0.085637
O O5 0.326604 0.500000 0.877303
O O6 0.467255 0.769127 0.767844
O O7 0.391081 0.735875 0.733441
O O8 0.140687 0.772145 0.075230
O O9 0.711512 0.741545 0.364987
O O10 0.984579 0.735010 0.139524
O O11 0.917320 0.000000 0.148284
O O12 0.000000 0.735506 0.000000
O O13 0.420754 0.500000 0.167974
O O14 0.418075 0.762254 0.240505
O O15 0.612347 0.500000 0.658874
O O16 0.794483 0.768895 0.439470
O O17 0.500000 0.735367 0.500000
O O18 0.483262 0.000000 0.451259
O O19 0.967006 0.500000 0.237000
#
# Coordination Sequence:
#
# PCOD9148998 Si02
#       7
#     4   4   4   4   4   4   4
#     4  10  21  38  59  85 122 160 191 229 278 331
#     4  10  20  35  55  77 103 138 177 219 271 328
#     4  10  20  34  52  74 101 134 173 222 278 330
#     4  10  20  35  60  90 116 150 194 240 284 328
#     4   9  19  36  55  80 114 144 178 228 278 326
#     4  10  20  34  52  74 101 134 173 222 278 330
#     4  10  20  35  55  77 103 138 177 219 271 328
#
# _framework density 20.408142999999999
#
# number of rings (size 3 to 8) (size 9 to 14) (size 15 to 20)
#    0.000    2.143    1.429    2.571    0.000    4.571 
#    0.000    5.714    0.000    0.000    0.000    0.000 
#    0.000    0.000    0.000    0.000    0.000    0.000 
#
# Total GULP energy -156161.557863 kJ/mol
# GULP energy per Si atom -5577.198495 kJ/mol
# Density = 2.036169 g / cm^3
# Si number density = 20.408143 Si / 1000 Ang^3
#
#
#
# Elastic Constant Matrix: (Units=GPa)
#
#
# Indices 1 2 3 4 5 6 
#
# 1 141.1733 -6.9000 100.2448 0.0000 -2.6348 0.0000
# 2 -6.9000 15.8800 -2.2032 0.0000 -5.7783 0.0000
# 3 100.2448 -2.2032 158.7172 0.0000 -24.9878 0.0000
# 4 0.0000 0.0000 0.0000 197.2341 0.0000 -102.1806
# 5 -2.6348 -5.7783 -24.9878 0.0000 40.1252 0.0000
# 6 0.0000 0.0000 0.0000 -102.1806 0.0000 95.9333
#
#
#
# Elastic Compliance Matrix: (Units=1/GPa)
#
#
# Indices 1 2 3 4 5 6 
#
# 1 0.013821 0.003063 -0.009395 0.000000 -0.004502 0.000000
# 2 0.003063 0.068188 0.000653 0.000000 0.010428 0.000000
# 3 -0.009395 0.000653 0.013483 0.000000 0.007874 0.000000
# 4 0.000000 0.000000 0.000000 0.011312 0.000000 0.012049
# 5 -0.004502 0.010428 0.007874 0.000000 0.031031 0.000000
# 6 0.000000 0.000000 0.000000 0.012049 0.000000 0.023258
#
#
# Mechanical properties :
#
#
# Convention : Reuss Voigt Hill
#
# Bulk Modulus (GPa) = 11.88561 55.33931 33.61246
# Shear Modulus (GPa) = 24.93820 81.63378 53.28599
#
# Velocity S-wave (km/s) = 3.49947 6.33146 5.11535
# Velocity P-wave (km/s) = 4.70797 8.97915 7.16903
#
# Compressibility (1/GPa) = 0.08413534
#
# Stress axis : x y z
#
# Youngs Moduli (GPa) = 72.35543 14.66524 74.16618
#
# Poissons Ratio (x) = -0.04493 0.69682
# Poissons Ratio (y) = -0.22166 -0.04846
# Poissons Ratio (z) = 0.67980 -0.00958
#
# Static dielectric constant tensor:
#      x y z
#    x 1.723410 0.000000 -0.015620 
#    y 0.000000 1.730350 0.000000 
#    z -0.015620 0.000000 1.742530 
# 
# From -- ./inp_files/86443.got.cif
#   From: 2010.05.17/outbox.cif.g08.bks.cpg/sg10_44_cif.got.tgz:86443.got - 2010.06.03 11:33:40.
