data_PCOD9148722
_publ_section_title
;
Structure prediction by ZEFSAII (Michael W. Deem and Ramdas Pophale) SiO2 
 PCOD9148722
Probable space group: P 2/M
;
_chemical_formula_sum "Si O2"
_cell_formula_units_Z 32
_cell_length_a 16.001185
_cell_length_b 9.006863
_cell_length_c 25.911413
_cell_angle_alpha 90.000000
_cell_angle_beta 29.945460
_cell_angle_gamma 90.000000
_cell_volume 1864.103303
_symmetry_space_group_name_H-M "P 2/M"
_symmetry_group_IT_number 10
_symmetry_cell_setting 'monoclinic'
loop_
_space_group_symop_operation_xyz
x,y,z
-x,y,-z
-x,-y,-z
x,-y,z
loop_
_atom_site_type_symbol
_atom_site_label
_atom_site_fract_x
_atom_site_fract_y
_atom_site_fract_z
Si Si1 0.916509 0.824483 0.425626
Si Si2 0.947042 0.177343 0.944731
Si Si3 0.729961 0.822703 0.162757
Si Si4 0.779593 0.323052 0.937527
Si Si5 0.371680 0.321964 0.351761
Si Si6 0.444048 0.831642 0.089856
Si Si7 0.149932 0.332322 0.377975
Si Si8 0.110922 0.676011 0.237384
O O1 0.756688 0.750525 0.538842
O O2 0.075998 0.778014 0.375553
O O3 0.958736 0.758431 0.346961
O O4 0.897666 0.000000 0.434188
O O5 0.893275 0.265559 0.923104
O O6 0.131064 0.213548 0.868328
O O7 0.941430 0.000000 0.937934
O O8 0.818097 0.208183 0.060557
O O9 0.558095 0.735512 0.260243
O O10 0.699054 0.000000 0.181656
O O11 0.754784 0.500000 0.953094
O O12 0.862412 0.288554 0.837381
O O13 0.599574 0.241847 0.035966
O O14 0.359769 0.500000 0.362119
O O15 0.307528 0.283376 0.327968
O O16 0.280329 0.730423 0.175037
O O17 0.409063 0.000000 0.126312
O O18 0.500000 0.840229 0.000000
O O19 0.176017 0.500000 0.343189
O O20 0.000000 0.343206 0.500000
O O21 0.091990 0.500000 0.252843
#
# Coordination Sequence:
#
# PCOD9148722 Si02
#       8
#     4   4   4   4   4   4   4   4
#     4  11  21  32  50  75 103 138 177 213 250 297
#     4   9  19  36  56  77 104 133 163 206 256 305
#     4   9  19  36  56  78 102 131 166 205 254 307
#     4  10  20  33  52  77 104 136 172 210 255 304
#     4  10  20  34  53  76 103 136 170 209 256 303
#     4   9  17  30  48  70  97 130 169 209 247 290
#     4   8  16  31  47  66  97 133 166 202 246 292
#     4  10  20  34  50  71 104 141 175 212 252 297
#
# _framework density 17.166430999999999
#
# number of rings (size 3 to 8) (size 9 to 14) (size 15 to 20)
#    0.000    2.500    0.000    4.125    0.000    7.750 
#    0.000    3.750    0.000    0.750    0.000    5.250 
#    0.000    0.000    0.000    0.000    0.000    0.000 
#
# Total GULP energy -178480.045128 kJ/mol
# GULP energy per Si atom -5577.501410 kJ/mol
# Density = 1.712736 g / cm^3
# Si number density = 17.166431 Si / 1000 Ang^3
#
#
#
# Elastic Constant Matrix: (Units=GPa)
#
#
# Indices 1 2 3 4 5 6 
#
# 1 104.6430 52.7089 48.2990 0.0000 -7.7576 0.0000
# 2 52.7089 82.8835 46.1569 0.0000 -2.9480 0.0000
# 3 48.2990 46.1569 78.4206 0.0000 -10.9683 0.0000
# 4 0.0000 0.0000 0.0000 27.4506 0.0000 -4.9136
# 5 -7.7576 -2.9480 -10.9683 0.0000 19.7017 0.0000
# 6 0.0000 0.0000 0.0000 -4.9136 0.0000 22.1730
#
#
#
# Elastic Compliance Matrix: (Units=1/GPa)
#
#
# Indices 1 2 3 4 5 6 
#
# 1 0.015635 -0.006953 -0.005229 0.000000 0.002205 0.000000
# 2 -0.006953 0.021261 -0.008859 0.000000 -0.004488 0.000000
# 3 -0.005229 -0.008859 0.022462 0.000000 0.009121 0.000000
# 4 0.000000 0.000000 0.000000 0.037934 0.000000 0.008406
# 5 0.002205 -0.004488 0.009121 0.000000 0.056031 0.000000
# 6 0.000000 0.000000 0.000000 0.008406 0.000000 0.046963
#
#
# Mechanical properties :
#
#
# Convention : Reuss Voigt Hill
#
# Bulk Modulus (GPa) = 57.88301 62.25296 60.06799
# Shear Modulus (GPa) = 20.15098 21.78389 20.96743
#
# Velocity S-wave (km/s) = 3.42988 3.56614 3.49867
# Velocity P-wave (km/s) = 7.03401 7.30066 7.16857
#
# Compressibility (1/GPa) = 0.01727623
#
# Stress axis : x y z
#
# Youngs Moduli (GPa) = 63.95729 47.03555 44.51881
#
# Poissons Ratio (x) = 0.32702 0.23280
# Poissons Ratio (y) = 0.44467 0.39440
# Poissons Ratio (z) = 0.33445 0.41670
#
# Static dielectric constant tensor:
#      x y z
#    x 1.579530 0.000000 0.019090 
#    y 0.000000 1.578410 0.000000 
#    z 0.019090 0.000000 1.589570 
# 
# From -- ./inp_files/66580.got.cif
#   From: 2010.05.17/outbox.cif.g08.bks.cpg/sg10_34_cif.got.tgz:66580.got - 2010.06.03 11:33:40.
