data_PCOD9148434
_publ_section_title
;
Structure prediction by ZEFSAII (Michael W. Deem and Ramdas Pophale) SiO2 
 PCOD9148434
Probable space group: P 2/M
;
_chemical_formula_sum "Si O2"
_cell_formula_units_Z 28
_cell_length_a 15.077614
_cell_length_b 8.659502
_cell_length_c 12.743698
_cell_angle_alpha 90.000000
_cell_angle_beta 121.483046
_cell_angle_gamma 90.000000
_cell_volume 1418.944861
_symmetry_space_group_name_H-M "P 2/M"
_symmetry_group_IT_number 10
_symmetry_cell_setting 'monoclinic'
loop_
_space_group_symop_operation_xyz
x,y,z
-x,y,-z
-x,-y,-z
x,-y,z
loop_
_atom_site_type_symbol
_atom_site_label
_atom_site_fract_x
_atom_site_fract_y
_atom_site_fract_z
Si Si1 0.405438 0.828335 0.021009
Si Si2 0.824199 0.814301 0.671366
Si Si3 0.795384 0.686044 0.872921
Si Si4 0.830898 0.819530 0.126473
Si Si5 0.560801 0.675714 0.753806
Si Si6 0.993612 0.315455 0.618295
Si Si7 0.408764 0.816227 0.519934
O O1 0.288443 0.810006 0.907452
O O2 0.404817 0.000000 0.073715
O O3 0.500000 0.829055 0.000000
O O4 0.424237 0.692336 0.113641
O O5 0.852240 0.746369 0.803585
O O6 0.899779 0.759792 0.625960
O O7 0.707018 0.758696 0.570898
O O8 0.825529 0.000000 0.679137
O O9 0.799094 0.500000 0.880130
O O10 0.673358 0.734287 0.782672
O O11 0.831975 0.753812 0.007522
O O12 0.904988 0.730931 0.252098
O O13 0.861068 0.000000 0.141354
O O14 0.546707 0.500000 0.711504
O O15 0.460028 0.773187 0.661624
O O16 0.981035 0.500000 0.611307
O O17 0.000000 0.265247 0.500000
O O18 0.500000 0.753927 0.500000
O O19 0.404775 0.000000 0.504314
#
# Coordination Sequence:
#
# PCOD9148434 Si02
#       7
#     4   4   4   4   4   4   4
#     4   9  19  36  58  85 117 154 197 244 294 349
#     4  11  23  39  63  92 121 159 208 255 300 358
#     4  10  20  36  59  90 126 158 194 242 303 364
#     4  10  21  39  65  91 119 157 202 252 301 355
#     4  10  20  32  52  83 120 159 194 238 291 350
#     4  11  26  47  66  86 119 160 202 252 307 361
#     4  10  20  35  56  84 121 160 195 237 292 350
#
# _framework density 19.732970999999999
#
# number of rings (size 3 to 8) (size 9 to 14) (size 15 to 20)
#    0.000    1.857    1.429    2.143    0.000    6.286 
#    0.000    7.143    0.000    0.000    0.000    0.000 
#    0.000    0.000    0.000    0.000    0.000    0.000 
#
# Total GULP energy -156136.657501 kJ/mol
# GULP energy per Si atom -5576.309196 kJ/mol
# Density = 1.968806 g / cm^3
# Si number density = 19.732971 Si / 1000 Ang^3
#
#
#
# Elastic Constant Matrix: (Units=GPa)
#
#
# Indices 1 2 3 4 5 6 
#
# 1 106.7852 29.4149 54.0155 0.0000 -11.6248 0.0000
# 2 29.4149 46.3235 21.6360 0.0000 -5.4457 0.0000
# 3 54.0155 21.6360 107.4993 0.0000 1.6395 0.0000
# 4 0.0000 0.0000 0.0000 30.8222 0.0000 -6.6921
# 5 -11.6248 -5.4457 1.6395 0.0000 24.8851 0.0000
# 6 0.0000 0.0000 0.0000 -6.6921 0.0000 16.9313
#
#
#
# Elastic Compliance Matrix: (Units=1/GPa)
#
#
# Indices 1 2 3 4 5 6 
#
# 1 0.014841 -0.005717 -0.006400 0.000000 0.006103 0.000000
# 2 -0.005717 0.026817 -0.002576 0.000000 0.003367 0.000000
# 3 -0.006400 -0.002576 0.013104 0.000000 -0.004417 0.000000
# 4 0.000000 0.000000 0.000000 0.035490 0.000000 0.014027
# 5 0.006103 0.003367 -0.004417 0.000000 0.044064 0.000000
# 6 0.000000 0.000000 0.000000 0.014027 0.000000 0.064606
#
#
# Mechanical properties :
#
#
# Convention : Reuss Voigt Hill
#
# Bulk Modulus (GPa) = 39.40738 52.30454 45.85596
# Shear Modulus (GPa) = 21.11794 24.89717 23.00756
#
# Velocity S-wave (km/s) = 3.27492 3.55590 3.41830
# Velocity P-wave (km/s) = 5.85780 6.58961 6.23445
#
# Compressibility (1/GPa) = 0.02537596
#
# Stress axis : x y z
#
# Youngs Moduli (GPa) = 67.38065 37.29013 76.31379
#
# Poissons Ratio (x) = 0.21320 0.48838
# Poissons Ratio (y) = 0.38524 0.19657
# Poissons Ratio (z) = 0.43121 0.09605
#
# Static dielectric constant tensor:
#      x y z
#    x 1.719670 0.000000 -0.000650 
#    y 0.000000 1.698000 0.000000 
#    z -0.000650 0.000000 1.759210 
# 
# From -- ./inp_files/49649.got.cif
#   From: 2010.05.17/outbox.cif.g08.bks.cpg/sg10_25_cif.got.tgz:49649.got - 2010.06.03 11:33:40.
