data_PCOD9148330
_publ_section_title
;
Structure prediction by ZEFSAII (Michael W. Deem and Ramdas Pophale) SiO2 
 PCOD9148330
Probable space group: P 2/M
;
_chemical_formula_sum "Si O2"
_cell_formula_units_Z 24
_cell_length_a 11.110387
_cell_length_b 8.799410
_cell_length_c 20.855663
_cell_angle_alpha 90.000000
_cell_angle_beta 31.495346
_cell_angle_gamma 90.000000
_cell_volume 1065.207636
_symmetry_space_group_name_H-M "P 2/M"
_symmetry_group_IT_number 10
_symmetry_cell_setting 'monoclinic'
loop_
_space_group_symop_operation_xyz
x,y,z
-x,y,-z
-x,-y,-z
x,-y,z
loop_
_atom_site_type_symbol
_atom_site_label
_atom_site_fract_x
_atom_site_fract_y
_atom_site_fract_z
Si Si1 0.566085 0.327113 0.847530
Si Si2 0.905126 0.680938 0.797327
Si Si3 0.767923 0.181038 0.255463
Si Si4 0.704719 0.173555 0.466050
Si Si5 0.956218 0.336225 0.445686
Si Si6 0.271968 0.675721 0.864853
O O1 0.483196 0.500000 0.899846
O O2 0.673333 0.262869 0.865523
O O3 0.389063 0.256966 0.876402
O O4 0.797868 0.336838 0.700184
O O5 0.885783 0.500000 0.811755
O O6 0.993976 0.750453 0.824003
O O7 0.119112 0.721983 0.653209
O O8 0.561614 0.213227 0.400828
O O9 0.697890 0.246067 0.217929
O O10 0.788219 0.000000 0.242088
O O11 0.808985 0.195018 0.489488
O O12 0.727253 0.000000 0.433928
O O13 0.839959 0.500000 0.483406
O O14 0.000000 0.329928 0.500000
O O15 0.354380 0.500000 0.822265
O O16 0.000000 0.674737 0.000000
#
# Coordination Sequence:
#
# PCOD9148330 Si02
#       6
#     4   4   4   4   4   4
#     4   8  16  32  53  79 108 135 173 225 273 317
#     4  10  20  35  57  83 112 148 184 220 265 319
#     4  11  23  37  54  80 115 150 182 222 271 323
#     4  10  20  32  48  76 114 149 180 217 263 319
#     4   9  16  27  46  72 104 143 182 219 260 313
#     4  10  21  39  63  85 104 135 183 235 281 324
#
# _framework density 22.530819000000001
#
# number of rings (size 3 to 8) (size 9 to 14) (size 15 to 20)
#    0.000    2.333    0.000    4.000    0.000    6.667 
#    0.000    6.667    0.000    5.000    0.000    0.000 
#    0.000    0.000    0.000    0.000    0.000    0.000 
#
# Total GULP energy -133731.381635 kJ/mol
# GULP energy per Si atom -5572.140901 kJ/mol
# Density = 2.247954 g / cm^3
# Si number density = 22.530819 Si / 1000 Ang^3
#
#
#
# Elastic Constant Matrix: (Units=GPa)
#
#
# Indices 1 2 3 4 5 6 
#
# 1 175.6400 45.7887 47.6011 0.0000 -34.7584 0.0000
# 2 45.7887 40.8759 11.9449 0.0000 -1.5342 0.0000
# 3 47.6011 11.9449 48.8048 0.0000 14.4491 0.0000
# 4 0.0000 0.0000 0.0000 -15.3395 0.0000 -7.8850
# 5 -34.7584 -1.5342 14.4491 0.0000 37.8986 0.0000
# 6 0.0000 0.0000 0.0000 -7.8850 0.0000 14.0856
#
#
#
# Elastic Compliance Matrix: (Units=1/GPa)
#
#
# Indices 1 2 3 4 5 6 
#
# 1 0.025667 -0.018477 -0.030728 0.000000 0.034507 0.000000
# 2 -0.018477 0.040192 0.014338 0.000000 -0.020786 0.000000
# 3 -0.030728 0.014338 0.062136 0.000000 -0.051291 0.000000
# 4 0.000000 0.000000 0.000000 -0.050624 0.000000 -0.028339
# 5 0.034507 -0.020786 -0.051291 0.000000 0.076748 0.000000
# 6 0.000000 0.000000 0.000000 -0.028339 0.000000 0.055130
#
#
# Mechanical properties :
#
#
# Convention : Reuss Voigt Hill
#
# Bulk Modulus (GPa) = 17.16409 52.88779 35.02594
# Shear Modulus (GPa) = 16.75588 17.99469 17.37529
#
# Velocity S-wave (km/s) = 2.73002 2.82914 2.78002
# Velocity P-wave (km/s) = 4.19189 5.84778 5.08766
#
# Compressibility (1/GPa) = 0.05826118
#
# Stress axis : x y z
#
# Youngs Moduli (GPa) = 38.96051 24.88048 16.09385
#
# Poissons Ratio (x) = 0.45972 0.49453
# Poissons Ratio (y) = 0.71988 -0.23076
# Poissons Ratio (z) = 1.19717 -0.35675
#
# Static dielectric constant tensor:
#      x y z
#    x 2.002900 0.000000 0.039990 
#    y 0.000000 1.803010 0.000000 
#    z 0.039990 0.000000 1.854330 
# 
# From -- ./inp_files/57233.got.cif
#   From: 2010.05.17/outbox.cif.g08.bks.cpg/sg10_29_cif.got.tgz:57233.got - 2010.06.03 11:33:40.
