data_PCOD9148513
_publ_section_title
;
Structure prediction by ZEFSAII (Michael W. Deem and Ramdas Pophale) SiO2 
 PCOD9148513
Probable space group: P 2/M
;
_chemical_formula_sum "Si O2"
_cell_formula_units_Z 32
_cell_length_a 14.706077
_cell_length_b 7.484069
_cell_length_c 22.852316
_cell_angle_alpha 90.000000
_cell_angle_beta 37.927520
_cell_angle_gamma 90.000000
_cell_volume 1545.975882
_symmetry_space_group_name_H-M "P 2/M"
_symmetry_group_IT_number 10
_symmetry_cell_setting 'monoclinic'
loop_
_space_group_symop_operation_xyz
x,y,z
-x,y,-z
-x,-y,-z
x,-y,z
loop_
_atom_site_type_symbol
_atom_site_label
_atom_site_fract_x
_atom_site_fract_y
_atom_site_fract_z
Si Si1 0.436861 0.284384 0.673513
Si Si2 0.784375 0.716292 0.770771
Si Si3 0.142329 0.791306 0.395105
Si Si4 0.152449 0.718320 0.131101
Si Si5 0.831951 0.280756 0.270635
Si Si6 0.527188 0.210776 0.757370
Si Si7 0.451763 0.705218 0.921670
Si Si8 0.357405 0.704638 0.528905
O O1 0.439790 0.500000 0.666863
O O2 0.285653 0.224132 0.718849
O O3 0.452207 0.238243 0.733143
O O4 0.576677 0.215945 0.564086
O O5 0.782288 0.500000 0.769104
O O6 0.866944 0.777801 0.670407
O O7 0.851296 0.768758 0.798792
O O8 0.613466 0.781485 0.854761
O O9 0.304237 0.715919 0.329140
O O10 0.000000 0.713000 0.500000
O O11 0.148434 0.000000 0.408720
O O12 0.154453 0.500000 0.127665
O O13 0.000778 0.774964 0.177247
O O14 0.304902 0.783484 0.024986
O O15 0.827568 0.500000 0.274023
O O16 0.770253 0.218425 0.365278
O O17 0.443935 0.291434 0.855340
O O18 0.535462 0.000000 0.765213
O O19 0.458142 0.500000 0.939084
O O20 0.500000 0.699313 0.500000
O O21 0.313129 0.500000 0.538299
#
# Coordination Sequence:
#
# PCOD9148513 Si02
#       8
#     4   4   4   4   4   4   4   4
#     4   9  16  28  48  70  92 122 157 189 223 268
#     4   9  17  29  48  74  98 119 148 188 232 275
#     4   9  19  35  50  66  94 128 156 184 222 270
#     4   9  16  27  46  71  96 120 148 189 237 276
#     4   8  14  25  43  70  98 120 149 189 228 269
#     4  10  20  33  49  67  89 121 158 192 227 269
#     4   9  17  31  49  68  92 121 153 189 230 277
#     4   7  11  21  38  61  88 114 140 175 218 261
#
# _framework density 20.698898
#
# number of rings (size 3 to 8) (size 9 to 14) (size 15 to 20)
#    0.000    3.250    0.000    2.250    0.000    3.250 
#    0.000    2.500    0.000   11.625    0.000    0.000 
#    0.000    0.000    0.000    0.000    0.000    0.000 
#
# Total GULP energy -178364.360363 kJ/mol
# GULP energy per Si atom -5573.886261 kJ/mol
# Density = 2.065179 g / cm^3
# Si number density = 20.698898 Si / 1000 Ang^3
#
#
#
# Elastic Constant Matrix: (Units=GPa)
#
#
# Indices 1 2 3 4 5 6 
#
# 1 86.4771 -5.6219 48.0477 0.0000 10.1635 0.0000
# 2 -5.6219 57.6028 -5.1184 0.0000 -7.2398 0.0000
# 3 48.0477 -5.1184 117.2000 0.0000 -14.3889 0.0000
# 4 0.0000 0.0000 0.0000 16.0871 0.0000 24.8399
# 5 10.1635 -7.2398 -14.3889 0.0000 20.6357 0.0000
# 6 0.0000 0.0000 0.0000 24.8399 0.0000 28.3916
#
#
#
# Elastic Compliance Matrix: (Units=1/GPa)
#
#
# Indices 1 2 3 4 5 6 
#
# 1 0.018897 -0.001109 -0.009827 0.000000 -0.016548 0.000000
# 2 -0.001109 0.018550 0.002330 0.000000 0.008679 0.000000
# 3 -0.009827 0.002330 0.014608 0.000000 0.015843 0.000000
# 4 0.000000 0.000000 0.000000 -0.177134 0.000000 0.154975
# 5 -0.016548 0.008679 0.015843 0.000000 0.070702 0.000000
# 6 0.000000 0.000000 0.000000 0.154975 0.000000 -0.100367
#
#
# Mechanical properties :
#
#
# Convention : Reuss Voigt Hill
#
# Bulk Modulus (GPa) = 28.69983 37.32162 33.01072
# Shear Modulus (GPa) = -39.70808 27.95439 -5.87684
#
# Velocity S-wave (km/s) = -4.38467 3.67894 -1.68682
# Velocity P-wave (km/s) = 3.42611 6.00966 3.49125
#
# Compressibility (1/GPa) = 0.03484341
#
# Stress axis : x y z
#
# Youngs Moduli (GPa) = 52.91984 53.90860 68.45566
#
# Poissons Ratio (x) = 0.05977 0.67271
# Poissons Ratio (y) = 0.05868 -0.15952
# Poissons Ratio (z) = 0.52004 -0.12562
#
# Static dielectric constant tensor:
#      x y z
#    x 1.717990 0.000000 -0.018850 
#    y 0.000000 1.813080 0.000000 
#    z -0.018850 0.000000 1.751940 
# 
# From -- ./inp_files/84701.got.cif
#   From: 2010.05.17/outbox.cif.g08.bks.cpg/sg10_43_cif.got.tgz:84701.got - 2010.06.03 11:33:40.
