data_PCOD9148603
_publ_section_title
;
Structure prediction by ZEFSAII (Michael W. Deem and Ramdas Pophale) SiO2 
 PCOD9148603
Probable space group: P 2/M
;
_chemical_formula_sum "Si O2"
_cell_formula_units_Z 24
_cell_length_a 9.251887
_cell_length_b 11.397817
_cell_length_c 26.838882
_cell_angle_alpha 90.000000
_cell_angle_beta 151.397042
_cell_angle_gamma 90.000000
_cell_volume 1354.919777
_symmetry_space_group_name_H-M "P 2/M"
_symmetry_group_IT_number 10
_symmetry_cell_setting 'monoclinic'
loop_
_space_group_symop_operation_xyz
x,y,z
-x,y,-z
-x,-y,-z
x,-y,z
loop_
_atom_site_type_symbol
_atom_site_label
_atom_site_fract_x
_atom_site_fract_y
_atom_site_fract_z
Si Si1 0.484825 0.000000 0.380161
Si Si2 0.196865 0.359783 0.877085
Si Si3 0.323903 0.362368 0.550131
Si Si4 0.100524 0.231591 0.297086
Si Si5 0.811018 0.000000 0.373434
Si Si6 0.550808 0.361392 0.724418
Si Si7 0.861228 0.237844 0.335801
O O1 0.288410 0.884892 0.336609
O O2 0.589771 0.000000 0.354195
O O3 0.823532 0.000000 0.506262
O O4 0.181788 0.500000 0.859421
O O5 0.162956 0.272802 0.819996
O O6 0.896370 0.330511 0.818254
O O7 0.500000 0.342217 0.000000
O O8 0.243401 0.500000 0.524489
O O9 0.663369 0.339498 0.634411
O O10 0.346466 0.319650 0.614822
O O11 0.120231 0.289643 0.450558
O O12 0.980632 0.222774 0.316607
O O13 0.755263 0.114767 0.325026
O O14 0.530648 0.500000 0.714905
O O15 0.419299 0.321928 0.737058
#
# Coordination Sequence:
#
# PCOD9148603 Si02
#       7
#     2   4   4   4   2   4   4
#     4  11  23  39  56  76 108 152 195 225 256 326
#     4   9  19  39  63  82 106 144 187 228 273 330
#     4  10  20  33  50  74 111 153 184 212 258 329
#     4  11  22  36  54  80 113 142 182 229 277 323
#     4  11  23  35  55  76 107 155 194 220 260 314
#     4   9  19  34  53  79 109 144 186 222 264 325
#     4  12  22  32  52  81 115 146 178 226 274 320
#
# _framework density 17.713225999999999
#
# number of rings (size 3 to 8) (size 9 to 14) (size 15 to 20)
#    0.000    1.667    1.667    5.500    2.333    5.333 
#    0.000    1.250    0.000    3.000    0.000    3.500 
#    0.000    0.000    0.000    0.000    0.000    0.000 
#
# Total GULP energy -133747.437312 kJ/mol
# GULP energy per Si atom -5572.809888 kJ/mol
# Density = 1.767291 g / cm^3
# Si number density = 17.713226 Si / 1000 Ang^3
#
#
#
# Elastic Constant Matrix: (Units=GPa)
#
#
# Indices 1 2 3 4 5 6 
#
# 1 154.5030 33.8649 46.6850 0.0000 -11.5551 0.0000
# 2 33.8649 49.6857 34.3877 0.0000 -6.3234 0.0000
# 3 46.6850 34.3877 88.8766 0.0000 7.2423 0.0000
# 4 0.0000 0.0000 0.0000 9.3758 0.0000 13.8877
# 5 -11.5551 -6.3234 7.2423 0.0000 11.0588 0.0000
# 6 0.0000 0.0000 0.0000 13.8877 0.0000 17.2086
#
#
#
# Elastic Compliance Matrix: (Units=1/GPa)
#
#
# Indices 1 2 3 4 5 6 
#
# 1 0.009325 -0.000792 -0.005650 0.000000 0.012991 0.000000
# 2 -0.000792 0.035247 -0.015631 0.000000 0.029563 0.000000
# 3 -0.005650 -0.015631 0.022687 0.000000 -0.029699 0.000000
# 4 0.000000 0.000000 0.000000 -0.545919 0.000000 0.440566
# 5 0.012991 0.029563 -0.029699 0.000000 0.140353 0.000000
# 6 0.000000 0.000000 0.000000 0.440566 0.000000 -0.297435
#
#
# Mechanical properties :
#
#
# Convention : Reuss Voigt Hill
#
# Bulk Modulus (GPa) = 43.26477 58.10451 50.68464
# Shear Modulus (GPa) = -8.56324 19.40384 5.42030
#
# Velocity S-wave (km/s) = -2.20111 3.31334 1.75119
# Velocity P-wave (km/s) = 4.24480 6.89288 5.72407
#
# Compressibility (1/GPa) = 0.02311349
#
# Stress axis : x y z
#
# Youngs Moduli (GPa) = 107.24080 28.37154 44.07720
#
# Poissons Ratio (x) = 0.02246 0.24906
# Poissons Ratio (y) = 0.08489 0.68896
# Poissons Ratio (z) = 0.60596 0.44347
#
# Static dielectric constant tensor:
#      x y z
#    x 1.622530 0.000000 0.006790 
#    y 0.000000 1.627540 0.000000 
#    z 0.006790 0.000000 1.621340 
# 
# From -- ./inp_files/60803.got.cif
#   From: 2010.05.17/outbox.cif.g08.bks.cpg/sg10_31_cif.got.tgz:60803.got - 2010.06.03 11:33:40.
