data_PCOD9148993
_publ_section_title
;
Structure prediction by ZEFSAII (Michael W. Deem and Ramdas Pophale) SiO2 
 PCOD9148993
Probable space group: P 2/M
;
_chemical_formula_sum "Si O2"
_cell_formula_units_Z 28
_cell_length_a 22.977481
_cell_length_b 10.201874
_cell_length_c 13.459951
_cell_angle_alpha 90.000000
_cell_angle_beta 149.563081
_cell_angle_gamma 90.000000
_cell_volume 1598.387119
_symmetry_space_group_name_H-M "P 2/M"
_symmetry_group_IT_number 10
_symmetry_cell_setting 'monoclinic'
loop_
_space_group_symop_operation_xyz
x,y,z
-x,y,-z
-x,-y,-z
x,-y,z
loop_
_atom_site_type_symbol
_atom_site_label
_atom_site_fract_x
_atom_site_fract_y
_atom_site_fract_z
Si Si1 0.469989 0.152730 0.072169
Si Si2 0.793442 0.647946 0.022050
Si Si3 0.184757 0.842390 0.120002
Si Si4 0.071934 0.151830 0.286329
Si Si5 0.289679 0.158313 0.488426
Si Si6 0.717442 0.352211 0.130694
Si Si7 0.962547 0.747139 0.550587
O O1 0.583373 0.203470 0.296244
O O2 0.446741 0.000000 0.064204
O O3 0.500000 0.156083 0.000000
O O4 0.362431 0.243202 0.938501
O O5 0.775813 0.500000 0.958684
O O6 0.769548 0.758538 0.905212
O O7 0.722228 0.665819 0.018505
O O8 0.926922 0.664438 0.251636
O O9 0.252779 0.817098 0.321199
O O10 0.186416 0.000000 0.102743
O O11 0.050907 0.799596 0.934880
O O12 0.187709 0.210210 0.409905
O O13 0.066406 0.163369 0.397330
O O14 0.074100 0.000000 0.260493
O O15 0.295458 0.000000 0.510515
O O16 0.678606 0.500000 0.095616
O O17 0.848389 0.334834 0.360363
O O18 0.000000 0.810791 0.500000
#
# Coordination Sequence:
#
# PCOD9148993 Si02
#       7
#     4   4   4   4   4   4   4
#     4  10  21  36  53  73  99 132 167 203 243 286
#     4   9  18  33  52  74 101 130 159 197 248 299
#     4   9  17  30  51  77 100 125 161 202 243 291
#     4   9  16  27  47  75 103 129 160 201 245 289
#     4   9  17  31  50  71  98 132 165 198 243 295
#     4  10  20  34  52  73  98 131 168 203 242 290
#     4   9  17  29  48  73 100 131 163 196 243 300
#
# _framework density 17.517658000000001
#
# number of rings (size 3 to 8) (size 9 to 14) (size 15 to 20)
#    0.000    2.714    0.000    1.714    0.000    6.286 
#    0.000    4.286    0.000   12.857    0.000    0.000 
#    0.000    0.000    0.000    0.000    0.000    0.000 
#
# Total GULP energy -155909.446030 kJ/mol
# GULP energy per Si atom -5568.194501 kJ/mol
# Density = 1.747779 g / cm^3
# Si number density = 17.517658 Si / 1000 Ang^3
#
#
#
# Elastic Constant Matrix: (Units=GPa)
#
#
# Indices 1 2 3 4 5 6 
#
# 1 63.8073 37.2942 27.5325 0.0000 4.5894 0.0000
# 2 37.2942 54.6079 20.1542 0.0000 9.2997 0.0000
# 3 27.5325 20.1542 67.5099 0.0000 -8.6686 0.0000
# 4 0.0000 0.0000 0.0000 2.4699 0.0000 8.9146
# 5 4.5894 9.2997 -8.6686 0.0000 17.5648 0.0000
# 6 0.0000 0.0000 0.0000 8.9146 0.0000 4.0050
#
#
#
# Elastic Compliance Matrix: (Units=1/GPa)
#
#
# Indices 1 2 3 4 5 6 
#
# 1 0.028485 -0.016524 -0.006957 0.000000 -0.002128 0.000000
# 2 -0.016524 0.034584 -0.005747 0.000000 -0.016829 0.000000
# 3 -0.006957 -0.005747 0.021342 0.000000 0.015393 0.000000
# 4 0.000000 0.000000 0.000000 -0.057561 0.000000 0.128123
# 5 -0.002128 -0.016829 0.015393 0.000000 0.073995 0.000000
# 6 0.000000 0.000000 0.000000 0.128123 0.000000 -0.035498
#
#
# Mechanical properties :
#
#
# Convention : Reuss Voigt Hill
#
# Bulk Modulus (GPa) = 38.52691 39.54301 39.03496
# Shear Modulus (GPa) = 37.74860 11.53755 24.64307
#
# Velocity S-wave (km/s) = 4.64711 2.56915 3.75474
# Velocity P-wave (km/s) = 7.12988 5.60562 6.41319
#
# Compressibility (1/GPa) = 0.02595589
#
# Stress axis : x y z
#
# Youngs Moduli (GPa) = 35.10614 28.91504 46.85541
#
# Poissons Ratio (x) = 0.47778 0.32599
# Poissons Ratio (y) = 0.58008 0.26927
# Poissons Ratio (z) = 0.24425 0.16617
#
# Static dielectric constant tensor:
#      x y z
#    x 1.604820 0.000000 0.002230 
#    y 0.000000 1.585730 0.000000 
#    z 0.002230 0.000000 1.610630 
# 
# From -- ./inp_files/55788.got.cif
#   From: 2010.05.17/outbox.cif.g08.bks.cpg/sg10_28_cif.got.tgz:55788.got - 2010.06.03 11:33:40.
