data_PCOD9148413
_publ_section_title
;
Structure prediction by ZEFSAII (Michael W. Deem and Ramdas Pophale) SiO2 
 PCOD9148413
Probable space group: P 2/M
;
_chemical_formula_sum "Si O2"
_cell_formula_units_Z 30
_cell_length_a 29.478252
_cell_length_b 10.759554
_cell_length_c 5.425861
_cell_angle_alpha 90.000000
_cell_angle_beta 96.779617
_cell_angle_gamma 90.000000
_cell_volume 1708.902239
_symmetry_space_group_name_H-M "P 2/M"
_symmetry_group_IT_number 10
_symmetry_cell_setting 'monoclinic'
loop_
_space_group_symop_operation_xyz
x,y,z
-x,y,-z
-x,-y,-z
x,-y,z
loop_
_atom_site_type_symbol
_atom_site_label
_atom_site_fract_x
_atom_site_fract_y
_atom_site_fract_z
Si Si1 0.974399 0.151454 0.733688
Si Si2 0.500000 0.773168 0.500000
Si Si3 0.868497 0.848445 0.655151
Si Si4 0.333457 0.146537 0.411283
Si Si5 0.817689 0.151128 0.122061
Si Si6 0.448979 0.637855 0.088905
Si Si7 0.423552 0.863320 0.761996
Si Si8 0.287995 0.151955 0.884483
O O1 0.921441 0.189487 0.698418
O O2 0.000000 0.190965 0.500000
O O3 0.974993 0.000000 0.734430
O O4 0.000000 0.191274 0.000000
O O5 0.461147 0.682950 0.369345
O O6 0.474528 0.856282 0.683717
O O7 0.841598 0.808037 0.883578
O O8 0.867779 0.000000 0.654723
O O9 0.844392 0.808681 0.385616
O O10 0.386303 0.152007 0.522881
O O11 0.318409 0.195909 0.135965
O O12 0.321947 0.000000 0.391647
O O13 0.306093 0.197150 0.631238
O O14 0.764569 0.186075 0.103605
O O15 0.818960 0.000000 0.121329
O O16 0.429423 0.500000 0.062115
O O17 0.500000 0.633835 0.000000
O O18 0.421056 0.747059 0.941982
O O19 0.415322 0.000000 0.870813
O O20 0.290525 0.000000 0.876680
#
# Coordination Sequence:
#
# PCOD9148413 Si02
#       8
#     4   2   4   4   4   4   4   4
#     4   9  15  21  27  35  51  75 102 137 188 243
#     4  10  20  32  52  72  94 122 156 190 230 270
#     4   9  15  21  29  42  57  76 109 150 189 238
#     4   9  18  29  43  61  85 111 137 167 210 264
#     4   9  15  22  33  46  61  82 113 151 191 236
#     4   9  19  35  52  70  93 122 156 190 227 271
#     4  10  21  33  49  72  97 123 152 191 232 277
#     4   9  16  27  40  55  76 103 130 161 205 259
#
# _framework density 17.555129000000001
#
# number of rings (size 3 to 8) (size 9 to 14) (size 15 to 20)
#    0.000    2.800    0.000    2.000    1.867    9.867 
#    0.000    0.000    0.000    0.000    0.000    0.000 
#    0.000    0.000    0.000    0.000    0.000    0.000 
#
# Total GULP energy -167065.294889 kJ/mol
# GULP energy per Si atom -5568.843163 kJ/mol
# Density = 1.751517 g / cm^3
# Si number density = 17.555129 Si / 1000 Ang^3
#
#
#
# Elastic Constant Matrix: (Units=GPa)
#
#
# Indices 1 2 3 4 5 6 
#
# 1 77.7037 10.4026 28.8507 0.0000 -7.5848 0.0000
# 2 10.4026 52.2813 21.9173 0.0000 7.6324 0.0000
# 3 28.8507 21.9173 110.7759 0.0000 4.8196 0.0000
# 4 0.0000 0.0000 0.0000 5.3961 0.0000 -0.0286
# 5 -7.5848 7.6324 4.8196 0.0000 30.8755 0.0000
# 6 0.0000 0.0000 0.0000 -0.0286 0.0000 -0.3267
#
#
#
# Elastic Compliance Matrix: (Units=1/GPa)
#
#
# Indices 1 2 3 4 5 6 
#
# 1 0.014993 -0.002135 -0.003691 0.000000 0.004787 0.000000
# 2 -0.002135 0.021814 -0.003526 0.000000 -0.005366 0.000000
# 3 -0.003691 -0.003526 0.010761 0.000000 -0.001715 0.000000
# 4 0.000000 0.000000 0.000000 0.185232 0.000000 -0.016233
# 5 0.004787 -0.005366 -0.001715 0.000000 0.035158 0.000000
# 6 0.000000 0.000000 0.000000 -0.016233 0.000000 -3.059616
#
#
# Mechanical properties :
#
#
# Convention : Reuss Voigt Hill
#
# Bulk Modulus (GPa) = 34.64574 40.34467 37.49521
# Shear Modulus (GPa) = -1.80941 19.16166 8.67613
#
# Velocity S-wave (km/s) = -1.01634 3.30739 2.22552
# Velocity P-wave (km/s) = 4.28964 6.13325 5.29234
#
# Compressibility (1/GPa) = 0.02886358
#
# Stress axis : x y z
#
# Youngs Moduli (GPa) = 66.69885 45.84243 92.93032
#
# Poissons Ratio (x) = 0.09786 0.34297
# Poissons Ratio (y) = 0.14239 0.32771
# Poissons Ratio (z) = 0.24616 0.16166
#
# Static dielectric constant tensor:
#      x y z
#    x 1.615020 0.000000 -0.019220 
#    y 0.000000 1.561130 0.000000 
#    z -0.019220 0.000000 1.652590 
# 
# From -- ./inp_files/13462.got.cif
#   From: 2010.05.17/outbox.cif.g08.bks.cpg/sg10_7_cif.got.tgz:13462.got - 2010.06.03 11:33:40.
