data_PCOD9148697
_publ_section_title
;
Structure prediction by ZEFSAII (Michael W. Deem and Ramdas Pophale) SiO2 
 PCOD9148697
Probable space group: P 2/M
;
_chemical_formula_sum "Si O2"
_cell_formula_units_Z 20
_cell_length_a 16.445684
_cell_length_b 7.524669
_cell_length_c 28.241854
_cell_angle_alpha 90.000000
_cell_angle_beta 163.168328
_cell_angle_gamma 90.000000
_cell_volume 1011.981385
_symmetry_space_group_name_H-M "P 2/M"
_symmetry_group_IT_number 10
_symmetry_cell_setting 'monoclinic'
loop_
_space_group_symop_operation_xyz
x,y,z
-x,y,-z
-x,-y,-z
x,-y,z
loop_
_atom_site_type_symbol
_atom_site_label
_atom_site_fract_x
_atom_site_fract_y
_atom_site_fract_z
Si Si1 0.777069 0.500000 0.447284
Si Si2 0.697970 0.208847 0.481096
Si Si3 0.305058 0.284790 0.347436
Si Si4 0.580264 0.500000 0.231173
Si Si5 0.271476 0.199934 0.838472
Si Si6 0.672778 0.704616 0.985186
O O1 0.692350 0.329414 0.431449
O O2 0.628265 0.500000 0.313441
O O3 0.113013 0.500000 0.623508
O O4 0.438643 0.228670 0.372017
O O5 0.966983 0.279185 0.661171
O O6 0.741877 0.000000 0.494747
O O7 0.500000 0.224410 0.500000
O O8 0.300466 0.500000 0.345859
O O9 0.981124 0.224142 0.168246
O O10 0.407689 0.669502 0.114440
O O11 0.223400 0.000000 0.830251
O O12 0.500000 0.286356 0.000000
O O13 0.426288 0.195589 0.874419
O O14 0.663987 0.500000 0.998630
#
# Coordination Sequence:
#
# PCOD9148697 Si02
#       6
#     2   4   4   2   4   4
#     4  11  20  41  62  83 115 141 189 251 288 329
#     4  11  22  37  58  86 114 151 192 228 283 338
#     4  10  20  34  55  85 120 154 186 224 274 339
#     4   9  20  37  62  83 105 149 187 239 304 325
#     4  10  20  33  51  80 116 146 182 232 277 331
#     4   9  18  35  53  81 106 145 191 221 279 335
#
# _framework density 19.763209
#
# number of rings (size 3 to 8) (size 9 to 14) (size 15 to 20)
#    0.600    1.400    3.000    1.200    0.000    1.600 
#    0.000    5.000    0.000    1.200    0.000    0.000 
#    0.000    0.000    0.000    0.000    0.000    0.000 
#
# Total GULP energy -111447.687980 kJ/mol
# GULP energy per Si atom -5572.384399 kJ/mol
# Density = 1.971823 g / cm^3
# Si number density = 19.763209 Si / 1000 Ang^3
#
#
#
# Elastic Constant Matrix: (Units=GPa)
#
#
# Indices 1 2 3 4 5 6 
#
# 1 50.9804 8.8854 -2.7787 0.0000 -10.6572 0.0000
# 2 8.8854 72.0884 -3.1550 0.0000 -7.5634 0.0000
# 3 -2.7787 -3.1550 65.5803 0.0000 -8.0058 0.0000
# 4 0.0000 0.0000 0.0000 47.7793 0.0000 56.4783
# 5 -10.6572 -7.5634 -8.0058 0.0000 42.2329 0.0000
# 6 0.0000 0.0000 0.0000 56.4783 0.0000 72.4784
#
#
#
# Elastic Compliance Matrix: (Units=1/GPa)
#
#
# Indices 1 2 3 4 5 6 
#
# 1 0.021139 -0.001992 0.001441 0.000000 0.005251 0.000000
# 2 -0.001992 0.014391 0.000882 0.000000 0.002242 0.000000
# 3 0.001441 0.000882 0.015781 0.000000 0.003513 0.000000
# 4 0.000000 0.000000 0.000000 0.265325 0.000000 -0.206753
# 5 0.005251 0.002242 0.003513 0.000000 0.026071 0.000000
# 6 0.000000 0.000000 0.000000 -0.206753 0.000000 0.174908
#
#
# Mechanical properties :
#
#
# Convention : Reuss Voigt Hill
#
# Bulk Modulus (GPa) = 19.24098 21.61696 20.42897
# Shear Modulus (GPa) = 9.35846 44.87792 27.11819
#
# Velocity S-wave (km/s) = 2.17843 4.77044 3.70828
# Velocity P-wave (km/s) = 4.01053 6.42686 5.35672
#
# Compressibility (1/GPa) = 0.05197239
#
# Stress axis : x y z
#
# Youngs Moduli (GPa) = 47.30674 69.48723 63.36819
#
# Poissons Ratio (x) = 0.13839 -0.09130
# Poissons Ratio (y) = 0.09421 -0.05587
# Poissons Ratio (z) = -0.06816 -0.06126
#
# Static dielectric constant tensor:
#      x y z
#    x 1.684790 0.000000 -0.012840 
#    y 0.000000 1.729970 0.000000 
#    z -0.012840 0.000000 1.723730 
# 
# From -- ./inp_files/74465.got.cif
#   From: 2010.05.17/outbox.cif.g08.bks.cpg/sg10_38_cif.got.tgz:74465.got - 2010.06.03 11:33:40.
