data_PCOD9148168
_publ_section_title
;
Structure prediction by ZEFSAII (Michael W. Deem and Ramdas Pophale) SiO2 
 PCOD9148168
Probable space group: P 2/M
;
_chemical_formula_sum "Si O2"
_cell_formula_units_Z 32
_cell_length_a 30.111115
_cell_length_b 9.013151
_cell_length_c 13.849848
_cell_angle_alpha 90.000000
_cell_angle_beta 34.790364
_cell_angle_gamma 90.000000
_cell_volume 2144.675447
_symmetry_space_group_name_H-M "P 2/M"
_symmetry_group_IT_number 10
_symmetry_cell_setting 'monoclinic'
loop_
_space_group_symop_operation_xyz
x,y,z
-x,y,-z
-x,-y,-z
x,-y,z
loop_
_atom_site_type_symbol
_atom_site_label
_atom_site_fract_x
_atom_site_fract_y
_atom_site_fract_z
Si Si1 0.323281 0.827329 0.119528
Si Si2 0.441368 0.676548 0.400362
Si Si3 0.581012 0.171059 0.249723
Si Si4 0.833631 0.323363 0.898967
Si Si5 0.684645 0.823515 0.253646
Si Si6 0.835675 0.819963 0.682408
Si Si7 0.008216 0.829930 0.368528
Si Si8 0.466947 0.678536 0.956172
O O1 0.234646 0.776524 0.262561
O O2 0.322994 0.000000 0.148503
O O3 0.361418 0.818274 0.944556
O O4 0.381316 0.739393 0.084998
O O5 0.430776 0.500000 0.420924
O O6 0.508574 0.724378 0.356044
O O7 0.362717 0.758055 0.571787
O O8 0.476108 0.722088 0.234041
O O9 0.629601 0.204217 0.258432
O O10 0.552912 0.000000 0.305066
O O11 0.828025 0.500000 0.903650
O O12 0.825051 0.254258 0.806368
O O13 0.918623 0.272626 0.784457
O O14 0.765772 0.255838 0.086054
O O15 0.695403 0.000000 0.242554
O O16 0.921928 0.784135 0.489349
O O17 0.832346 0.000000 0.701919
O O18 0.000000 0.830743 0.500000
O O19 0.024048 0.000000 0.310603
O O20 0.463648 0.500000 0.962151
O O21 0.500000 0.729002 0.000000
#
# Coordination Sequence:
#
# PCOD9148168 Si02
#       8
#     4   4   4   4   4   4   4   4
#     4   9  16  28  46  67  87 111 149 187 216 251
#     4  10  20  31  44  64  85 107 143 184 218 255
#     4   9  17  29  43  58  82 116 147 175 212 256
#     4  11  20  27  39  60  87 117 152 188 219 248
#     4  11  20  31  44  58  84 119 151 179 214 260
#     4   9  16  29  44  60  85 118 151 183 219 260
#     4   8  15  27  42  56  79 117 154 181 214 258
#     4   9  19  35  50  64  88 118 142 173 224 274
#
# _framework density 14.920673000000001
#
# number of rings (size 3 to 8) (size 9 to 14) (size 15 to 20)
#    0.000    2.500    1.250    3.000    0.000    6.000 
#    0.000    0.000    0.000    0.000    0.000    0.000 
#    0.000    1.000    0.000   11.500    0.000    3.500 
#
# Total GULP energy -178340.209648 kJ/mol
# GULP energy per Si atom -5573.131552 kJ/mol
# Density = 1.488671 g / cm^3
# Si number density = 14.920673 Si / 1000 Ang^3
#
#
#
# Elastic Constant Matrix: (Units=GPa)
#
#
# Indices 1 2 3 4 5 6 
#
# 1 74.7714 27.8137 48.9744 0.0000 -16.0465 0.0000
# 2 27.8137 49.6874 52.4679 0.0000 -10.7101 0.0000
# 3 48.9744 52.4679 106.4535 0.0000 -24.6080 0.0000
# 4 0.0000 0.0000 0.0000 88.9440 0.0000 -59.6767
# 5 -16.0465 -10.7101 -24.6080 0.0000 16.8485 0.0000
# 6 0.0000 0.0000 0.0000 -59.6767 0.0000 62.5926
#
#
#
# Elastic Compliance Matrix: (Units=1/GPa)
#
#
# Indices 1 2 3 4 5 6 
#
# 1 0.020216 -0.003656 -0.005412 0.000000 0.009025 0.000000
# 2 -0.003656 0.042949 -0.021106 0.000000 -0.007007 0.000000
# 3 -0.005412 -0.021106 0.027165 0.000000 0.021104 0.000000
# 4 0.000000 0.000000 0.000000 0.031204 0.000000 0.029750
# 5 0.009025 -0.007007 0.021104 0.000000 0.094317 0.000000
# 6 0.000000 0.000000 0.000000 0.029750 0.000000 0.044341
#
#
# Mechanical properties :
#
#
# Convention : Reuss Voigt Hill
#
# Bulk Modulus (GPa) = 33.35432 54.38045 43.86739
# Shear Modulus (GPa) = 15.12702 40.45412 27.79057
#
# Velocity S-wave (km/s) = 3.18752 5.21264 4.32041
# Velocity P-wave (km/s) = 5.99584 8.52962 7.37239
#
# Compressibility (1/GPa) = 0.02998112
#
# Stress axis : x y z
#
# Youngs Moduli (GPa) = 49.46630 23.28320 36.81210
#
# Poissons Ratio (x) = 0.08512 0.19924
# Poissons Ratio (y) = 0.18083 0.77697
# Poissons Ratio (z) = 0.26773 0.49142
#
# Static dielectric constant tensor:
#      x y z
#    x 1.479930 0.000000 -0.018960 
#    y 0.000000 1.499600 0.000000 
#    z -0.018960 0.000000 1.515500 
# 
# From -- ./inp_files/72553.got.cif
#   From: 2010.05.17/outbox.cif.g08.bks.cpg/sg10_37_cif.got.tgz:72553.got - 2010.06.03 11:33:40.
