data_PCOD9148625
_publ_section_title
;
Structure prediction by ZEFSAII (Michael W. Deem and Ramdas Pophale) SiO2 
 PCOD9148625
Probable space group: P 2/M
;
_chemical_formula_sum "Si O2"
_cell_formula_units_Z 32
_cell_length_a 5.195938
_cell_length_b 24.602104
_cell_length_c 13.673804
_cell_angle_alpha 90.000000
_cell_angle_beta 97.950903
_cell_angle_gamma 90.000000
_cell_volume 1731.133161
_symmetry_space_group_name_H-M "P 2/M"
_symmetry_group_IT_number 10
_symmetry_cell_setting 'monoclinic'
loop_
_space_group_symop_operation_xyz
x,y,z
-x,y,-z
-x,-y,-z
x,-y,z
loop_
_atom_site_type_symbol
_atom_site_label
_atom_site_fract_x
_atom_site_fract_y
_atom_site_fract_z
Si Si1 0.521069 0.342382 0.227953
Si Si2 0.541741 0.871860 0.119072
Si Si3 0.047310 0.631040 0.612336
Si Si4 0.534628 0.225200 0.735848
Si Si5 0.968469 0.244065 0.612660
Si Si6 0.956610 0.061313 0.880580
Si Si7 0.867114 0.438441 0.783767
Si Si8 0.219480 0.380221 0.935631
O O1 0.658852 0.355022 0.338686
O O2 0.384388 0.284624 0.219705
O O3 0.346960 0.394488 0.196164
O O4 0.738036 0.340222 0.154253
O O5 0.483303 0.818691 0.179562
O O6 0.333554 0.916411 0.144349
O O7 0.829219 0.896609 0.147646
O O8 0.500000 0.862584 0.000000
O O9 0.913637 0.690551 0.613884
O O10 0.000000 0.612527 0.500000
O O11 0.958192 0.585634 0.684482
O O12 0.244787 0.232866 0.677969
O O13 0.739746 0.214110 0.659751
O O14 0.000000 0.230085 0.500000
O O15 0.990168 0.000000 0.844303
O O16 0.000000 0.059069 0.000000
O O17 0.775404 0.500000 0.772592
O O18 0.097518 0.432783 0.875387
O O19 0.500000 0.387335 0.000000
O O20 0.000000 0.361220 0.000000
#
# Coordination Sequence:
#
# PCOD9148625 Si02
#       8
#     4   4   4   4   4   4   4   4
#     4  10  22  39  59  84 114 146 187 229 296 345
#     4  10  20  33  50  85 118 158 197 227 275 329
#     4   9  20  38  58  82 111 143 181 227 291 365
#     4  11  21  36  57  82 121 150 183 238 286 338
#     4  10  20  36  60  83 107 146 191 234 291 345
#     4   9  17  32  53  77 116 160 198 234 270 317
#     4  11  23  40  60  84 111 140 187 240 287 353
#     4  11  23  43  62  83 105 141 188 230 278 337
#
# _framework density 18.485001
#
# number of rings (size 3 to 8) (size 9 to 14) (size 15 to 20)
#    0.000    1.875    2.500    1.500    0.000    5.250 
#    0.000    1.250    0.000    0.000    0.000    0.000 
#    0.000   35.000    0.000    0.000    0.000    0.000 
#
# Total GULP energy -178341.274567 kJ/mol
# GULP energy per Si atom -5573.164830 kJ/mol
# Density = 1.844293 g / cm^3
# Si number density = 18.485001 Si / 1000 Ang^3
#
#
#
# Elastic Constant Matrix: (Units=GPa)
#
#
# Indices 1 2 3 4 5 6 
#
# 1 92.4903 24.0606 37.6815 0.0000 -16.0677 0.0000
# 2 24.0606 75.2236 29.0800 0.0000 -12.7971 0.0000
# 3 37.6815 29.0800 85.4196 0.0000 -4.0325 0.0000
# 4 0.0000 0.0000 0.0000 13.2222 0.0000 -5.1061
# 5 -16.0677 -12.7971 -4.0325 0.0000 28.8818 0.0000
# 6 0.0000 0.0000 0.0000 -5.1061 0.0000 32.4921
#
#
#
# Elastic Compliance Matrix: (Units=1/GPa)
#
#
# Indices 1 2 3 4 5 6 
#
# 1 0.014653 -0.001336 -0.005690 0.000000 0.006765 0.000000
# 2 -0.001336 0.016576 -0.004773 0.000000 0.005935 0.000000
# 3 -0.005690 -0.004773 0.015696 0.000000 -0.003089 0.000000
# 4 0.000000 0.000000 0.000000 0.080516 0.000000 0.012653
# 5 0.006765 0.005935 -0.003089 0.000000 0.040586 0.000000
# 6 0.000000 0.000000 0.000000 0.012653 0.000000 0.032765
#
#
# Mechanical properties :
#
#
# Convention : Reuss Voigt Hill
#
# Bulk Modulus (GPa) = 42.87022 48.30863 45.58942
# Shear Modulus (GPa) = 21.53628 25.73999 23.63814
#
# Velocity S-wave (km/s) = 3.41701 3.73564 3.57987
# Velocity P-wave (km/s) = 6.22978 6.69309 6.46559
#
# Compressibility (1/GPa) = 0.02332622
#
# Stress axis : x y z
#
# Youngs Moduli (GPa) = 68.24609 60.32787 63.71051
#
# Poissons Ratio (x) = 0.08062 0.36248
# Poissons Ratio (y) = 0.09120 0.30412
# Poissons Ratio (z) = 0.38829 0.28797
#
# Static dielectric constant tensor:
#      x y z
#    x 1.711850 0.000000 -0.017110 
#    y 0.000000 1.638310 0.000000 
#    z -0.017110 0.000000 1.660660 
# 
# From -- ./inp_files/39964.got.cif
#   From: 2010.05.17/outbox.cif.g08.bks.cpg/sg10_20_cif.got.tgz:39964.got - 2010.06.03 11:33:40.
