data_PCOD9148190
_publ_section_title
;
Structure prediction by ZEFSAII (Michael W. Deem and Ramdas Pophale) SiO2 
 PCOD9148190
Probable space group: P 2/M
;
_chemical_formula_sum "Si O2"
_cell_formula_units_Z 18
_cell_length_a 18.139924
_cell_length_b 11.609335
_cell_length_c 5.518949
_cell_angle_alpha 90.000000
_cell_angle_beta 139.268368
_cell_angle_gamma 90.000000
_cell_volume 758.387076
_symmetry_space_group_name_H-M "P 2/M"
_symmetry_group_IT_number 10
_symmetry_cell_setting 'monoclinic'
loop_
_space_group_symop_operation_xyz
x,y,z
-x,y,-z
-x,-y,-z
x,-y,z
loop_
_atom_site_type_symbol
_atom_site_label
_atom_site_fract_x
_atom_site_fract_y
_atom_site_fract_z
Si Si1 0.738385 0.670726 0.597316
Si Si2 0.071796 0.864214 0.428948
Si Si3 0.934961 0.500000 0.088921
Si Si4 0.391144 0.865238 0.881273
Si Si5 0.300013 0.711680 0.998518
O O1 0.718743 0.808231 0.521825
O O2 0.690223 0.634161 0.217444
O O3 0.858879 0.613994 0.906154
O O4 0.679605 0.645567 0.704352
O O5 0.175154 0.771946 0.696041
O O6 0.000000 0.851502 0.500000
O O7 0.110289 0.000000 0.517200
O O8 0.000000 0.846065 0.000000
O O9 0.000000 0.500000 0.500000
O O10 0.000000 0.500000 0.000000
O O11 0.382014 0.816144 0.129787
O O12 0.386576 0.000000 0.867332
O O13 0.500000 0.826164 0.000000
#
# Coordination Sequence:
#
# PCOD9148190 Si02
#       5
#     4   4   2   4   4
#     4  10  24  41  65  97 130 167 223 276 327 393
#     4  10  20  31  47  75 115 160 198 241 306 375
#     4  12  26  46  75  99 131 179 228 278 337 403
#     4   9  21  42  69  98 135 180 221 273 339 399
#     4  10  21  38  60  90 131 163 217 268 323 391
#
# _framework density 23.734580000000001
#
# number of rings (size 3 to 8) (size 9 to 14) (size 15 to 20)
#    1.333    0.667    0.000    3.333    0.000    8.000 
#    0.000    2.778    0.000    2.667    0.000    0.000 
#    0.000    0.000    0.000    0.000    0.000    0.000 
#
# Total GULP energy -100282.366625 kJ/mol
# GULP energy per Si atom -5571.242590 kJ/mol
# Density = 2.368056 g / cm^3
# Si number density = 23.734580 Si / 1000 Ang^3
#
#
#
# Elastic Constant Matrix: (Units=GPa)
#
#
# Indices 1 2 3 4 5 6 
#
# 1 194.2799 54.3247 59.5378 0.0000 -42.7115 0.0000
# 2 54.3247 86.5742 36.3549 0.0000 6.8641 0.0000
# 3 59.5378 36.3549 97.3478 0.0000 -26.1742 0.0000
# 4 0.0000 0.0000 0.0000 130.4077 0.0000 29.8158
# 5 -42.7115 6.8641 -26.1742 0.0000 59.5838 0.0000
# 6 0.0000 0.0000 0.0000 29.8158 0.0000 25.0048
#
#
#
# Elastic Compliance Matrix: (Units=1/GPa)
#
#
# Indices 1 2 3 4 5 6 
#
# 1 0.008332 -0.004988 -0.001670 0.000000 0.005813 0.000000
# 2 -0.004988 0.017751 -0.005771 0.000000 -0.008156 0.000000
# 3 -0.001670 -0.005771 0.015088 0.000000 0.006096 0.000000
# 4 0.000000 0.000000 0.000000 0.010542 0.000000 -0.012571
# 5 0.005813 -0.008156 0.006096 0.000000 0.024568 0.000000
# 6 0.000000 0.000000 0.000000 -0.012571 0.000000 0.054982
#
#
# Mechanical properties :
#
#
# Convention : Reuss Voigt Hill
#
# Bulk Modulus (GPa) = 61.30276 75.40408 68.35342
# Shear Modulus (GPa) = 30.94867 58.19821 44.57344
#
# Velocity S-wave (km/s) = 3.61494 4.95718 4.33829
# Velocity P-wave (km/s) = 6.58090 8.03763 7.34547
#
# Compressibility (1/GPa) = 0.01631248
#
# Stress axis : x y z
#
# Youngs Moduli (GPa) = 120.02350 56.33556 66.27749
#
# Poissons Ratio (x) = 0.28099 0.11067
# Poissons Ratio (y) = 0.59865 0.38251
# Poissons Ratio (z) = 0.20042 0.32513
#
# Static dielectric constant tensor:
#      x y z
#    x 1.947990 0.000000 -0.031860 
#    y 0.000000 1.879260 0.000000 
#    z -0.031860 0.000000 1.979880 
# 
# From -- ./inp_files/8661.got.cif
#   From: 2010.05.17/outbox.cif.g08.bks.cpg/sg10_5_cif.got.tgz:8661.got - 2010.06.03 11:33:40.
