data_PCOD9148484
_publ_section_title
;
Structure prediction by ZEFSAII (Michael W. Deem and Ramdas Pophale) SiO2 
 PCOD9148484
Probable space group: P 2/M
;
_chemical_formula_sum "Si O2"
_cell_formula_units_Z 32
_cell_length_a 14.717240
_cell_length_b 8.775354
_cell_length_c 28.721394
_cell_angle_alpha 90.000000
_cell_angle_beta 29.421048
_cell_angle_gamma 90.000000
_cell_volume 1822.115502
_symmetry_space_group_name_H-M "P 2/M"
_symmetry_group_IT_number 10
_symmetry_cell_setting 'monoclinic'
loop_
_space_group_symop_operation_xyz
x,y,z
-x,y,-z
-x,-y,-z
x,-y,z
loop_
_atom_site_type_symbol
_atom_site_label
_atom_site_fract_x
_atom_site_fract_y
_atom_site_fract_z
Si Si1 0.790540 0.677460 0.110587
Si Si2 0.028488 0.815377 0.136059
Si Si3 0.707800 0.180496 0.792884
Si Si4 0.350713 0.820882 0.733314
Si Si5 0.328809 0.679363 0.938105
Si Si6 0.730781 0.316944 0.588423
Si Si7 0.864676 0.316333 0.628222
Si Si8 0.289188 0.814518 0.105307
O O1 0.773348 0.500000 0.133210
O O2 0.731005 0.783279 0.179137
O O3 0.669946 0.698641 0.118023
O O4 0.000000 0.701400 0.000000
O O5 0.142198 0.770307 0.131417
O O6 0.812558 0.772370 0.229213
O O7 0.039544 0.000000 0.126259
O O8 0.136894 0.736476 0.045276
O O9 0.491089 0.221652 0.887537
O O10 0.799206 0.254689 0.706859
O O11 0.769846 0.234190 0.816466
O O12 0.733287 0.000000 0.778712
O O13 0.549309 0.741775 0.643767
O O14 0.378072 0.000000 0.715662
O O15 0.353819 0.500000 0.936708
O O16 0.725238 0.500000 0.591871
O O17 0.745618 0.265871 0.636054
O O18 0.923412 0.272759 0.477953
O O19 0.854380 0.500000 0.634153
O O20 0.295209 0.000000 0.102767
O O21 0.500000 0.763252 0.000000
#
# Coordination Sequence:
#
# PCOD9148484 Si02
#       8
#     4   4   4   4   4   4   4   4
#     4  10  20  33  46  64  98 142 176 199 239 307
#     4  10  20  35  51  70 100 137 175 214 254 301
#     4  11  21  33  54  79 103 134 170 215 267 310
#     4  11  22  32  50  78 105 133 171 220 262 297
#     4  11  21  32  48  71 101 137 174 211 249 301
#     4   9  19  37  59  77 104 142 173 201 251 321
#     4   9  19  37  58  81 104 134 173 212 253 305
#     4   9  17  33  54  72  98 140 180 210 254 315
#
# _framework density 17.562003000000001
#
# number of rings (size 3 to 8) (size 9 to 14) (size 15 to 20)
#    0.000    2.000    2.500    2.625    0.000    5.750 
#    0.000    3.125    0.000    0.750    0.000    5.250 
#    0.000    0.000    0.000    0.000    0.000    0.000 
#
# Total GULP energy -178511.729503 kJ/mol
# GULP energy per Si atom -5578.491547 kJ/mol
# Density = 1.752203 g / cm^3
# Si number density = 17.562003 Si / 1000 Ang^3
#
#
#
# Elastic Constant Matrix: (Units=GPa)
#
#
# Indices 1 2 3 4 5 6 
#
# 1 101.7856 17.6270 49.2060 0.0000 -11.4926 0.0000
# 2 17.6270 11.0051 15.8760 0.0000 -0.3894 0.0000
# 3 49.2060 15.8760 76.0389 0.0000 -8.8803 0.0000
# 4 0.0000 0.0000 0.0000 23.8767 0.0000 -9.2784
# 5 -11.4926 -0.3894 -8.8803 0.0000 28.8271 0.0000
# 6 0.0000 0.0000 0.0000 -9.2784 0.0000 10.0450
#
#
#
# Elastic Compliance Matrix: (Units=1/GPa)
#
#
# Indices 1 2 3 4 5 6 
#
# 1 0.016378 -0.016471 -0.006663 0.000000 0.004255 0.000000
# 2 -0.016471 0.147916 -0.021532 0.000000 -0.011201 0.000000
# 3 -0.006663 -0.021532 0.022421 0.000000 0.003960 0.000000
# 4 0.000000 0.000000 0.000000 0.065333 0.000000 0.060347
# 5 0.004255 -0.011201 0.003960 0.000000 0.037454 0.000000
# 6 0.000000 0.000000 0.000000 0.060347 0.000000 0.155294
#
#
# Mechanical properties :
#
#
# Convention : Reuss Voigt Hill
#
# Bulk Modulus (GPa) = 10.26881 39.36083 24.81482
# Shear Modulus (GPa) = 8.82473 19.62446 14.22459
#
# Velocity S-wave (km/s) = 2.24406 3.34644 2.84907
# Velocity P-wave (km/s) = 3.54602 6.11495 4.99835
#
# Compressibility (1/GPa) = 0.09738222
#
# Stress axis : x y z
#
# Youngs Moduli (GPa) = 61.05587 6.76061 44.60121
#
# Poissons Ratio (x) = 0.11136 0.29717
# Poissons Ratio (y) = 1.00566 0.96037
# Poissons Ratio (z) = 0.40681 0.14557
#
# Static dielectric constant tensor:
#      x y z
#    x 1.626290 0.000000 -0.017740 
#    y 0.000000 1.590410 0.000000 
#    z -0.017740 0.000000 1.594830 
# 
# From -- ./inp_files/66020.got.cif
#   From: 2010.05.17/outbox.cif.g08.bks.cpg/sg10_34_cif.got.tgz:66020.got - 2010.06.03 11:33:40.
