data_PCOD9148420
_publ_section_title
;
Structure prediction by ZEFSAII (Michael W. Deem and Ramdas Pophale) SiO2 
 PCOD9148420
Probable space group: P 2/M
;
_chemical_formula_sum "Si O2"
_cell_formula_units_Z 28
_cell_length_a 18.878345
_cell_length_b 7.517121
_cell_length_c 16.812300
_cell_angle_alpha 90.000000
_cell_angle_beta 144.984969
_cell_angle_gamma 90.000000
_cell_volume 1368.978286
_symmetry_space_group_name_H-M "P 2/M"
_symmetry_group_IT_number 10
_symmetry_cell_setting 'monoclinic'
loop_
_space_group_symop_operation_xyz
x,y,z
-x,y,-z
-x,-y,-z
x,-y,z
loop_
_atom_site_type_symbol
_atom_site_label
_atom_site_fract_x
_atom_site_fract_y
_atom_site_fract_z
Si Si1 0.269279 0.714479 0.546228
Si Si2 0.093484 0.208031 0.965163
Si Si3 0.155921 0.000000 0.556300
Si Si4 0.547622 0.283735 0.758145
Si Si5 0.859979 0.000000 0.273364
Si Si6 0.218351 0.706706 0.921352
Si Si7 0.327101 0.297825 0.280723
Si Si8 0.184892 0.714393 0.294327
O O1 0.258161 0.500000 0.546645
O O2 0.413230 0.760721 0.666060
O O3 0.205056 0.766758 0.403862
O O4 0.211550 0.827215 0.563954
O O5 0.114242 0.274188 0.894090
O O6 0.952108 0.234439 0.858789
O O7 0.122657 0.000000 0.994837
O O8 0.195439 0.302095 0.113185
O O9 0.182515 0.000000 0.674573
O O10 0.008492 0.000000 0.409616
O O11 0.553639 0.500000 0.758619
O O12 0.580520 0.217581 0.699530
O O13 0.656532 0.232105 0.918634
O O14 0.813012 0.829443 0.181408
O O15 0.230124 0.500000 0.910561
O O16 0.369058 0.500000 0.334228
O O17 0.290203 0.216089 0.331269
O O18 0.192690 0.500000 0.299049
#
# Coordination Sequence:
#
# PCOD9148420 Si02
#       8
#     4   4   2   4   2   4   4   4
#     4  10  22  41  62  85 118 161 199 237 292 348
#     4  11  20  31  50  79 118 157 196 244 294 344
#     4  11  26  43  63  91 122 151 185 238 291 357
#     4   8  17  36  61  86 117 158 200 242 288 338
#     4  11  24  43  65  94 120 146 188 233 294 360
#     4  10  20  38  64  91 119 153 194 241 291 347
#     4   9  18  33  52  79 113 153 204 251 289 333
#     4  10  20  32  52  79 111 158 205 243 291 344
#
# _framework density 20.453211
#
# number of rings (size 3 to 8) (size 9 to 14) (size 15 to 20)
#    0.000    2.143    0.714    3.429    1.000    5.714 
#    1.286    5.714    0.000    3.429    0.000    0.000 
#    0.000    0.000    0.000    0.000    0.000    0.000 
#
# Total GULP energy -156424.868248 kJ/mol
# GULP energy per Si atom -5586.602437 kJ/mol
# Density = 2.040666 g / cm^3
# Si number density = 20.453211 Si / 1000 Ang^3
#
#
#
# Elastic Constant Matrix: (Units=GPa)
#
#
# Indices 1 2 3 4 5 6 
#
# 1 146.3584 34.3427 47.6894 0.0000 -11.3145 0.0000
# 2 34.3427 90.2944 15.9024 0.0000 -7.7724 0.0000
# 3 47.6894 15.9024 64.3606 0.0000 0.1083 0.0000
# 4 0.0000 0.0000 0.0000 15.9896 0.0000 -7.3143
# 5 -11.3145 -7.7724 0.1083 0.0000 29.6348 0.0000
# 6 0.0000 0.0000 0.0000 -7.3143 0.0000 12.9408
#
#
#
# Elastic Compliance Matrix: (Units=1/GPa)
#
#
# Indices 1 2 3 4 5 6 
#
# 1 0.009794 -0.002272 -0.006701 0.000000 0.003168 0.000000
# 2 -0.002272 0.012388 -0.001381 0.000000 0.002387 0.000000
# 3 -0.006701 -0.001381 0.020849 0.000000 -0.002997 0.000000
# 4 0.000000 0.000000 0.000000 0.084349 0.000000 0.047675
# 5 0.003168 0.002387 -0.002997 0.000000 0.035591 0.000000
# 6 0.000000 0.000000 0.000000 0.047675 0.000000 0.104222
#
#
# Mechanical properties :
#
#
# Convention : Reuss Voigt Hill
#
# Bulk Modulus (GPa) = 44.79879 55.20914 50.00397
# Shear Modulus (GPa) = 16.92953 25.25162 21.09058
#
# Velocity S-wave (km/s) = 2.88013 3.51751 3.21465
# Velocity P-wave (km/s) = 5.74551 6.59914 6.18706
#
# Compressibility (1/GPa) = 0.02232203
#
# Stress axis : x y z
#
# Youngs Moduli (GPa) = 102.10245 80.72464 47.96387
#
# Poissons Ratio (x) = 0.18343 0.32141
# Poissons Ratio (y) = 0.23200 0.06625
# Poissons Ratio (z) = 0.68419 0.11149
#
# Static dielectric constant tensor:
#      x y z
#    x 1.715120 0.000000 0.006920 
#    y 0.000000 1.758830 0.000000 
#    z 0.006920 0.000000 1.717350 
# 
# From -- ./inp_files/68755.got.cif
#   From: 2010.05.17/outbox.cif.g08.bks.cpg/sg10_35_cif.got.tgz:68755.got - 2010.06.03 11:33:40.
