data_PCOD9148561
_publ_section_title
;
Structure prediction by ZEFSAII (Michael W. Deem and Ramdas Pophale) SiO2 
 PCOD9148561
Probable space group: P 2/M
;
_chemical_formula_sum "Si O2"
_cell_formula_units_Z 28
_cell_length_a 19.493447
_cell_length_b 9.013249
_cell_length_c 14.261721
_cell_angle_alpha 90.000000
_cell_angle_beta 33.897217
_cell_angle_gamma 90.000000
_cell_volume 1397.482324
_symmetry_space_group_name_H-M "P 2/M"
_symmetry_group_IT_number 10
_symmetry_cell_setting 'monoclinic'
loop_
_space_group_symop_operation_xyz
x,y,z
-x,y,-z
-x,-y,-z
x,-y,z
loop_
_atom_site_type_symbol
_atom_site_label
_atom_site_fract_x
_atom_site_fract_y
_atom_site_fract_z
Si Si1 0.030866 0.672134 0.355286
Si Si2 0.184802 0.174710 0.518408
Si Si3 0.770963 0.673441 0.113195
Si Si4 0.601209 0.324955 0.466926
Si Si5 0.556283 0.179004 0.717398
Si Si6 0.286537 0.176957 0.008929
Si Si7 0.992474 0.168565 0.120096
O O1 0.042519 0.500000 0.314520
O O2 0.000000 0.680992 0.500000
O O3 0.917335 0.745086 0.428174
O O4 0.162003 0.750556 0.188834
O O5 0.325459 0.229879 0.356566
O O6 0.136524 0.187310 0.680895
O O7 0.183242 0.000000 0.495681
O O8 0.745036 0.500000 0.127088
O O9 0.725352 0.711805 0.269309
O O10 0.706315 0.770198 0.107201
O O11 0.913807 0.712101 0.945074
O O12 0.500000 0.302599 0.500000
O O13 0.601143 0.500000 0.490829
O O14 0.577551 0.234723 0.587265
O O15 0.417928 0.222822 0.904541
O O16 0.559802 0.000000 0.713062
O O17 0.275498 0.000000 0.026945
O O18 0.034739 0.000000 0.096662
O O19 0.000000 0.180180 0.000000
#
# Coordination Sequence:
#
# PCOD9148561 Si02
#       7
#     4   4   4   4   4   4   4
#     4  11  25  45  69  95 120 152 198 252 312 374
#     4  10  21  39  62  91 125 160 201 251 305 361
#     4  11  21  33  52  79 116 159 207 255 295 346
#     4  10  20  33  49  77 120 169 214 252 294 347
#     4  10  22  38  59  89 124 163 205 249 300 358
#     4  11  22  38  62  90 119 155 198 244 301 361
#     4  10  20  34  54  81 118 161 204 249 299 354
#
# _framework density 20.036031000000001
#
# number of rings (size 3 to 8) (size 9 to 14) (size 15 to 20)
#    0.000    1.571    2.857    2.143    0.000    5.143 
#    0.000    0.714    0.000    4.286    0.000    0.000 
#    0.000    0.000    0.000    0.000    0.000    0.000 
#
# Total GULP energy -156247.793547 kJ/mol
# GULP energy per Si atom -5580.278341 kJ/mol
# Density = 1.999043 g / cm^3
# Si number density = 20.036031 Si / 1000 Ang^3
#
#
#
# Elastic Constant Matrix: (Units=GPa)
#
#
# Indices 1 2 3 4 5 6 
#
# 1 82.0762 39.2835 58.5220 0.0000 -27.7897 0.0000
# 2 39.2835 53.0188 50.6203 0.0000 -17.3719 0.0000
# 3 58.5220 50.6203 104.2463 0.0000 -36.7749 0.0000
# 4 0.0000 0.0000 0.0000 -44.7825 0.0000 18.8542
# 5 -27.7897 -17.3719 -36.7749 0.0000 38.3077 0.0000
# 6 0.0000 0.0000 0.0000 18.8542 0.0000 15.9807
#
#
#
# Elastic Compliance Matrix: (Units=1/GPa)
#
#
# Indices 1 2 3 4 5 6 
#
# 1 0.023283 -0.009011 -0.006318 0.000000 0.006739 0.000000
# 2 -0.009011 0.038663 -0.014873 0.000000 -0.003282 0.000000
# 3 -0.006318 -0.014873 0.024746 0.000000 0.012428 0.000000
# 4 0.000000 0.000000 0.000000 -0.014919 0.000000 0.017602
# 5 0.006739 -0.003282 0.012428 0.000000 0.041435 0.000000
# 6 0.000000 0.000000 0.000000 0.017602 0.000000 0.041808
#
#
# Mechanical properties :
#
#
# Convention : Reuss Voigt Hill
#
# Bulk Modulus (GPa) = 38.04118 59.57699 48.80908
# Shear Modulus (GPa) = 22.30326 7.96223 15.13275
#
# Velocity S-wave (km/s) = 3.34002 1.99564 2.75121
# Velocity P-wave (km/s) = 5.82254 5.92533 5.87416
#
# Compressibility (1/GPa) = 0.02628730
#
# Stress axis : x y z
#
# Youngs Moduli (GPa) = 42.94942 25.86456 40.41134
#
# Poissons Ratio (x) = 0.23308 0.25530
# Poissons Ratio (y) = 0.38704 0.60104
# Poissons Ratio (z) = 0.27134 0.38469
#
# Static dielectric constant tensor:
#      x y z
#    x 1.723100 0.000000 -0.040880 
#    y 0.000000 1.678640 0.000000 
#    z -0.040880 0.000000 1.757360 
# 
# From -- ./inp_files/70193.got.cif
#   From: 2010.05.17/outbox.cif.g08.bks.cpg/sg10_36_cif.got.tgz:70193.got - 2010.06.03 11:33:40.
