data_PCOD9148242
_publ_section_title
;
Structure prediction by ZEFSAII (Michael W. Deem and Ramdas Pophale) SiO2 
 PCOD9148242
Probable space group: P 2/M
;
_chemical_formula_sum "Si O2"
_cell_formula_units_Z 32
_cell_length_a 11.402692
_cell_length_b 9.444695
_cell_length_c 15.060813
_cell_angle_alpha 90.000000
_cell_angle_beta 117.907376
_cell_angle_gamma 90.000000
_cell_volume 1433.346692
_symmetry_space_group_name_H-M "P 2/M"
_symmetry_group_IT_number 10
_symmetry_cell_setting 'monoclinic'
loop_
_space_group_symop_operation_xyz
x,y,z
-x,y,-z
-x,-y,-z
x,-y,z
loop_
_atom_site_type_symbol
_atom_site_label
_atom_site_fract_x
_atom_site_fract_y
_atom_site_fract_z
Si Si1 0.536768 0.167267 0.801921
Si Si2 0.671983 0.328203 0.697678
Si Si3 0.967965 0.660588 0.863273
Si Si4 0.784775 0.834809 0.024776
Si Si5 0.376325 0.336753 0.888612
Si Si6 0.041659 0.349868 0.685554
Si Si7 0.845438 0.838264 0.410003
Si Si8 0.732883 0.338792 0.520399
O O1 0.567478 0.244005 0.719827
O O2 0.430256 0.256080 0.821037
O O3 0.504954 0.000000 0.782519
O O4 0.673047 0.175847 0.908802
O O5 0.659912 0.500000 0.700351
O O6 0.666153 0.293761 0.590158
O O7 0.817478 0.289908 0.790331
O O8 0.959909 0.500000 0.894528
O O9 0.078731 0.754884 0.950562
O O10 0.028073 0.650897 0.785266
O O11 0.722411 0.759841 0.089002
O O12 0.811315 0.000000 0.050943
O O13 0.331789 0.500000 0.856893
O O14 0.500000 0.348516 0.000000
O O15 0.089573 0.500000 0.665643
O O16 0.135461 0.232840 0.678246
O O17 0.889126 0.340779 0.601253
O O18 0.741969 0.759314 0.437492
O O19 0.000000 0.831256 0.500000
O O20 0.808155 0.000000 0.391309
O O21 0.689836 0.500000 0.485082
#
# Coordination Sequence:
#
# PCOD9148242 Si02
#       8
#     4   4   4   4   4   4   4   4
#     4  10  20  32  46  65  89 115 143 179 224 268
#     4   9  18  31  45  62  86 118 154 186 215 253
#     4   9  18  31  45  62  86 118 154 186 215 253
#     4  10  20  32  46  65  89 115 143 179 224 268
#     4   9  17  31  51  69  83 104 139 182 223 261
#     4   8  14  25  39  54  76 108 143 177 212 249
#     4   9  15  21  33  55  79 104 137 174 211 253
#     4   8  14  25  39  54  76 108 143 177 212 249
#
# _framework density 22.325374
#
# number of rings (size 3 to 8) (size 9 to 14) (size 15 to 20)
#    0.000    3.000    0.000    3.000    0.000    6.500 
#    0.000    5.000    0.000    0.000    0.000    0.000 
#    0.000    1.000    0.000   10.500    0.000    8.000 
#
# Total GULP energy -178561.430226 kJ/mol
# GULP energy per Si atom -5580.044695 kJ/mol
# Density = 2.227456 g / cm^3
# Si number density = 22.325374 Si / 1000 Ang^3
#
#
#
# Elastic Constant Matrix: (Units=GPa)
#
#
# Indices 1 2 3 4 5 6 
#
# 1 99.7783 47.5684 42.1732 0.0000 -19.4099 0.0000
# 2 47.5684 95.3612 27.2446 0.0000 -39.3529 0.0000
# 3 42.1732 27.2446 64.3738 0.0000 -38.5553 0.0000
# 4 0.0000 0.0000 0.0000 -172.6493 0.0000 -35.8186
# 5 -19.4099 -39.3529 -38.5553 0.0000 59.5302 0.0000
# 6 0.0000 0.0000 0.0000 -35.8186 0.0000 3.3246
#
#
#
# Elastic Compliance Matrix: (Units=1/GPa)
#
#
# Indices 1 2 3 4 5 6 
#
# 1 0.018152 -0.008757 -0.013247 0.000000 -0.008450 0.000000
# 2 -0.008757 0.018661 0.005747 0.000000 0.013203 0.000000
# 3 -0.013247 0.005747 0.035074 0.000000 0.022196 0.000000
# 4 0.000000 0.000000 0.000000 -0.001790 0.000000 -0.019289
# 5 -0.008450 0.013203 0.022196 0.000000 0.037147 0.000000
# 6 0.000000 0.000000 0.000000 -0.019289 0.000000 0.092974
#
#
# Mechanical properties :
#
#
# Convention : Reuss Voigt Hill
#
# Bulk Modulus (GPa) = 25.39773 54.83175 40.11474
# Shear Modulus (GPa) = 20.33700 -12.45710 3.93995
#
# Velocity S-wave (km/s) = 3.02145 -2.36472 1.32989
# Velocity P-wave (km/s) = 4.85521 4.14219 4.51280
#
# Compressibility (1/GPa) = 0.03937359
#
# Stress axis : x y z
#
# Youngs Moduli (GPa) = 55.08911 53.58658 28.51092
#
# Poissons Ratio (x) = 0.46927 0.37768
# Poissons Ratio (y) = 0.48243 -0.16385
# Poissons Ratio (z) = 0.72975 -0.30795
#
# Static dielectric constant tensor:
#      x y z
#    x 1.812590 0.000000 0.060660 
#    y 0.000000 1.784010 0.000000 
#    z 0.060660 0.000000 1.883910 
# 
# From -- ./inp_files/54932.got.cif
#   From: 2010.05.17/outbox.cif.g08.bks.cpg/sg10_28_cif.got.tgz:54932.got - 2010.06.03 11:33:40.
