data_PCOD9148934
_publ_section_title
;
Structure prediction by ZEFSAII (Michael W. Deem and Ramdas Pophale) SiO2 
 PCOD9148934
Probable space group: P 2/M
;
_chemical_formula_sum "Si O2"
_cell_formula_units_Z 28
_cell_length_a 21.767763
_cell_length_b 7.673275
_cell_length_c 27.460513
_cell_angle_alpha 90.000000
_cell_angle_beta 159.857351
_cell_angle_gamma 90.000000
_cell_volume 1579.480175
_symmetry_space_group_name_H-M "P 2/M"
_symmetry_group_IT_number 10
_symmetry_cell_setting 'monoclinic'
loop_
_space_group_symop_operation_xyz
x,y,z
-x,y,-z
-x,-y,-z
x,-y,z
loop_
_atom_site_type_symbol
_atom_site_label
_atom_site_fract_x
_atom_site_fract_y
_atom_site_fract_z
Si Si1 0.918278 0.786730 0.095469
Si Si2 0.420109 0.295893 0.389512
Si Si3 0.972460 0.799544 0.926633
Si Si4 0.026234 0.199645 0.705202
Si Si5 0.528996 0.500000 0.102833
Si Si6 0.201450 0.500000 0.780690
Si Si7 0.227642 0.210714 0.399926
Si Si8 0.647058 0.199528 0.973488
O O1 0.934424 0.723716 0.052237
O O2 0.090783 0.730296 0.255473
O O3 0.923453 0.000000 0.099138
O O4 0.741394 0.739255 0.993798
O O5 0.500000 0.229004 0.500000
O O6 0.378253 0.500000 0.364445
O O7 0.237843 0.202554 0.240685
O O8 0.575726 0.274454 0.465803
O O9 0.036745 0.000000 0.977904
O O10 0.000000 0.716370 0.000000
O O11 0.085174 0.330475 0.707095
O O12 0.857682 0.261411 0.611849
O O13 0.999760 0.000000 0.669410
O O14 0.188577 0.197285 0.865417
O O15 0.708521 0.500000 0.205056
O O16 0.497370 0.330578 0.112507
O O17 0.366454 0.500000 0.942293
O O18 0.227770 0.000000 0.399224
O O19 0.584940 0.000000 0.922271
#
# Coordination Sequence:
#
# PCOD9148934 Si02
#       8
#     4   4   4   4   2   2   4   4
#     4   8  14  27  45  63  84 113 150 195 241 275
#     4  11  22  32  44  70  96 121 158 201 247 285
#     4  10  20  34  51  68  90 125 163 199 246 294
#     4   8  15  25  37  57  79 111 150 181 228 279
#     4   9  16  24  34  58  78 111 154 177 223 277
#     4   9  16  24  36  52  84 116 140 184 227 269
#     4   9  16  28  47  64  83 114 155 200 235 269
#     4   8  14  25  38  55  80 109 147 192 226 265
#
# _framework density 17.727350999999999
#
# number of rings (size 3 to 8) (size 9 to 14) (size 15 to 20)
#    0.000    3.000    1.429    2.143    1.000    1.429 
#    2.571    2.857    0.000    0.000    0.000    0.000 
#    0.000    0.000    0.000    2.571    0.000   22.714 
#
# Total GULP energy -155995.853240 kJ/mol
# GULP energy per Si atom -5571.280473 kJ/mol
# Density = 1.768700 g / cm^3
# Si number density = 17.727351 Si / 1000 Ang^3
#
#
#
# Elastic Constant Matrix: (Units=GPa)
#
#
# Indices 1 2 3 4 5 6 
#
# 1 160.3063 48.0395 35.6211 0.0000 31.8644 0.0000
# 2 48.0395 60.6636 8.0032 0.0000 11.9387 0.0000
# 3 35.6211 8.0032 20.4479 0.0000 4.5911 0.0000
# 4 0.0000 0.0000 0.0000 11.3873 0.0000 14.0540
# 5 31.8644 11.9387 4.5911 0.0000 24.4526 0.0000
# 6 0.0000 0.0000 0.0000 14.0540 0.0000 28.2642
#
#
#
# Elastic Compliance Matrix: (Units=1/GPa)
#
#
# Indices 1 2 3 4 5 6 
#
# 1 0.015796 -0.007064 -0.021826 0.000000 -0.013038 0.000000
# 2 -0.007064 0.021977 0.004224 0.000000 -0.002318 0.000000
# 3 -0.021826 0.004224 0.082843 0.000000 0.010825 0.000000
# 4 0.000000 0.000000 0.000000 0.227319 0.000000 -0.113031
# 5 -0.013038 -0.002318 0.010825 0.000000 0.056984 0.000000
# 6 0.000000 0.000000 0.000000 -0.113031 0.000000 0.091584
#
#
# Mechanical properties :
#
#
# Convention : Reuss Voigt Hill
#
# Bulk Modulus (GPa) = 14.02813 47.19393 30.61103
# Shear Modulus (GPa) = 8.77816 22.80441 15.79128
#
# Velocity S-wave (km/s) = 2.22767 3.59053 2.98784
# Velocity P-wave (km/s) = 3.81407 6.62337 5.40445
#
# Compressibility (1/GPa) = 0.07128534
#
# Stress axis : x y z
#
# Youngs Moduli (GPa) = 63.30624 45.50177 12.07109
#
# Poissons Ratio (x) = 0.32142 0.26346
# Poissons Ratio (y) = 0.44718 -0.05099
# Poissons Ratio (z) = 1.38171 -0.19221
#
# Static dielectric constant tensor:
#      x y z
#    x 1.630520 0.000000 0.005260 
#    y 0.000000 1.648560 0.000000 
#    z 0.005260 0.000000 1.566050 
# 
# From -- ./inp_files/86712.got.cif
#   From: 2010.05.17/outbox.cif.g08.bks.cpg/sg10_44_cif.got.tgz:86712.got - 2010.06.03 11:33:40.
