data_PCOD9148974
_publ_section_title
;
Structure prediction by ZEFSAII (Michael W. Deem and Ramdas Pophale) SiO2 
 PCOD9148974
Probable space group: P 2/M
;
_chemical_formula_sum "Si O2"
_cell_formula_units_Z 28
_cell_length_a 10.699281
_cell_length_b 13.074386
_cell_length_c 24.341418
_cell_angle_alpha 90.000000
_cell_angle_beta 28.463902
_cell_angle_gamma 90.000000
_cell_volume 1622.857368
_symmetry_space_group_name_H-M "P 2/M"
_symmetry_group_IT_number 10
_symmetry_cell_setting 'monoclinic'
loop_
_space_group_symop_operation_xyz
x,y,z
-x,y,-z
-x,-y,-z
x,-y,z
loop_
_atom_site_type_symbol
_atom_site_label
_atom_site_fract_x
_atom_site_fract_y
_atom_site_fract_z
Si Si1 0.142305 0.270187 0.784401
Si Si2 0.227624 0.885667 0.136177
Si Si3 0.586558 0.113024 0.631940
Si Si4 0.232459 0.377939 0.633815
Si Si5 0.720343 0.729800 0.784325
Si Si6 0.113733 0.886973 0.368254
Si Si7 0.149942 0.376707 0.999946
O O1 0.394695 0.208012 0.706484
O O2 0.213744 0.339561 0.704017
O O3 0.956235 0.181852 0.831683
O O4 0.005696 0.330199 0.887399
O O5 0.282880 0.818130 0.168328
O O6 0.123859 0.000000 0.188060
O O7 0.500000 0.895867 0.000000
O O8 0.805046 0.123393 0.500126
O O9 0.741073 0.111251 0.629511
O O10 0.459564 0.000000 0.674785
O O11 0.500000 0.341288 0.500000
O O12 0.235765 0.500000 0.632192
O O13 0.970251 0.339632 0.704072
O O14 0.444893 0.669842 0.887279
O O15 0.780105 0.791982 0.706248
O O16 0.157950 0.000000 0.325463
O O17 0.162301 0.500000 0.999917
O O18 0.000000 0.352774 0.000000
#
# Coordination Sequence:
#
# PCOD9148974 Si02
#       7
#     4   4   4   4   4   4   4
#     4  11  20  36  57  78 106 146 177 218 265 324
#     4  10  20  34  51  77 108 137 168 209 255 308
#     4   9  18  33  54  81 111 141 175 216 262 317
#     4  10  22  37  56  82 107 135 179 230 274 319
#     4  11  20  36  57  78 106 146 177 218 265 324
#     4   9  18  33  54  81 111 141 175 216 262 317
#     4  11  24  39  55  78 106 141 188 232 267 311
#
# _framework density 17.253519000000001
#
# number of rings (size 3 to 8) (size 9 to 14) (size 15 to 20)
#    0.000    1.857    1.429    4.286    0.000    0.000 
#    0.000    2.143    0.000   10.286    0.000   12.000 
#    0.000    0.000    0.000    0.000    0.000    0.000 
#
# Total GULP energy -156059.254831 kJ/mol
# GULP energy per Si atom -5573.544815 kJ/mol
# Density = 1.721425 g / cm^3
# Si number density = 17.253519 Si / 1000 Ang^3
#
#
#
# Elastic Constant Matrix: (Units=GPa)
#
#
# Indices 1 2 3 4 5 6 
#
# 1 93.4170 56.8329 58.1296 0.0000 0.0107 0.0000
# 2 56.8329 126.8885 70.2733 0.0000 -0.0953 0.0000
# 3 58.1296 70.2733 123.0581 0.0000 -0.2266 0.0000
# 4 0.0000 0.0000 0.0000 26.2486 0.0000 0.0573
# 5 0.0107 -0.0953 -0.2266 0.0000 30.2425 0.0000
# 6 0.0000 0.0000 0.0000 0.0573 0.0000 19.8105
#
#
#
# Elastic Compliance Matrix: (Units=1/GPa)
#
#
# Indices 1 2 3 4 5 6 
#
# 1 0.016802 -0.004578 -0.005323 0.000000 -0.000060 0.000000
# 2 -0.004578 0.012773 -0.005132 0.000000 0.000003 0.000000
# 3 -0.005323 -0.005132 0.013571 0.000000 0.000087 0.000000
# 4 0.000000 0.000000 0.000000 0.038098 0.000000 -0.000110
# 5 -0.000060 0.000003 0.000087 0.000000 0.033067 0.000000
# 6 0.000000 0.000000 0.000000 -0.000110 0.000000 0.050479
#
#
# Mechanical properties :
#
#
# Convention : Reuss Voigt Hill
#
# Bulk Modulus (GPa) = 76.44195 79.31503 77.87849
# Shear Modulus (GPa) = 25.09853 25.80218 25.45036
#
# Velocity S-wave (km/s) = 3.81818 3.87133 3.84485
# Velocity P-wave (km/s) = 7.98995 8.12730 8.05892
#
# Compressibility (1/GPa) = 0.01308182
#
# Stress axis : x y z
#
# Youngs Moduli (GPa) = 59.51757 78.28733 73.68433
#
# Poissons Ratio (x) = 0.35837 0.39220
# Poissons Ratio (y) = 0.27245 0.37815
# Poissons Ratio (z) = 0.31680 0.40177
#
# Static dielectric constant tensor:
#      x y z
#    x 1.531990 0.000000 0.000530 
#    y 0.000000 1.579170 0.000000 
#    z 0.000530 0.000000 1.588440 
# 
# From -- ./inp_files/82898.got.cif
#   From: 2010.05.17/outbox.cif.g08.bks.cpg/sg10_42_cif.got.tgz:82898.got - 2010.06.03 11:33:40.
