data_PCOD9148416
_publ_section_title
;
Structure prediction by ZEFSAII (Michael W. Deem and Ramdas Pophale) SiO2 
 PCOD9148416
Probable space group: P 2/M
;
_chemical_formula_sum "Si O2"
_cell_formula_units_Z 28
_cell_length_a 22.030840
_cell_length_b 7.991056
_cell_length_c 25.321260
_cell_angle_alpha 90.000000
_cell_angle_beta 16.062097
_cell_angle_gamma 90.000000
_cell_volume 1233.379570
_symmetry_space_group_name_H-M "P 2/M"
_symmetry_group_IT_number 10
_symmetry_cell_setting 'monoclinic'
loop_
_space_group_symop_operation_xyz
x,y,z
-x,y,-z
-x,-y,-z
x,-y,z
loop_
_atom_site_type_symbol
_atom_site_label
_atom_site_fract_x
_atom_site_fract_y
_atom_site_fract_z
Si Si1 0.777161 0.683280 0.378144
Si Si2 0.068921 0.805394 0.223489
Si Si3 0.332428 0.193352 0.098282
Si Si4 0.611813 0.000000 0.463202
Si Si5 0.331561 0.696382 0.371563
Si Si6 0.900137 0.190780 0.530911
Si Si7 0.340464 0.690335 0.818566
Si Si8 0.179469 0.000000 0.895721
O O1 0.783127 0.500000 0.348499
O O2 0.987899 0.710672 0.239388
O O3 0.560964 0.687842 0.597159
O O4 0.749304 0.834149 0.360893
O O5 0.850966 0.798026 0.443003
O O6 0.262851 0.736638 0.099227
O O7 0.113521 0.000000 0.174116
O O8 0.107491 0.186805 0.318819
O O9 0.405392 0.000000 0.028299
O O10 0.500000 0.273782 0.000000
O O11 0.500000 0.000000 0.500000
O O12 0.413355 0.000000 0.670842
O O13 0.289809 0.500000 0.416633
O O14 0.292383 0.729851 0.342694
O O15 0.564662 0.735595 0.202894
O O16 0.000000 0.272407 0.500000
O O17 0.835178 0.000000 0.598413
O O18 0.254712 0.500000 0.890141
O O19 0.181963 0.831694 0.928439
O O20 0.000000 0.000000 0.000000
#
# Coordination Sequence:
#
# PCOD9148416 Si02
#       8
#     4   4   4   2   4   4   4   2
#     4   9  16  28  47  72  98 123 157 197 236 273
#     4   9  14  23  42  66  90 118 152 196 236 266
#     4   8  14  24  40  62  88 117 149 185 229 277
#     4  10  20  34  52  74 101 126 154 190 231 282
#     4   9  16  25  41  65  88 116 152 193 234 267
#     4   9  17  27  41  62  87 115 149 190 232 272
#     4   8  16  28  45  71  97 121 153 195 234 271
#     4  10  20  32  52  76  97 124 154 188 231 280
#
# _framework density 22.701853
#
# number of rings (size 3 to 8) (size 9 to 14) (size 15 to 20)
#    0.000    3.143    0.714    2.571    4.000    0.857 
#    0.000    0.000    0.000   12.429    0.000    2.000 
#    0.000    0.000    0.000    0.000    0.000    0.000 
#
# Total GULP energy -156135.363553 kJ/mol
# GULP energy per Si atom -5576.262984 kJ/mol
# Density = 2.265018 g / cm^3
# Si number density = 22.701853 Si / 1000 Ang^3
#
#
#
# Elastic Constant Matrix: (Units=GPa)
#
#
# Indices 1 2 3 4 5 6 
#
# 1 148.6683 76.4189 36.4179 0.0000 -61.7593 0.0000
# 2 76.4189 121.5705 25.3529 0.0000 -44.1198 0.0000
# 3 36.4179 25.3529 73.0442 0.0000 -8.5050 0.0000
# 4 0.0000 0.0000 0.0000 17.8641 0.0000 -33.7468
# 5 -61.7593 -44.1198 -8.5050 0.0000 55.2839 0.0000
# 6 0.0000 0.0000 0.0000 -33.7468 0.0000 40.4636
#
#
#
# Elastic Compliance Matrix: (Units=1/GPa)
#
#
# Indices 1 2 3 4 5 6 
#
# 1 0.015482 -0.003828 -0.004819 0.000000 0.013499 0.000000
# 2 -0.003828 0.013208 -0.001982 0.000000 0.005959 0.000000
# 3 -0.004819 -0.001982 0.016261 0.000000 -0.004463 0.000000
# 4 0.000000 0.000000 0.000000 -0.097268 0.000000 -0.081122
# 5 0.013499 0.005959 -0.004463 0.000000 0.037238 0.000000
# 6 0.000000 0.000000 0.000000 -0.081122 0.000000 -0.042942
#
#
# Mechanical properties :
#
#
# Convention : Reuss Voigt Hill
#
# Bulk Modulus (GPa) = 42.20429 68.85139 55.52784
# Shear Modulus (GPa) = -173.22109 36.39521 -68.41294
#
# Velocity S-wave (km/s) = -8.74461 4.00832 -5.49553
# Velocity P-wave (km/s) = 9.12834 7.19837 3.96926
#
# Compressibility (1/GPa) = 0.02369427
#
# Stress axis : x y z
#
# Youngs Moduli (GPa) = 64.58948 75.71093 61.49688
#
# Poissons Ratio (x) = 0.28983 0.29633
# Poissons Ratio (y) = 0.24726 0.12188
# Poissons Ratio (z) = 0.31123 0.15005
#
# Static dielectric constant tensor:
#      x y z
#    x 1.887200 0.000000 0.013320 
#    y 0.000000 1.822380 0.000000 
#    z 0.013320 0.000000 1.884780 
# 
# From -- ./inp_files/85669.got.cif
#   From: 2010.05.17/outbox.cif.g08.bks.cpg/sg10_43_cif.got.tgz:85669.got - 2010.06.03 11:33:40.
