data_PCOD9148536
_publ_section_title
;
Structure prediction by ZEFSAII (Michael W. Deem and Ramdas Pophale) SiO2 
 PCOD9148536
Probable space group: P 2/M
;
_chemical_formula_sum "Si O2"
_cell_formula_units_Z 32
_cell_length_a 15.904135
_cell_length_b 8.870637
_cell_length_c 21.580716
_cell_angle_alpha 90.000000
_cell_angle_beta 42.526922
_cell_angle_gamma 90.000000
_cell_volume 2057.958676
_symmetry_space_group_name_H-M "P 2/M"
_symmetry_group_IT_number 10
_symmetry_cell_setting 'monoclinic'
loop_
_space_group_symop_operation_xyz
x,y,z
-x,y,-z
-x,-y,-z
x,-y,z
loop_
_atom_site_type_symbol
_atom_site_label
_atom_site_fract_x
_atom_site_fract_y
_atom_site_fract_z
Si Si1 0.382190 0.680889 0.785035
Si Si2 0.215493 0.180320 0.108014
Si Si3 0.296178 0.818861 0.605041
Si Si4 0.894827 0.683330 0.105174
Si Si5 0.047741 0.319111 0.785034
Si Si6 0.611193 0.326549 0.888806
Si Si7 0.493740 0.181139 0.605041
Si Si8 0.431520 0.819680 0.891986
O O1 0.384244 0.500000 0.787249
O O2 0.242247 0.730346 0.841919
O O3 0.471422 0.738143 0.681905
O O4 0.415980 0.749168 0.832965
O O5 0.275864 0.243712 0.138314
O O6 0.081911 0.250832 0.167036
O O7 0.207884 0.000000 0.115149
O O8 0.311657 0.219851 0.000000
O O9 0.164768 0.738143 0.681905
O O10 0.379438 0.779585 0.500000
O O11 0.381272 0.780005 0.618728
O O12 0.279868 0.000000 0.614287
O O13 0.895651 0.500000 0.104349
O O14 0.926086 0.730346 0.158081
O O15 0.000000 0.735140 0.000000
O O16 0.041258 0.500000 0.787248
O O17 0.641578 0.500000 0.858421
O O18 0.552491 0.243712 0.861686
O O19 0.500000 0.325436 0.000000
O O20 0.491557 0.000000 0.614287
O O21 0.438180 0.000000 0.884852
#
# Coordination Sequence:
#
# PCOD9148536 Si02
#       8
#     4   4   4   4   4   4   4   4
#     4  11  20  31  48  71  98 130 166 206 247 289
#     4  10  20  33  49  71 100 133 167 203 243 291
#     4   9  18  33  51  69  93 126 162 204 252 298
#     4   9  18  30  42  61  94 132 165 197 236 281
#     4  11  20  31  48  71  98 130 166 206 247 289
#     4   9  17  31  51  73  96 125 162 205 249 289
#     4   9  18  33  51  69  93 126 162 204 252 298
#     4  10  20  33  49  71 100 133 167 203 243 291
#
# _framework density 15.549389
#
# number of rings (size 3 to 8) (size 9 to 14) (size 15 to 20)
#    0.000    2.250    1.250    3.375    0.000    4.500 
#    0.000    1.250    0.000    3.000    0.000    0.875 
#    0.000    7.000    0.000    0.000    0.000    0.000 
#
# Total GULP energy -178518.113463 kJ/mol
# GULP energy per Si atom -5578.691046 kJ/mol
# Density = 1.551400 g / cm^3
# Si number density = 15.549389 Si / 1000 Ang^3
#
#
#
# Elastic Constant Matrix: (Units=GPa)
#
#
# Indices 1 2 3 4 5 6 
#
# 1 149.5916 56.3291 76.7675 0.0000 -2.2361 0.0000
# 2 56.3291 56.4774 47.9189 0.0000 -0.3365 0.0000
# 3 76.7675 47.9189 106.7261 0.0000 0.5217 0.0000
# 4 0.0000 0.0000 0.0000 23.3530 0.0000 -0.1033
# 5 -2.2361 -0.3365 0.5217 0.0000 8.5477 0.0000
# 6 0.0000 0.0000 0.0000 -0.1033 0.0000 25.9391
#
#
#
# Elastic Compliance Matrix: (Units=1/GPa)
#
#
# Indices 1 2 3 4 5 6 
#
# 1 0.012483 -0.007752 -0.005515 0.000000 0.003297 0.000000
# 2 -0.007752 0.033447 -0.009441 0.000000 -0.000135 0.000000
# 3 -0.005515 -0.009441 0.017589 0.000000 -0.002888 0.000000
# 4 0.000000 0.000000 0.000000 0.042822 0.000000 0.000171
# 5 0.003297 -0.000135 -0.002888 0.000000 0.118023 0.000000
# 6 0.000000 0.000000 0.000000 0.000171 0.000000 0.038553
#
#
# Mechanical properties :
#
#
# Convention : Reuss Voigt Hill
#
# Bulk Modulus (GPa) = 55.23365 74.98067 65.10716
# Shear Modulus (GPa) = 15.90497 20.35326 18.12911
#
# Velocity S-wave (km/s) = 3.20170 3.62186 3.41824
# Velocity P-wave (km/s) = 7.01900 8.11271 7.58559
#
# Compressibility (1/GPa) = 0.01810491
#
# Stress axis : x y z
#
# Youngs Moduli (GPa) = 80.10828 29.89806 56.85213
#
# Poissons Ratio (x) = 0.23176 0.31352
# Poissons Ratio (y) = 0.62097 0.53674
# Poissons Ratio (z) = 0.44178 0.28227
#
# Static dielectric constant tensor:
#      x y z
#    x 1.496640 0.000000 0.000340 
#    y 0.000000 1.518420 0.000000 
#    z 0.000340 0.000000 1.505130 
# 
# From -- ./inp_files/29469.got.cif
#   From: 2010.05.17/outbox.cif.g08.bks.cpg/sg10_15_cif.got.tgz:29469.got - 2010.06.03 11:33:40.
