data_PCOD9148577
_publ_section_title
;
Structure prediction by ZEFSAII (Michael W. Deem and Ramdas Pophale) SiO2 
 PCOD9148577
Probable space group: P 2/M
;
_chemical_formula_sum "Si O2"
_cell_formula_units_Z 28
_cell_length_a 13.148549
_cell_length_b 7.622513
_cell_length_c 14.339969
_cell_angle_alpha 90.000000
_cell_angle_beta 73.994109
_cell_angle_gamma 90.000000
_cell_volume 1381.506860
_symmetry_space_group_name_H-M "P 2/M"
_symmetry_group_IT_number 10
_symmetry_cell_setting 'monoclinic'
loop_
_space_group_symop_operation_xyz
x,y,z
-x,y,-z
-x,-y,-z
x,-y,z
loop_
_atom_site_type_symbol
_atom_site_label
_atom_site_fract_x
_atom_site_fract_y
_atom_site_fract_z
Si Si1 0.159317 0.710401 0.789806
Si Si2 0.824545 0.706627 0.006193
Si Si3 0.267310 0.791443 0.263283
Si Si4 0.627957 0.789806 0.372746
Si Si5 0.619586 0.212795 0.953624
Si Si6 0.063338 0.288242 0.210607
Si Si7 0.390581 0.785142 0.411231
O O1 0.150739 0.500000 0.798129
O O2 0.152075 0.780018 0.897597
O O3 0.271777 0.746762 0.715210
O O4 0.057981 0.771727 0.756013
O O5 0.850141 0.500000 0.002872
O O6 0.701281 0.728829 0.012371
O O7 0.887672 0.777545 0.900515
O O8 0.332444 0.723545 0.156996
O O9 0.144226 0.762987 0.271403
O O10 0.313971 0.722874 0.348365
O O11 0.284423 0.000000 0.260094
O O12 0.512941 0.730842 0.364918
O O13 0.640061 0.727465 0.476641
O O14 0.621452 0.000000 0.378584
O O15 0.620094 0.000000 0.953003
O O16 0.500000 0.271392 0.000000
O O17 0.065315 0.500000 0.208248
O O18 0.388048 0.000000 0.412120
#
# Coordination Sequence:
#
# PCOD9148577 Si02
#       7
#     4   4   4   4   4   4   4
#     4  10  20  33  50  73 100 128 162 205 248 283
#     4   9  18  32  49  68  94 132 168 195 233 285
#     4   9  17  31  51  71  96 128 161 198 242 288
#     4   9  18  33  54  76  96 124 164 202 241 291
#     4   9  18  29  44  71 102 127 155 195 242 286
#     4   9  18  34  51  69  97 132 167 199 236 288
#     4   8  16  33  54  74  97 127 161 198 242 294
#
# _framework density 20.267724000000001
#
# number of rings (size 3 to 8) (size 9 to 14) (size 15 to 20)
#    0.000    3.000    0.000    1.286    2.000    3.143 
#    0.000    3.571    0.000    8.571    0.000    0.000 
#    0.000    0.000    0.000    0.000    0.000    0.000 
#
# Total GULP energy -156135.241874 kJ/mol
# GULP energy per Si atom -5576.258638 kJ/mol
# Density = 2.022159 g / cm^3
# Si number density = 20.267724 Si / 1000 Ang^3
#
#
#
# Elastic Constant Matrix: (Units=GPa)
#
#
# Indices 1 2 3 4 5 6 
#
# 1 125.0059 -3.1178 59.5177 0.0000 26.3913 0.0000
# 2 -3.1178 36.6773 2.6470 0.0000 4.4944 0.0000
# 3 59.5177 2.6470 59.3261 0.0000 21.4224 0.0000
# 4 0.0000 0.0000 0.0000 15.3112 0.0000 0.1916
# 5 26.3913 4.4944 21.4224 0.0000 34.6350 0.0000
# 6 0.0000 0.0000 0.0000 0.1916 0.0000 17.6434
#
#
#
# Elastic Compliance Matrix: (Units=1/GPa)
#
#
# Indices 1 2 3 4 5 6 
#
# 1 0.015807 0.002811 -0.014810 0.000000 -0.003249 0.000000
# 2 0.002811 0.028205 -0.002554 0.000000 -0.004222 0.000000
# 3 -0.014810 -0.002554 0.035580 0.000000 -0.010390 0.000000
# 4 0.000000 0.000000 0.000000 0.065320 0.000000 -0.000709
# 5 -0.003249 -0.004222 -0.010390 0.000000 0.038323 0.000000
# 6 0.000000 0.000000 0.000000 -0.000709 0.000000 0.056686
#
#
# Mechanical properties :
#
#
# Convention : Reuss Voigt Hill
#
# Bulk Modulus (GPa) = 19.80748 37.67814 28.74281
# Shear Modulus (GPa) = 17.49125 24.31543 20.90334
#
# Velocity S-wave (km/s) = 2.94089 3.46744 3.21497
# Velocity P-wave (km/s) = 4.61800 5.88740 5.29091
#
# Compressibility (1/GPa) = 0.05048597
#
# Stress axis : x y z
#
# Youngs Moduli (GPa) = 63.26243 35.45420 28.10562
#
# Poissons Ratio (x) = -0.09965 0.41626
# Poissons Ratio (y) = -0.17781 0.07177
# Poissons Ratio (z) = 0.93694 0.09054
#
# Static dielectric constant tensor:
#      x y z
#    x 1.723850 0.000000 0.008930 
#    y 0.000000 1.769250 0.000000 
#    z 0.008930 0.000000 1.705430 
# 
# From -- ./inp_files/28202.got.cif
#   From: 2010.05.17/outbox.cif.g08.bks.cpg/sg10_15_cif.got.tgz:28202.got - 2010.06.03 11:33:40.
