data_PCOD9148084
_publ_section_title
;
Structure prediction by ZEFSAII (Michael W. Deem and Ramdas Pophale) SiO2 
 PCOD9148084
Probable space group: P 2/M
;
_chemical_formula_sum "Si O2"
_cell_formula_units_Z 19
_cell_length_a 5.114116
_cell_length_b 16.201431
_cell_length_c 11.234709
_cell_angle_alpha 90.000000
_cell_angle_beta 81.478691
_cell_angle_gamma 90.000000
_cell_volume 920.587059
_symmetry_space_group_name_H-M "P 2/M"
_symmetry_group_IT_number 10
_symmetry_cell_setting 'monoclinic'
loop_
_space_group_symop_operation_xyz
x,y,z
-x,y,-z
-x,-y,-z
x,-y,z
loop_
_atom_site_type_symbol
_atom_site_label
_atom_site_fract_x
_atom_site_fract_y
_atom_site_fract_z
Si Si1 0.492916 0.154411 0.233140
Si Si2 0.530238 0.341588 0.139011
Si Si3 0.011799 0.368896 0.708537
Si Si4 0.947387 0.821468 0.367989
Si Si5 0.000000 0.500000 0.500000
Si Si6 0.720856 0.000000 0.083326
O O1 0.518631 0.242106 0.163112
O O2 0.182908 0.137229 0.274226
O O3 0.656565 0.082630 0.159620
O O4 0.649492 0.162466 0.346737
O O5 0.282329 0.382626 0.222329
O O6 0.789420 0.372243 0.192185
O O7 0.500000 0.356318 0.000000
O O8 0.015887 0.276013 0.657490
O O9 0.072239 0.429014 0.595959
O O10 0.000000 0.842840 0.500000
O O11 0.500000 0.000000 0.000000
O O12 0.000000 0.000000 0.000000
#
# Coordination Sequence:
#
# PCOD9148084 Si02
#       6
#     4   4   4   4   1   2
#     4  10  22  36  61  88 119 159 207 246 307 354
#     4  10  21  41  62  90 121 163 208 247 302 368
#     4  10  23  37  65  90 121 161 201 257 303 366
#     4  10  19  39  59  88 118 160 202 251 293 367
#     4  12  24  46  62  98 124 152 212 252 320 354
#     4  12  24  40  59  88 123 158 200 260 308 354
#
# _framework density 20.639004
#
# number of rings (size 3 to 8) (size 9 to 14) (size 15 to 20)
#    0.000    1.684    1.053    3.158    0.000    5.895 
#    0.000    6.316    0.000    0.000    0.000    0.000 
#    0.000    0.000    0.000    0.000    0.000    0.000 
#
# Total GULP energy -105777.081233 kJ/mol
# GULP energy per Si atom -5567.214802 kJ/mol
# Density = 2.059203 g / cm^3
# Si number density = 20.639004 Si / 1000 Ang^3
#
#
#
# Elastic Constant Matrix: (Units=GPa)
#
#
# Indices 1 2 3 4 5 6 
#
# 1 102.4146 21.5603 8.8101 0.0000 1.6802 0.0000
# 2 21.5603 53.2221 25.6072 0.0000 -3.3155 0.0000
# 3 8.8101 25.6072 99.7310 0.0000 19.8372 0.0000
# 4 0.0000 0.0000 0.0000 13.8631 0.0000 8.2375
# 5 1.6802 -3.3155 19.8372 0.0000 28.2179 0.0000
# 6 0.0000 0.0000 0.0000 8.2375 0.0000 1.2019
#
#
#
# Elastic Compliance Matrix: (Units=1/GPa)
#
#
# Indices 1 2 3 4 5 6 
#
# 1 0.010736 -0.004731 0.000586 0.000000 -0.001607 0.000000
# 2 -0.004731 0.024951 -0.007705 0.000000 0.008630 0.000000
# 3 0.000586 -0.007705 0.014114 0.000000 -0.010862 0.000000
# 4 0.000000 0.000000 0.000000 -0.023479 0.000000 0.160909
# 5 -0.001607 0.008630 -0.010862 0.000000 0.044184 0.000000
# 6 0.000000 0.000000 0.000000 0.160909 0.000000 -0.270797
#
#
# Mechanical properties :
#
#
# Convention : Reuss Voigt Hill
#
# Bulk Modulus (GPa) = 38.31341 40.81367 39.56354
# Shear Modulus (GPa) = -29.78149 21.94926 -3.91612
#
# Velocity S-wave (km/s) = -3.80277 3.26465 -1.37897
# Velocity P-wave (km/s) = 0.82310 5.83340 4.08357
#
# Compressibility (1/GPa) = 0.02610052
#
# Stress axis : x y z
#
# Youngs Moduli (GPa) = 93.14256 40.07913 70.85080
#
# Poissons Ratio (x) = 0.18963 -0.04153
# Poissons Ratio (y) = 0.44069 0.54590
# Poissons Ratio (z) = -0.05459 0.30881
#
# Static dielectric constant tensor:
#      x y z
#    x 1.740510 0.000000 -0.000300 
#    y 0.000000 1.667820 0.000000 
#    z -0.000300 0.000000 1.729790 
# 
# From -- ./inp_files/14787.got.cif
#   From: 2010.05.17/outbox.cif.g08.bks.cpg/sg10_8_cif.got.tgz:14787.got - 2010.06.03 11:33:40.
