data_PCOD9148680
_publ_section_title
;
Structure prediction by ZEFSAII (Michael W. Deem and Ramdas Pophale) SiO2 
 PCOD9148680
Probable space group: P 2/M
;
_chemical_formula_sum "Si O2"
_cell_formula_units_Z 24
_cell_length_a 20.751188
_cell_length_b 10.006333
_cell_length_c 7.474898
_cell_angle_alpha 90.000000
_cell_angle_beta 45.062247
_cell_angle_gamma 90.000000
_cell_volume 1098.700954
_symmetry_space_group_name_H-M "P 2/M"
_symmetry_group_IT_number 10
_symmetry_cell_setting 'monoclinic'
loop_
_space_group_symop_operation_xyz
x,y,z
-x,y,-z
-x,-y,-z
x,-y,z
loop_
_atom_site_type_symbol
_atom_site_label
_atom_site_fract_x
_atom_site_fract_y
_atom_site_fract_z
Si Si1 0.134636 0.653725 0.882325
Si Si2 0.499965 0.355309 0.290862
Si Si3 0.169541 0.842717 0.132153
Si Si4 0.401321 0.858555 0.300246
Si Si5 0.658907 0.147870 0.944748
Si Si6 0.921407 0.653042 0.408253
O O1 0.167459 0.500000 0.845945
O O2 0.179156 0.762799 0.926541
O O3 0.027800 0.655899 0.149120
O O4 0.132670 0.679602 0.672105
O O5 0.500000 0.370200 0.500000
O O6 0.502656 0.500000 0.198537
O O7 0.413755 0.269686 0.396087
O O8 0.590223 0.269505 0.087924
O O9 0.260643 0.838064 0.073834
O O10 0.100956 0.759181 0.394266
O O11 0.145666 0.000000 0.153368
O O12 0.323248 0.853593 0.303929
O O13 0.392930 0.000000 0.415744
O O14 0.500000 0.862391 0.000000
O O15 0.616946 0.000000 0.062270
O O16 0.899722 0.500000 0.509031
#
# Coordination Sequence:
#
# PCOD9148680 Si02
#       6
#     4   4   4   4   4   4
#     4   9  19  37  59  81 109 146 190 229 266 327
#     4  10  20  33  51  78 105 128 166 219 265 306
#     4  11  22  35  54  83 117 146 180 229 280 324
#     4   8  15  31  53  70  91 128 170 204 242 303
#     4   9  20  37  52  72 103 139 175 209 256 321
#     4   9  19  37  59  81 107 147 191 227 269 327
#
# _framework density 21.843979999999998
#
# number of rings (size 3 to 8) (size 9 to 14) (size 15 to 20)
#    0.000    2.667    0.000    3.500    0.000    9.000 
#    3.000    1.667    0.000    0.000    0.000    0.000 
#    0.000    0.000    0.000    0.000    0.000    0.000 
#
# Total GULP energy -133729.093758 kJ/mol
# GULP energy per Si atom -5572.045573 kJ/mol
# Density = 2.179426 g / cm^3
# Si number density = 21.843980 Si / 1000 Ang^3
#
#
#
# Elastic Constant Matrix: (Units=GPa)
#
#
# Indices 1 2 3 4 5 6 
#
# 1 123.2054 69.8334 5.5361 0.0000 22.8467 0.0000
# 2 69.8334 185.2631 27.5983 0.0000 18.7644 0.0000
# 3 5.5361 27.5983 28.3276 0.0000 16.5747 0.0000
# 4 0.0000 0.0000 0.0000 28.2608 0.0000 -4.3455
# 5 22.8467 18.7644 16.5747 0.0000 30.3605 0.0000
# 6 0.0000 0.0000 0.0000 -4.3455 0.0000 43.2420
#
#
#
# Elastic Compliance Matrix: (Units=1/GPa)
#
#
# Indices 1 2 3 4 5 6 
#
# 1 0.012622 -0.004948 0.008995 0.000000 -0.011351 0.000000
# 2 -0.004948 0.008267 -0.009222 0.000000 0.003649 0.000000
# 3 0.008995 -0.009222 0.063408 0.000000 -0.035686 0.000000
# 4 0.000000 0.000000 0.000000 0.035940 0.000000 0.003612
# 5 -0.011351 0.003649 -0.035686 0.000000 0.058706 0.000000
# 6 0.000000 0.000000 0.000000 0.003612 0.000000 0.023489
#
#
# Mechanical properties :
#
#
# Convention : Reuss Voigt Hill
#
# Bulk Modulus (GPa) = 13.52314 60.30353 36.91333
# Shear Modulus (GPa) = 21.05883 35.96119 28.51001
#
# Velocity S-wave (km/s) = 3.10829 4.06183 3.61663
# Velocity P-wave (km/s) = 4.36878 7.04730 5.86305
#
# Compressibility (1/GPa) = 0.07394731
#
# Stress axis : x y z
#
# Youngs Moduli (GPa) = 79.22853 120.96158 15.77090
#
# Poissons Ratio (x) = 0.59852 -0.14186
# Poissons Ratio (y) = 0.39202 0.14544
# Poissons Ratio (z) = -0.71269 1.11551
#
# Static dielectric constant tensor:
#      x y z
#    x 1.845330 0.000000 0.017240 
#    y 0.000000 2.066840 0.000000 
#    z 0.017240 0.000000 1.871290 
# 
# From -- ./inp_files/35649.got.cif
#   From: 2010.05.17/outbox.cif.g08.bks.cpg/sg10_18_cif.got.tgz:35649.got - 2010.06.03 11:33:40.
