data_PCOD9148130
_publ_section_title
;
Structure prediction by ZEFSAII (Michael W. Deem and Ramdas Pophale) SiO2 
 PCOD9148130
Probable space group: P 2/M
;
_chemical_formula_sum "Si O2"
_cell_formula_units_Z 20
_cell_length_a 7.988727
_cell_length_b 14.154449
_cell_length_c 9.727239
_cell_angle_alpha 90.000000
_cell_angle_beta 102.878396
_cell_angle_gamma 90.000000
_cell_volume 1072.249466
_symmetry_space_group_name_H-M "P 2/M"
_symmetry_group_IT_number 10
_symmetry_cell_setting 'monoclinic'
loop_
_space_group_symop_operation_xyz
x,y,z
-x,y,-z
-x,-y,-z
x,-y,z
loop_
_atom_site_type_symbol
_atom_site_label
_atom_site_fract_x
_atom_site_fract_y
_atom_site_fract_z
Si Si1 0.393306 0.394190 0.837902
Si Si2 0.702640 0.893247 0.577508
Si Si3 0.417551 0.786485 0.196822
Si Si4 0.852946 0.746717 0.083707
Si Si5 0.774959 0.888788 0.286601
O O1 0.378246 0.500000 0.778893
O O2 0.495751 0.316613 0.767061
O O3 0.500000 0.400411 0.000000
O O4 0.213725 0.345600 0.847553
O O5 0.500000 0.897727 0.500000
O O6 0.703539 0.819911 0.701527
O O7 0.796907 0.867965 0.452924
O O8 0.754069 0.000000 0.628336
O O9 0.307771 0.782061 0.038231
O O10 0.577406 0.858617 0.218699
O O11 0.887583 0.826815 0.203709
O O12 0.000000 0.728156 0.000000
O O13 0.797746 0.000000 0.271142
#
# Coordination Sequence:
#
# PCOD9148130 Si02
#       5
#     4   4   4   4   4
#     4   8  15  29  48  68  87 109 143 184 222 261
#     4   8  14  26  46  68  87 112 146 181 218 258
#     4   9  16  28  48  68  87 112 146 184 219 257
#     4  10  20  30  42  65  93 120 148 178 216 258
#     4   9  17  30  47  65  88 118 149 183 220 256
#
# _framework density 18.652377000000001
#
# number of rings (size 3 to 8) (size 9 to 14) (size 15 to 20)
#    0.000    3.200    0.000    3.600    0.000    3.200 
#    0.000    1.000    0.000   17.400    0.000    0.000 
#    0.000   32.000    0.000    0.000    0.000    0.000 
#
# Total GULP energy -111385.408399 kJ/mol
# GULP energy per Si atom -5569.270420 kJ/mol
# Density = 1.860992 g / cm^3
# Si number density = 18.652377 Si / 1000 Ang^3
#
#
#
# Elastic Constant Matrix: (Units=GPa)
#
#
# Indices 1 2 3 4 5 6 
#
# 1 76.1745 28.3463 21.2748 0.0000 -20.2446 0.0000
# 2 28.3463 135.7782 63.1531 0.0000 -33.7191 0.0000
# 3 21.2748 63.1531 76.5279 0.0000 -29.5486 0.0000
# 4 0.0000 0.0000 0.0000 -95.5357 0.0000 51.1413
# 5 -20.2446 -33.7191 -29.5486 0.0000 17.0982 0.0000
# 6 0.0000 0.0000 0.0000 51.1413 0.0000 -23.6367
#
#
#
# Elastic Compliance Matrix: (Units=1/GPa)
#
#
# Indices 1 2 3 4 5 6 
#
# 1 0.022910 0.003000 0.011761 0.000000 0.053368 0.000000
# 2 0.003000 0.015024 -0.001265 0.000000 0.030996 0.000000
# 3 0.011761 -0.001265 0.045848 0.000000 0.090666 0.000000
# 4 0.000000 0.000000 0.000000 0.066157 0.000000 0.143140
# 5 0.053368 0.030996 0.090666 0.000000 0.339485 0.000000
# 6 0.000000 0.000000 0.000000 0.143140 0.000000 0.267397
#
#
# Mechanical properties :
#
#
# Convention : Reuss Voigt Hill
#
# Bulk Modulus (GPa) = 9.02721 57.11431 33.07076
# Shear Modulus (GPa) = 6.52100 -8.70107 -1.09004
#
# Velocity S-wave (km/s) = 1.87181 -2.16217 -0.76529
# Velocity P-wave (km/s) = 3.08574 4.94505 4.12161
#
# Compressibility (1/GPa) = 0.11077624
#
# Stress axis : x y z
#
# Youngs Moduli (GPa) = 43.64934 66.55886 21.81101
#
# Poissons Ratio (x) = -0.19967 -0.25653
# Poissons Ratio (y) = -0.13094 0.02758
# Poissons Ratio (z) = -0.51338 0.08417
#
# Static dielectric constant tensor:
#      x y z
#    x 1.721130 0.000000 -0.013280 
#    y 0.000000 1.639530 0.000000 
#    z -0.013280 0.000000 1.661190 
# 
# From -- ./inp_files/18385.got.cif
#   From: 2010.05.17/outbox.cif.g08.bks.cpg/sg10_10_cif.got.tgz:18385.got - 2010.06.03 11:33:40.
