data_PCOD9148683
_publ_section_title
;
Structure prediction by ZEFSAII (Michael W. Deem and Ramdas Pophale) SiO2 
 PCOD9148683
Probable space group: P 2/M
;
_chemical_formula_sum "Si O2"
_cell_formula_units_Z 24
_cell_length_a 10.147927
_cell_length_b 8.579636
_cell_length_c 22.040180
_cell_angle_alpha 90.000000
_cell_angle_beta 144.127439
_cell_angle_gamma 90.000000
_cell_volume 1124.468668
_symmetry_space_group_name_H-M "P 2/M"
_symmetry_group_IT_number 10
_symmetry_cell_setting 'monoclinic'
loop_
_space_group_symop_operation_xyz
x,y,z
-x,y,-z
-x,-y,-z
x,-y,z
loop_
_atom_site_type_symbol
_atom_site_label
_atom_site_fract_x
_atom_site_fract_y
_atom_site_fract_z
Si Si1 0.959085 0.679513 0.164738
Si Si2 0.638137 0.811454 0.253155
Si Si3 0.819049 0.812152 0.983555
Si Si4 0.971537 0.816180 0.685604
Si Si5 0.747572 0.688586 0.419328
Si Si6 0.573959 0.680461 0.604000
O O1 0.892112 0.500000 0.148371
O O2 0.898711 0.776743 0.202700
O O3 0.231302 0.685817 0.270740
O O4 0.872351 0.742984 0.069131
O O5 0.427871 0.769609 0.132548
O O6 0.871121 0.754914 0.309336
O O7 0.611181 0.741736 0.309544
O O8 0.646207 0.000000 0.260144
O O9 0.831238 0.000000 0.992751
O O10 0.000000 0.763114 0.000000
O O11 0.722402 0.746344 0.603621
O O12 0.947619 0.000000 0.670762
O O13 0.748569 0.500000 0.423278
O O14 0.638969 0.752461 0.440966
O O15 0.000000 0.743416 0.500000
O O16 0.528369 0.500000 0.574988
#
# Coordination Sequence:
#
# PCOD9148683 Si02
#       6
#     4   4   4   4   4   4
#     4   9  18  32  52  77 107 143 182 217 259 312
#     4  10  22  37  54  81 112 141 181 226 268 319
#     4  10  20  33  51  78 110 145 181 218 265 319
#     4   9  18  34  55  77 108 148 183 218 264 315
#     4  10  21  38  60  83 106 137 176 222 278 330
#     4   8  17  34  54  79 108 138 177 219 262 319
#
# _framework density 21.343415
#
# number of rings (size 3 to 8) (size 9 to 14) (size 15 to 20)
#    1.000    1.667    0.000    1.500    0.000    4.000 
#    0.000    4.167    0.000    5.000    0.000    0.000 
#    0.000    0.000    0.000    0.000    0.000    0.000 
#
# Total GULP energy -133791.995811 kJ/mol
# GULP energy per Si atom -5574.666492 kJ/mol
# Density = 2.129484 g / cm^3
# Si number density = 21.343415 Si / 1000 Ang^3
#
#
#
# Elastic Constant Matrix: (Units=GPa)
#
#
# Indices 1 2 3 4 5 6 
#
# 1 173.2343 17.1500 32.5550 0.0000 3.5173 0.0000
# 2 17.1500 11.5723 -11.6497 0.0000 13.8439 0.0000
# 3 32.5550 -11.6497 61.8231 0.0000 -2.9172 0.0000
# 4 0.0000 0.0000 0.0000 11.8187 0.0000 0.6878
# 5 3.5173 13.8439 -2.9172 0.0000 33.4041 0.0000
# 6 0.0000 0.0000 0.0000 0.6878 0.0000 15.5107
#
#
#
# Elastic Compliance Matrix: (Units=1/GPa)
#
#
# Indices 1 2 3 4 5 6 
#
# 1 0.022695 -0.118744 -0.032250 0.000000 0.044006 0.000000
# 2 -0.118744 0.867334 0.210461 0.000000 -0.328574 0.000000
# 3 -0.032250 0.210461 0.069145 0.000000 -0.077789 0.000000
# 4 0.000000 0.000000 0.000000 0.084831 0.000000 -0.003762
# 5 0.044006 -0.328574 -0.077789 0.000000 0.154683 0.000000
# 6 0.000000 0.000000 0.000000 -0.003762 0.000000 0.064638
#
#
# Mechanical properties :
#
#
# Convention : Reuss Voigt Hill
#
# Bulk Modulus (GPa) = 0.92755 35.86003 18.39379
# Shear Modulus (GPa) = 3.32499 26.05166 14.68833
#
# Velocity S-wave (km/s) = 1.24949 3.49749 2.62618
# Velocity P-wave (km/s) = 1.58656 5.75742 4.22286
#
# Compressibility (1/GPa) = 1.07810660
#
# Stress axis : x y z
#
# Youngs Moduli (GPa) = 44.06225 1.15296 14.46234
#
# Poissons Ratio (x) = 0.13691 0.46641
# Poissons Ratio (y) = 5.23215 -3.04375
# Poissons Ratio (z) = 1.42101 -0.24265
#
# Static dielectric constant tensor:
#      x y z
#    x 1.797590 0.000000 0.021670 
#    y 0.000000 1.720470 0.000000 
#    z 0.021670 0.000000 1.826410 
# 
# From -- ./inp_files/88747.got.cif
#   From: 2010.05.17/outbox.cif.g08.bks.cpg/sg10_45_cif.got.tgz:88747.got - 2010.06.03 11:33:40.
