data_PCOD9148192
_publ_section_title
;
Structure prediction by ZEFSAII (Michael W. Deem and Ramdas Pophale) SiO2 
 PCOD9148192
Probable space group: P 2/M
;
_chemical_formula_sum "Si O2"
_cell_formula_units_Z 23
_cell_length_a 12.796509
_cell_length_b 14.109600
_cell_length_c 12.325004
_cell_angle_alpha 90.000000
_cell_angle_beta 34.560314
_cell_angle_gamma 90.000000
_cell_volume 1262.367324
_symmetry_space_group_name_H-M "P 2/M"
_symmetry_group_IT_number 10
_symmetry_cell_setting 'monoclinic'
loop_
_space_group_symop_operation_xyz
x,y,z
-x,y,-z
-x,-y,-z
x,-y,z
loop_
_atom_site_type_symbol
_atom_site_label
_atom_site_fract_x
_atom_site_fract_y
_atom_site_fract_z
Si Si1 0.703004 0.793948 0.536292
Si Si2 0.829127 0.892013 0.077432
Si Si3 0.955806 0.695976 0.653792
Si Si4 0.000000 0.500000 0.500000
Si Si5 0.500000 0.169702 0.500000
Si Si6 0.741512 0.000000 0.820796
Si Si7 0.350801 0.809715 0.979020
Si Si8 0.174824 0.000000 0.503121
O O1 0.607194 0.773972 0.502897
O O2 0.550391 0.782654 0.761960
O O3 0.881918 0.731595 0.406848
O O4 0.760971 0.904877 0.491233
O O5 0.651541 0.890169 0.306366
O O6 0.774004 0.833593 0.019437
O O7 0.872642 0.000000 0.008069
O O8 0.000000 0.853792 0.000000
O O9 0.000000 0.746235 0.500000
O O10 0.966823 0.585176 0.618618
O O11 0.756780 0.729329 0.863591
O O12 0.742532 0.000000 0.689543
O O13 0.652954 0.905807 0.947669
O O14 0.955589 0.000000 0.674391
#
# Coordination Sequence:
#
# PCOD9148192 Si02
#       8
#     4   4   4   1   2   2   4   2
#     4  11  23  36  57  85 119 161 197 237 275 334
#     4  10  20  31  48  75 111 164 205 234 264 308
#     4  10  21  42  62  86 112 141 187 237 302 354
#     4   8  24  44  70  88 106 144 178 244 318 362
#     4  10  23  34  52  79 118 166 198 233 270 317
#     4  11  21  35  47  80 119 162 203 229 277 330
#     4  11  21  34  54  82 119 155 195 233 278 342
#     4  11  23  32  52  78 117 172 201 228 273 324
#
# _framework density 18.219736999999999
#
# number of rings (size 3 to 8) (size 9 to 14) (size 15 to 20)
#    0.522    1.043    2.609    2.870    4.870    3.478 
#    0.000    1.739    0.000    0.522    0.000   11.565 
#    0.000    0.000    0.000    0.000    0.000    0.000 
#
# Total GULP energy -128192.647089 kJ/mol
# GULP energy per Si atom -5573.593352 kJ/mol
# Density = 1.817827 g / cm^3
# Si number density = 18.219737 Si / 1000 Ang^3
#
#
#
# Elastic Constant Matrix: (Units=GPa)
#
#
# Indices 1 2 3 4 5 6 
#
# 1 82.8081 14.8376 14.7814 0.0000 -0.5525 0.0000
# 2 14.8376 99.8648 32.4589 0.0000 -0.8646 0.0000
# 3 14.7814 32.4589 78.5067 0.0000 -3.0648 0.0000
# 4 0.0000 0.0000 0.0000 0.8970 0.0000 -4.9384
# 5 -0.5525 -0.8646 -3.0648 0.0000 32.2590 0.0000
# 6 0.0000 0.0000 0.0000 -4.9384 0.0000 -0.5564
#
#
#
# Elastic Compliance Matrix: (Units=1/GPa)
#
#
# Indices 1 2 3 4 5 6 
#
# 1 0.012635 -0.001275 -0.001851 0.000000 0.000006 0.000000
# 2 -0.001275 0.011698 -0.004602 0.000000 -0.000146 0.000000
# 3 -0.001851 -0.004602 0.015039 0.000000 0.001274 0.000000
# 4 0.000000 0.000000 0.000000 0.022356 0.000000 -0.198434
# 5 0.000006 -0.000146 0.001274 0.000000 0.031116 0.000000
# 6 0.000000 0.000000 0.000000 -0.198434 0.000000 -0.036044
#
#
# Mechanical properties :
#
#
# Convention : Reuss Voigt Hill
#
# Bulk Modulus (GPa) = 41.81670 42.81505 42.31588
# Shear Modulus (GPa) = 62.32188 19.79338 41.05763
#
# Velocity S-wave (km/s) = 5.85491 3.29959 4.75222
# Velocity P-wave (km/s) = 8.28901 6.16982 7.30666
#
# Compressibility (1/GPa) = 0.02391389
#
# Stress axis : x y z
#
# Youngs Moduli (GPa) = 79.14420 85.48808 66.49493
#
# Poissons Ratio (x) = 0.10904 0.12311
# Poissons Ratio (y) = 0.10095 0.30600
# Poissons Ratio (z) = 0.14653 0.39341
#
# Static dielectric constant tensor:
#      x y z
#    x 1.675310 0.000000 0.008150 
#    y 0.000000 1.566630 0.000000 
#    z 0.008150 0.000000 1.672840 
# 
# From -- ./inp_files/47325.got.cif
#   From: 2010.05.17/outbox.cif.g08.bks.cpg/sg10_24_cif.got.tgz:47325.got - 2010.06.03 11:33:40.
