data_PCOD9148174
_publ_section_title
;
Structure prediction by ZEFSAII (Michael W. Deem and Ramdas Pophale) SiO2 
 PCOD9148174
Probable space group: P 2/M
;
_chemical_formula_sum "Si O2"
_cell_formula_units_Z 32
_cell_length_a 13.514958
_cell_length_b 14.348747
_cell_length_c 19.334347
_cell_angle_alpha 90.000000
_cell_angle_beta 151.504307
_cell_angle_gamma 90.000000
_cell_volume 1788.796581
_symmetry_space_group_name_H-M "P 2/M"
_symmetry_group_IT_number 10
_symmetry_cell_setting 'monoclinic'
loop_
_space_group_symop_operation_xyz
x,y,z
-x,y,-z
-x,-y,-z
x,-y,z
loop_
_atom_site_type_symbol
_atom_site_label
_atom_site_fract_x
_atom_site_fract_y
_atom_site_fract_z
Si Si1 0.682047 0.700849 0.064633
Si Si2 0.590451 0.106518 0.476892
Si Si3 0.594400 0.612029 0.221286
Si Si4 0.152790 0.887772 0.155622
Si Si5 0.429233 0.386361 0.637508
Si Si6 0.068248 0.783001 0.243429
Si Si7 0.302617 0.607020 0.327782
Si Si8 0.043346 0.610577 0.651532
O O1 0.816607 0.633516 0.196369
O O2 0.839367 0.775089 0.131662
O O3 0.500000 0.741462 0.000000
O O4 0.574238 0.644695 0.937109
O O5 0.500000 0.104805 0.500000
O O6 0.400753 0.135207 0.309976
O O7 0.779354 0.176942 0.603723
O O8 0.653522 0.000000 0.499201
O O9 0.603178 0.500000 0.228302
O O10 0.532905 0.642876 0.260275
O O11 0.819493 0.644342 0.329970
O O12 0.074177 0.848611 0.180176
O O13 0.146426 0.000000 0.152622
O O14 0.000000 0.855653 0.000000
O O15 0.430677 0.500000 0.634404
O O16 0.600502 0.359726 0.685938
O O17 0.190598 0.355633 0.479059
O O18 0.146527 0.681934 0.264130
O O19 0.500000 0.604296 0.500000
O O20 0.222358 0.500000 0.273242
O O21 0.024174 0.500000 0.630581
#
# Coordination Sequence:
#
# PCOD9148174 Si02
#       8
#     4   4   4   4   4   4   4   4
#     4  10  21  33  45  65  93 126 167 214 256 298
#     4   8  15  30  53  79 102 123 154 196 240 291
#     4   9  17  30  46  63  86 120 166 219 266 298
#     4   9  18  33  55  84 110 128 154 196 246 301
#     4   9  17  29  45  65  89 118 160 215 264 308
#     4  11  20  32  51  71  98 136 172 207 250 299
#     4  10  20  31  44  68 102 137 172 206 242 293
#     4   9  16  28  47  66  84 117 167 217 262 302
#
# _framework density 17.889122
#
# number of rings (size 3 to 8) (size 9 to 14) (size 15 to 20)
#    0.000    2.625    0.000    3.750    0.000    6.000 
#    0.000    0.000    0.000    4.125    0.000    0.000 
#    0.000    3.000    0.000    0.000    0.000    4.500 
#
# Total GULP energy -178241.119620 kJ/mol
# GULP energy per Si atom -5570.034988 kJ/mol
# Density = 1.784841 g / cm^3
# Si number density = 17.889122 Si / 1000 Ang^3
#
#
#
# Elastic Constant Matrix: (Units=GPa)
#
#
# Indices 1 2 3 4 5 6 
#
# 1 87.1199 16.3756 44.3006 0.0000 -0.8752 0.0000
# 2 16.3756 32.1588 17.3689 0.0000 -2.6564 0.0000
# 3 44.3006 17.3689 100.1398 0.0000 -11.8807 0.0000
# 4 0.0000 0.0000 0.0000 69.4887 0.0000 -22.4813
# 5 -0.8752 -2.6564 -11.8807 0.0000 25.4731 0.0000
# 6 0.0000 0.0000 0.0000 -22.4813 0.0000 19.8663
#
#
#
# Elastic Compliance Matrix: (Units=1/GPa)
#
#
# Indices 1 2 3 4 5 6 
#
# 1 0.015609 -0.004715 -0.006438 0.000000 -0.002958 0.000000
# 2 -0.004715 0.035752 -0.003908 0.000000 0.001744 0.000000
# 3 -0.006438 -0.003908 0.014225 0.000000 0.006006 0.000000
# 4 0.000000 0.000000 0.000000 0.022702 0.000000 0.025691
# 5 -0.002958 0.001744 0.006006 0.000000 0.042138 0.000000
# 6 0.000000 0.000000 0.000000 0.025691 0.000000 0.079409
#
#
# Mechanical properties :
#
#
# Convention : Reuss Voigt Hill
#
# Bulk Modulus (GPa) = 28.19949 41.72320 34.96135
# Shear Modulus (GPa) = 19.85872 32.39053 26.12462
#
# Velocity S-wave (km/s) = 3.33543 4.25976 3.82562
# Velocity P-wave (km/s) = 5.53454 6.89695 6.25296
#
# Compressibility (1/GPa) = 0.03546163
#
# Stress axis : x y z
#
# Youngs Moduli (GPa) = 64.06589 27.97082 70.30044
#
# Poissons Ratio (x) = 0.13189 0.45262
# Poissons Ratio (y) = 0.30209 0.27475
# Poissons Ratio (z) = 0.41248 0.10931
#
# Static dielectric constant tensor:
#      x y z
#    x 1.644610 0.000000 0.002030 
#    y 0.000000 1.618620 0.000000 
#    z 0.002030 0.000000 1.646360 
# 
# From -- ./inp_files/77057.got.cif
#   From: 2010.05.17/outbox.cif.g08.bks.cpg/sg10_39_cif.got.tgz:77057.got - 2010.06.03 11:33:40.
