data_PCOD9148257
_publ_section_title
;
Structure prediction by ZEFSAII (Michael W. Deem and Ramdas Pophale) SiO2 
 PCOD9148257
Probable space group: P 2/M
;
_chemical_formula_sum "Si O2"
_cell_formula_units_Z 20
_cell_length_a 23.036042
_cell_length_b 8.459309
_cell_length_c 14.519586
_cell_angle_alpha 90.000000
_cell_angle_beta 162.671842
_cell_angle_gamma 90.000000
_cell_volume 842.725083
_symmetry_space_group_name_H-M "P 2/M"
_symmetry_group_IT_number 10
_symmetry_cell_setting 'monoclinic'
loop_
_space_group_symop_operation_xyz
x,y,z
-x,y,-z
-x,-y,-z
x,-y,z
loop_
_atom_site_type_symbol
_atom_site_label
_atom_site_fract_x
_atom_site_fract_y
_atom_site_fract_z
Si Si1 0.268492 0.319474 0.445446
Si Si2 0.388253 0.327202 0.146017
Si Si3 0.394223 0.000000 0.245635
Si Si4 0.940096 0.812148 0.054056
Si Si5 0.947885 0.000000 0.528031
Si Si6 0.011926 0.676669 0.358979
O O1 0.211021 0.500000 0.378474
O O2 0.501417 0.318435 0.784408
O O3 0.166101 0.210668 0.365672
O O4 0.177635 0.267667 0.208681
O O5 0.453496 0.500000 0.282885
O O6 0.451605 0.162857 0.285784
O O7 0.157734 0.327043 0.819086
O O8 0.500000 0.000000 0.500000
O O9 0.161405 0.000000 0.897590
O O10 0.916255 0.718124 0.114141
O O11 0.898350 0.000000 0.994795
O O12 0.860120 0.832016 0.424104
O O13 0.000000 0.000000 0.500000
O O14 0.097423 0.500000 0.485915
#
# Coordination Sequence:
#
# PCOD9148257 Si02
#       6
#     4   4   2   4   2   4
#     4  10  20  32  46  71 110 156 191 233 288 349
#     4   9  21  33  50  78 109 149 188 226 281 339
#     4  10  22  34  55  83 117 147 185 233 289 335
#     4  11  21  32  46  74 110 152 196 235 284 346
#     4  10  22  40  57  85 119 153 193 237 287 349
#     4  10  20  37  57  81 109 146 192 239 283 339
#
# _framework density 23.732531000000002
#
# number of rings (size 3 to 8) (size 9 to 14) (size 15 to 20)
#    0.000    2.000    1.000    3.600    8.400    0.800 
#    0.000    0.000    0.000    0.000    0.000   11.200 
#    0.000   20.800    0.000    0.000    0.000    0.000 
#
# Total GULP energy -111440.271734 kJ/mol
# GULP energy per Si atom -5572.013587 kJ/mol
# Density = 2.367851 g / cm^3
# Si number density = 23.732531 Si / 1000 Ang^3
#
#
#
# Elastic Constant Matrix: (Units=GPa)
#
#
# Indices 1 2 3 4 5 6 
#
# 1 64.0113 10.9073 31.4153 0.0000 12.4762 0.0000
# 2 10.9073 243.6402 26.9596 0.0000 -7.3484 0.0000
# 3 31.4153 26.9596 51.8615 0.0000 -0.4326 0.0000
# 4 0.0000 0.0000 0.0000 -137.0643 0.0000 50.5715
# 5 12.4762 -7.3484 -0.4326 0.0000 30.3878 0.0000
# 6 0.0000 0.0000 0.0000 50.5715 0.0000 22.1994
#
#
#
# Elastic Compliance Matrix: (Units=1/GPa)
#
#
# Indices 1 2 3 4 5 6 
#
# 1 0.025243 0.000270 -0.015519 0.000000 -0.010520 0.000000
# 2 0.000270 0.004390 -0.002438 0.000000 0.000916 0.000000
# 3 -0.015519 -0.002438 0.030002 0.000000 0.006209 0.000000
# 4 0.000000 0.000000 0.000000 -0.003964 0.000000 0.009030
# 5 -0.010520 0.000916 0.006209 0.000000 0.037537 0.000000
# 6 0.000000 0.000000 0.000000 0.009030 0.000000 0.024475
#
#
# Mechanical properties :
#
#
# Convention : Reuss Voigt Hill
#
# Bulk Modulus (GPa) = 41.21898 55.34194 48.28046
# Shear Modulus (GPa) = 31.02834 2.45329 16.74082
#
# Velocity S-wave (km/s) = 3.61975 1.01783 2.65881
# Velocity P-wave (km/s) = 5.90558 4.97503 5.46017
#
# Compressibility (1/GPa) = 0.02426067
#
# Stress axis : x y z
#
# Youngs Moduli (GPa) = 39.61499 227.80559 33.33122
#
# Poissons Ratio (x) = -0.06148 0.51727
# Poissons Ratio (y) = -0.01069 0.08125
# Poissons Ratio (z) = 0.61479 0.55534
#
# Static dielectric constant tensor:
#      x y z
#    x 1.949840 0.000000 0.023170 
#    y 0.000000 1.933460 0.000000 
#    z 0.023170 0.000000 2.013160 
# 
# From -- ./inp_files/71359.got.cif
#   From: 2010.05.17/outbox.cif.g08.bks.cpg/sg10_36_cif.got.tgz:71359.got - 2010.06.03 11:33:40.
