data_PCOD9148338
_publ_section_title
;
Structure prediction by ZEFSAII (Michael W. Deem and Ramdas Pophale) SiO2 
 PCOD9148338
Probable space group: P 2/M
;
_chemical_formula_sum "Si O2"
_cell_formula_units_Z 32
_cell_length_a 20.204351
_cell_length_b 7.431005
_cell_length_c 9.722986
_cell_angle_alpha 90.000000
_cell_angle_beta 83.672617
_cell_angle_gamma 90.000000
_cell_volume 1450.903333
_symmetry_space_group_name_H-M "P 2/M"
_symmetry_group_IT_number 10
_symmetry_cell_setting 'monoclinic'
loop_
_space_group_symop_operation_xyz
x,y,z
-x,y,-z
-x,-y,-z
x,-y,z
loop_
_atom_site_type_symbol
_atom_site_label
_atom_site_fract_x
_atom_site_fract_y
_atom_site_fract_z
Si Si1 0.935435 0.219527 0.603610
Si Si2 0.558378 0.707843 0.097710
Si Si3 0.811631 0.219695 0.136333
Si Si4 0.062827 0.780735 0.077382
Si Si5 0.192425 0.780048 0.546856
Si Si6 0.316406 0.784492 0.340602
Si Si7 0.700124 0.795082 0.960202
Si Si8 0.528523 0.283536 0.636927
O O1 0.937705 0.278292 0.762916
O O2 0.868531 0.274599 0.538161
O O3 0.000000 0.274603 0.500000
O O4 0.935635 0.000000 0.606006
O O5 0.577714 0.500000 0.119051
O O6 0.624181 0.798372 0.026595
O O7 0.522085 0.788027 0.237475
O O8 0.500000 0.707956 0.000000
O O9 0.816117 0.280294 0.293397
O O10 0.745551 0.281027 0.071067
O O11 0.811963 0.000000 0.144556
O O12 0.872297 0.272762 0.023749
O O13 0.061943 0.000000 0.082063
O O14 0.000000 0.723970 0.000000
O O15 0.262780 0.721493 0.464905
O O16 0.191952 0.000000 0.548597
O O17 0.393751 0.752199 0.356315
O O18 0.309630 0.000000 0.336245
O O19 0.298967 0.712176 0.192242
O O20 0.724664 0.000000 0.936877
O O21 0.500000 0.219316 0.500000
O O22 0.522855 0.500000 0.643856
#
# Coordination Sequence:
#
# PCOD9148338 Si02
#       8
#     4   4   4   4   4   4   4   4
#     4   9  15  23  37  57  84 121 161 197 235 282
#     4  10  20  36  55  73  94 124 160 199 243 291
#     4   9  17  28  41  61  90 123 158 197 240 284
#     4   9  15  23  37  57  84 120 161 199 235 280
#     4   9  17  28  41  60  90 124 158 196 240 286
#     4  10  20  33  49  71  98 128 160 198 243 291
#     4  10  20  32  49  72  98 127 160 199 243 289
#     4  10  22  38  54  72  96 125 158 199 246 292
#
# _framework density 22.055225
#
# number of rings (size 3 to 8) (size 9 to 14) (size 15 to 20)
#    0.000    2.500    1.250    1.500    1.750    7.000 
#    0.000    0.000    0.000    0.000    0.000    0.000 
#    0.000    1.000    0.000    2.500    0.000    3.250 
#
# Total GULP energy -178659.111148 kJ/mol
# GULP energy per Si atom -5583.097223 kJ/mol
# Density = 2.200503 g / cm^3
# Si number density = 22.055225 Si / 1000 Ang^3
#
#
#
# Elastic Constant Matrix: (Units=GPa)
#
#
# Indices 1 2 3 4 5 6 
#
# 1 117.6704 -5.5078 87.3906 0.0000 0.7881 0.0000
# 2 -5.5078 68.7066 8.0328 0.0000 1.7320 0.0000
# 3 87.3906 8.0328 234.7766 0.0000 -4.1382 0.0000
# 4 0.0000 0.0000 0.0000 18.0420 0.0000 68.2045
# 5 0.7881 1.7320 -4.1382 0.0000 41.5244 0.0000
# 6 0.0000 0.0000 0.0000 68.2045 0.0000 -527.4675
#
#
#
# Elastic Compliance Matrix: (Units=1/GPa)
#
#
# Indices 1 2 3 4 5 6 
#
# 1 0.011915 0.001500 -0.004499 0.000000 -0.000737 0.000000
# 2 0.001500 0.014820 -0.001079 0.000000 -0.000754 0.000000
# 3 -0.004499 -0.001079 0.005984 0.000000 0.000727 0.000000
# 4 0.000000 0.000000 0.000000 0.037228 0.000000 0.004814
# 5 -0.000737 -0.000754 0.000727 0.000000 0.024200 0.000000
# 6 0.000000 0.000000 0.000000 0.004814 0.000000 -0.001273
#
#
# Mechanical properties :
#
#
# Convention : Reuss Voigt Hill
#
# Bulk Modulus (GPa) = 40.71256 66.77606 53.74431
# Shear Modulus (GPa) = 45.78002 -71.49766 -12.85882
#
# Velocity S-wave (km/s) = 4.56093 -5.69982 -2.41722
# Velocity P-wave (km/s) = 6.79967 3.60205 4.07804
#
# Compressibility (1/GPa) = 0.02456244
#
# Stress axis : x y z
#
# Youngs Moduli (GPa) = 83.92740 67.47641 167.11512
#
# Poissons Ratio (x) = -0.10120 0.75192
# Poissons Ratio (y) = -0.12587 0.18025
# Poissons Ratio (z) = 0.37763 0.07278
#
# Static dielectric constant tensor:
#      x y z
#    x 1.753280 0.000000 0.002990 
#    y 0.000000 1.862040 0.000000 
#    z 0.002990 0.000000 1.768060 
# 
# From -- ./inp_files/32178.got.cif
#   From: 2010.05.17/outbox.cif.g08.bks.cpg/sg10_17_cif.got.tgz:32178.got - 2010.06.03 11:33:40.
