data_PCOD9148579
_publ_section_title
;
Structure prediction by ZEFSAII (Michael W. Deem and Ramdas Pophale) SiO2 
 PCOD9148579
Probable space group: P 2/M
;
_chemical_formula_sum "Si O2"
_cell_formula_units_Z 28
_cell_length_a 23.774990
_cell_length_b 8.973274
_cell_length_c 19.262231
_cell_angle_alpha 90.000000
_cell_angle_beta 156.378957
_cell_angle_gamma 90.000000
_cell_volume 1646.575117
_symmetry_space_group_name_H-M "P 2/M"
_symmetry_group_IT_number 10
_symmetry_cell_setting 'monoclinic'
loop_
_space_group_symop_operation_xyz
x,y,z
-x,y,-z
-x,-y,-z
x,-y,z
loop_
_atom_site_type_symbol
_atom_site_label
_atom_site_fract_x
_atom_site_fract_y
_atom_site_fract_z
Si Si1 0.797301 0.678862 0.570258
Si Si2 0.835207 0.671297 0.335204
Si Si3 0.234239 0.177969 0.883423
Si Si4 0.873520 0.318373 0.808720
Si Si5 0.475634 0.321142 0.248591
Si Si6 0.085092 0.177965 0.435913
Si Si7 0.438317 0.318368 0.503116
O O1 0.812051 0.500000 0.579326
O O2 0.875696 0.724839 0.730231
O O3 0.631856 0.709364 0.395589
O O4 0.857885 0.758171 0.571510
O O5 0.790199 0.500000 0.290195
O O6 0.757476 0.752926 0.184300
O O7 0.830631 0.752914 0.403799
O O8 0.000000 0.673104 0.500000
O O9 0.079693 0.216727 0.739113
O O10 0.242668 0.000000 0.888507
O O11 0.355713 0.241814 0.069345
O O12 0.875509 0.500000 0.811333
O O13 0.723047 0.272669 0.669138
O O14 0.000000 0.265779 0.000000
O O15 0.455201 0.500000 0.222476
O O16 0.478831 0.275166 0.333368
O O17 0.096868 0.000000 0.451036
O O18 0.500000 0.265791 0.500000
O O19 0.439678 0.500000 0.503851
#
# Coordination Sequence:
#
# PCOD9148579 Si02
#       7
#     4   4   4   4   4   4   4
#     4   9  18  32  49  71 100 131 163 201 244 289
#     4   9  17  31  52  75  98 125 158 198 244 289
#     4  10  20  33  50  73 100 129 162 200 241 287
#     4   8  14  25  42  66  95 124 155 195 242 287
#     4   9  18  32  49  71 100 131 163 201 244 289
#     4  10  20  33  50  73 100 129 162 200 241 287
#     4   8  14  25  42  66  95 124 155 195 242 287
#
# _framework density 17.004994
#
# number of rings (size 3 to 8) (size 9 to 14) (size 15 to 20)
#    0.000    3.000    0.000    3.000    0.000    5.143 
#    0.000    3.571    0.000    5.143    0.000    0.000 
#    0.000    0.000    0.000    0.000    0.000    0.000 
#
# Total GULP energy -156024.984109 kJ/mol
# GULP energy per Si atom -5572.320861 kJ/mol
# Density = 1.696629 g / cm^3
# Si number density = 17.004994 Si / 1000 Ang^3
#
#
#
# Elastic Constant Matrix: (Units=GPa)
#
#
# Indices 1 2 3 4 5 6 
#
# 1 142.2918 48.8850 80.2641 0.0000 -39.7695 0.0000
# 2 48.8850 41.4010 51.7666 0.0000 -11.0115 0.0000
# 3 80.2641 51.7666 161.9788 0.0000 -35.5792 0.0000
# 4 0.0000 0.0000 0.0000 2.0332 0.0000 15.8216
# 5 -39.7695 -11.0115 -35.5792 0.0000 20.2406 0.0000
# 6 0.0000 0.0000 0.0000 15.8216 0.0000 6.1502
#
#
#
# Elastic Compliance Matrix: (Units=1/GPa)
#
#
# Indices 1 2 3 4 5 6 
#
# 1 0.024917 -0.023941 0.005208 0.000000 0.045088 0.000000
# 2 -0.023941 0.063250 -0.018122 0.000000 -0.044485 0.000000
# 3 0.005208 -0.018122 0.015421 0.000000 0.027481 0.000000
# 4 0.000000 0.000000 0.000000 -0.025861 0.000000 0.066528
# 5 0.045088 -0.044485 0.027481 0.000000 0.162102 0.000000
# 6 0.000000 0.000000 0.000000 0.066528 0.000000 -0.008549
#
#
# Mechanical properties :
#
#
# Convention : Reuss Voigt Hill
#
# Bulk Modulus (GPa) = 33.46954 78.61143 56.04048
# Shear Modulus (GPa) = 15.87563 16.66853 16.27208
#
# Velocity S-wave (km/s) = 3.05878 3.13423 3.09674
# Velocity P-wave (km/s) = 5.67448 7.70887 6.76855
#
# Compressibility (1/GPa) = 0.02987792
#
# Stress axis : x y z
#
# Youngs Moduli (GPa) = 40.13372 15.81023 64.84721
#
# Poissons Ratio (x) = 0.37851 -0.33773
# Poissons Ratio (y) = 0.96084 1.17517
# Poissons Ratio (z) = -0.20902 0.28652
#
# Static dielectric constant tensor:
#      x y z
#    x 1.563970 0.000000 -0.002760 
#    y 0.000000 1.564370 0.000000 
#    z -0.002760 0.000000 1.564690 
# 
# From -- ./inp_files/70314.got.cif
#   From: 2010.05.17/outbox.cif.g08.bks.cpg/sg10_36_cif.got.tgz:70314.got - 2010.06.03 11:33:40.
