data_PCOD9148472
_publ_section_title
;
Structure prediction by ZEFSAII (Michael W. Deem and Ramdas Pophale) SiO2 
 PCOD9148472
Probable space group: P 2/M
;
_chemical_formula_sum "Si O2"
_cell_formula_units_Z 28
_cell_length_a 16.633232
_cell_length_b 10.469325
_cell_length_c 10.089025
_cell_angle_alpha 90.000000
_cell_angle_beta 52.851298
_cell_angle_gamma 90.000000
_cell_volume 1400.365760
_symmetry_space_group_name_H-M "P 2/M"
_symmetry_group_IT_number 10
_symmetry_cell_setting 'monoclinic'
loop_
_space_group_symop_operation_xyz
x,y,z
-x,y,-z
-x,-y,-z
x,-y,z
loop_
_atom_site_type_symbol
_atom_site_label
_atom_site_fract_x
_atom_site_fract_y
_atom_site_fract_z
Si Si1 0.422770 0.000000 0.458837
Si Si2 0.613903 0.347699 0.112932
Si Si3 0.100780 0.147886 0.810207
Si Si4 0.393335 0.718033 0.431029
Si Si5 0.748358 0.355302 0.215061
Si Si6 0.095917 0.848952 0.498542
Si Si7 0.584298 0.000000 0.811539
Si Si8 0.695029 0.736689 0.749250
O O1 0.500000 0.000000 0.500000
O O2 0.366818 0.135528 0.503108
O O3 0.476906 0.000000 0.263807
O O4 0.601685 0.500000 0.134210
O O5 0.510723 0.288516 0.274043
O O6 0.708843 0.311265 0.110665
O O7 0.640094 0.313361 0.935119
O O8 0.175972 0.255473 0.792228
O O9 0.080793 0.169897 0.672475
O O10 0.138624 0.000000 0.784146
O O11 0.000000 0.154875 0.000000
O O12 0.353511 0.640523 0.595019
O O13 0.334921 0.669083 0.358473
O O14 0.789677 0.500000 0.166004
O O15 0.185970 0.757245 0.360698
O O16 0.000000 0.826795 0.500000
O O17 0.122607 0.000000 0.456314
O O18 0.651115 0.123434 0.762729
O O19 0.500000 0.000000 0.000000
#
# Coordination Sequence:
#
# PCOD9148472 Si02
#       8
#     2   4   4   4   4   4   2   4
#     4  10  20  32  56  87 120 157 202 262 306 357
#     4  11  25  41  58  87 130 170 214 259 301 375
#     4  10  23  44  70  97 127 159 209 268 322 380
#     4  11  22  39  62  90 127 171 213 255 312 375
#     4  11  24  42  65  92 128 172 212 258 319 378
#     4  10  21  40  67  94 126 160 201 260 328 383
#     4  10  20  34  55  85 128 164 199 248 313 368
#     4  11  21  38  60  89 123 163 205 260 310 371
#
# _framework density 19.994776999999999
#
# number of rings (size 3 to 8) (size 9 to 14) (size 15 to 20)
#    0.000    1.429    2.143    3.857    3.000    3.143 
#    2.571    0.000    0.000    0.857    0.000    0.000 
#    0.000    0.000    0.000    0.000    0.000    0.000 
#
# Total GULP energy -156097.475160 kJ/mol
# GULP energy per Si atom -5574.909827 kJ/mol
# Density = 1.994927 g / cm^3
# Si number density = 19.994777 Si / 1000 Ang^3
#
#
#
# Elastic Constant Matrix: (Units=GPa)
#
#
# Indices 1 2 3 4 5 6 
#
# 1 122.9260 38.6143 31.0898 0.0000 11.8155 0.0000
# 2 38.6143 76.5301 13.6510 0.0000 2.0650 0.0000
# 3 31.0898 13.6510 77.1028 0.0000 5.0583 0.0000
# 4 0.0000 0.0000 0.0000 75.9589 0.0000 52.1741
# 5 11.8155 2.0650 5.0583 0.0000 36.5661 0.0000
# 6 0.0000 0.0000 0.0000 52.1741 0.0000 76.6228
#
#
#
# Elastic Compliance Matrix: (Units=1/GPa)
#
#
# Indices 1 2 3 4 5 6 
#
# 1 0.010726 -0.004748 -0.003304 0.000000 -0.002741 0.000000
# 2 -0.004748 0.015602 -0.000899 0.000000 0.000778 0.000000
# 3 -0.003304 -0.000899 0.014520 0.000000 -0.000890 0.000000
# 4 0.000000 0.000000 0.000000 0.024733 0.000000 -0.016841
# 5 -0.002741 0.000778 -0.000890 0.000000 0.028313 0.000000
# 6 0.000000 0.000000 0.000000 -0.016841 0.000000 0.024518
#
#
# Mechanical properties :
#
#
# Convention : Reuss Voigt Hill
#
# Bulk Modulus (GPa) = 43.58370 49.25212 46.41791
# Shear Modulus (GPa) = 34.73141 50.70981 42.72061
#
# Velocity S-wave (km/s) = 4.17228 5.04149 4.62734
# Velocity P-wave (km/s) = 6.71234 7.65341 7.19827
#
# Compressibility (1/GPa) = 0.02294436
#
# Stress axis : x y z
#
# Youngs Moduli (GPa) = 93.23368 64.09447 68.87245
#
# Poissons Ratio (x) = 0.30435 0.22758
# Poissons Ratio (y) = 0.44272 0.06189
# Poissons Ratio (z) = 0.30808 0.05760
#
# Static dielectric constant tensor:
#      x y z
#    x 1.717640 0.000000 0.014440 
#    y 0.000000 1.745290 0.000000 
#    z 0.014440 0.000000 1.685940 
# 
# From -- ./inp_files/28521.got.cif
#   From: 2010.05.17/outbox.cif.g08.bks.cpg/sg10_15_cif.got.tgz:28521.got - 2010.06.03 11:33:40.
