data_PCOD9148901
_publ_section_title
;
Structure prediction by ZEFSAII (Michael W. Deem and Ramdas Pophale) SiO2 
 PCOD9148901
Probable space group: P 2/M
;
_chemical_formula_sum "Si O2"
_cell_formula_units_Z 32
_cell_length_a 8.421165
_cell_length_b 14.050428
_cell_length_c 16.046095
_cell_angle_alpha 90.000000
_cell_angle_beta 62.547186
_cell_angle_gamma 90.000000
_cell_volume 1684.790924
_symmetry_space_group_name_H-M "P 2/M"
_symmetry_group_IT_number 10
_symmetry_cell_setting 'monoclinic'
loop_
_space_group_symop_operation_xyz
x,y,z
-x,y,-z
-x,-y,-z
x,-y,z
loop_
_atom_site_type_symbol
_atom_site_label
_atom_site_fract_x
_atom_site_fract_y
_atom_site_fract_z
Si Si1 0.439715 0.112103 0.381887
Si Si2 0.798024 0.887232 0.406189
Si Si3 0.943997 0.391508 0.876713
Si Si4 0.106379 0.604768 0.543724
Si Si5 0.702176 0.608212 0.093583
Si Si6 0.955155 0.276326 0.709528
Si Si7 0.504064 0.393594 0.407287
Si Si8 0.557282 0.720655 0.738560
O O1 0.280126 0.143009 0.483992
O O2 0.627409 0.124655 0.385835
O O3 0.445030 0.172808 0.296761
O O4 0.417102 0.000000 0.372545
O O5 0.964930 0.827068 0.331415
O O6 0.837701 0.000000 0.401014
O O7 0.935277 0.500000 0.843625
O O8 0.940448 0.310766 0.807621
O O9 0.126238 0.385707 0.886473
O O10 0.782251 0.381360 0.981735
O O11 0.025535 0.500000 0.577230
O O12 0.292612 0.592407 0.454504
O O13 0.000000 0.662777 0.500000
O O14 0.105942 0.656465 0.631008
O O15 0.627943 0.500000 0.120336
O O16 0.559250 0.687003 0.154789
O O17 0.765041 0.297533 0.711333
O O18 0.500000 0.345826 0.500000
O O19 0.589467 0.500000 0.391677
O O20 0.537175 0.337033 0.315446
#
# Coordination Sequence:
#
# PCOD9148901 Si02
#       8
#     4   4   4   4   4   4   4   4
#     4   9  20  38  58  81 109 145 189 233 273 321
#     4   9  20  38  59  81 109 146 188 231 273 325
#     4   9  20  39  60  82 109 145 189 235 277 322
#     4  10  20  34  46  67 110 148 175 211 257 318
#     4   9  20  39  60  82 109 144 191 236 273 322
#     4  12  23  33  53  83 113 145 181 221 280 337
#     4  10  22  34  46  71 106 144 182 218 259 312
#     4  12  23  33  54  82 111 145 182 224 276 336
#
# _framework density 18.993454
#
# number of rings (size 3 to 8) (size 9 to 14) (size 15 to 20)
#    0.000    2.000    1.250    3.750    5.250    2.500 
#    0.000    2.500    0.000    0.750    0.000    5.250 
#    0.000    0.000    0.000    0.000    0.000    0.000 
#
# Total GULP energy -178251.402665 kJ/mol
# GULP energy per Si atom -5570.356333 kJ/mol
# Density = 1.895022 g / cm^3
# Si number density = 18.993454 Si / 1000 Ang^3
#
#
#
# Elastic Constant Matrix: (Units=GPa)
#
#
# Indices 1 2 3 4 5 6 
#
# 1 20.9119 14.7865 19.6807 0.0000 -5.7040 0.0000
# 2 14.7865 84.5742 49.2099 0.0000 -5.4085 0.0000
# 3 19.6807 49.2099 93.0972 0.0000 -9.7373 0.0000
# 4 0.0000 0.0000 0.0000 32.5202 0.0000 -3.7529
# 5 -5.7040 -5.4085 -9.7373 0.0000 24.1547 0.0000
# 6 0.0000 0.0000 0.0000 -3.7529 0.0000 13.4199
#
#
#
# Elastic Compliance Matrix: (Units=1/GPa)
#
#
# Indices 1 2 3 4 5 6 
#
# 1 0.063072 -0.004677 -0.009827 0.000000 0.009885 0.000000
# 2 -0.004677 0.017423 -0.008278 0.000000 -0.000540 0.000000
# 3 -0.009827 -0.008278 0.017495 0.000000 0.002879 0.000000
# 4 0.000000 0.000000 0.000000 0.031776 0.000000 0.008886
# 5 0.009885 -0.000540 0.002879 0.000000 0.044774 0.000000
# 6 0.000000 0.000000 0.000000 0.008886 0.000000 0.077001
#
#
# Mechanical properties :
#
#
# Convention : Reuss Voigt Hill
#
# Bulk Modulus (GPa) = 19.07411 40.65970 29.86691
# Shear Modulus (GPa) = 15.89423 21.67940 18.78681
#
# Velocity S-wave (km/s) = 2.89593 3.38215 3.14844
# Velocity P-wave (km/s) = 4.60936 6.05851 5.38292
#
# Compressibility (1/GPa) = 0.05242708
#
# Stress axis : x y z
#
# Youngs Moduli (GPa) = 15.85500 57.39398 57.15788
#
# Poissons Ratio (x) = 0.26843 0.56170
# Poissons Ratio (y) = 0.07415 0.47313
# Poissons Ratio (z) = 0.15581 0.47508
#
# Static dielectric constant tensor:
#      x y z
#    x 1.779620 0.000000 0.008120 
#    y 0.000000 1.721470 0.000000 
#    z 0.008120 0.000000 1.669950 
# 
# From -- ./inp_files/61847.got.cif
#   From: 2010.05.17/outbox.cif.g08.bks.cpg/sg10_31_cif.got.tgz:61847.got - 2010.06.03 11:33:40.
