data_PCOD9148231
_publ_section_title
;
Structure prediction by ZEFSAII (Michael W. Deem and Ramdas Pophale) SiO2 
 PCOD9148231
Probable space group: P 2/M
;
_chemical_formula_sum "Si O2"
_cell_formula_units_Z 28
_cell_length_a 9.439331
_cell_length_b 14.011248
_cell_length_c 13.990795
_cell_angle_alpha 90.000000
_cell_angle_beta 113.407500
_cell_angle_gamma 90.000000
_cell_volume 1698.096652
_symmetry_space_group_name_H-M "P 2/M"
_symmetry_group_IT_number 10
_symmetry_cell_setting 'monoclinic'
loop_
_space_group_symop_operation_xyz
x,y,z
-x,y,-z
-x,-y,-z
x,-y,z
loop_
_atom_site_type_symbol
_atom_site_label
_atom_site_fract_x
_atom_site_fract_y
_atom_site_fract_z
Si Si1 0.504361 0.289679 0.795631
Si Si2 0.195219 0.709286 0.834446
Si Si3 0.064041 0.891651 0.871532
Si Si4 0.785495 0.611478 0.954079
Si Si5 0.554957 0.385632 0.622201
Si Si6 0.104329 0.386751 0.220773
Si Si7 0.739980 0.111508 0.878642
O O1 0.350927 0.293060 0.817095
O O2 0.616195 0.373242 0.864549
O O3 0.470950 0.319670 0.677786
O O4 0.605691 0.191273 0.833102
O O5 0.134960 0.816694 0.819494
O O6 0.046285 0.648163 0.764829
O O7 0.217695 0.671743 0.949605
O O8 0.884711 0.869788 0.846537
O O9 0.072018 0.000000 0.841024
O O10 0.170926 0.884305 0.995443
O O11 0.815817 0.500000 0.982689
O O12 0.889883 0.644100 0.890679
O O13 0.500000 0.368741 0.500000
O O14 0.536344 0.500000 0.636536
O O15 0.735620 0.360394 0.686226
O O16 0.101301 0.500000 0.214668
O O17 0.689122 0.000000 0.853026
#
# Coordination Sequence:
#
# PCOD9148231 Si02
#       7
#     4   4   4   4   4   4   4
#     4  11  21  32  48  75 103 131 164 206 254 297
#     4  12  21  28  46  75 108 136 159 200 250 294
#     4   9  18  31  48  69  97 138 178 205 233 281
#     4  10  20  32  45  65 100 142 173 195 229 288
#     4   9  19  38  59  73  92 128 172 215 253 294
#     4   9  19  33  50  71  95 131 174 204 237 294
#     4   9  18  33  51  70  97 136 177 208 236 284
#
# _framework density 16.489049999999999
#
# number of rings (size 3 to 8) (size 9 to 14) (size 15 to 20)
#    0.000    2.143    1.429    5.143    2.000    4.571 
#    0.000    2.143    0.000    3.000    0.000    0.000 
#    0.000    4.571    0.000    0.000    0.000    0.000 
#
# Total GULP energy -155933.294545 kJ/mol
# GULP energy per Si atom -5569.046234 kJ/mol
# Density = 1.645152 g / cm^3
# Si number density = 16.489050 Si / 1000 Ang^3
#
#
#
# Elastic Constant Matrix: (Units=GPa)
#
#
# Indices 1 2 3 4 5 6 
#
# 1 134.0088 41.3514 39.9199 0.0000 -0.0352 0.0000
# 2 41.3514 77.1834 29.4815 0.0000 -6.2574 0.0000
# 3 39.9199 29.4815 74.9881 0.0000 0.8281 0.0000
# 4 0.0000 0.0000 0.0000 15.8041 0.0000 5.3578
# 5 -0.0352 -6.2574 0.8281 0.0000 8.9328 0.0000
# 6 0.0000 0.0000 0.0000 5.3578 0.0000 3.1732
#
#
#
# Elastic Compliance Matrix: (Units=1/GPa)
#
#
# Indices 1 2 3 4 5 6 
#
# 1 0.009786 -0.004077 -0.003579 0.000000 -0.002486 0.000000
# 2 -0.004077 0.018163 -0.005116 0.000000 0.013182 0.000000
# 3 -0.003579 -0.005116 0.017310 0.000000 -0.005202 0.000000
# 4 0.000000 0.000000 0.000000 0.147974 0.000000 -0.249844
# 5 -0.002486 0.013182 -0.005202 0.000000 0.121654 0.000000
# 6 0.000000 0.000000 0.000000 -0.249844 0.000000 0.736981
#
#
# Mechanical properties :
#
#
# Convention : Reuss Voigt Hill
#
# Bulk Modulus (GPa) = 50.72484 56.40953 53.56719
# Shear Modulus (GPa) = 4.61262 17.27720 10.94491
#
# Velocity S-wave (km/s) = 1.67435 3.24048 2.57916
# Velocity P-wave (km/s) = 5.87941 6.94878 6.43634
#
# Compressibility (1/GPa) = 0.01971421
#
# Stress axis : x y z
#
# Youngs Moduli (GPa) = 102.18844 55.05598 57.77158
#
# Poissons Ratio (x) = 0.22448 0.20677
# Poissons Ratio (y) = 0.41665 0.29556
# Poissons Ratio (z) = 0.36574 0.28166
#
# Static dielectric constant tensor:
#      x y z
#    x 1.575220 0.000000 0.008960 
#    y 0.000000 1.584570 0.000000 
#    z 0.008960 0.000000 1.570800 
# 
# From -- ./inp_files/61619.got.cif
#   From: 2010.05.17/outbox.cif.g08.bks.cpg/sg10_31_cif.got.tgz:61619.got - 2010.06.03 11:33:40.
