data_PCOD9148758
_publ_section_title
;
Structure prediction by ZEFSAII (Michael W. Deem and Ramdas Pophale) SiO2 
 PCOD9148758
Probable space group: P 2/M
;
_chemical_formula_sum "Si O2"
_cell_formula_units_Z 32
_cell_length_a 20.986007
_cell_length_b 9.312784
_cell_length_c 9.414722
_cell_angle_alpha 90.000000
_cell_angle_beta 85.953708
_cell_angle_gamma 90.000000
_cell_volume 1835.409415
_symmetry_space_group_name_H-M "P 2/M"
_symmetry_group_IT_number 10
_symmetry_cell_setting 'monoclinic'
loop_
_space_group_symop_operation_xyz
x,y,z
-x,y,-z
-x,-y,-z
x,-y,z
loop_
_atom_site_type_symbol
_atom_site_label
_atom_site_fract_x
_atom_site_fract_y
_atom_site_fract_z
Si Si1 0.628279 0.327409 0.797808
Si Si2 0.436773 0.665083 0.909714
Si Si3 0.509539 0.171670 0.666276
Si Si4 0.880134 0.166607 0.539342
Si Si5 0.900858 0.669571 0.248330
Si Si6 0.970090 0.165790 0.791389
Si Si7 0.242315 0.830788 0.241368
Si Si8 0.153992 0.832290 0.991539
O O1 0.622710 0.500000 0.785169
O O2 0.572993 0.250437 0.715080
O O3 0.696810 0.267561 0.742654
O O4 0.616917 0.291966 0.967366
O O5 0.426804 0.500000 0.865142
O O6 0.452438 0.765024 0.773532
O O7 0.500000 0.666347 0.000000
O O8 0.500000 0.199452 0.500000
O O9 0.514515 0.000000 0.686127
O O10 0.886364 0.269929 0.406200
O O11 0.937574 0.186544 0.642635
O O12 0.814315 0.188242 0.635498
O O13 0.882581 0.000000 0.491916
O O14 0.900702 0.500000 0.244946
O O15 0.970695 0.730811 0.197269
O O16 0.850741 0.734223 0.144557
O O17 0.912401 0.184678 0.910991
O O18 0.992131 0.000000 0.798672
O O19 0.210003 0.799032 0.093935
O O20 0.260056 0.000000 0.240338
O O21 0.158903 0.000000 0.951344
#
# Coordination Sequence:
#
# PCOD9148758 Si02
#       8
#     4   4   4   4   4   4   4   4
#     4  10  20  34  55  80 106 138 170 203 251 309
#     4   8  16  31  50  75 105 136 169 201 242 297
#     4  10  20  33  52  81 112 139 172 213 250 284
#     4   9  19  36  55  73  97 132 172 213 255 303
#     4  12  23  31  46  76 107 132 162 206 261 313
#     4   9  18  34  55  74  94 128 172 211 255 313
#     4   9  19  37  59  78  95 126 176 220 251 293
#     4   9  19  36  55  73  96 130 170 212 257 303
#
# _framework density 17.434801
#
# number of rings (size 3 to 8) (size 9 to 14) (size 15 to 20)
#    0.000    2.500    0.000    4.875    0.000    8.750 
#    0.000    3.750    0.000    1.500    0.000    0.000 
#    0.000    0.000    0.000    0.000    0.000    0.000 
#
# Total GULP energy -178510.540231 kJ/mol
# GULP energy per Si atom -5578.454382 kJ/mol
# Density = 1.739512 g / cm^3
# Si number density = 17.434801 Si / 1000 Ang^3
#
#
#
# Elastic Constant Matrix: (Units=GPa)
#
#
# Indices 1 2 3 4 5 6 
#
# 1 52.5909 33.2162 11.1660 0.0000 6.9393 0.0000
# 2 33.2162 89.7414 59.7784 0.0000 16.2600 0.0000
# 3 11.1660 59.7784 82.0946 0.0000 16.2638 0.0000
# 4 0.0000 0.0000 0.0000 -7.8617 0.0000 3.4245
# 5 6.9393 16.2600 16.2638 0.0000 9.7433 0.0000
# 6 0.0000 0.0000 0.0000 3.4245 0.0000 -10.9658
#
#
#
# Elastic Compliance Matrix: (Units=1/GPa)
#
#
# Indices 1 2 3 4 5 6 
#
# 1 0.027348 -0.013847 0.008432 0.000000 -0.010445 0.000000
# 2 -0.013847 0.030148 -0.018012 0.000000 -0.010384 0.000000
# 3 0.008432 -0.018012 0.028962 0.000000 -0.024291 0.000000
# 4 0.000000 0.000000 0.000000 -0.147225 0.000000 -0.045976
# 5 -0.010445 -0.010384 -0.024291 0.000000 0.167948 0.000000
# 6 0.000000 0.000000 0.000000 -0.045976 0.000000 -0.105550
#
#
# Mechanical properties :
#
#
# Convention : Reuss Voigt Hill
#
# Bulk Modulus (GPa) = 25.24943 48.08312 36.66627
# Shear Modulus (GPa) = 81.05484 6.20091 43.62787
#
# Velocity S-wave (km/s) = 6.82577 1.88795 5.00777
# Velocity P-wave (km/s) = 8.75415 5.69132 7.38330
#
# Compressibility (1/GPa) = 0.03960485
#
# Stress axis : x y z
#
# Youngs Moduli (GPa) = 36.56550 33.16973 34.52773
#
# Poissons Ratio (x) = 0.45930 -0.29115
# Poissons Ratio (y) = 0.50632 0.62192
# Poissons Ratio (z) = -0.30833 0.59746
#
# Static dielectric constant tensor:
#      x y z
#    x 1.594370 0.000000 -0.015950 
#    y 0.000000 1.572560 0.000000 
#    z -0.015950 0.000000 1.605370 
# 
# From -- ./inp_files/35686.got.cif
#   From: 2010.05.17/outbox.cif.g08.bks.cpg/sg10_18_cif.got.tgz:35686.got - 2010.06.03 11:33:40.
