data_PCOD9148752
_publ_section_title
;
Structure prediction by ZEFSAII (Michael W. Deem and Ramdas Pophale) SiO2 
 PCOD9148752
Probable space group: P 2/M
;
_chemical_formula_sum "Si O2"
_cell_formula_units_Z 32
_cell_length_a 25.732192
_cell_length_b 7.963786
_cell_length_c 25.637104
_cell_angle_alpha 90.000000
_cell_angle_beta 162.803243
_cell_angle_gamma 90.000000
_cell_volume 1553.277528
_symmetry_space_group_name_H-M "P 2/M"
_symmetry_group_IT_number 10
_symmetry_cell_setting 'monoclinic'
loop_
_space_group_symop_operation_xyz
x,y,z
-x,y,-z
-x,-y,-z
x,-y,z
loop_
_atom_site_type_symbol
_atom_site_label
_atom_site_fract_x
_atom_site_fract_y
_atom_site_fract_z
Si Si1 0.585813 0.805346 0.837880
Si Si2 0.194173 0.197490 0.749482
Si Si3 0.310921 0.299832 0.177239
Si Si4 0.847411 0.305750 0.176463
Si Si5 0.770190 0.802120 0.328145
Si Si6 0.972342 0.294512 0.913285
Si Si7 0.581558 0.705429 0.522573
Si Si8 0.747196 0.795858 0.419723
O O1 0.653933 0.730334 0.849424
O O2 0.401262 0.734198 0.682845
O O3 0.554127 0.000000 0.796875
O O4 0.730278 0.789061 0.021909
O O5 0.228913 0.279518 0.838350
O O6 0.272590 0.267181 0.770365
O O7 0.982234 0.206606 0.538488
O O8 0.239173 0.000000 0.796994
O O9 0.306408 0.500000 0.180383
O O10 0.465250 0.235066 0.362800
O O11 0.127498 0.234794 0.024538
O O12 0.840557 0.500000 0.156153
O O13 0.052428 0.251206 0.374462
O O14 0.701471 0.733208 0.317091
O O15 0.724079 0.000000 0.281476
O O16 0.972855 0.500000 0.913748
O O17 0.781923 0.238819 0.711938
O O18 0.000000 0.244539 0.000000
O O19 0.500000 0.755449 0.500000
O O20 0.581120 0.500000 0.521942
O O21 0.741512 0.000000 0.412164
#
# Coordination Sequence:
#
# PCOD9148752 Si02
#       8
#     4   4   4   4   4   4   4   4
#     4  11  24  41  59  78 108 151 198 239 278 331
#     4   8  13  26  50  78 108 141 180 227 278 337
#     4  10  20  33  52  80 111 140 178 230 276 320
#     4  11  22  36  57  83 113 147 184 233 290 344
#     4   7  11  24  50  79 103 134 183 234 275 324
#     4   9  15  26  48  80 113 142 173 210 260 317
#     4   9  15  26  48  79 110 138 169 212 264 316
#     4   9  19  38  61  81 105 146 196 240 280 329
#
# _framework density 20.601597999999999
#
# number of rings (size 3 to 8) (size 9 to 14) (size 15 to 20)
#    0.000    2.750    1.250    3.000    0.000    2.000 
#    0.000    6.875    0.000    4.500    0.000    0.000 
#    0.000    0.000    0.000    0.000    0.000    0.000 
#
# Total GULP energy -178458.519559 kJ/mol
# GULP energy per Si atom -5576.828736 kJ/mol
# Density = 2.055471 g / cm^3
# Si number density = 20.601598 Si / 1000 Ang^3
#
#
#
# Elastic Constant Matrix: (Units=GPa)
#
#
# Indices 1 2 3 4 5 6 
#
# 1 15255.8815 -40.5436 9209.4439 0.0000 3969.5994 0.0000
# 2 -40.5436 15.4019 -26.7037 0.0000 -3.2937 0.0000
# 3 9209.4439 -26.7037 5646.6029 0.0000 2403.8705 0.0000
# 4 0.0000 0.0000 0.0000 -5.0173 0.0000 2.6530
# 5 3969.5994 -3.2937 2403.8705 0.0000 1068.9952 0.0000
# 6 0.0000 0.0000 0.0000 2.6530 0.0000 18.9613
#
#
#
# Elastic Compliance Matrix: (Units=1/GPa)
#
#
# Indices 1 2 3 4 5 6 
#
# 1 0.005534 0.002260 -0.006317 0.000000 -0.006339 0.000000
# 2 0.002260 0.073144 0.003203 0.000000 -0.015372 0.000000
# 3 -0.006317 0.003203 0.011823 0.000000 -0.003120 0.000000
# 4 0.000000 0.000000 0.000000 -0.185581 0.000000 0.025965
# 5 -0.006339 -0.015372 -0.003120 0.000000 0.031444 0.000000
# 6 0.000000 0.000000 0.000000 0.025965 0.000000 0.049106
#
#
# Mechanical properties :
#
#
# Convention : Reuss Voigt Hill
#
# Bulk Modulus (GPa) = 11.26187 4355.80882 2183.53535
# Shear Modulus (GPa) = 298.10118 1001.63383 649.86750
#
# Velocity S-wave (km/s) = 12.04210 22.07369 17.78004
# Velocity P-wave (km/s) = 14.10064 52.61711 38.51875
#
# Compressibility (1/GPa) = 0.08879521
#
# Stress axis : x y z
#
# Youngs Moduli (GPa) = 180.69980 13.67167 84.58297
#
# Poissons Ratio (x) = -0.03090 0.53427
# Poissons Ratio (y) = -0.40847 -0.27095
# Poissons Ratio (z) = 1.14140 -0.04379
#
# Static dielectric constant tensor:
#      x y z
#    x 1.741260 0.000000 0.016590 
#    y 0.000000 1.747190 0.000000 
#    z 0.016590 0.000000 1.725150 
# 
# From -- ./inp_files/90673.got.cif
#   From: 2010.05.17/outbox.cif.g08.bks.cpg/sg10_46_cif.got.tgz:90673.got - 2010.06.03 11:33:40.
