data_PCOD9148270
_publ_section_title
;
Structure prediction by ZEFSAII (Michael W. Deem and Ramdas Pophale) SiO2 
 PCOD9148270
Probable space group: P 2/M
;
_chemical_formula_sum "Si O2"
_cell_formula_units_Z 32
_cell_length_a 23.853989
_cell_length_b 8.900270
_cell_length_c 11.413907
_cell_angle_alpha 90.000000
_cell_angle_beta 54.193261
_cell_angle_gamma 90.000000
_cell_volume 1965.245041
_symmetry_space_group_name_H-M "P 2/M"
_symmetry_group_IT_number 10
_symmetry_cell_setting 'monoclinic'
loop_
_space_group_symop_operation_xyz
x,y,z
-x,y,-z
-x,-y,-z
x,-y,z
loop_
_atom_site_type_symbol
_atom_site_label
_atom_site_fract_x
_atom_site_fract_y
_atom_site_fract_z
Si Si1 0.991055 0.172346 0.368962
Si Si2 0.702803 0.319508 0.805610
Si Si3 0.130596 0.672020 0.170165
Si Si4 0.272810 0.821085 0.968782
Si Si5 0.429057 0.178860 0.153535
Si Si6 0.468633 0.179934 0.372503
Si Si7 0.397790 0.680370 0.683586
Si Si8 0.148084 0.672493 0.432263
O O1 0.914359 0.232834 0.438244
O O2 0.000000 0.179414 0.500000
O O3 0.053932 0.267678 0.239294
O O4 0.998142 0.000000 0.325386
O O5 0.705079 0.500000 0.820151
O O6 0.706556 0.239889 0.927354
O O7 0.634736 0.269275 0.821361
O O8 0.772849 0.276604 0.649375
O O9 0.139076 0.500000 0.122179
O O10 0.193323 0.772445 0.046705
O O11 0.138279 0.674707 0.302747
O O12 0.280266 0.000000 0.955490
O O13 0.324267 0.741648 0.815349
O O14 0.440611 0.206552 0.276862
O O15 0.416789 0.000000 0.151494
O O16 0.500000 0.216938 0.000000
O O17 0.543707 0.254480 0.299945
O O18 0.420122 0.253186 0.530634
O O19 0.474117 0.000000 0.384216
O O20 0.400015 0.500000 0.679980
O O21 0.141189 0.500000 0.478974
#
# Coordination Sequence:
#
# PCOD9148270 Si02
#       8
#     4   4   4   4   4   4   4   4
#     4   9  15  22  35  56  81 114 153 188 224 268
#     4  10  20  32  47  68  94 124 159 196 235 280
#     4   9  16  26  39  58  86 118 152 189 229 274
#     4  11  20  31  47  67  94 125 158 195 236 281
#     4  10  21  35  51  71  96 126 157 190 231 278
#     4  10  20  35  53  73  96 123 156 192 233 278
#     4  11  21  34  52  72  94 121 156 195 236 280
#     4   8  15  26  38  55  82 117 152 187 227 270
#
# _framework density 16.282955999999999
#
# number of rings (size 3 to 8) (size 9 to 14) (size 15 to 20)
#    0.000    2.250    0.000    6.000    0.000    7.250 
#    0.000    0.000    0.000    0.000    0.000    0.000 
#    0.000    1.000    0.000   10.500    0.000    8.125 
#
# Total GULP energy -178446.261381 kJ/mol
# GULP energy per Si atom -5576.445668 kJ/mol
# Density = 1.624590 g / cm^3
# Si number density = 16.282956 Si / 1000 Ang^3
#
#
#
# Elastic Constant Matrix: (Units=GPa)
#
#
# Indices 1 2 3 4 5 6 
#
# 1 59.1669 35.8263 37.9486 0.0000 -23.4290 0.0000
# 2 35.8263 106.6784 43.6946 0.0000 -16.1139 0.0000
# 3 37.9486 43.6946 71.5827 0.0000 -27.4266 0.0000
# 4 0.0000 0.0000 0.0000 23.0330 0.0000 -10.9238
# 5 -23.4290 -16.1139 -27.4266 0.0000 24.1618 0.0000
# 6 0.0000 0.0000 0.0000 -10.9238 0.0000 18.5197
#
#
#
# Elastic Compliance Matrix: (Units=1/GPa)
#
#
# Indices 1 2 3 4 5 6 
#
# 1 0.032128 -0.005251 -0.005721 0.000000 0.021158 0.000000
# 2 -0.005251 0.013362 -0.006917 0.000000 -0.004032 0.000000
# 3 -0.005721 -0.006917 0.030672 0.000000 0.024656 0.000000
# 4 0.000000 0.000000 0.000000 0.060279 0.000000 0.035555
# 5 0.021158 -0.004032 0.024656 0.000000 0.087202 0.000000
# 6 0.000000 0.000000 0.000000 0.035555 0.000000 0.074969
#
#
# Mechanical properties :
#
#
# Convention : Reuss Voigt Hill
#
# Bulk Modulus (GPa) = 24.76226 52.48522 38.62374
# Shear Modulus (GPa) = 14.37405 21.14013 17.75709
#
# Velocity S-wave (km/s) = 2.97436 3.60710 3.30590
# Velocity P-wave (km/s) = 5.19964 7.04638 6.19224
#
# Compressibility (1/GPa) = 0.04038403
#
# Stress axis : x y z
#
# Youngs Moduli (GPa) = 31.12551 74.84172 32.60335
#
# Poissons Ratio (x) = 0.39296 0.18651
# Poissons Ratio (y) = 0.16343 0.22553
# Poissons Ratio (z) = 0.17805 0.51771
#
# Static dielectric constant tensor:
#      x y z
#    x 1.536060 0.000000 -0.020140 
#    y 0.000000 1.545880 0.000000 
#    z -0.020140 0.000000 1.543510 
# 
# From -- ./inp_files/55303.got.cif
#   From: 2010.05.17/outbox.cif.g08.bks.cpg/sg10_28_cif.got.tgz:55303.got - 2010.06.03 11:33:40.
