data_PCOD9148149
_publ_section_title
;
Structure prediction by ZEFSAII (Michael W. Deem and Ramdas Pophale) SiO2 
 PCOD9148149
Probable space group: P 2/M
;
_chemical_formula_sum "Si O2"
_cell_formula_units_Z 30
_cell_length_a 5.408971
_cell_length_b 17.946758
_cell_length_c 20.433658
_cell_angle_alpha 90.000000
_cell_angle_beta 99.393315
_cell_angle_gamma 90.000000
_cell_volume 1956.969343
_symmetry_space_group_name_H-M "P 2/M"
_symmetry_group_IT_number 10
_symmetry_cell_setting 'monoclinic'
loop_
_space_group_symop_operation_xyz
x,y,z
-x,y,-z
-x,-y,-z
x,-y,z
loop_
_atom_site_type_symbol
_atom_site_label
_atom_site_fract_x
_atom_site_fract_y
_atom_site_fract_z
Si Si1 0.401302 0.916923 0.080949
Si Si2 0.458323 0.673441 0.919027
Si Si3 0.851417 0.913806 0.787501
Si Si4 0.535027 0.089437 0.645155
Si Si5 0.958197 0.585097 0.919916
Si Si6 0.006407 0.909172 0.423965
Si Si7 0.810740 0.189303 0.127796
Si Si8 0.000000 0.815644 0.000000
O O1 0.282717 0.915223 0.148093
O O2 0.680417 0.887621 0.100410
O O3 0.382526 0.000000 0.056330
O O4 0.240385 0.864178 0.028202
O O5 0.702611 0.631745 0.902300
O O6 0.404113 0.748820 0.875817
O O7 0.210361 0.622275 0.902805
O O8 0.500000 0.688525 0.000000
O O9 0.652957 0.899280 0.721692
O O10 0.033075 0.841801 0.804297
O O11 0.954031 0.000000 0.780701
O O12 0.252115 0.116524 0.621383
O O13 0.742449 0.116816 0.601999
O O14 0.519835 0.000000 0.635638
O O15 0.928970 0.500000 0.895514
O O16 0.000000 0.582459 0.000000
O O17 0.000000 0.888914 0.500000
O O18 0.011449 0.000000 0.421055
O O19 0.951053 0.221457 0.068545
#
# Coordination Sequence:
#
# PCOD9148149 Si02
#       8
#     4   4   4   4   4   4   4   2
#     4  10  20  32  44  55  74 101 142 185 225 266
#     4  10  20  30  49  66  87 106 130 166 213 262
#     4   9  20  33  44  58  79 111 149 183 217 263
#     4   9  17  28  43  60  81 107 135 168 211 257
#     4   9  18  32  49  68  86 104 125 154 203 268
#     4   9  16  26  42  63  83 101 126 165 215 264
#     4  11  22  31  45  59  80 106 140 179 224 265
#     4  10  21  32  42  56  75  98 140 180 233 264
#
# _framework density 15.329827999999999
#
# number of rings (size 3 to 8) (size 9 to 14) (size 15 to 20)
#    0.000    2.400    0.000    2.600    8.400    5.333 
#    0.000    0.000    0.000    0.000    0.000    0.000 
#    0.000    0.000    0.000    0.000    0.000    0.000 
#
# Total GULP energy -167026.533360 kJ/mol
# GULP energy per Si atom -5567.551112 kJ/mol
# Density = 1.529494 g / cm^3
# Si number density = 15.329828 Si / 1000 Ang^3
#
#
#
# Elastic Constant Matrix: (Units=GPa)
#
#
# Indices 1 2 3 4 5 6 
#
# 1 58.8175 16.5832 0.1938 0.0000 14.2268 0.0000
# 2 16.5832 51.1424 7.9371 0.0000 11.0084 0.0000
# 3 0.1938 7.9371 28.8834 0.0000 10.8001 0.0000
# 4 0.0000 0.0000 0.0000 -62.7992 0.0000 -8.8531
# 5 14.2268 11.0084 10.8001 0.0000 18.6763 0.0000
# 6 0.0000 0.0000 0.0000 -8.8531 0.0000 16.0053
#
#
#
# Elastic Compliance Matrix: (Units=1/GPa)
#
#
# Indices 1 2 3 4 5 6 
#
# 1 0.023037 -0.004528 0.008489 0.000000 -0.019789 0.000000
# 2 -0.004528 0.023339 -0.003227 0.000000 -0.008442 0.000000
# 3 0.008489 -0.003227 0.047410 0.000000 -0.031981 0.000000
# 4 0.000000 0.000000 0.000000 -0.014772 0.000000 -0.008171
# 5 -0.019789 -0.008442 -0.031981 0.000000 0.092088 0.000000
# 6 0.000000 0.000000 0.000000 -0.008171 0.000000 0.057960
#
#
# Mechanical properties :
#
#
# Convention : Reuss Voigt Hill
#
# Bulk Modulus (GPa) = 10.49802 20.91904 15.70853
# Shear Modulus (GPa) = 19.27934 1.98508 10.63221
#
# Velocity S-wave (km/s) = 3.55016 1.13918 2.63642
# Velocity P-wave (km/s) = 4.86496 3.92503 4.42005
#
# Compressibility (1/GPa) = 0.09525603
#
# Stress axis : x y z
#
# Youngs Moduli (GPa) = 43.40858 42.84615 21.09253
#
# Poissons Ratio (x) = 0.19400 -0.17906
# Poissons Ratio (y) = 0.19654 0.06806
# Poissons Ratio (z) = -0.36850 0.13825
#
# Static dielectric constant tensor:
#      x y z
#    x 1.601790 0.000000 0.000280 
#    y 0.000000 1.536410 0.000000 
#    z 0.000280 0.000000 1.516780 
# 
# From -- ./inp_files/73681.got.cif
#   From: 2010.05.17/outbox.cif.g08.bks.cpg/sg10_37_cif.got.tgz:73681.got - 2010.06.03 11:33:40.
