data_PCOD9148601
_publ_section_title
;
Structure prediction by ZEFSAII (Michael W. Deem and Ramdas Pophale) SiO2 
 PCOD9148601
Probable space group: P 2/M
;
_chemical_formula_sum "Si O2"
_cell_formula_units_Z 28
_cell_length_a 26.690666
_cell_length_b 9.417629
_cell_length_c 7.689441
_cell_angle_alpha 90.000000
_cell_angle_beta 43.925899
_cell_angle_gamma 90.000000
_cell_volume 1340.863735
_symmetry_space_group_name_H-M "P 2/M"
_symmetry_group_IT_number 10
_symmetry_cell_setting 'monoclinic'
loop_
_space_group_symop_operation_xyz
x,y,z
-x,y,-z
-x,-y,-z
x,-y,z
loop_
_atom_site_type_symbol
_atom_site_label
_atom_site_fract_x
_atom_site_fract_y
_atom_site_fract_z
Si Si1 0.918637 0.838737 0.746629
Si Si2 0.500000 0.663648 0.287562
Si Si3 0.081363 0.161263 0.839816
Si Si4 0.641971 0.163442 0.932012
Si Si5 0.779506 0.340133 0.594752
Si Si6 0.779506 0.340133 0.007720
Si Si7 0.358029 0.163442 0.641866
O O1 0.856208 0.735413 0.839633
O O2 0.000000 0.791952 0.500000
O O3 0.909424 0.000000 0.699330
O O4 0.912663 0.845568 0.968343
O O5 0.500000 0.662079 0.500000
O O6 0.500000 0.500000 0.230406
O O7 0.428314 0.747729 0.412502
O O8 0.571687 0.747729 0.054070
O O9 0.143791 0.264588 0.620676
O O10 0.090577 0.000000 0.746449
O O11 0.000000 0.208046 0.000000
O O12 0.714633 0.241813 0.689338
O O13 0.639083 0.000000 0.882626
O O14 0.642299 0.161606 0.144252
O O15 0.778586 0.500000 0.524970
O O16 0.767132 0.351122 0.832171
O O17 0.778587 0.500000 0.082099
O O18 0.714633 0.241814 0.237497
O O19 0.360916 0.000000 0.578044
#
# Coordination Sequence:
#
# PCOD9148601 Si02
#       7
#     4   4   4   4   4   4   4
#     4  10  21  37  57  79 102 131 168 209 254 305
#     4   9  15  23  37  61  96 133 168 209 256 303
#     4  10  21  37  57  79 102 131 168 209 254 305
#     4   9  16  26  42  65  95 132 172 212 254 300
#     4  10  20  33  50  74 104 137 172 211 257 306
#     4  10  20  33  50  74 104 137 172 211 257 306
#     4   9  16  26  42  65  95 132 172 212 254 300
#
# _framework density 20.882062000000001
#
# number of rings (size 3 to 8) (size 9 to 14) (size 15 to 20)
#    0.000    2.429    0.000    3.000    0.000    9.143 
#    0.000    0.000    0.000    0.000    0.000    1.000 
#    0.000    8.000    0.000    0.000    0.000    0.000 
#
# Total GULP energy -156400.555813 kJ/mol
# GULP energy per Si atom -5585.734136 kJ/mol
# Density = 2.083453 g / cm^3
# Si number density = 20.882062 Si / 1000 Ang^3
#
#
#
# Elastic Constant Matrix: (Units=GPa)
#
#
# Indices 1 2 3 4 5 6 
#
# 1 44.6278 58.0632 41.8449 0.0000 -25.2652 0.0000
# 2 58.0632 220.6140 96.1379 0.0000 -69.4429 0.0000
# 3 41.8449 96.1379 87.0973 0.0000 -52.1965 0.0000
# 4 0.0000 0.0000 0.0000 10.5943 0.0000 -3.3130
# 5 -25.2652 -69.4429 -52.1965 0.0000 57.4382 0.0000
# 6 0.0000 0.0000 0.0000 -3.3130 0.0000 8.7778
#
#
#
# Elastic Compliance Matrix: (Units=1/GPa)
#
#
# Indices 1 2 3 4 5 6 
#
# 1 0.043013 -0.004646 -0.016610 0.000000 -0.001792 0.000000
# 2 -0.004646 0.009664 -0.005836 0.000000 0.004337 0.000000
# 3 -0.016610 -0.005836 0.037981 0.000000 0.020153 0.000000
# 4 0.000000 0.000000 0.000000 0.107022 0.000000 0.040393
# 5 -0.001792 0.004337 0.020153 0.000000 0.040178 0.000000
# 6 0.000000 0.000000 0.000000 0.040393 0.000000 0.129169
#
#
# Mechanical properties :
#
#
# Convention : Reuss Voigt Hill
#
# Bulk Modulus (GPa) = 27.41807 82.71456 55.06632
# Shear Modulus (GPa) = 11.53754 25.78158 18.65956
#
# Velocity S-wave (km/s) = 2.35310 3.51754 2.99251
# Velocity P-wave (km/s) = 4.53225 7.49625 6.19415
#
# Compressibility (1/GPa) = 0.03647229
#
# Stress axis : x y z
#
# Youngs Moduli (GPa) = 23.24899 103.47998 26.32926
#
# Poissons Ratio (x) = 0.48078 0.43734
# Poissons Ratio (y) = 0.10802 0.15365
# Poissons Ratio (z) = 0.38618 0.60389
#
# Static dielectric constant tensor:
#      x y z
#    x 1.774000 0.000000 0.044650 
#    y 0.000000 1.734110 0.000000 
#    z 0.044650 0.000000 1.749520 
# 
# From -- ./inp_files/37087.got.cif
#   From: 2010.05.17/outbox.cif.g08.bks.cpg/sg10_19_cif.got.tgz:37087.got - 2010.06.03 11:33:40.
