data_PCOD9148361
_publ_section_title
;
Structure prediction by ZEFSAII (Michael W. Deem and Ramdas Pophale) SiO2 
 PCOD9148361
Probable space group: P 2/M
;
_chemical_formula_sum "Si O2"
_cell_formula_units_Z 30
_cell_length_a 5.399866
_cell_length_b 24.693132
_cell_length_c 11.982562
_cell_angle_alpha 90.000000
_cell_angle_beta 93.771145
_cell_angle_gamma 90.000000
_cell_volume 1594.290492
_symmetry_space_group_name_H-M "P 2/M"
_symmetry_group_IT_number 10
_symmetry_cell_setting 'monoclinic'
loop_
_space_group_symop_operation_xyz
x,y,z
-x,y,-z
-x,-y,-z
x,-y,z
loop_
_atom_site_type_symbol
_atom_site_label
_atom_site_fract_x
_atom_site_fract_y
_atom_site_fract_z
Si Si1 0.895108 0.253814 0.614390
Si Si2 0.477503 0.377180 0.865989
Si Si3 0.071689 0.129712 0.381324
Si Si4 0.303518 0.063892 0.195216
Si Si5 0.977408 0.437180 0.863601
Si Si6 0.429686 0.265189 0.746347
Si Si7 0.000000 0.876762 0.000000
Si Si8 0.676246 0.153103 0.177585
O O1 0.825771 0.190088 0.594018
O O2 0.639449 0.276128 0.658044
O O3 0.000000 0.275170 0.500000
O O4 0.140020 0.260516 0.699776
O O5 0.726745 0.405049 0.826384
O O6 0.454356 0.315043 0.830233
O O7 0.226285 0.408865 0.825971
O O8 0.500000 0.380687 0.000000
O O9 0.241892 0.089886 0.314101
O O10 0.000000 0.106932 0.500000
O O11 0.843910 0.142442 0.291616
O O12 0.539639 0.096296 0.158717
O O13 0.103903 0.084219 0.099388
O O14 0.326720 0.000000 0.200500
O O15 0.962358 0.500000 0.829999
O O16 0.000000 0.436290 0.000000
O O17 0.487734 0.205849 0.800547
O O18 0.180726 0.838544 0.933866
#
# Coordination Sequence:
#
# PCOD9148361 Si02
#       8
#     4   4   4   4   4   4   2   4
#     4  10  20  37  61  82 108 148 187 232 288 344
#     4  10  20  32  49  81 116 158 187 230 278 324
#     4   9  20  38  57  78 106 137 177 228 294 355
#     4  11  22  38  57  79 104 136 188 235 283 341
#     4   9  17  32  51  74 110 157 202 232 267 319
#     4  11  21  37  56  85 120 145 187 233 284 345
#     4  10  23  40  56  76 102 146 189 226 286 332
#     4  10  22  38  56  80 106 147 183 230 287 344
#
# _framework density 18.817149000000001
#
# number of rings (size 3 to 8) (size 9 to 14) (size 15 to 20)
#    0.000    2.000    1.333    2.200    0.000    6.667 
#    3.600    0.667    0.000    0.000    0.000    0.000 
#    0.000   37.333    0.000    0.000    0.000    0.000 
#
# Total GULP energy -167116.160492 kJ/mol
# GULP energy per Si atom -5570.538683 kJ/mol
# Density = 1.877432 g / cm^3
# Si number density = 18.817149 Si / 1000 Ang^3
#
#
#
# Elastic Constant Matrix: (Units=GPa)
#
#
# Indices 1 2 3 4 5 6 
#
# 1 90.5384 26.6105 24.2475 0.0000 -17.1337 0.0000
# 2 26.6105 58.7815 7.9956 0.0000 -1.5179 0.0000
# 3 24.2475 7.9956 71.8659 0.0000 -23.8523 0.0000
# 4 0.0000 0.0000 0.0000 24.9918 0.0000 6.4637
# 5 -17.1337 -1.5179 -23.8523 0.0000 21.0568 0.0000
# 6 0.0000 0.0000 0.0000 6.4637 0.0000 28.0606
#
#
#
# Elastic Compliance Matrix: (Units=1/GPa)
#
#
# Indices 1 2 3 4 5 6 
#
# 1 0.015263 -0.006522 -0.000734 0.000000 0.011117 0.000000
# 2 -0.006522 0.020090 -0.002108 0.000000 -0.006247 0.000000
# 3 -0.000734 -0.002108 0.022672 0.000000 0.024933 0.000000
# 4 0.000000 0.000000 0.000000 0.042548 0.000000 -0.009801
# 5 0.011117 -0.006247 0.024933 0.000000 0.084329 0.000000
# 6 0.000000 0.000000 0.000000 -0.009801 0.000000 0.037895
#
#
# Mechanical properties :
#
#
# Convention : Reuss Voigt Hill
#
# Bulk Modulus (GPa) = 25.44762 37.65477 31.55119
# Shear Modulus (GPa) = 19.63677 25.64399 22.64038
#
# Velocity S-wave (km/s) = 3.23392 3.69562 3.47245
# Velocity P-wave (km/s) = 5.24379 6.18582 5.73418
#
# Compressibility (1/GPa) = 0.03929640
#
# Stress axis : x y z
#
# Youngs Moduli (GPa) = 65.51991 49.77533 44.10687
#
# Poissons Ratio (x) = 0.32466 0.03238
# Poissons Ratio (y) = 0.42735 0.09297
# Poissons Ratio (z) = 0.04810 0.10492
#
# Static dielectric constant tensor:
#      x y z
#    x 1.792160 0.000000 0.023020 
#    y 0.000000 1.618290 0.000000 
#    z 0.023020 0.000000 1.680090 
# 
# From -- ./inp_files/39747.got.cif
#   From: 2010.05.17/outbox.cif.g08.bks.cpg/sg10_20_cif.got.tgz:39747.got - 2010.06.03 11:33:40.
