data_PCOD9148461
_publ_section_title
;
Structure prediction by ZEFSAII (Michael W. Deem and Ramdas Pophale) SiO2 
 PCOD9148461
Probable space group: P 2/M
;
_chemical_formula_sum "Si O2"
_cell_formula_units_Z 28
_cell_length_a 7.412957
_cell_length_b 30.841834
_cell_length_c 7.746661
_cell_angle_alpha 90.000000
_cell_angle_beta 42.803304
_cell_angle_gamma 90.000000
_cell_volume 1203.442143
_symmetry_space_group_name_H-M "P 2/M"
_symmetry_group_IT_number 10
_symmetry_cell_setting 'monoclinic'
loop_
_space_group_symop_operation_xyz
x,y,z
-x,y,-z
-x,-y,-z
x,-y,z
loop_
_atom_site_type_symbol
_atom_site_label
_atom_site_fract_x
_atom_site_fract_y
_atom_site_fract_z
Si Si1 0.804265 0.193937 0.973701
Si Si2 0.113479 0.595481 0.655809
Si Si3 0.000000 0.243735 0.500000
Si Si4 0.498163 0.721048 0.208723
Si Si5 0.822520 0.500000 0.301990
Si Si6 0.634035 0.629564 0.168444
Si Si7 0.338523 0.050077 0.430891
Si Si8 0.836436 0.093877 0.934286
O O1 0.895320 0.213081 0.725676
O O2 0.745289 0.143727 0.981400
O O3 0.590409 0.229989 0.179169
O O4 0.000000 0.193956 0.000000
O O5 0.105498 0.543818 0.647628
O O6 0.326222 0.616186 0.377063
O O7 0.247389 0.605495 0.748555
O O8 0.823413 0.615892 0.879654
O O9 0.808371 0.276256 0.531241
O O10 0.647938 0.681300 0.186379
O O11 0.500000 0.714121 0.000000
O O12 0.500000 0.500000 0.500000
O O13 0.000000 0.500000 0.000000
O O14 0.500000 0.052390 0.500000
O O15 0.065115 0.077257 0.642712
O O16 0.271023 0.000000 0.446769
O O17 0.565228 0.066761 0.141329
O O18 0.000000 0.090674 0.000000
#
# Coordination Sequence:
#
# PCOD9148461 Si02
#       8
#     4   4   2   4   2   4   4   4
#     4  10  23  39  63  92 123 170 211 267 323 378
#     4  10  20  32  54  90 116 152 200 247 309 375
#     4  10  24  44  60  88 125 167 222 262 322 390
#     4  10  24  41  59  84 122 163 211 262 314 384
#     4  12  16  32  50  84 128 155 185 258 310 368
#     4  10  20  33  53  81 116 148 195 245 298 364
#     4   9  16  28  49  79 120 160 196 255 316 373
#     4   9  18  31  50  83 119 154 210 252 306 387
#
# _framework density 23.266594999999999
#
# number of rings (size 3 to 8) (size 9 to 14) (size 15 to 20)
#    0.000    2.143    2.857    0.429    8.000    3.429 
#    0.000    0.000    0.000    0.000    0.000    8.500 
#    0.000    0.000    0.000    0.000    0.000    0.000 
#
# Total GULP energy -156146.087103 kJ/mol
# GULP energy per Si atom -5576.645968 kJ/mol
# Density = 2.321364 g / cm^3
# Si number density = 23.266595 Si / 1000 Ang^3
#
#
#
# Elastic Constant Matrix: (Units=GPa)
#
#
# Indices 1 2 3 4 5 6 
#
# 1 55.3252 32.3995 47.3834 0.0000 19.5868 0.0000
# 2 32.3995 168.5389 44.7723 0.0000 -33.3748 0.0000
# 3 47.3834 44.7723 135.4517 0.0000 -46.2135 0.0000
# 4 0.0000 0.0000 0.0000 37.7708 0.0000 21.2963
# 5 19.5868 -33.3748 -46.2135 0.0000 37.9103 0.0000
# 6 0.0000 0.0000 0.0000 21.2963 0.0000 -25.7739
#
#
#
# Elastic Compliance Matrix: (Units=1/GPa)
#
#
# Indices 1 2 3 4 5 6 
#
# 1 -0.029255 0.009677 0.025850 0.000000 0.055147 0.000000
# 2 0.009677 0.003996 -0.008923 0.000000 -0.012359 0.000000
# 3 0.025850 -0.008923 -0.010183 0.000000 -0.033624 0.000000
# 4 0.000000 0.000000 0.000000 0.018061 0.000000 0.014923
# 5 0.055147 -0.012359 -0.033624 0.000000 -0.053983 0.000000
# 6 0.000000 0.000000 0.000000 0.014923 0.000000 -0.026468
#
#
# Mechanical properties :
#
#
# Convention : Reuss Voigt Hill
#
# Bulk Modulus (GPa) = 56.28269 67.60290 61.94279
# Shear Modulus (GPa) = -34.45450 25.63213 -4.41118
#
# Velocity S-wave (km/s) = -3.85237 3.32274 -1.37842
# Velocity P-wave (km/s) = 2.11074 6.62115 4.91401
#
# Compressibility (1/GPa) = 0.01776745
#
# Stress axis : x y z
#
# Youngs Moduli (GPa) = -34.18180 250.25268 -98.20579
#
# Poissons Ratio (x) = -2.42176 2.53864
# Poissons Ratio (y) = 0.33079 -0.87626
# Poissons Ratio (z) = 0.88361 2.23294
#
# Static dielectric constant tensor:
#      x y z
#    x 2.010030 0.000000 -0.061710 
#    y 0.000000 1.850700 0.000000 
#    z -0.061710 0.000000 1.967720 
# 
# From -- ./inp_files/20839.got.cif
#   From: 2010.05.17/outbox.cif.g08.bks.cpg/sg10_11_cif.got.tgz:20839.got - 2010.06.03 11:33:40.
