data_PCOD9148595
_publ_section_title
;
Structure prediction by ZEFSAII (Michael W. Deem and Ramdas Pophale) SiO2 
 PCOD9148595
Probable space group: P 2/M
;
_chemical_formula_sum "Si O2"
_cell_formula_units_Z 24
_cell_length_a 21.739716
_cell_length_b 9.698504
_cell_length_c 17.571556
_cell_angle_alpha 90.000000
_cell_angle_beta 18.530600
_cell_angle_gamma 90.000000
_cell_volume 1177.437531
_symmetry_space_group_name_H-M "P 2/M"
_symmetry_group_IT_number 10
_symmetry_cell_setting 'monoclinic'
loop_
_space_group_symop_operation_xyz
x,y,z
-x,y,-z
-x,-y,-z
x,-y,z
loop_
_atom_site_type_symbol
_atom_site_label
_atom_site_fract_x
_atom_site_fract_y
_atom_site_fract_z
Si Si1 0.449113 0.655647 0.641024
Si Si2 0.130503 0.657496 0.774842
Si Si3 0.821994 0.157182 0.765578
Si Si4 0.715198 0.159677 0.534612
Si Si5 0.523590 0.662276 0.881973
Si Si6 0.295122 0.152845 0.939929
O O1 0.500000 0.720597 0.500000
O O2 0.380259 0.500000 0.707910
O O3 0.650722 0.650335 0.449891
O O4 0.300793 0.737430 0.866927
O O5 0.074252 0.500000 0.819836
O O6 0.141138 0.760856 0.691311
O O7 0.000000 0.701004 0.000000
O O8 0.000000 0.164299 0.500000
O O9 0.738256 0.000000 0.854824
O O10 0.677189 0.278769 0.914663
O O11 0.860315 0.171601 0.810589
O O12 0.680905 0.245969 0.652255
O O13 0.503899 0.159084 0.739310
O O14 0.767301 0.000000 0.486566
O O15 0.551893 0.500000 0.833032
O O16 0.500000 0.682087 0.000000
O O17 0.276688 0.000000 0.929321
#
# Coordination Sequence:
#
# PCOD9148595 Si02
#       6
#     4   4   4   4   4   4
#     4   9  17  29  45  65  88 116 150 185 223 269
#     4   9  17  30  48  68  92 122 153 189 234 280
#     4   9  18  33  52  73  98 127 159 196 239 289
#     4   9  17  30  49  70  92 122 160 197 233 281
#     4  10  20  33  50  73  99 127 162 202 242 288
#     4   8  15  28  46  67  89 117 152 186 223 270
#
# _framework density 20.383247000000001
#
# number of rings (size 3 to 8) (size 9 to 14) (size 15 to 20)
#    0.000    3.000    0.000    2.000    0.000    6.333 
#    0.000    1.667    0.000    6.000    0.000    0.000 
#    0.000    0.000    0.000    0.000    0.000    0.000 
#
# Total GULP energy -133749.752769 kJ/mol
# GULP energy per Si atom -5572.906365 kJ/mol
# Density = 2.033685 g / cm^3
# Si number density = 20.383247 Si / 1000 Ang^3
#
#
#
# Elastic Constant Matrix: (Units=GPa)
#
#
# Indices 1 2 3 4 5 6 
#
# 1 49.1440 61.1202 33.3832 0.0000 29.3419 0.0000
# 2 61.1202 138.3520 70.0841 0.0000 55.1877 0.0000
# 3 33.3832 70.0841 114.4832 0.0000 50.5901 0.0000
# 4 0.0000 0.0000 0.0000 36.0818 0.0000 11.3488
# 5 29.3419 55.1877 50.5901 0.0000 51.6956 0.0000
# 6 0.0000 0.0000 0.0000 11.3488 0.0000 19.0837
#
#
#
# Elastic Compliance Matrix: (Units=1/GPa)
#
#
# Indices 1 2 3 4 5 6 
#
# 1 0.046985 -0.017834 0.001036 0.000000 -0.008644 0.000000
# 2 -0.017834 0.020021 -0.003672 0.000000 -0.007658 0.000000
# 3 0.001036 -0.003672 0.016225 0.000000 -0.012546 0.000000
# 4 0.000000 0.000000 0.000000 0.034091 0.000000 -0.020274
# 5 -0.008644 -0.007658 -0.012546 0.000000 0.044703 0.000000
# 6 0.000000 0.000000 0.000000 -0.020274 0.000000 0.064457
#
#
# Mechanical properties :
#
#
# Convention : Reuss Voigt Hill
#
# Bulk Modulus (GPa) = 23.64523 70.12825 46.88674
# Shear Modulus (GPa) = 17.76081 30.53168 24.14625
#
# Velocity S-wave (km/s) = 2.95506 3.87445 3.44555
# Velocity P-wave (km/s) = 4.82376 7.38205 6.23551
#
# Compressibility (1/GPa) = 0.04229183
#
# Stress axis : x y z
#
# Youngs Moduli (GPa) = 21.28340 49.94698 61.63435
#
# Poissons Ratio (x) = 0.89074 -0.06388
# Poissons Ratio (y) = 0.37956 0.22634
# Poissons Ratio (z) = -0.02206 0.18342
#
# Static dielectric constant tensor:
#      x y z
#    x 1.751800 0.000000 -0.014780 
#    y 0.000000 1.705860 0.000000 
#    z -0.014780 0.000000 1.761110 
# 
# From -- ./inp_files/52627.got.cif
#   From: 2010.05.17/outbox.cif.g08.bks.cpg/sg10_27_cif.got.tgz:52627.got - 2010.06.03 11:33:40.
