data_PCOD9148114
_publ_section_title
;
Structure prediction by ZEFSAII (Michael W. Deem and Ramdas Pophale) SiO2 
 PCOD9148114
Probable space group: P 2/M
;
_chemical_formula_sum "Si O2"
_cell_formula_units_Z 13
_cell_length_a 10.423946
_cell_length_b 9.958043
_cell_length_c 4.759010
_cell_angle_alpha 90.000000
_cell_angle_beta 98.914326
_cell_angle_gamma 90.000000
_cell_volume 488.028350
_symmetry_space_group_name_H-M "P 2/M"
_symmetry_group_IT_number 10
_symmetry_cell_setting 'monoclinic'
loop_
_space_group_symop_operation_xyz
x,y,z
-x,y,-z
-x,-y,-z
x,-y,z
loop_
_atom_site_type_symbol
_atom_site_label
_atom_site_fract_x
_atom_site_fract_y
_atom_site_fract_z
Si Si1 0.364776 0.705343 0.829678
Si Si2 0.389197 0.000000 0.705951
Si Si3 0.116197 0.000000 0.315693
Si Si4 0.000000 0.500000 0.500000
Si Si5 0.814150 0.705378 0.760177
O O1 0.380787 0.864981 0.883105
O O2 0.314814 0.697767 0.490663
O O3 0.500000 0.648425 0.000000
O O4 0.242993 0.654344 0.966297
O O5 0.500000 0.000000 0.500000
O O6 0.251690 0.000000 0.516343
O O7 0.128466 0.855204 0.171808
O O8 0.000000 0.000000 0.500000
O O9 0.077192 0.615957 0.342704
#
# Coordination Sequence:
#
# PCOD9148114 Si02
#       5
#     4   2   2   1   4
#     4  11  22  42  68 104 136 177 225 281 349 413
#     4  10  20  37  69 107 149 180 221 284 359 417
#     4  10  19  41  64 104 130 175 224 284 340 406
#     4  12  28  52  66  98 136 192 240 280 352 404
#     4  11  25  43  71  98 139 180 226 287 342 413
#
# _framework density 26.637796999999999
#
# number of rings (size 3 to 8) (size 9 to 14) (size 15 to 20)
#    0.000    1.231    1.538    6.000    0.000    3.692 
#    0.000    7.692    0.000    0.000    0.000    0.000 
#    0.000    0.000    0.000    0.000    0.000    0.000 
#
# Total GULP energy -72408.374892 kJ/mol
# GULP energy per Si atom -5569.874992 kJ/mol
# Density = 2.657717 g / cm^3
# Si number density = 26.637797 Si / 1000 Ang^3
#
#
#
# Elastic Constant Matrix: (Units=GPa)
#
#
# Indices 1 2 3 4 5 6 
#
# 1 189.4745 22.4249 29.9899 0.0000 -22.1477 0.0000
# 2 22.4249 184.9917 -5.5623 0.0000 -19.1060 0.0000
# 3 29.9899 -5.5623 93.6511 0.0000 8.5714 0.0000
# 4 0.0000 0.0000 0.0000 -75.7569 0.0000 -6.7409
# 5 -22.1477 -19.1060 8.5714 0.0000 70.2038 0.0000
# 6 0.0000 0.0000 0.0000 -6.7409 0.0000 36.9461
#
#
#
# Elastic Compliance Matrix: (Units=1/GPa)
#
#
# Indices 1 2 3 4 5 6 
#
# 1 0.005909 -0.000577 -0.002106 0.000000 0.001964 0.000000
# 2 -0.000577 0.005622 0.000400 0.000000 0.001299 0.000000
# 3 -0.002106 0.000400 0.011556 0.000000 -0.001967 0.000000
# 4 0.000000 0.000000 0.000000 -0.012989 0.000000 -0.002370
# 5 0.001964 0.001299 -0.001967 0.000000 0.015458 0.000000
# 6 0.000000 0.000000 0.000000 -0.002370 0.000000 0.026634
#
#
# Mechanical properties :
#
#
# Convention : Reuss Voigt Hill
#
# Bulk Modulus (GPa) = 53.99503 62.42471 58.20987
# Shear Modulus (GPa) = 79.45399 34.36292 56.90845
#
# Velocity S-wave (km/s) = 5.46738 3.59556 4.62711
# Velocity P-wave (km/s) = 7.75696 6.38145 7.10258
#
# Compressibility (1/GPa) = 0.01852022
#
# Stress axis : x y z
#
# Youngs Moduli (GPa) = 169.23309 177.88018 86.53393
#
# Poissons Ratio (x) = 0.10259 0.18227
# Poissons Ratio (y) = 0.09760 -0.03459
# Poissons Ratio (z) = 0.35645 -0.07109
#
# Static dielectric constant tensor:
#      x y z
#    x 2.037710 0.000000 0.059570 
#    y 0.000000 2.060790 0.000000 
#    z 0.059570 0.000000 1.961770 
# 
# From -- ./inp_files/2846.got.cif
#   From: 2010.05.17/outbox.cif.g08.bks.cpg/sg10_2_cif.got.tgz:2846.got - 2010.06.03 11:33:40.
