data_PCOD9148890
_publ_section_title
;
Structure prediction by ZEFSAII (Michael W. Deem and Ramdas Pophale) SiO2 
 PCOD9148890
Probable space group: P 2/M
;
_chemical_formula_sum "Si O2"
_cell_formula_units_Z 32
_cell_length_a 26.554327
_cell_length_b 13.883275
_cell_length_c 9.878411
_cell_angle_alpha 90.000000
_cell_angle_beta 27.572855
_cell_angle_gamma 90.000000
_cell_volume 1685.695389
_symmetry_space_group_name_H-M "P 2/M"
_symmetry_group_IT_number 10
_symmetry_cell_setting 'monoclinic'
loop_
_space_group_symop_operation_xyz
x,y,z
-x,y,-z
-x,-y,-z
x,-y,z
loop_
_atom_site_type_symbol
_atom_site_label
_atom_site_fract_x
_atom_site_fract_y
_atom_site_fract_z
Si Si1 0.123725 0.890025 0.206721
Si Si2 0.735819 0.890909 0.393219
Si Si3 0.604634 0.698262 0.654203
Si Si4 0.794190 0.252413 0.776539
Si Si5 0.605842 0.614263 0.344631
Si Si6 0.869007 0.797982 0.316390
Si Si7 0.187816 0.607901 0.701029
Si Si8 0.015290 0.393218 0.622874
O O1 0.197494 0.823874 0.123306
O O2 0.000000 0.853984 0.500000
O O3 0.121345 0.000000 0.262973
O O4 0.173456 0.888908 0.939970
O O5 0.648829 0.808416 0.561237
O O6 0.801969 0.861730 0.369494
O O7 0.691735 0.000000 0.506599
O O8 0.590360 0.661759 0.532282
O O9 0.698338 0.634958 0.502420
O O10 0.500000 0.689102 0.000000
O O11 0.805505 0.195073 0.609687
O O12 0.904186 0.314436 0.514306
O O13 0.697975 0.325729 0.043921
O O14 0.500000 0.619402 0.500000
O O15 0.633308 0.500000 0.296601
O O16 0.849438 0.687442 0.316843
O O17 0.000000 0.817775 0.000000
O O18 0.188941 0.500000 0.641900
O O19 0.099994 0.613264 0.030160
O O20 0.060460 0.500000 0.541412
O O21 0.000000 0.382227 0.500000
#
# Coordination Sequence:
#
# PCOD9148890 Si02
#       8
#     4   4   4   4   4   4   4   4
#     4  10  21  38  65  95 122 160 204 253 316 381
#     4  10  23  44  67  92 123 161 212 264 315 380
#     4  11  24  44  69  91 120 162 213 267 317 369
#     4  12  22  38  63  88 132 165 204 257 310 371
#     4  11  26  44  64  94 128 167 212 256 313 372
#     4  11  23  37  58  95 133 172 205 249 312 370
#     4  10  22  38  57  88 127 166 213 253 299 371
#     4  10  20  33  57  89 122 163 206 252 306 370
#
# _framework density 18.983263999999998
#
# number of rings (size 3 to 8) (size 9 to 14) (size 15 to 20)
#    0.000    1.375    2.500    2.625    7.000    4.250 
#    0.000    0.000    0.000    0.750    0.000    0.000 
#    0.000    0.000    0.000    0.000    0.000    0.000 
#
# Total GULP energy -178610.040142 kJ/mol
# GULP energy per Si atom -5581.563754 kJ/mol
# Density = 1.894006 g / cm^3
# Si number density = 18.983264 Si / 1000 Ang^3
#
#
#
# Elastic Constant Matrix: (Units=GPa)
#
#
# Indices 1 2 3 4 5 6 
#
# 1 92.9521 33.2969 37.4142 0.0000 11.4792 0.0000
# 2 33.2969 94.7312 30.0722 0.0000 -2.0394 0.0000
# 3 37.4142 30.0722 93.8892 0.0000 3.3585 0.0000
# 4 0.0000 0.0000 0.0000 25.3006 0.0000 3.1698
# 5 11.4792 -2.0394 3.3585 0.0000 29.0182 0.0000
# 6 0.0000 0.0000 0.0000 3.1698 0.0000 7.7884
#
#
#
# Elastic Compliance Matrix: (Units=1/GPa)
#
#
# Indices 1 2 3 4 5 6 
#
# 1 0.014586 -0.003856 -0.004379 0.000000 -0.005534 0.000000
# 2 -0.003856 0.012817 -0.002667 0.000000 0.002735 0.000000
# 3 -0.004379 -0.002667 0.013250 0.000000 0.000012 0.000000
# 4 0.000000 0.000000 0.000000 0.041648 0.000000 -0.016951
# 5 -0.005534 0.002735 0.000012 0.000000 0.036841 0.000000
# 6 0.000000 0.000000 0.000000 -0.016951 0.000000 0.135295
#
#
# Mechanical properties :
#
#
# Convention : Reuss Voigt Hill
#
# Bulk Modulus (GPa) = 53.05321 53.68212 53.36767
# Shear Modulus (GPa) = 17.69773 24.47407 21.08590
#
# Velocity S-wave (km/s) = 3.05664 3.59450 3.33643
# Velocity P-wave (km/s) = 6.36124 6.75035 6.55869
#
# Compressibility (1/GPa) = 0.01884900
#
# Stress axis : x y z
#
# Youngs Moduli (GPa) = 68.56124 78.02306 75.47360
#
# Poissons Ratio (x) = 0.30082 0.33053
# Poissons Ratio (y) = 0.26434 0.20125
# Poissons Ratio (z) = 0.30025 0.20805
#
# Static dielectric constant tensor:
#      x y z
#    x 1.715230 0.000000 0.048280 
#    y 0.000000 1.690030 0.000000 
#    z 0.048280 0.000000 1.677720 
# 
# From -- ./inp_files/36355.got.cif
#   From: 2010.05.17/outbox.cif.g08.bks.cpg/sg10_19_cif.got.tgz:36355.got - 2010.06.03 11:33:40.
