data_PCOD9148067
_publ_section_title
;
Structure prediction by ZEFSAII (Michael W. Deem and Ramdas Pophale) SiO2 
 PCOD9148067
Probable space group: P 2/M
;
_chemical_formula_sum "Si O2"
_cell_formula_units_Z 28
_cell_length_a 16.340032
_cell_length_b 8.659865
_cell_length_c 18.165445
_cell_angle_alpha 90.000000
_cell_angle_beta 34.759578
_cell_angle_gamma 90.000000
_cell_volume 1465.504271
_symmetry_space_group_name_H-M "P 2/M"
_symmetry_group_IT_number 10
_symmetry_cell_setting 'monoclinic'
loop_
_space_group_symop_operation_xyz
x,y,z
-x,y,-z
-x,-y,-z
x,-y,z
loop_
_atom_site_type_symbol
_atom_site_label
_atom_site_fract_x
_atom_site_fract_y
_atom_site_fract_z
Si Si1 0.665618 0.185001 0.868036
Si Si2 0.128603 0.311860 0.712641
Si Si3 0.162977 0.686247 0.395383
Si Si4 0.805027 0.314653 0.911400
Si Si5 0.164025 0.315327 0.853075
Si Si6 0.371828 0.182861 0.822436
Si Si7 0.687774 0.686626 0.562916
O O1 0.730954 0.244137 0.743452
O O2 0.757754 0.250481 0.867610
O O3 0.669967 0.000000 0.866558
O O4 0.500000 0.234615 0.000000
O O5 0.126865 0.500000 0.714505
O O6 0.174518 0.264195 0.760511
O O7 0.235680 0.262675 0.568998
O O8 0.965737 0.263269 0.814933
O O9 0.167705 0.500000 0.385514
O O10 0.213682 0.727307 0.439859
O O11 0.000000 0.736168 0.500000
O O12 0.804599 0.500000 0.909044
O O13 0.695244 0.259162 0.055028
O O14 0.192302 0.500000 0.836648
O O15 0.271049 0.230566 0.828737
O O16 0.000000 0.291907 0.000000
O O17 0.531455 0.243205 0.689667
O O18 0.372671 0.000000 0.831493
O O19 0.675385 0.500000 0.570199
#
# Coordination Sequence:
#
# PCOD9148067 Si02
#       7
#     4   4   4   4   4   4   4
#     4  11  24  39  56  85 123 158 195 242 300 361
#     4   9  19  37  64  92 115 145 195 255 298 344
#     4  10  21  39  63  89 117 154 204 256 300 351
#     4  11  21  39  65  90 114 149 201 252 298 349
#     4  10  19  38  65  91 118 152 200 249 298 351
#     4  12  25  39  57  87 127 163 196 240 297 356
#     4  10  21  39  62  88 118 156 200 245 299 353
#
# _framework density 19.106051999999998
#
# number of rings (size 3 to 8) (size 9 to 14) (size 15 to 20)
#    0.000    1.571    1.429    3.857    0.000    7.429 
#    0.000    6.429    0.000    0.000    0.000    0.000 
#    0.000    0.000    0.000    0.000    0.000    0.000 
#
# Total GULP energy -156538.167702 kJ/mol
# GULP energy per Si atom -5590.648846 kJ/mol
# Density = 1.906257 g / cm^3
# Si number density = 19.106052 Si / 1000 Ang^3
#
#
#
# Elastic Constant Matrix: (Units=GPa)
#
#
# Indices 1 2 3 4 5 6 
#
# 1 52.6001 8.8852 -10.7978 0.0000 17.9787 0.0000
# 2 8.8852 16.3101 7.2839 0.0000 1.4122 0.0000
# 3 -10.7978 7.2839 84.3066 0.0000 15.6645 0.0000
# 4 0.0000 0.0000 0.0000 -16.2035 0.0000 -9.6047
# 5 17.9787 1.4122 15.6645 0.0000 40.0461 0.0000
# 6 0.0000 0.0000 0.0000 -9.6047 0.0000 -12.4795
#
#
#
# Elastic Compliance Matrix: (Units=1/GPa)
#
#
# Indices 1 2 3 4 5 6 
#
# 1 0.029109 -0.018167 0.008203 0.000000 -0.015636 0.000000
# 2 -0.018167 0.075111 -0.010611 0.000000 0.009658 0.000000
# 3 0.008203 -0.010611 0.015576 0.000000 -0.009401 0.000000
# 4 0.000000 0.000000 0.000000 -0.113491 0.000000 0.087347
# 5 -0.015636 0.009658 -0.009401 0.000000 0.035328 0.000000
# 6 0.000000 0.000000 0.000000 0.087347 0.000000 -0.147358
#
#
# Mechanical properties :
#
#
# Convention : Reuss Voigt Hill
#
# Bulk Modulus (GPa) = 12.71522 18.21773 15.46647
# Shear Modulus (GPa) = -130.33975 12.12899 -59.10538
#
# Velocity S-wave (km/s) = -8.26845 2.52231 -5.56800
# Velocity P-wave (km/s) = 9.19167 4.24717 5.76404
#
# Compressibility (1/GPa) = 0.07864588
#
# Stress axis : x y z
#
# Youngs Moduli (GPa) = 34.35416 13.31368 64.20305
#
# Poissons Ratio (x) = 0.24187 -0.52666
# Poissons Ratio (y) = 0.62411 0.68123
# Poissons Ratio (z) = -0.28181 0.14127
#
# Static dielectric constant tensor:
#      x y z
#    x 1.636220 0.000000 0.000820 
#    y 0.000000 1.646310 0.000000 
#    z 0.000820 0.000000 1.634750 
# 
# From -- ./inp_files/77718.got.cif
#   From: 2010.05.17/outbox.cif.g08.bks.cpg/sg10_39_cif.got.tgz:77718.got - 2010.06.03 11:33:40.
