data_PCOD9148111
_publ_section_title
;
Structure prediction by ZEFSAII (Michael W. Deem and Ramdas Pophale) SiO2 
 PCOD9148111
Probable space group: P 2/M
;
_chemical_formula_sum "Si O2"
_cell_formula_units_Z 25
_cell_length_a 7.263657
_cell_length_b 21.609791
_cell_length_c 7.118654
_cell_angle_alpha 90.000000
_cell_angle_beta 62.885509
_cell_angle_gamma 90.000000
_cell_volume 994.583822
_symmetry_space_group_name_H-M "P 2/M"
_symmetry_group_IT_number 10
_symmetry_cell_setting 'monoclinic'
loop_
_space_group_symop_operation_xyz
x,y,z
-x,y,-z
-x,-y,-z
x,-y,z
loop_
_atom_site_type_symbol
_atom_site_label
_atom_site_fract_x
_atom_site_fract_y
_atom_site_fract_z
Si Si1 0.283372 0.806833 0.027622
Si Si2 0.185677 0.396194 0.663564
Si Si3 0.896916 0.732012 0.362695
Si Si4 0.719781 0.148760 0.399258
Si Si5 0.278557 0.574447 0.182599
Si Si6 0.084886 0.930802 0.178122
Si Si7 0.500000 0.500000 0.500000
O O1 0.089953 0.764071 0.169323
O O2 0.251454 0.876639 0.123504
O O3 0.500000 0.781844 0.000000
O O4 0.268491 0.820633 0.813389
O O5 0.215908 0.323464 0.691620
O O6 0.236791 0.406969 0.418118
O O7 0.346871 0.445983 0.667446
O O8 0.940882 0.408821 0.814273
O O9 0.753260 0.788652 0.500497
O O10 0.000000 0.703561 0.500000
O O11 0.500000 0.118081 0.500000
O O12 0.885883 0.097827 0.371585
O O13 0.291870 0.500000 0.182391
O O14 0.500000 0.598306 0.000000
O O15 0.145188 0.000000 0.201815
O O16 0.000000 0.932111 0.000000
#
# Coordination Sequence:
#
# PCOD9148111 Si02
#       7
#     4   4   4   4   4   4   1
#     4  10  21  39  62  89 127 166 207 261 313 374
#     4  11  22  42  62  91 121 159 203 255 321 383
#     4  11  22  39  63  90 118 159 210 256 315 372
#     4  10  21  38  58  88 128 164 207 260 312 370
#     4  10  19  40  68  87 116 156 201 250 308 384
#     4   8  16  33  58  86 121 165 210 258 310 362
#     4  12  24  42  66  88 132 156 194 268 324 370
#
# _framework density 25.136144000000002
#
# number of rings (size 3 to 8) (size 9 to 14) (size 15 to 20)
#    0.000    1.920    3.200    2.880    1.120    1.280 
#    2.880    3.200    0.000   16.320    0.000    0.000 
#    0.000    0.000    0.000    0.000    0.000    0.000 
#
# Total GULP energy -139337.247277 kJ/mol
# GULP energy per Si atom -5573.489891 kJ/mol
# Density = 2.507893 g / cm^3
# Si number density = 25.136144 Si / 1000 Ang^3
#
#
#
# Elastic Constant Matrix: (Units=GPa)
#
#
# Indices 1 2 3 4 5 6 
#
# 1 98.3332 12.2959 34.3824 0.0000 -26.8916 0.0000
# 2 12.2959 149.4494 -2.7813 0.0000 -12.0471 0.0000
# 3 34.3824 -2.7813 81.5932 0.0000 -19.2418 0.0000
# 4 0.0000 0.0000 0.0000 5.6859 0.0000 6.1256
# 5 -26.8916 -12.0471 -19.2418 0.0000 49.2634 0.0000
# 6 0.0000 0.0000 0.0000 6.1256 0.0000 25.3629
#
#
#
# Elastic Compliance Matrix: (Units=1/GPa)
#
#
# Indices 1 2 3 4 5 6 
#
# 1 0.013245 -0.000739 -0.004344 0.000000 0.005352 0.000000
# 2 -0.000739 0.006902 0.000936 0.000000 0.001650 0.000000
# 3 -0.004344 0.000936 0.014994 0.000000 0.003714 0.000000
# 4 0.000000 0.000000 0.000000 0.237727 0.000000 -0.057415
# 5 0.005352 0.001650 0.003714 0.000000 0.025075 0.000000
# 6 0.000000 0.000000 0.000000 -0.057415 0.000000 0.053294
#
#
# Mechanical properties :
#
#
# Convention : Reuss Voigt Hill
#
# Bulk Modulus (GPa) = 37.24854 46.35221 41.80038
# Shear Modulus (GPa) = 13.56922 35.09437 24.33180
#
# Velocity S-wave (km/s) = 2.32594 3.74059 3.11465
# Velocity P-wave (km/s) = 4.69726 6.09397 5.44062
#
# Compressibility (1/GPa) = 0.02684669
#
# Stress axis : x y z
#
# Youngs Moduli (GPa) = 75.50265 144.87583 66.69225
#
# Poissons Ratio (x) = 0.10708 0.28972
# Poissons Ratio (y) = 0.05580 -0.06241
# Poissons Ratio (z) = 0.32799 -0.13558
#
# Static dielectric constant tensor:
#      x y z
#    x 2.130900 0.000000 0.098230 
#    y 0.000000 1.975330 0.000000 
#    z 0.098230 0.000000 1.998790 
# 
# From -- ./inp_files/20170.got.cif
#   From: 2010.05.17/outbox.cif.g08.bks.cpg/sg10_11_cif.got.tgz:20170.got - 2010.06.03 11:33:40.
