data_PCOD9148660
_publ_section_title
;
Structure prediction by ZEFSAII (Michael W. Deem and Ramdas Pophale) SiO2 
 PCOD9148660
Probable space group: P 2/M
;
_chemical_formula_sum "Si O2"
_cell_formula_units_Z 32
_cell_length_a 23.803229
_cell_length_b 7.363443
_cell_length_c 22.419905
_cell_angle_alpha 90.000000
_cell_angle_beta 20.882782
_cell_angle_gamma 90.000000
_cell_volume 1400.741572
_symmetry_space_group_name_H-M "P 2/M"
_symmetry_group_IT_number 10
_symmetry_cell_setting 'monoclinic'
loop_
_space_group_symop_operation_xyz
x,y,z
-x,y,-z
-x,-y,-z
x,-y,z
loop_
_atom_site_type_symbol
_atom_site_label
_atom_site_fract_x
_atom_site_fract_y
_atom_site_fract_z
Si Si1 0.312010 0.721521 0.825349
Si Si2 0.180840 0.721015 0.567938
Si Si3 0.310608 0.720542 0.073174
Si Si4 0.172317 0.279085 0.085685
Si Si5 0.658153 0.291860 0.709646
Si Si6 0.337791 0.720867 0.532964
Si Si7 0.988139 0.720989 0.080986
Si Si8 0.171753 0.209487 0.339279
O O1 0.312488 0.500000 0.822595
O O2 0.482889 0.780107 0.630581
O O3 0.291980 0.774950 0.914780
O O4 0.150177 0.779448 0.953070
O O5 0.173432 0.500000 0.575427
O O6 0.236007 0.784626 0.448286
O O7 0.299376 0.771536 0.502726
O O8 0.003222 0.779894 0.757363
O O9 0.307547 0.500000 0.078647
O O10 0.209118 0.777793 0.116671
O O11 0.256936 0.781441 0.191430
O O12 0.486179 0.789025 0.886874
O O13 0.175923 0.500000 0.082870
O O14 0.629931 0.500000 0.719307
O O15 0.738169 0.293285 0.694639
O O16 0.339220 0.500000 0.535687
O O17 0.181732 0.780668 0.724154
O O18 0.987101 0.500000 0.086807
O O19 0.000000 0.769717 0.000000
O O20 0.000000 0.291651 0.500000
O O21 0.151940 0.000000 0.376527
#
# Coordination Sequence:
#
# PCOD9148660 Si02
#       8
#     4   4   4   4   4   4   4   4
#     4   9  15  23  35  51  74 105 143 188 234 278
#     4   9  15  25  42  63  86 111 142 187 240 283
#     4  10  20  33  51  75  97 119 155 202 247 292
#     4   9  15  25  42  63  86 111 142 187 240 283
#     4  10  20  33  51  75  97 119 155 202 247 292
#     4   9  15  23  35  51  74 105 143 188 234 278
#     4   9  16  24  32  46  72 107 147 186 226 277
#     4  11  24  39  52  68  94 129 164 195 238 298
#
# _framework density 22.845043
#
# number of rings (size 3 to 8) (size 9 to 14) (size 15 to 20)
#    0.000    2.500    1.250    2.250    0.000    7.500 
#    0.000    2.500    0.000    0.000    0.000    0.000 
#    0.000    0.000    0.000    0.000    0.000    2.500 
#
# Total GULP energy -178643.919850 kJ/mol
# GULP energy per Si atom -5582.622495 kJ/mol
# Density = 2.279305 g / cm^3
# Si number density = 22.845043 Si / 1000 Ang^3
#
#
#
# Elastic Constant Matrix: (Units=GPa)
#
#
# Indices 1 2 3 4 5 6 
#
# 1 110.3278 -9.8727 69.1808 0.0000 15.7071 0.0000
# 2 -9.8727 78.6887 -1.5867 0.0000 0.3296 0.0000
# 3 69.1808 -1.5867 194.7632 0.0000 2.9021 0.0000
# 4 0.0000 0.0000 0.0000 44.6934 0.0000 19.1563
# 5 15.7071 0.3296 2.9021 0.0000 28.1614 0.0000
# 6 0.0000 0.0000 0.0000 19.1563 0.0000 -27.1195
#
#
#
# Elastic Compliance Matrix: (Units=1/GPa)
#
#
# Indices 1 2 3 4 5 6 
#
# 1 0.012996 0.001568 -0.004502 0.000000 -0.006803 0.000000
# 2 0.001568 0.012900 -0.000437 0.000000 -0.000981 0.000000
# 3 -0.004502 -0.000437 0.006703 0.000000 0.001825 0.000000
# 4 0.000000 0.000000 0.000000 0.017175 0.000000 0.012132
# 5 -0.006803 -0.000981 0.001825 0.000000 0.039127 0.000000
# 6 0.000000 0.000000 0.000000 0.012132 0.000000 -0.028304
#
#
# Mechanical properties :
#
#
# Convention : Reuss Voigt Hill
#
# Bulk Modulus (GPa) = 38.67477 55.46918 47.07197
# Shear Modulus (GPa) = 65.82621 30.88429 48.35525
#
# Velocity S-wave (km/s) = 5.37371 3.68081 4.60571
# Velocity P-wave (km/s) = 7.44770 6.51136 6.99522
#
# Compressibility (1/GPa) = 0.02585665
#
# Stress axis : x y z
#
# Youngs Moduli (GPa) = 76.94857 77.51727 149.19128
#
# Poissons Ratio (x) = -0.12156 0.67166
# Poissons Ratio (y) = -0.12067 0.06525
# Poissons Ratio (z) = 0.34642 0.03390
#
# Static dielectric constant tensor:
#      x y z
#    x 1.876560 0.000000 0.006290 
#    y 0.000000 1.886970 0.000000 
#    z 0.006290 0.000000 1.847750 
# 
# From -- ./inp_files/90607.got.cif
#   From: 2010.05.17/outbox.cif.g08.bks.cpg/sg10_46_cif.got.tgz:90607.got - 2010.06.03 11:33:40.
