data_PCOD9148414
_publ_section_title
;
Structure prediction by ZEFSAII (Michael W. Deem and Ramdas Pophale) SiO2 
 PCOD9148414
Probable space group: P 2/M
;
_chemical_formula_sum "Si O2"
_cell_formula_units_Z 22
_cell_length_a 5.476269
_cell_length_b 10.773790
_cell_length_c 20.313020
_cell_angle_alpha 90.000000
_cell_angle_beta 100.144331
_cell_angle_gamma 90.000000
_cell_volume 1179.736210
_symmetry_space_group_name_H-M "P 2/M"
_symmetry_group_IT_number 10
_symmetry_cell_setting 'monoclinic'
loop_
_space_group_symop_operation_xyz
x,y,z
-x,y,-z
-x,-y,-z
x,-y,z
loop_
_atom_site_type_symbol
_atom_site_label
_atom_site_fract_x
_atom_site_fract_y
_atom_site_fract_z
Si Si1 0.741021 0.863438 0.889014
Si Si2 0.370915 0.853898 0.756214
Si Si3 0.500000 0.772480 0.000000
Si Si4 0.226167 0.849096 0.464032
Si Si5 0.926488 0.637840 0.074461
Si Si6 0.830987 0.848435 0.691498
O O1 0.493143 0.849248 0.834007
O O2 0.918520 0.747305 0.884971
O O3 0.847512 0.000000 0.877828
O O4 0.675728 0.855239 0.963140
O O5 0.093210 0.804086 0.734238
O O6 0.585658 0.803071 0.718052
O O7 0.347927 0.000000 0.738375
O O8 0.644395 0.682690 0.056683
O O9 0.500000 0.808019 0.500000
O O10 0.000000 0.807186 0.500000
O O11 0.180149 0.816065 0.385912
O O12 0.227310 0.000000 0.467175
O O13 0.959049 0.500000 0.103134
O O14 0.000000 0.633542 0.000000
O O15 0.825246 0.000000 0.696326
#
# Coordination Sequence:
#
# PCOD9148414 Si02
#       6
#     4   4   2   4   4   4
#     4  10  21  33  49  72  97 126 164 213 259 302
#     4   9  18  29  43  61  88 123 160 197 244 300
#     4  10  20  32  52  72  94 122 162 214 260 306
#     4   9  15  22  35  55  79 110 155 202 236 270
#     4   9  19  35  52  70  93 122 159 204 257 314
#     4   9  16  27  40  57  85 121 158 199 241 287
#
# _framework density 18.648236000000001
#
# number of rings (size 3 to 8) (size 9 to 14) (size 15 to 20)
#    0.000    2.727    0.000    1.636    2.545    9.091 
#    0.000    0.000    0.000    0.000    0.000    0.000 
#    0.000    0.000    0.000    0.000    0.000   18.182 
#
# Total GULP energy -122535.749740 kJ/mol
# GULP energy per Si atom -5569.806806 kJ/mol
# Density = 1.860579 g / cm^3
# Si number density = 18.648236 Si / 1000 Ang^3
#
#
#
# Elastic Constant Matrix: (Units=GPa)
#
#
# Indices 1 2 3 4 5 6 
#
# 1 92.9288 23.2611 27.8739 0.0000 11.3045 0.0000
# 2 23.2611 79.8270 18.4914 0.0000 14.5384 0.0000
# 3 27.8739 18.4914 56.5797 0.0000 2.2449 0.0000
# 4 0.0000 0.0000 0.0000 0.6054 0.0000 2.9394
# 5 11.3045 14.5384 2.2449 0.0000 38.2708 0.0000
# 6 0.0000 0.0000 0.0000 2.9394 0.0000 7.7118
#
#
#
# Elastic Compliance Matrix: (Units=1/GPa)
#
#
# Indices 1 2 3 4 5 6 
#
# 1 0.013355 -0.002031 -0.005803 0.000000 -0.002833 0.000000
# 2 -0.002031 0.014845 -0.003660 0.000000 -0.004825 0.000000
# 3 -0.005803 -0.003660 0.021656 0.000000 0.001834 0.000000
# 4 0.000000 0.000000 0.000000 -1.941893 0.000000 0.740160
# 5 -0.002833 -0.004825 0.001834 0.000000 0.028692 0.000000
# 6 0.000000 0.000000 0.000000 0.740160 0.000000 -0.152443
#
#
# Mechanical properties :
#
#
# Convention : Reuss Voigt Hill
#
# Bulk Modulus (GPa) = 37.21814 40.95426 39.08620
# Shear Modulus (GPa) = -2.52036 19.96487 8.72226
#
# Velocity S-wave (km/s) = -1.16381 3.27556 2.16504
# Velocity P-wave (km/s) = 4.26560 6.02618 5.22064
#
# Compressibility (1/GPa) = 0.02686862
#
# Stress axis : x y z
#
# Youngs Moduli (GPa) = 74.88095 67.36069 46.17610
#
# Poissons Ratio (x) = 0.13683 0.26795
# Poissons Ratio (y) = 0.15211 0.16899
# Poissons Ratio (z) = 0.43452 0.24652
#
# Static dielectric constant tensor:
#      x y z
#    x 1.722250 0.000000 -0.006310 
#    y 0.000000 1.617020 0.000000 
#    z -0.006310 0.000000 1.654950 
# 
# From -- ./inp_files/12133.got.cif
#   From: 2010.05.17/outbox.cif.g08.bks.cpg/sg10_7_cif.got.tgz:12133.got - 2010.06.03 11:33:40.
