data_PCOD9148677
_publ_section_title
;
Structure prediction by ZEFSAII (Michael W. Deem and Ramdas Pophale) SiO2 
 PCOD9148677
Probable space group: P 2/M
;
_chemical_formula_sum "Si O2"
_cell_formula_units_Z 24
_cell_length_a 31.519690
_cell_length_b 9.238071
_cell_length_c 9.181897
_cell_angle_alpha 90.000000
_cell_angle_beta 30.236502
_cell_angle_gamma 90.000000
_cell_volume 1346.343547
_symmetry_space_group_name_H-M "P 2/M"
_symmetry_group_IT_number 10
_symmetry_cell_setting 'monoclinic'
loop_
_space_group_symop_operation_xyz
x,y,z
-x,y,-z
-x,-y,-z
x,-y,z
loop_
_atom_site_type_symbol
_atom_site_label
_atom_site_fract_x
_atom_site_fract_y
_atom_site_fract_z
Si Si1 0.505938 0.327279 0.312365
Si Si2 0.824139 0.172035 0.379310
Si Si3 0.664052 0.672553 0.363259
Si Si4 0.344293 0.827513 0.302982
Si Si5 0.824113 0.674428 0.691024
Si Si6 0.009838 0.665860 0.147382
O O1 0.500000 0.289005 0.500000
O O2 0.522647 0.500000 0.253044
O O3 0.417312 0.298982 0.495729
O O4 0.580044 0.242260 0.013035
O O5 0.743818 0.203123 0.517163
O O6 0.812032 0.247645 0.572180
O O7 0.831702 0.000000 0.376613
O O8 0.910449 0.235140 0.056045
O O9 0.665705 0.500000 0.388675
O O10 0.657048 0.758690 0.533355
O O11 0.748655 0.709624 0.023744
O O12 0.354990 0.000000 0.279621
O O13 0.824365 0.500000 0.665959
O O14 0.917253 0.711996 0.475256
O O15 0.026359 0.500000 0.142861
O O16 0.000000 0.666611 0.000000
#
# Coordination Sequence:
#
# PCOD9148677 Si02
#       6
#     4   4   4   4   4   4
#     4  10  21  38  61  85 105 131 172 219 264 311
#     4  10  20  33  51  77 107 141 180 217 258 310
#     4  10  21  37  57  80 106 138 175 214 261 316
#     4  11  24  38  52  76 111 146 177 212 258 311
#     4   9  18  34  56  81 106 134 174 222 267 311
#     4   8  15  29  51  78 105 134 172 219 266 308
#
# _framework density 17.826059000000001
#
# number of rings (size 3 to 8) (size 9 to 14) (size 15 to 20)
#    0.000    2.333    0.000    3.500    0.000   10.667 
#    0.000    0.833    0.000    5.000    0.000    0.000 
#    0.000    0.000    0.000    0.000    0.000    0.000 
#
# Total GULP energy -133948.842406 kJ/mol
# GULP energy per Si atom -5581.201767 kJ/mol
# Density = 1.778549 g / cm^3
# Si number density = 17.826059 Si / 1000 Ang^3
#
#
#
# Elastic Constant Matrix: (Units=GPa)
#
#
# Indices 1 2 3 4 5 6 
#
# 1 86.1690 58.5822 125.4555 0.0000 13.7113 0.0000
# 2 58.5822 52.0743 91.3384 0.0000 -1.0922 0.0000
# 3 125.4555 91.3384 176.6483 0.0000 -25.6528 0.0000
# 4 0.0000 0.0000 0.0000 15.0273 0.0000 -12.0432
# 5 13.7113 -1.0922 -25.6528 0.0000 16.4393 0.0000
# 6 0.0000 0.0000 0.0000 -12.0432 0.0000 22.7155
#
#
#
# Elastic Compliance Matrix: (Units=1/GPa)
#
#
# Indices 1 2 3 4 5 6 
#
# 1 0.008588 -0.046502 0.021278 0.000000 0.022951 0.000000
# 2 -0.046502 0.104876 -0.018823 0.000000 0.016381 0.000000
# 3 0.021278 -0.018823 -0.003203 0.000000 -0.023996 0.000000
# 4 0.000000 0.000000 0.000000 0.115710 0.000000 0.061346
# 5 0.022951 0.016381 -0.023996 0.000000 0.005331 0.000000
# 6 0.000000 0.000000 0.000000 0.061346 0.000000 0.076547
#
#
# Mechanical properties :
#
#
# Convention : Reuss Voigt Hill
#
# Bulk Modulus (GPa) = 45.11076 96.18264 70.64670
# Shear Modulus (GPa) = 12.39675 13.47078 12.93376
#
# Velocity S-wave (km/s) = 2.63996 2.75194 2.69653
# Velocity P-wave (km/s) = 5.88672 8.01068 7.02938
#
# Compressibility (1/GPa) = 0.02216766
#
# Stress axis : x y z
#
# Youngs Moduli (GPa) = 116.43990 9.53506 -312.20755
#
# Poissons Ratio (x) = 0.44340 6.64326
# Poissons Ratio (y) = 5.41472 -5.87663
# Poissons Ratio (z) = -2.47765 0.17948
#
# Static dielectric constant tensor:
#      x y z
#    x 1.581320 0.000000 -0.017330 
#    y 0.000000 1.591900 0.000000 
#    z -0.017330 0.000000 1.611140 
# 
# From -- ./inp_files/27060.got.cif
#   From: 2010.05.17/outbox.cif.g08.bks.cpg/sg10_14_cif.got.tgz:27060.got - 2010.06.03 11:33:40.
