data_PCOD9148810
_publ_section_title
;
Structure prediction by ZEFSAII (Michael W. Deem and Ramdas Pophale) SiO2 
 PCOD9148810
Probable space group: P 2/M
;
_chemical_formula_sum "Si O2"
_cell_formula_units_Z 28
_cell_length_a 11.885030
_cell_length_b 24.305340
_cell_length_c 5.352766
_cell_angle_alpha 90.000000
_cell_angle_beta 97.857979
_cell_angle_gamma 90.000000
_cell_volume 1531.732576
_symmetry_space_group_name_H-M "P 2/M"
_symmetry_group_IT_number 10
_symmetry_cell_setting 'monoclinic'
loop_
_space_group_symop_operation_xyz
x,y,z
-x,y,-z
-x,-y,-z
x,-y,z
loop_
_atom_site_type_symbol
_atom_site_label
_atom_site_fract_x
_atom_site_fract_y
_atom_site_fract_z
Si Si1 0.076250 0.000000 0.772640
Si Si2 0.828571 0.561064 0.808543
Si Si3 0.250144 0.778569 0.846629
Si Si4 0.077431 0.121220 0.774326
Si Si5 0.199377 0.658712 0.818790
Si Si6 0.371495 0.251116 0.367041
Si Si7 0.000000 0.394397 0.500000
Si Si8 0.631509 0.625758 0.512739
O O1 0.133776 0.059996 0.786678
O O2 0.000000 0.000000 0.500000
O O3 0.000000 0.000000 0.000000
O O4 0.816659 0.500000 0.911079
O O5 0.944952 0.566257 0.690209
O O6 0.716096 0.576661 0.613046
O O7 0.830072 0.611155 0.999125
O O8 0.169619 0.830956 0.819647
O O9 0.185649 0.721482 0.891251
O O10 0.297457 0.769354 0.580585
O O11 0.342306 0.779493 0.099623
O O12 0.000000 0.127096 0.500000
O O13 0.000000 0.124103 0.000000
O O14 0.324455 0.646060 0.745193
O O15 0.105635 0.645979 0.580793
O O16 0.500000 0.244921 0.500000
O O17 0.352464 0.317199 0.326620
O O18 0.500000 0.610665 0.500000
#
# Coordination Sequence:
#
# PCOD9148810 Si02
#       8
#     2   4   4   4   4   4   2   4
#     4   8  16  32  50  74 113 156 197 222 262 320
#     4  11  22  38  55  75  99 133 179 221 272 335
#     4  11  21  35  56  86 114 142 188 226 283 330
#     4  10  20  33  53  83 119 157 187 228 271 326
#     4  10  22  36  54  78 106 135 178 222 276 329
#     4  10  20  37  59  81 110 144 182 233 282 335
#     4  10  23  38  54  72 100 143 170 220 266 333
#     4   9  20  38  56  75 102 134 169 223 285 333
#
# _framework density 18.279955000000001
#
# number of rings (size 3 to 8) (size 9 to 14) (size 15 to 20)
#    0.000    2.000    1.429    1.929    1.000    5.429 
#    0.000    0.714    0.000    0.000    0.000    3.000 
#    0.000    0.000    0.000    0.000    0.000    0.000 
#
# Total GULP energy -155907.146022 kJ/mol
# GULP energy per Si atom -5568.112358 kJ/mol
# Density = 1.823835 g / cm^3
# Si number density = 18.279955 Si / 1000 Ang^3
#
#
#
# Elastic Constant Matrix: (Units=GPa)
#
#
# Indices 1 2 3 4 5 6 
#
# 1 78.1685 37.3683 7.5532 0.0000 -5.1794 0.0000
# 2 37.3683 144.9292 16.1629 0.0000 7.5115 0.0000
# 3 7.5532 16.1629 68.1290 0.0000 0.8008 0.0000
# 4 0.0000 0.0000 0.0000 46.9827 0.0000 -8.2395
# 5 -5.1794 7.5115 0.8008 0.0000 23.3324 0.0000
# 6 0.0000 0.0000 0.0000 -8.2395 0.0000 23.3493
#
#
#
# Elastic Compliance Matrix: (Units=1/GPa)
#
#
# Indices 1 2 3 4 5 6 
#
# 1 0.015116 -0.004055 -0.000769 0.000000 0.004687 0.000000
# 2 -0.004055 0.008292 -0.001476 0.000000 -0.003519 0.000000
# 3 -0.000769 -0.001476 0.015116 0.000000 -0.000214 0.000000
# 4 0.000000 0.000000 0.000000 0.022689 0.000000 0.008006
# 5 0.004687 -0.003519 -0.000214 0.000000 0.045040 0.000000
# 6 0.000000 0.000000 0.000000 0.008006 0.000000 0.045653
#
#
# Mechanical properties :
#
#
# Convention : Reuss Voigt Hill
#
# Bulk Modulus (GPa) = 38.57374 45.93282 42.25328
# Shear Modulus (GPa) = 28.87713 34.07571 31.47642
#
# Velocity S-wave (km/s) = 3.97888 4.32221 4.15409
# Velocity P-wave (km/s) = 6.50047 7.07747 6.79510
#
# Compressibility (1/GPa) = 0.02592437
#
# Stress axis : x y z
#
# Youngs Moduli (GPa) = 66.15475 120.59231 66.15473
#
# Poissons Ratio (x) = 0.48896 0.05087
# Poissons Ratio (y) = 0.26824 0.09767
# Poissons Ratio (z) = 0.05087 0.17804
#
# Static dielectric constant tensor:
#      x y z
#    x 1.628190 0.000000 0.024760 
#    y 0.000000 1.639880 0.000000 
#    z 0.024760 0.000000 1.757660 
# 
# From -- ./inp_files/7934.got.cif
#   From: 2010.05.17/outbox.cif.g08.bks.cpg/sg10_4_cif.got.tgz:7934.got - 2010.06.03 11:33:40.
