data_PCOD9148882
_publ_section_title
;
Structure prediction by ZEFSAII (Michael W. Deem and Ramdas Pophale) SiO2 
 PCOD9148882
Probable space group: P 2/M
;
_chemical_formula_sum "Si O2"
_cell_formula_units_Z 32
_cell_length_a 11.573059
_cell_length_b 14.989677
_cell_length_c 9.581969
_cell_angle_alpha 90.000000
_cell_angle_beta 77.029366
_cell_angle_gamma 90.000000
_cell_volume 1619.833831
_symmetry_space_group_name_H-M "P 2/M"
_symmetry_group_IT_number 10
_symmetry_cell_setting 'monoclinic'
loop_
_space_group_symop_operation_xyz
x,y,z
-x,y,-z
-x,-y,-z
x,-y,z
loop_
_atom_site_type_symbol
_atom_site_label
_atom_site_fract_x
_atom_site_fract_y
_atom_site_fract_z
Si Si1 0.711399 0.105292 0.768795
Si Si2 0.761127 0.397652 0.110077
Si Si3 0.107809 0.776662 0.861443
Si Si4 0.988449 0.103716 0.669617
Si Si5 0.318658 0.101544 0.916859
Si Si6 0.617507 0.607362 0.890478
Si Si7 0.519953 0.358858 0.337113
Si Si8 0.490733 0.846797 0.349875
O O1 0.850856 0.120925 0.741932
O O2 0.644296 0.155576 0.664573
O O3 0.695109 0.000000 0.746008
O O4 0.653458 0.128927 0.932519
O O5 0.804645 0.500000 0.095264
O O6 0.848693 0.325771 0.154333
O O7 0.636061 0.397434 0.228730
O O8 0.727284 0.366405 0.960121
O O9 0.218944 0.833728 0.885475
O O10 0.066333 0.824494 0.730589
O O11 0.000000 0.784157 0.000000
O O12 0.000000 0.110013 0.500000
O O13 0.017036 0.000000 0.701568
O O14 0.431746 0.104183 0.786757
O O15 0.272544 0.000000 0.937037
O O16 0.615976 0.500000 0.901442
O O17 0.593095 0.628184 0.735209
O O18 0.500000 0.643874 0.000000
O O19 0.500000 0.392742 0.500000
O O20 0.540476 0.253132 0.343109
O O21 0.500000 0.887855 0.500000
#
# Coordination Sequence:
#
# PCOD9148882 Si02
#       8
#     4   4   4   4   4   4   4   4
#     4  10  22  39  58  86 122 164 207 250 304 365
#     4  10  22  40  61  90 122 159 207 258 317 374
#     4  12  24  41  66  91 118 161 212 266 313 364
#     4  10  23  41  64  93 128 168 210 259 307 363
#     4  11  23  39  61  89 122 160 204 254 306 371
#     4   8  16  31  53  81 114 152 193 241 300 365
#     4  10  20  33  56  90 126 161 205 248 304 376
#     4  11  24  37  56  91 130 166 204 245 304 379
#
# _framework density 19.755112
#
# number of rings (size 3 to 8) (size 9 to 14) (size 15 to 20)
#    0.000    1.750    2.500    2.250    3.500    4.750 
#    0.000    0.000    0.000    0.375    0.000    0.000 
#    0.000    0.000    0.000    0.000    0.000    0.000 
#
# Total GULP energy -178581.244041 kJ/mol
# GULP energy per Si atom -5580.663876 kJ/mol
# Density = 1.971015 g / cm^3
# Si number density = 19.755112 Si / 1000 Ang^3
#
#
#
# Elastic Constant Matrix: (Units=GPa)
#
#
# Indices 1 2 3 4 5 6 
#
# 1 62.5385 32.3320 30.4020 0.0000 17.5976 0.0000
# 2 32.3320 89.3748 24.3020 0.0000 18.8727 0.0000
# 3 30.4020 24.3020 125.8496 0.0000 21.1302 0.0000
# 4 0.0000 0.0000 0.0000 21.4516 0.0000 6.8173
# 5 17.5976 18.8727 21.1302 0.0000 26.7382 0.0000
# 6 0.0000 0.0000 0.0000 6.8173 0.0000 31.6322
#
#
#
# Elastic Compliance Matrix: (Units=1/GPa)
#
#
# Indices 1 2 3 4 5 6 
#
# 1 0.022769 -0.005596 -0.002960 0.000000 -0.008697 0.000000
# 2 -0.005596 0.014665 -0.000416 0.000000 -0.006340 0.000000
# 3 -0.002960 -0.000416 0.009645 0.000000 -0.005381 0.000000
# 4 0.000000 0.000000 0.000000 0.050044 0.000000 -0.010785
# 5 -0.008697 -0.006340 -0.005381 0.000000 0.051850 0.000000
# 6 0.000000 0.000000 0.000000 -0.010785 0.000000 0.033938
#
#
# Mechanical properties :
#
#
# Convention : Reuss Voigt Hill
#
# Bulk Modulus (GPa) = 34.32111 50.20388 42.26249
# Shear Modulus (GPa) = 23.74565 28.67952 26.21259
#
# Velocity S-wave (km/s) = 3.47075 3.81432 3.64658
# Velocity P-wave (km/s) = 5.78554 6.69828 6.25857
#
# Compressibility (1/GPa) = 0.02913659
#
# Stress axis : x y z
#
# Youngs Moduli (GPa) = 43.91925 68.19040 103.68472
#
# Poissons Ratio (x) = 0.38157 0.30687
# Poissons Ratio (y) = 0.24576 0.04309
# Poissons Ratio (z) = 0.12999 0.02834
#
# Static dielectric constant tensor:
#      x y z
#    x 1.688930 0.000000 0.009270 
#    y 0.000000 1.703770 0.000000 
#    z 0.009270 0.000000 1.728880 
# 
# From -- ./inp_files/25312.got.cif
#   From: 2010.05.17/outbox.cif.g08.bks.cpg/sg10_13_cif.got.tgz:25312.got - 2010.06.03 11:33:40.
