data_PCOD9148124
_publ_section_title
;
Structure prediction by ZEFSAII (Michael W. Deem and Ramdas Pophale) SiO2 
 PCOD9148124
Probable space group: P 2/M
;
_chemical_formula_sum "Si O2"
_cell_formula_units_Z 32
_cell_length_a 21.142154
_cell_length_b 18.476995
_cell_length_c 8.857290
_cell_angle_alpha 90.000000
_cell_angle_beta 151.428161
_cell_angle_gamma 90.000000
_cell_volume 1654.800875
_symmetry_space_group_name_H-M "P 2/M"
_symmetry_group_IT_number 10
_symmetry_cell_setting 'monoclinic'
loop_
_space_group_symop_operation_xyz
x,y,z
-x,y,-z
-x,-y,-z
x,-y,z
loop_
_atom_site_type_symbol
_atom_site_label
_atom_site_fract_x
_atom_site_fract_y
_atom_site_fract_z
Si Si1 0.239609 0.233537 0.664852
Si Si2 0.636767 0.916922 0.588131
Si Si3 0.643109 0.793062 0.387335
Si Si4 0.491679 0.301876 0.656263
Si Si5 0.064179 0.584227 0.982092
Si Si6 0.891757 0.660262 0.393273
Si Si7 0.320412 0.915041 0.977894
Si Si8 0.291711 0.413388 0.233905
O O1 0.246986 0.233307 0.499612
O O2 0.133225 0.275879 0.540129
O O3 0.370161 0.279925 0.982884
O O4 0.253248 0.149996 0.745619
O O5 0.680454 0.868587 0.540948
O O6 0.477249 0.909713 0.269549
O O7 0.693395 0.898764 0.872311
O O8 0.666979 0.000000 0.622689
O O9 0.616046 0.742321 0.473843
O O10 0.500000 0.799446 0.000000
O O11 0.500000 0.278993 0.500000
O O12 0.440732 0.383916 0.561280
O O13 0.086531 0.500000 0.061116
O O14 0.956567 0.595569 0.625110
O O15 0.201512 0.607843 0.190573
O O16 0.000000 0.616889 0.000000
O O17 0.000000 0.685234 0.500000
O O18 0.770141 0.628824 0.040342
O O19 0.283176 0.000000 0.873417
O O20 0.284047 0.500000 0.199013
#
# Coordination Sequence:
#
# PCOD9148124 Si02
#       8
#     4   4   4   4   4   4   4   4
#     4  11  21  34  51  78 111 139 172 216 266 309
#     4   9  16  27  44  70 103 139 176 209 245 306
#     4  10  20  29  45  71 106 143 170 206 258 309
#     4  11  20  34  51  75 107 144 171 208 259 320
#     4   9  19  37  58  78 103 134 170 219 271 310
#     4  10  21  37  57  79 100 133 177 225 258 308
#     4   9  17  29  48  71 102 141 178 209 249 307
#     4  10  21  36  56  79 102 136 178 219 256 314
#
# _framework density 19.337675000000001
#
# number of rings (size 3 to 8) (size 9 to 14) (size 15 to 20)
#    0.000    2.125    3.750    1.875    1.750    2.500 
#    0.000    0.000    0.000    3.750    0.000    0.000 
#    0.000    2.500    0.000    0.000    0.000    0.000 
#
# Total GULP energy -178225.093366 kJ/mol
# GULP energy per Si atom -5569.534168 kJ/mol
# Density = 1.929366 g / cm^3
# Si number density = 19.337675 Si / 1000 Ang^3
#
#
#
# Elastic Constant Matrix: (Units=GPa)
#
#
# Indices 1 2 3 4 5 6 
#
# 1 145.0679 43.7911 9.3790 0.0000 -23.1135 0.0000
# 2 43.7911 67.4519 8.2389 0.0000 -5.7752 0.0000
# 3 9.3790 8.2389 10.9169 0.0000 -1.0169 0.0000
# 4 0.0000 0.0000 0.0000 0.3848 0.0000 34.7378
# 5 -23.1135 -5.7752 -1.0169 0.0000 12.6408 0.0000
# 6 0.0000 0.0000 0.0000 34.7378 0.0000 -164.2628
#
#
#
# Elastic Compliance Matrix: (Units=1/GPa)
#
#
# Indices 1 2 3 4 5 6 
#
# 1 0.011834 -0.005561 -0.004223 0.000000 0.018757 0.000000
# 2 -0.005561 0.019495 -0.010129 0.000000 -0.002076 0.000000
# 3 -0.004223 -0.010129 0.102490 0.000000 -0.004103 0.000000
# 4 0.000000 0.000000 0.000000 0.129348 0.000000 0.027354
# 5 0.018757 -0.002076 -0.004103 0.000000 0.112128 0.000000
# 6 0.000000 0.000000 0.000000 0.027354 0.000000 -0.000303
#
#
# Mechanical properties :
#
#
# Convention : Reuss Voigt Hill
#
# Bulk Modulus (GPa) = 10.63890 38.47276 24.55583
# Shear Modulus (GPa) = 11.20709 -19.44559 -4.11925
#
# Velocity S-wave (km/s) = 2.40999 -3.17453 -1.46109
# Velocity P-wave (km/s) = 3.64111 2.54982 3.14319
#
# Compressibility (1/GPa) = 0.09399472
#
# Stress axis : x y z
#
# Youngs Moduli (GPa) = 84.50583 51.29522 9.75704
#
# Poissons Ratio (x) = 0.28524 0.04120
# Poissons Ratio (y) = 0.46992 0.09883
# Poissons Ratio (z) = 0.35683 0.51955
#
# Static dielectric constant tensor:
#      x y z
#    x 1.725500 0.000000 0.005240 
#    y 0.000000 1.701050 0.000000 
#    z 0.005240 0.000000 1.707650 
# 
# From -- ./inp_files/35443.got.cif
#   From: 2010.05.17/outbox.cif.g08.bks.cpg/sg10_18_cif.got.tgz:35443.got - 2010.06.03 11:33:40.
