data_PCOD9148243
_publ_section_title
;
Structure prediction by ZEFSAII (Michael W. Deem and Ramdas Pophale) SiO2 
 PCOD9148243
Probable space group: P 2/M
;
_chemical_formula_sum "Si O2"
_cell_formula_units_Z 24
_cell_length_a 6.967575
_cell_length_b 9.953017
_cell_length_c 20.510505
_cell_angle_alpha 90.000000
_cell_angle_beta 49.683422
_cell_angle_gamma 90.000000
_cell_volume 1084.530740
_symmetry_space_group_name_H-M "P 2/M"
_symmetry_group_IT_number 10
_symmetry_cell_setting 'monoclinic'
loop_
_space_group_symop_operation_xyz
x,y,z
-x,y,-z
-x,-y,-z
x,-y,z
loop_
_atom_site_type_symbol
_atom_site_label
_atom_site_fract_x
_atom_site_fract_y
_atom_site_fract_z
Si Si1 0.903581 0.344408 0.885501
Si Si2 0.115781 0.154999 0.734990
Si Si3 0.570371 0.148846 0.779295
Si Si4 0.257643 0.349608 0.598246
Si Si5 0.629999 0.653452 0.075281
Si Si6 0.922022 0.152994 0.592718
O O1 0.993469 0.500000 0.861967
O O2 0.637424 0.343727 0.904518
O O3 0.069100 0.234327 0.812109
O O4 0.832745 0.308903 0.975421
O O5 0.289090 0.247391 0.650996
O O6 0.843553 0.153437 0.756693
O O7 0.191220 0.000000 0.724679
O O8 0.405922 0.257168 0.853165
O O9 0.644636 0.163355 0.686569
O O10 0.464776 0.000000 0.812582
O O11 0.500000 0.358193 0.500000
O O12 0.184377 0.500000 0.636127
O O13 0.056188 0.278469 0.596473
O O14 0.677422 0.500000 0.083417
O O15 0.000000 0.159517 0.500000
O O16 0.005921 0.000000 0.594557
#
# Coordination Sequence:
#
# PCOD9148243 Si02
#       6
#     4   4   4   4   4   4
#     4   8  13  21  32  48  73 104 136 169 206 249
#     4   9  16  25  38  56  78 107 141 175 214 257
#     4   8  14  23  35  53  77 105 136 171 210 250
#     4  10  20  32  46  65  89 117 149 184 221 261
#     4   8  13  20  31  48  72 104 137 167 203 249
#     4   9  18  32  48  66  89 117 149 184 222 263
#
# _framework density 22.129384999999999
#
# number of rings (size 3 to 8) (size 9 to 14) (size 15 to 20)
#    0.000    3.333    0.000    3.000    0.000    6.333 
#    0.000    3.333    0.000    0.000    0.000    0.000 
#    0.000    1.333    0.000   15.000    0.000   18.333 
#
# Total GULP energy -133858.438587 kJ/mol
# GULP energy per Si atom -5577.434941 kJ/mol
# Density = 2.207902 g / cm^3
# Si number density = 22.129385 Si / 1000 Ang^3
#
#
#
# Elastic Constant Matrix: (Units=GPa)
#
#
# Indices 1 2 3 4 5 6 
#
# 1 58.0044 23.3439 20.4970 0.0000 16.4998 0.0000
# 2 23.3439 185.6743 129.3883 0.0000 10.5765 0.0000
# 3 20.4970 129.3883 199.9162 0.0000 25.6047 0.0000
# 4 0.0000 0.0000 0.0000 38.2876 0.0000 5.6489
# 5 16.4998 10.5765 25.6047 0.0000 32.7190 0.0000
# 6 0.0000 0.0000 0.0000 5.6489 0.0000 1.2137
#
#
#
# Elastic Compliance Matrix: (Units=1/GPa)
#
#
# Indices 1 2 3 4 5 6 
#
# 1 0.020960 -0.002685 0.000924 0.000000 -0.010425 0.000000
# 2 -0.002685 0.010273 -0.006804 0.000000 0.003358 0.000000
# 3 0.000924 -0.006804 0.010101 0.000000 -0.006172 0.000000
# 4 0.000000 0.000000 0.000000 0.083354 0.000000 -0.387940
# 5 -0.010425 0.003358 -0.006172 0.000000 0.039565 0.000000
# 6 0.000000 0.000000 0.000000 -0.387940 0.000000 2.629417
#
#
# Mechanical properties :
#
#
# Convention : Reuss Voigt Hill
#
# Bulk Modulus (GPa) = 41.31465 87.78370 64.54917
# Shear Modulus (GPa) = 1.77376 32.46845 17.12111
#
# Velocity S-wave (km/s) = 0.89626 3.83457 2.78453
# Velocity P-wave (km/s) = 4.44760 7.70453 6.29051
#
# Compressibility (1/GPa) = 0.02420449
#
# Stress axis : x y z
#
# Youngs Moduli (GPa) = 47.71072 97.33880 98.99739
#
# Poissons Ratio (x) = 0.26140 -0.09150
# Poissons Ratio (y) = 0.12812 0.67356
# Poissons Ratio (z) = -0.04410 0.66227
#
# Static dielectric constant tensor:
#      x y z
#    x 1.974190 0.000000 -0.011970 
#    y 0.000000 1.755940 0.000000 
#    z -0.011970 0.000000 1.816120 
# 
# From -- ./inp_files/33775.got.cif
#   From: 2010.05.17/outbox.cif.g08.bks.cpg/sg10_17_cif.got.tgz:33775.got - 2010.06.03 11:33:40.
