data_PCOD9148064
_publ_section_title
;
Structure prediction by ZEFSAII (Michael W. Deem and Ramdas Pophale) SiO2 
 PCOD9148064
Probable space group: P 2/M
;
_chemical_formula_sum "Si O2"
_cell_formula_units_Z 28
_cell_length_a 20.445852
_cell_length_b 9.177008
_cell_length_c 23.796257
_cell_angle_alpha 90.000000
_cell_angle_beta 18.924303
_cell_angle_gamma 90.000000
_cell_volume 1448.061302
_symmetry_space_group_name_H-M "P 2/M"
_symmetry_group_IT_number 10
_symmetry_cell_setting 'monoclinic'
loop_
_space_group_symop_operation_xyz
x,y,z
-x,y,-z
-x,-y,-z
x,-y,z
loop_
_atom_site_type_symbol
_atom_site_label
_atom_site_fract_x
_atom_site_fract_y
_atom_site_fract_z
Si Si1 0.278452 0.840680 0.649498
Si Si2 0.102272 0.327443 0.258925
Si Si3 0.217970 0.671063 0.293504
Si Si4 0.375100 0.325401 0.345731
Si Si5 0.560495 0.174415 0.085377
Si Si6 0.213758 0.343496 0.799044
Si Si7 0.486592 0.829703 0.368650
O O1 0.500000 0.844865 0.500000
O O2 0.178073 0.712655 0.765126
O O3 0.305681 0.817401 0.561366
O O4 0.186184 0.000000 0.734267
O O5 0.116192 0.500000 0.234161
O O6 0.196718 0.306386 0.244207
O O7 0.865121 0.290683 0.457999
O O8 0.229448 0.236975 0.110135
O O9 0.270634 0.500000 0.260709
O O10 0.386474 0.772415 0.183698
O O11 0.000000 0.694919 0.500000
O O12 0.394881 0.500000 0.323890
O O13 0.491465 0.246349 0.200387
O O14 0.458371 0.267270 0.337108
O O15 0.567427 0.000000 0.084081
O O16 0.323306 0.500000 0.709487
O O17 0.329409 0.228563 0.743657
O O18 0.000000 0.359257 0.000000
O O19 0.508550 0.000000 0.336724
#
# Coordination Sequence:
#
# PCOD9148064 Si02
#       7
#     4   4   4   4   4   4   4
#     4   8  16  32  54  78 106 141 179 225 281 339
#     4  10  22  41  65  89 117 160 209 255 303 362
#     4  10  19  38  65  90 118 159 208 254 306 361
#     4  11  23  43  66  87 118 163 210 253 301 361
#     4  12  25  39  60  92 128 161 199 253 312 366
#     4  10  20  34  55  86 118 150 193 241 284 338
#     4  10  21  38  59  85 116 152 191 237 301 359
#
# _framework density 19.336196000000001
#
# number of rings (size 3 to 8) (size 9 to 14) (size 15 to 20)
#    0.000    1.857    1.429    3.857    0.000    8.000 
#    2.571    0.000    0.000    0.000    0.000    0.000 
#    0.000    0.000    0.000    0.000    0.000    0.000 
#
# Total GULP energy -156180.819097 kJ/mol
# GULP energy per Si atom -5577.886396 kJ/mol
# Density = 1.929219 g / cm^3
# Si number density = 19.336196 Si / 1000 Ang^3
#
#
#
# Elastic Constant Matrix: (Units=GPa)
#
#
# Indices 1 2 3 4 5 6 
#
# 1 83.6407 39.9976 34.0981 0.0000 25.2544 0.0000
# 2 39.9976 100.5155 63.4948 0.0000 28.6120 0.0000
# 3 34.0981 63.4948 86.2127 0.0000 33.2720 0.0000
# 4 0.0000 0.0000 0.0000 49.5861 0.0000 -24.7447
# 5 25.2544 28.6120 33.2720 0.0000 21.6379 0.0000
# 6 0.0000 0.0000 0.0000 -24.7447 0.0000 66.1340
#
#
#
# Elastic Compliance Matrix: (Units=1/GPa)
#
#
# Indices 1 2 3 4 5 6 
#
# 1 0.019275 -0.003435 0.004515 0.000000 -0.024897 0.000000
# 2 -0.003435 0.019904 -0.011537 0.000000 -0.004571 0.000000
# 3 0.004515 -0.011537 0.035557 0.000000 -0.044690 0.000000
# 4 0.000000 0.000000 0.000000 0.024797 0.000000 0.009278
# 5 -0.024897 -0.004571 -0.044690 0.000000 0.150036 0.000000
# 6 0.000000 0.000000 0.000000 0.009278 0.000000 0.018592
#
#
# Mechanical properties :
#
#
# Convention : Reuss Voigt Hill
#
# Bulk Modulus (GPa) = 18.57944 60.61666 39.59805
# Shear Modulus (GPa) = 16.28573 36.32349 26.30461
#
# Velocity S-wave (km/s) = 2.90529 4.33889 3.69234
# Velocity P-wave (km/s) = 4.56987 7.51786 6.22101
#
# Compressibility (1/GPa) = 0.05382293
#
# Stress axis : x y z
#
# Youngs Moduli (GPa) = 51.87962 50.24022 28.12360
#
# Poissons Ratio (x) = 0.17258 -0.12697
# Poissons Ratio (y) = 0.17821 0.32445
# Poissons Ratio (z) = -0.23422 0.57961
#
# Static dielectric constant tensor:
#      x y z
#    x 1.674120 0.000000 0.013590 
#    y 0.000000 1.724630 0.000000 
#    z 0.013590 0.000000 1.705810 
# 
# From -- ./inp_files/90350.got.cif
#   From: 2010.05.17/outbox.cif.g08.bks.cpg/sg10_46_cif.got.tgz:90350.got - 2010.06.03 11:33:40.
