data_PCOD9148295
_publ_section_title
;
Structure prediction by ZEFSAII (Michael W. Deem and Ramdas Pophale) SiO2 
 PCOD9148295
Probable space group: P 2/M
;
_chemical_formula_sum "Si O2"
_cell_formula_units_Z 28
_cell_length_a 17.594443
_cell_length_b 8.651249
_cell_length_c 17.199592
_cell_angle_alpha 90.000000
_cell_angle_beta 26.448454
_cell_angle_gamma 90.000000
_cell_volume 1166.045202
_symmetry_space_group_name_H-M "P 2/M"
_symmetry_group_IT_number 10
_symmetry_cell_setting 'monoclinic'
loop_
_space_group_symop_operation_xyz
x,y,z
-x,y,-z
-x,-y,-z
x,-y,z
loop_
_atom_site_type_symbol
_atom_site_label
_atom_site_fract_x
_atom_site_fract_y
_atom_site_fract_z
Si Si1 0.619911 0.686085 0.064989
Si Si2 0.757364 0.314522 0.216172
Si Si3 0.902696 0.184712 0.687108
Si Si4 0.657164 0.680699 0.792933
Si Si5 0.851377 0.180766 0.978312
Si Si6 0.379573 0.315163 0.498843
Si Si7 0.838137 0.181680 0.429058
O O1 0.623326 0.500000 0.054114
O O2 0.435287 0.738295 0.201183
O O3 0.694546 0.731366 0.079886
O O4 0.756006 0.762613 0.881808
O O5 0.780681 0.500000 0.196039
O O6 0.879802 0.244603 0.038880
O O7 0.570000 0.278683 0.351874
O O8 0.740765 0.258260 0.319918
O O9 0.820264 0.236034 0.681023
O O10 0.074386 0.246535 0.572325
O O11 0.916229 0.000000 0.673691
O O12 0.699851 0.500000 0.746532
O O13 0.500000 0.691017 0.000000
O O14 0.810600 0.000000 0.019785
O O15 0.011277 0.199123 0.773955
O O16 0.366723 0.500000 0.509008
O O17 0.319983 0.256564 0.470176
O O18 0.805030 0.000000 0.470202
#
# Coordination Sequence:
#
# PCOD9148295 Si02
#       7
#     4   4   4   4   4   4   4
#     4   9  16  26  40  60  89 123 156 193 233 271
#     4   9  19  36  53  71  94 119 154 198 236 277
#     4   9  16  25  38  60  91 124 155 190 231 274
#     4   8  14  23  36  57  85 119 157 191 227 272
#     4  10  20  32  47  71  99 127 158 191 233 283
#     4   9  19  35  54  72  91 120 158 195 233 280
#     4   9  19  32  45  68 101 128 155 193 233 276
#
# _framework density 24.012789999999999
#
# number of rings (size 3 to 8) (size 9 to 14) (size 15 to 20)
#    0.000    3.000    0.000    3.857    0.000    8.286 
#    0.000    4.286    0.000    0.000    0.000    1.000 
#    0.000    8.000    0.000    0.000    0.000    0.000 
#
# Total GULP energy -156379.931062 kJ/mol
# GULP energy per Si atom -5584.997538 kJ/mol
# Density = 2.395814 g / cm^3
# Si number density = 24.012790 Si / 1000 Ang^3
#
#
#
# Elastic Constant Matrix: (Units=GPa)
#
#
# Indices 1 2 3 4 5 6 
#
# 1 182.4373 14.5385 19.2068 0.0000 -3.3249 0.0000
# 2 14.5385 15.8770 6.0996 0.0000 -7.1169 0.0000
# 3 19.2068 6.0996 67.7563 0.0000 -18.0120 0.0000
# 4 0.0000 0.0000 0.0000 0.3845 0.0000 10.0743
# 5 -3.3249 -7.1169 -18.0120 0.0000 55.0077 0.0000
# 6 0.0000 0.0000 0.0000 10.0743 0.0000 25.1875
#
#
#
# Elastic Compliance Matrix: (Units=1/GPa)
#
#
# Indices 1 2 3 4 5 6 
#
# 1 0.006044 -0.005337 -0.001445 0.000000 -0.000798 0.000000
# 2 -0.005337 0.072618 -0.002861 0.000000 0.008136 0.000000
# 3 -0.001445 -0.002861 0.016764 0.000000 0.005032 0.000000
# 4 0.000000 0.000000 0.000000 -0.274352 0.000000 0.109733
# 5 -0.000798 0.008136 0.005032 0.000000 0.020831 0.000000
# 6 0.000000 0.000000 0.000000 0.109733 0.000000 -0.004188
#
#
# Mechanical properties :
#
#
# Convention : Reuss Voigt Hill
#
# Bulk Modulus (GPa) = 13.13413 38.41781 25.77597
# Shear Modulus (GPa) = -42.51134 31.19764 -5.65685
#
# Velocity S-wave (km/s) = -4.21213 3.60836 -1.53652
# Velocity P-wave (km/s) = 4.26316 5.77876 2.75857
#
# Compressibility (1/GPa) = 0.07613753
#
# Stress axis : x y z
#
# Youngs Moduli (GPa) = 165.44606 13.77075 59.65306
#
# Poissons Ratio (x) = 0.07350 0.08621
# Poissons Ratio (y) = 0.88305 0.17070
# Poissons Ratio (z) = 0.23909 0.03940
#
# Static dielectric constant tensor:
#      x y z
#    x 1.942810 0.000000 0.039860 
#    y 0.000000 1.804180 0.000000 
#    z 0.039860 0.000000 1.911230 
# 
# From -- ./inp_files/54469.got.cif
#   From: 2010.05.17/outbox.cif.g08.bks.cpg/sg10_28_cif.got.tgz:54469.got - 2010.06.03 11:33:40.
