data_PCOD9148636
_publ_section_title
;
Structure prediction by ZEFSAII (Michael W. Deem and Ramdas Pophale) SiO2 
 PCOD9148636
Probable space group: P 2/M
;
_chemical_formula_sum "Si O2"
_cell_formula_units_Z 20
_cell_length_a 17.855889
_cell_length_b 7.484105
_cell_length_c 10.342068
_cell_angle_alpha 90.000000
_cell_angle_beta 133.921941
_cell_angle_gamma 90.000000
_cell_volume 995.482033
_symmetry_space_group_name_H-M "P 2/M"
_symmetry_group_IT_number 10
_symmetry_cell_setting 'monoclinic'
loop_
_space_group_symop_operation_xyz
x,y,z
-x,y,-z
-x,-y,-z
x,-y,z
loop_
_atom_site_type_symbol
_atom_site_label
_atom_site_fract_x
_atom_site_fract_y
_atom_site_fract_z
Si Si1 0.496295 0.792021 0.652650
Si Si2 0.929263 0.795849 0.304027
Si Si3 0.729942 0.216453 0.634607
Si Si4 0.723746 0.219644 0.927525
Si Si5 0.047061 0.708439 0.190623
O O1 0.500000 0.788500 0.500000
O O2 0.382700 0.717541 0.549443
O O3 0.608117 0.718575 0.828433
O O4 0.495530 0.000000 0.691328
O O5 0.000000 0.710832 0.500000
O O6 0.996607 0.798167 0.253941
O O7 0.907577 0.000000 0.320180
O O8 0.817648 0.718240 0.130163
O O9 0.743354 0.272082 0.801189
O O10 0.829155 0.273891 0.672086
O O11 0.726642 0.000000 0.631142
O O12 0.723396 0.000000 0.926870
O O13 0.018797 0.500000 0.165102
O O14 0.000000 0.780887 0.000000
#
# Coordination Sequence:
#
# PCOD9148636 Si02
#       5
#     4   4   4   4   4
#     4   7  11  20  39  69  95 116 147 188 239 284
#     4  10  20  33  51  74  97 125 161 196 235 285
#     4   9  15  26  48  72  93 120 155 196 240 280
#     4   8  13  24  44  70  98 121 147 193 241 278
#     4  11  22  33  47  69  99 131 161 195 236 282
#
# _framework density 20.090768000000001
#
# number of rings (size 3 to 8) (size 9 to 14) (size 15 to 20)
#    0.000    3.000    2.000    3.000    0.000    1.200 
#    0.000    0.000    0.000    7.800    0.000    8.400 
#    0.000    0.000    0.000    0.000    0.000    0.000 
#
# Total GULP energy -111447.749118 kJ/mol
# GULP energy per Si atom -5572.387456 kJ/mol
# Density = 2.004504 g / cm^3
# Si number density = 20.090768 Si / 1000 Ang^3
#
#
#
# Elastic Constant Matrix: (Units=GPa)
#
#
# Indices 1 2 3 4 5 6 
#
# 1 81.8236 -7.3124 61.3309 0.0000 41.2101 0.0000
# 2 -7.3124 60.0834 5.5636 0.0000 -0.0531 0.0000
# 3 61.3309 5.5636 151.4396 0.0000 40.6026 0.0000
# 4 0.0000 0.0000 0.0000 0.6584 0.0000 18.1081
# 5 41.2101 -0.0531 40.6026 0.0000 42.2282 0.0000
# 6 0.0000 0.0000 0.0000 18.1081 0.0000 105.1330
#
#
#
# Elastic Compliance Matrix: (Units=1/GPa)
#
#
# Indices 1 2 3 4 5 6 
#
# 1 0.027586 0.003849 -0.005520 0.000000 -0.021609 0.000000
# 2 0.003849 0.017259 -0.001606 0.000000 -0.002191 0.000000
# 3 -0.005520 -0.001606 0.010043 0.000000 -0.004272 0.000000
# 4 0.000000 0.000000 0.000000 -0.406417 0.000000 0.070001
# 5 -0.021609 -0.002191 -0.004272 0.000000 0.048873 0.000000
# 6 0.000000 0.000000 0.000000 0.070001 0.000000 -0.002545
#
#
# Mechanical properties :
#
#
# Convention : Reuss Voigt Hill
#
# Bulk Modulus (GPa) = 20.68866 45.83453 33.26160
# Shear Modulus (GPa) = -17.69678 45.18822 13.74572
#
# Velocity S-wave (km/s) = -2.97112 4.74772 2.61852
# Velocity P-wave (km/s) = 1.20420 7.27446 5.07285
#
# Compressibility (1/GPa) = 0.04833566
#
# Stress axis : x y z
#
# Youngs Moduli (GPa) = 36.25041 57.94165 99.57189
#
# Poissons Ratio (x) = -0.22304 0.54962
# Poissons Ratio (y) = -0.13954 0.15986
# Poissons Ratio (z) = 0.20009 0.09303
#
# Static dielectric constant tensor:
#      x y z
#    x 1.696300 0.000000 0.058950 
#    y 0.000000 1.752820 0.000000 
#    z 0.058950 0.000000 1.735320 
# 
# From -- ./inp_files/26746.got.cif
#   From: 2010.05.17/outbox.cif.g08.bks.cpg/sg10_14_cif.got.tgz:26746.got - 2010.06.03 11:33:40.
