data_PCOD9148792
_publ_section_title
;
Structure prediction by ZEFSAII (Michael W. Deem and Ramdas Pophale) SiO2 
 PCOD9148792
Probable space group: P 2/M
;
_chemical_formula_sum "Si O2"
_cell_formula_units_Z 28
_cell_length_a 27.432767
_cell_length_b 9.066686
_cell_length_c 9.911195
_cell_angle_alpha 90.000000
_cell_angle_beta 38.031222
_cell_angle_gamma 90.000000
_cell_volume 1518.759225
_symmetry_space_group_name_H-M "P 2/M"
_symmetry_group_IT_number 10
_symmetry_cell_setting 'monoclinic'
loop_
_space_group_symop_operation_xyz
x,y,z
-x,y,-z
-x,-y,-z
x,-y,z
loop_
_atom_site_type_symbol
_atom_site_label
_atom_site_fract_x
_atom_site_fract_y
_atom_site_fract_z
Si Si1 0.979675 0.168324 0.884133
Si Si2 0.862919 0.676242 0.515772
Si Si3 0.692630 0.177458 0.384201
Si Si4 0.186368 0.822030 0.656771
Si Si5 0.512062 0.177415 0.818082
Si Si6 0.429457 0.677148 0.756367
Si Si7 0.737345 0.677442 0.014672
O O1 0.047126 0.266378 0.670182
O O2 0.985058 0.000000 0.822909
O O3 0.888687 0.218051 0.084024
O O4 0.000000 0.166441 0.000000
O O5 0.862175 0.500000 0.504327
O O6 0.825313 0.745845 0.461856
O O7 0.810046 0.718550 0.759560
O O8 0.734758 0.216337 0.433519
O O9 0.600862 0.222834 0.582488
O O10 0.695946 0.000000 0.366067
O O11 0.736855 0.248505 0.161493
O O12 0.182642 0.000000 0.645782
O O13 0.449218 0.249996 0.855723
O O14 0.506466 0.000000 0.819702
O O15 0.500000 0.217590 0.000000
O O16 0.500000 0.719952 0.500000
O O17 0.430747 0.500000 0.766860
O O18 0.344755 0.720108 0.880487
O O19 0.736972 0.500000 0.030551
#
# Coordination Sequence:
#
# PCOD9148792 Si02
#       7
#     4   4   4   4   4   4   4
#     4   8  15  31  53  76 104 137 173 213 257 306
#     4  10  20  33  53  81 108 135 173 218 261 309
#     4  10  21  37  55  77 106 140 176 213 261 314
#     4   9  19  35  55  79 107 138 174 216 259 310
#     4  10  22  37  54  81 111 135 169 220 267 308
#     4  10  20  37  58  76 101 142 182 213 253 308
#     4  10  22  38  53  76 109 140 176 219 258 306
#
# _framework density 18.436101000000001
#
# number of rings (size 3 to 8) (size 9 to 14) (size 15 to 20)
#    0.000    2.429    1.429    1.286    2.000    5.429 
#    0.000    0.714    0.000    4.286    0.000    0.000 
#    0.000    0.000    0.000    0.000    0.000    0.000 
#
# Total GULP energy -156195.359602 kJ/mol
# GULP energy per Si atom -5578.405700 kJ/mol
# Density = 1.839414 g / cm^3
# Si number density = 18.436101 Si / 1000 Ang^3
#
#
#
# Elastic Constant Matrix: (Units=GPa)
#
#
# Indices 1 2 3 4 5 6 
#
# 1 28.2097 2.8440 -13.9972 0.0000 10.0213 0.0000
# 2 2.8440 14.4052 20.3612 0.0000 6.5373 0.0000
# 3 -13.9972 20.3612 79.2142 0.0000 13.0012 0.0000
# 4 0.0000 0.0000 0.0000 24.7448 0.0000 2.0100
# 5 10.0213 6.5373 13.0012 0.0000 26.2776 0.0000
# 6 0.0000 0.0000 0.0000 2.0100 0.0000 25.4562
#
#
#
# Elastic Compliance Matrix: (Units=1/GPa)
#
#
# Indices 1 2 3 4 5 6 
#
# 1 0.059506 -0.032726 0.023199 0.000000 -0.026030 0.000000
# 2 -0.032726 0.132302 -0.039656 0.000000 -0.000813 0.000000
# 3 0.023199 -0.039656 0.029113 0.000000 -0.013386 0.000000
# 4 0.000000 0.000000 0.000000 0.040673 0.000000 -0.003211
# 5 -0.026030 -0.000813 -0.013386 0.000000 0.054807 0.000000
# 6 0.000000 0.000000 0.000000 -0.003211 0.000000 0.039537
#
#
# Mechanical properties :
#
#
# Convention : Reuss Voigt Hill
#
# Bulk Modulus (GPa) = 8.15965 15.58279 11.87122
# Shear Modulus (GPa) = 10.09781 22.80380 16.45080
#
# Velocity S-wave (km/s) = 2.34288 3.52079 2.99040
# Velocity P-wave (km/s) = 3.42845 4.99986 4.28678
#
# Compressibility (1/GPa) = 0.12255421
#
# Stress axis : x y z
#
# Youngs Moduli (GPa) = 16.80505 7.55847 34.34839
#
# Poissons Ratio (x) = 0.24736 -0.79684
# Poissons Ratio (y) = 0.54997 1.36213
# Poissons Ratio (z) = -0.38986 0.29974
#
# Static dielectric constant tensor:
#      x y z
#    x 1.618730 0.000000 -0.026090 
#    y 0.000000 1.616310 0.000000 
#    z -0.026090 0.000000 1.641720 
# 
# From -- ./inp_files/36946.got.cif
#   From: 2010.05.17/outbox.cif.g08.bks.cpg/sg10_19_cif.got.tgz:36946.got - 2010.06.03 11:33:40.
