data_PCOD9148113
_publ_section_title
;
Structure prediction by ZEFSAII (Michael W. Deem and Ramdas Pophale) SiO2 
 PCOD9148113
Probable space group: P 2/M
;
_chemical_formula_sum "Si O2"
_cell_formula_units_Z 32
_cell_length_a 11.228732
_cell_length_b 18.558420
_cell_length_c 14.267225
_cell_angle_alpha 90.000000
_cell_angle_beta 29.831551
_cell_angle_gamma 90.000000
_cell_volume 1478.979579
_symmetry_space_group_name_H-M "P 2/M"
_symmetry_group_IT_number 10
_symmetry_cell_setting 'monoclinic'
loop_
_space_group_symop_operation_xyz
x,y,z
-x,y,-z
-x,-y,-z
x,-y,z
loop_
_atom_site_type_symbol
_atom_site_label
_atom_site_fract_x
_atom_site_fract_y
_atom_site_fract_z
Si Si1 0.974194 0.308623 0.405239
Si Si2 0.251960 0.633159 0.715069
Si Si3 0.992610 0.776036 0.894500
Si Si4 0.883753 0.853508 0.714730
Si Si5 0.844902 0.918089 0.927819
Si Si6 0.579056 0.330463 0.196638
Si Si7 0.179664 0.582249 0.113442
Si Si8 0.329354 0.084431 0.327456
O O1 0.686483 0.311236 0.589300
O O2 0.000000 0.315992 0.500000
O O3 0.084980 0.232007 0.297633
O O4 0.099425 0.369675 0.256738
O O5 0.500000 0.610573 0.500000
O O6 0.286192 0.635891 0.804130
O O7 0.183813 0.715821 0.735143
O O8 0.037952 0.588612 0.814060
O O9 0.022706 0.853489 0.829102
O O10 0.733189 0.738327 0.056065
O O11 0.000000 0.785595 0.000000
O O12 0.758037 0.897024 0.883243
O O13 0.752925 0.870510 0.706877
O O14 0.150407 0.887424 0.528121
O O15 0.929434 0.000000 0.875133
O O16 0.610856 0.909108 0.152748
O O17 0.596788 0.384711 0.096836
O O18 0.218341 0.500000 0.113428
O O19 0.283152 0.000000 0.340441
#
# Coordination Sequence:
#
# PCOD9148113 Si02
#       8
#     4   4   4   4   4   4   4   4
#     4  12  25  42  64  96 124 171 222 253 299 379
#     4  10  19  40  70 100 123 156 205 266 320 371
#     4   9  20  37  60  87 120 164 202 255 310 363
#     4  11  20  36  58  85 116 156 206 260 299 350
#     4  11  22  35  56  85 123 164 203 250 311 374
#     4  10  22  42  66  95 130 159 208 263 316 366
#     4  11  25  44  67  98 131 162 200 254 318 382
#     4  10  20  35  54  85 121 154 196 257 316 348
#
# _framework density 21.636538999999999
#
# number of rings (size 3 to 8) (size 9 to 14) (size 15 to 20)
#    0.000    1.500    2.500    5.250    0.000    3.750 
#    2.250    0.625    0.000    0.375    0.000    0.000 
#    0.000    0.000    0.000    0.000    0.000    0.000 
#
# Total GULP energy -178665.195787 kJ/mol
# GULP energy per Si atom -5583.287368 kJ/mol
# Density = 2.158729 g / cm^3
# Si number density = 21.636539 Si / 1000 Ang^3
#
#
#
# Elastic Constant Matrix: (Units=GPa)
#
#
# Indices 1 2 3 4 5 6 
#
# 1 27.7771 3.8834 -8.6047 0.0000 5.9324 0.0000
# 2 3.8834 146.5582 17.8150 0.0000 6.7897 0.0000
# 3 -8.6047 17.8150 67.3485 0.0000 13.3016 0.0000
# 4 0.0000 0.0000 0.0000 17.6250 0.0000 9.1612
# 5 5.9324 6.7897 13.3016 0.0000 18.2003 0.0000
# 6 0.0000 0.0000 0.0000 9.1612 0.0000 9.9709
#
#
#
# Elastic Compliance Matrix: (Units=1/GPa)
#
#
# Indices 1 2 3 4 5 6 
#
# 1 0.043878 -0.001416 0.010169 0.000000 -0.021205 0.000000
# 2 -0.001416 0.007130 -0.001908 0.000000 -0.000804 0.000000
# 3 0.010169 -0.001908 0.020062 0.000000 -0.017265 0.000000
# 4 0.000000 0.000000 0.000000 0.108606 0.000000 -0.099787
# 5 -0.021205 -0.000804 -0.017265 0.000000 0.074774 0.000000
# 6 0.000000 0.000000 0.000000 -0.099787 0.000000 0.191976
#
#
# Mechanical properties :
#
#
# Convention : Reuss Voigt Hill
#
# Bulk Modulus (GPa) = 11.79826 29.76345 20.78085
# Shear Modulus (GPa) = 10.84623 24.39857 17.62240
#
# Velocity S-wave (km/s) = 2.24138 3.36170 2.85700
# Velocity P-wave (km/s) = 3.48757 5.37159 4.52864
#
# Compressibility (1/GPa) = 0.08475827
#
# Stress axis : x y z
#
# Youngs Moduli (GPa) = 22.79054 140.25358 49.84550
#
# Poissons Ratio (x) = 0.19864 -0.50687
# Poissons Ratio (y) = 0.03228 0.09512
# Poissons Ratio (z) = -0.23175 0.26764
#
# Static dielectric constant tensor:
#      x y z
#    x 1.843810 0.000000 0.002840 
#    y 0.000000 1.772370 0.000000 
#    z 0.002840 0.000000 1.835940 
# 
# From -- ./inp_files/65369.got.cif
#   From: 2010.05.17/outbox.cif.g08.bks.cpg/sg10_33_cif.got.tgz:65369.got - 2010.06.03 11:33:40.
