data_PCOD9148615
_publ_section_title
;
Structure prediction by ZEFSAII (Michael W. Deem and Ramdas Pophale) SiO2 
 PCOD9148615
Probable space group: P 2/M
;
_chemical_formula_sum "Si O2"
_cell_formula_units_Z 32
_cell_length_a 22.797498
_cell_length_b 7.550561
_cell_length_c 29.057845
_cell_angle_alpha 90.000000
_cell_angle_beta 163.493525
_cell_angle_gamma 90.000000
_cell_volume 1421.141330
_symmetry_space_group_name_H-M "P 2/M"
_symmetry_group_IT_number 10
_symmetry_cell_setting 'monoclinic'
loop_
_space_group_symop_operation_xyz
x,y,z
-x,y,-z
-x,-y,-z
x,-y,z
loop_
_atom_site_type_symbol
_atom_site_label
_atom_site_fract_x
_atom_site_fract_y
_atom_site_fract_z
Si Si1 0.719458 0.786195 0.758396
Si Si2 0.010958 0.291931 0.796351
Si Si3 0.602749 0.287974 0.030947
Si Si4 0.535608 0.713572 0.879431
Si Si5 0.351755 0.295270 0.424946
Si Si6 0.083052 0.788248 0.376161
Si Si7 0.462983 0.211462 0.724137
Si Si8 0.861194 0.785884 0.968559
O O1 0.499600 0.708042 0.580388
O O2 0.775311 0.743020 0.852870
O O3 0.709640 0.000000 0.748884
O O4 0.899419 0.726429 0.857752
O O5 0.034759 0.500000 0.824311
O O6 0.865171 0.211890 0.725376
O O7 0.905003 0.277163 0.667094
O O8 0.236350 0.214492 0.960945
O O9 0.574061 0.500000 0.009514
O O10 0.501939 0.223731 0.906663
O O11 0.849623 0.257356 0.216377
O O12 0.500000 0.215763 0.000000
O O13 0.540613 0.500000 0.886057
O O14 0.415329 0.755533 0.742191
O O15 0.500000 0.204427 0.500000
O O16 0.318110 0.500000 0.386457
O O17 0.271729 0.721535 0.549400
O O18 0.096608 0.000000 0.385341
O O19 0.688958 0.278425 0.875908
O O20 0.471554 0.000000 0.724382
O O21 0.870443 0.000000 0.979575
#
# Coordination Sequence:
#
# PCOD9148615 Si02
#       8
#     4   4   4   4   4   4   4   4
#     4   9  17  32  50  67  89 124 174 221 263 313
#     4   9  19  36  53  71 101 141 183 224 267 321
#     4   9  19  39  64  85 109 143 178 210 249 305
#     4   9  19  34  54  80 105 134 176 218 258 308
#     4  10  21  33  46  66  98 133 167 218 277 316
#     4  10  20  34  56  85 110 137 175 217 259 308
#     4  10  20  33  50  76 110 141 172 213 266 317
#     4   8  16  31  50  68  93 130 168 214 263 308
#
# _framework density 22.517112000000001
#
# number of rings (size 3 to 8) (size 9 to 14) (size 15 to 20)
#    0.000    2.750    0.000    2.625    1.750    5.000 
#    0.000    2.500    0.000    3.750    0.000    0.000 
#    0.000    0.000    0.000    0.000    0.000    0.000 
#
# Total GULP energy -178442.863538 kJ/mol
# GULP energy per Si atom -5576.339486 kJ/mol
# Density = 2.246586 g / cm^3
# Si number density = 22.517112 Si / 1000 Ang^3
#
#
#
# Elastic Constant Matrix: (Units=GPa)
#
#
# Indices 1 2 3 4 5 6 
#
# 1 182.5025 -9.2342 24.2803 0.0000 -3.7676 0.0000
# 2 -9.2342 60.6294 -7.8871 0.0000 2.3031 0.0000
# 3 24.2803 -7.8871 40.9114 0.0000 -11.3902 0.0000
# 4 0.0000 0.0000 0.0000 17.6087 0.0000 -11.0357
# 5 -3.7676 2.3031 -11.3902 0.0000 39.1808 0.0000
# 6 0.0000 0.0000 0.0000 -11.0357 0.0000 7.8204
#
#
#
# Elastic Compliance Matrix: (Units=1/GPa)
#
#
# Indices 1 2 3 4 5 6 
#
# 1 0.005970 0.000461 -0.003593 0.000000 -0.000497 0.000000
# 2 0.000461 0.016954 0.002970 0.000000 -0.000089 0.000000
# 3 -0.003593 0.002970 0.029381 0.000000 0.008021 0.000000
# 4 0.000000 0.000000 0.000000 0.491189 0.000000 0.693135
# 5 -0.000497 -0.000089 0.008021 0.000000 0.027812 0.000000
# 6 0.000000 0.000000 0.000000 0.693135 0.000000 1.105977
#
#
# Mechanical properties :
#
#
# Convention : Reuss Voigt Hill
#
# Bulk Modulus (GPa) = 19.23769 33.15126 26.19448
# Shear Modulus (GPa) = 2.94997 31.38093 17.16545
#
# Velocity S-wave (km/s) = 1.14584 3.73721 2.76403
# Velocity P-wave (km/s) = 3.21134 5.77728 4.67385
#
# Compressibility (1/GPa) = 0.05198128
#
# Stress axis : x y z
#
# Youngs Moduli (GPa) = 167.49182 58.98455 34.03526
#
# Poissons Ratio (x) = -0.02718 0.12229
# Poissons Ratio (y) = -0.07718 -0.10109
# Poissons Ratio (z) = 0.60180 -0.17520
#
# Static dielectric constant tensor:
#      x y z
#    x 1.889660 0.000000 -0.024320 
#    y 0.000000 1.827290 0.000000 
#    z -0.024320 0.000000 1.863390 
# 
# From -- ./inp_files/93779.got.cif
#   From: 2010.05.17/outbox.cif.g08.bks.cpg/sg10_47_cif.got.tgz:93779.got - 2010.06.03 11:33:40.
