data_PCOD9148419
_publ_section_title
;
Structure prediction by ZEFSAII (Michael W. Deem and Ramdas Pophale) SiO2 
 PCOD9148419
Probable space group: P 2/M
;
_chemical_formula_sum "Si O2"
_cell_formula_units_Z 32
_cell_length_a 7.865675
_cell_length_b 15.211110
_cell_length_c 14.433952
_cell_angle_alpha 90.000000
_cell_angle_beta 87.506701
_cell_angle_gamma 90.000000
_cell_volume 1725.324651
_symmetry_space_group_name_H-M "P 2/M"
_symmetry_group_IT_number 10
_symmetry_cell_setting 'monoclinic'
loop_
_space_group_symop_operation_xyz
x,y,z
-x,y,-z
-x,-y,-z
x,-y,z
loop_
_atom_site_type_symbol
_atom_site_label
_atom_site_fract_x
_atom_site_fract_y
_atom_site_fract_z
Si Si1 0.662523 0.902638 0.130061
Si Si2 0.683485 0.397261 0.946937
Si Si3 0.719998 0.906396 0.817589
Si Si4 0.069955 0.773350 0.404692
Si Si5 0.135730 0.717257 0.204729
Si Si6 0.624121 0.900811 0.602362
Si Si7 0.760371 0.898425 0.346315
Si Si8 0.138275 0.265078 0.927726
O O1 0.458544 0.902604 0.125523
O O2 0.719642 0.895957 0.237107
O O3 0.727290 0.812138 0.086347
O O4 0.721509 0.000000 0.095729
O O5 0.717221 0.500000 0.931721
O O6 0.727275 0.344219 0.851107
O O7 0.500000 0.388118 0.000000
O O8 0.800596 0.350710 0.019915
O O9 0.823594 0.817967 0.824832
O O10 0.663147 0.906769 0.711468
O O11 0.807867 0.000000 0.835020
O O12 0.128587 0.714658 0.316028
O O13 0.231427 0.832870 0.431440
O O14 0.000000 0.729219 0.500000
O O15 0.918108 0.836348 0.369111
O O16 0.950429 0.703613 0.164588
O O17 0.423239 0.877455 0.600989
O O18 0.649588 0.000000 0.565918
O O19 0.804851 0.000000 0.366296
O O20 0.000000 0.224636 0.000000
#
# Coordination Sequence:
#
# PCOD9148419 Si02
#       8
#     4   4   4   4   4   4   4   4
#     4   9  16  29  47  69 103 149 192 226 266 317
#     4  10  22  41  66  91 108 128 166 220 287 354
#     4   8  15  28  48  70  99 146 191 224 261 308
#     4  11  21  32  49  75 110 153 196 231 275 328
#     4  10  20  35  54  81 115 147 177 229 277 326
#     4   8  16  29  44  67  98 142 197 249 286 309
#     4   9  17  30  48  68 101 148 201 250 285 318
#     4  10  20  32  52  79 108 138 171 219 276 330
#
# _framework density 18.547234
#
# number of rings (size 3 to 8) (size 9 to 14) (size 15 to 20)
#    0.000    2.625    1.250    2.625    0.000    5.000 
#    0.000    3.125    0.000    7.125    0.000    0.000 
#    0.000    2.000    0.000    0.000    0.000    0.000 
#
# Total GULP energy -178295.596131 kJ/mol
# GULP energy per Si atom -5571.737379 kJ/mol
# Density = 1.850502 g / cm^3
# Si number density = 18.547234 Si / 1000 Ang^3
#
#
#
# Elastic Constant Matrix: (Units=GPa)
#
#
# Indices 1 2 3 4 5 6 
#
# 1 52.2749 25.9877 27.1255 0.0000 -3.9251 0.0000
# 2 25.9877 75.1305 47.8487 0.0000 -16.2253 0.0000
# 3 27.1255 47.8487 93.7140 0.0000 -7.7331 0.0000
# 4 0.0000 0.0000 0.0000 7.2219 0.0000 1.2146
# 5 -3.9251 -16.2253 -7.7331 0.0000 28.7339 0.0000
# 6 0.0000 0.0000 0.0000 1.2146 0.0000 22.6971
#
#
#
# Elastic Compliance Matrix: (Units=1/GPa)
#
#
# Indices 1 2 3 4 5 6 
#
# 1 0.024123 -0.006066 -0.003984 0.000000 -0.001203 0.000000
# 2 -0.006066 0.023584 -0.009465 0.000000 0.009941 0.000000
# 3 -0.003984 -0.009465 0.016538 0.000000 -0.001438 0.000000
# 4 0.000000 0.000000 0.000000 0.139725 0.000000 -0.007477
# 5 -0.001203 0.009941 -0.001438 0.000000 0.039864 0.000000
# 6 0.000000 0.000000 0.000000 -0.007477 0.000000 0.044459
#
#
# Mechanical properties :
#
#
# Convention : Reuss Voigt Hill
#
# Bulk Modulus (GPa) = 39.66222 47.00480 43.33351
# Shear Modulus (GPa) = 14.89303 19.74107 17.31705
#
# Velocity S-wave (km/s) = 2.83676 3.26600 3.05892
# Velocity P-wave (km/s) = 5.67102 6.29450 5.99088
#
# Compressibility (1/GPa) = 0.02521291
#
# Stress axis : x y z
#
# Youngs Moduli (GPa) = 41.45503 42.40251 60.46665
#
# Poissons Ratio (x) = 0.25723 0.24091
# Poissons Ratio (y) = 0.25148 0.57232
# Poissons Ratio (z) = 0.16516 0.40135
#
# Static dielectric constant tensor:
#      x y z
#    x 1.738570 0.000000 -0.026970 
#    y 0.000000 1.611820 0.000000 
#    z -0.026970 0.000000 1.741830 
# 
# From -- ./inp_files/61525.got.cif
#   From: 2010.05.17/outbox.cif.g08.bks.cpg/sg10_31_cif.got.tgz:61525.got - 2010.06.03 11:33:40.
