data_PCOD9148070
_publ_section_title
;
Structure prediction by ZEFSAII (Michael W. Deem and Ramdas Pophale) SiO2 
 PCOD9148070
Probable space group: P 2/M
;
_chemical_formula_sum "Si O2"
_cell_formula_units_Z 32
_cell_length_a 11.191320
_cell_length_b 17.798198
_cell_length_c 14.090469
_cell_angle_alpha 90.000000
_cell_angle_beta 146.110013
_cell_angle_gamma 90.000000
_cell_volume 1564.968494
_symmetry_space_group_name_H-M "P 2/M"
_symmetry_group_IT_number 10
_symmetry_cell_setting 'monoclinic'
loop_
_space_group_symop_operation_xyz
x,y,z
-x,y,-z
-x,-y,-z
x,-y,z
loop_
_atom_site_type_symbol
_atom_site_label
_atom_site_fract_x
_atom_site_fract_y
_atom_site_fract_z
Si Si1 0.409026 0.088563 0.546849
Si Si2 0.257171 0.582884 0.669903
Si Si3 0.000344 0.816848 0.234024
Si Si4 0.932045 0.584072 0.174129
Si Si5 0.798491 0.909999 0.938272
Si Si6 0.731066 0.706755 0.175187
Si Si7 0.737345 0.311121 0.687142
Si Si8 0.351098 0.417330 0.203121
O O1 0.500000 0.096371 0.500000
O O2 0.189050 0.133210 0.401565
O O3 0.586347 0.113759 0.740332
O O4 0.371762 0.000000 0.537674
O O5 0.328416 0.500000 0.758461
O O6 0.289965 0.664196 0.739327
O O7 0.404499 0.587135 0.673179
O O8 0.000000 0.578028 0.500000
O O9 0.104615 0.757572 0.228272
O O10 0.897532 0.769540 0.252225
O O11 0.841527 0.866457 0.064582
O O12 0.953463 0.500000 0.224498
O O13 0.161076 0.622530 0.309758
O O14 0.791285 0.635209 0.149649
O O15 0.804936 0.583532 0.990819
O O16 0.787501 0.000000 0.948169
O O17 0.000000 0.898306 0.000000
O O18 0.500000 0.738745 0.000000
O O19 0.500000 0.288964 0.500000
O O20 0.715416 0.348373 0.775312
O O21 0.322006 0.500000 0.230791
#
# Coordination Sequence:
#
# PCOD9148070 Si02
#       8
#     4   4   4   4   4   4   4   4
#     4  10  19  38  65  95 130 166 205 243 290 362
#     4  10  22  40  62  84 110 154 218 275 310 356
#     4  11  24  40  59  93 134 166 199 253 309 379
#     4  10  21  38  61  80 106 154 207 262 308 367
#     4  10  20  37  66  97 126 165 206 243 292 361
#     4  11  23  42  58  86 119 159 208 256 323 368
#     4  11  25  38  51  86 126 161 193 240 325 388
#     4  10  21  39  60  79 109 157 210 264 308 358
#
# _framework density 20.447696000000001
#
# number of rings (size 3 to 8) (size 9 to 14) (size 15 to 20)
#    0.000    1.625    2.500    1.875    3.500    4.500 
#    2.250    0.000    0.000    1.500    0.000    1.750 
#    0.000    0.000    0.000    0.000    0.000    0.000 
#
# Total GULP energy -178560.830403 kJ/mol
# GULP energy per Si atom -5580.025950 kJ/mol
# Density = 2.040116 g / cm^3
# Si number density = 20.447696 Si / 1000 Ang^3
#
#
#
# Elastic Constant Matrix: (Units=GPa)
#
#
# Indices 1 2 3 4 5 6 
#
# 1 48.6801 21.2798 14.0192 0.0000 16.2711 0.0000
# 2 21.2798 75.5215 43.7372 0.0000 6.7706 0.0000
# 3 14.0192 43.7372 89.5393 0.0000 8.5369 0.0000
# 4 0.0000 0.0000 0.0000 1.3019 0.0000 17.8228
# 5 16.2711 6.7706 8.5369 0.0000 28.2051 0.0000
# 6 0.0000 0.0000 0.0000 17.8228 0.0000 -8.1978
#
#
#
# Elastic Compliance Matrix: (Units=1/GPa)
#
#
# Indices 1 2 3 4 5 6 
#
# 1 0.028408 -0.006858 0.000317 0.000000 -0.014838 0.000000
# 2 -0.006858 0.020205 -0.008969 0.000000 0.001821 0.000000
# 3 0.000317 -0.008969 0.015767 0.000000 -0.002802 0.000000
# 4 0.000000 0.000000 0.000000 0.024969 0.000000 0.054284
# 5 -0.014838 0.001821 -0.002802 0.000000 0.044425 0.000000
# 6 0.000000 0.000000 0.000000 0.054284 0.000000 -0.003965
#
#
# Mechanical properties :
#
#
# Convention : Reuss Voigt Hill
#
# Bulk Modulus (GPa) = 29.97660 41.31258 35.64459
# Shear Modulus (GPa) = 29.07822 13.24214 21.16018
#
# Velocity S-wave (km/s) = 3.77514 2.54758 3.22039
# Velocity P-wave (km/s) = 5.80467 5.37601 5.59444
#
# Compressibility (1/GPa) = 0.03335936
#
# Stress axis : x y z
#
# Youngs Moduli (GPa) = 35.20075 49.49316 63.42332
#
# Poissons Ratio (x) = 0.33942 -0.02008
# Poissons Ratio (y) = 0.24140 0.56886
# Poissons Ratio (z) = -0.01115 0.44392
#
# Static dielectric constant tensor:
#      x y z
#    x 1.748420 0.000000 -0.027150 
#    y 0.000000 1.728660 0.000000 
#    z -0.027150 0.000000 1.780060 
# 
# From -- ./inp_files/65419.got.cif
#   From: 2010.05.17/outbox.cif.g08.bks.cpg/sg10_33_cif.got.tgz:65419.got - 2010.06.03 11:33:40.
