data_PCOD9148069
_publ_section_title
;
Structure prediction by ZEFSAII (Michael W. Deem and Ramdas Pophale) SiO2 
 PCOD9148069
Probable space group: P 2/M
;
_chemical_formula_sum "Si O2"
_cell_formula_units_Z 32
_cell_length_a 22.074662
_cell_length_b 7.619479
_cell_length_c 22.411135
_cell_angle_alpha 90.000000
_cell_angle_beta 19.618785
_cell_angle_gamma 90.000000
_cell_volume 1265.647260
_symmetry_space_group_name_H-M "P 2/M"
_symmetry_group_IT_number 10
_symmetry_cell_setting 'monoclinic'
loop_
_space_group_symop_operation_xyz
x,y,z
-x,y,-z
-x,-y,-z
x,-y,z
loop_
_atom_site_type_symbol
_atom_site_label
_atom_site_fract_x
_atom_site_fract_y
_atom_site_fract_z
Si Si1 0.209132 0.286554 0.808776
Si Si2 0.788900 0.702126 0.826244
Si Si3 0.425421 0.787592 0.221388
Si Si4 0.881194 0.197705 0.414089
Si Si5 0.107973 0.706126 0.090295
Si Si6 0.236261 0.715162 0.653246
Si Si7 0.572740 0.286613 0.274663
Si Si8 0.793507 0.789361 0.691305
O O1 0.210429 0.500000 0.809030
O O2 0.292032 0.233345 0.668102
O O3 0.314248 0.236280 0.770737
O O4 0.000000 0.232453 0.000000
O O5 0.838003 0.500000 0.783581
O O6 0.715607 0.745672 0.828645
O O7 0.974358 0.804940 0.665542
O O8 0.632940 0.737766 0.019380
O O9 0.305304 0.722114 0.388680
O O10 0.321148 0.724804 0.258421
O O11 0.417539 0.000000 0.230569
O O12 0.002663 0.280153 0.249856
O O13 0.844802 0.000000 0.428999
O O14 0.125609 0.500000 0.062079
O O15 0.964166 0.776792 0.175967
O O16 0.307663 0.778095 0.892010
O O17 0.233584 0.500000 0.655219
O O18 0.372037 0.775212 0.475617
O O19 0.557442 0.500000 0.286285
O O20 0.000000 0.723263 0.500000
O O21 0.797851 0.000000 0.682430
#
# Coordination Sequence:
#
# PCOD9148069 Si02
#       8
#     4   4   4   4   4   4   4   4
#     4   9  13  21  39  66 102 143 177 212 266 336
#     4  12  25  39  61  94 127 153 185 239 301 350
#     4  10  22  41  65  88 116 157 201 239 279 340
#     4  11  24  44  64  82 109 154 207 246 284 341
#     4  10  20  34  51  76 108 140 180 235 291 334
#     4   9  16  26  43  69 104 142 177 220 276 338
#     4   9  16  26  43  70 106 142 176 216 276 342
#     4  10  19  38  65  91 121 161 200 232 277 341
#
# _framework density 25.283508000000001
#
# number of rings (size 3 to 8) (size 9 to 14) (size 15 to 20)
#    0.000    2.000    2.500    2.250    0.000    5.750 
#    0.000    1.250    0.000    0.000    0.000    1.750 
#    0.000    2.000    0.000    0.000    0.000    0.000 
#
# Total GULP energy -178849.646952 kJ/mol
# GULP energy per Si atom -5589.051467 kJ/mol
# Density = 2.522596 g / cm^3
# Si number density = 25.283508 Si / 1000 Ang^3
#
#
#
# Elastic Constant Matrix: (Units=GPa)
#
#
# Indices 1 2 3 4 5 6 
#
# 1 51.3461 -4.5135 9.1869 0.0000 15.6066 0.0000
# 2 -4.5135 60.5660 4.3159 0.0000 -3.9501 0.0000
# 3 9.1869 4.3159 176.9908 0.0000 25.4247 0.0000
# 4 0.0000 0.0000 0.0000 6.0986 0.0000 9.4128
# 5 15.6066 -3.9501 25.4247 0.0000 40.0007 0.0000
# 6 0.0000 0.0000 0.0000 9.4128 0.0000 6.2307
#
#
#
# Elastic Compliance Matrix: (Units=1/GPa)
#
#
# Indices 1 2 3 4 5 6 
#
# 1 0.022168 0.001089 0.000055 0.000000 -0.008577 0.000000
# 2 0.001089 0.016752 -0.000706 0.000000 0.001678 0.000000
# 3 0.000055 -0.000706 0.006248 0.000000 -0.004062 0.000000
# 4 0.000000 0.000000 0.000000 -0.123129 0.000000 0.186014
# 5 -0.008577 0.001678 -0.004062 0.000000 0.031094 0.000000
# 6 0.000000 0.000000 0.000000 0.186014 0.000000 -0.120520
#
#
# Mechanical properties :
#
#
# Convention : Reuss Voigt Hill
#
# Bulk Modulus (GPa) = 21.71876 34.09794 27.90835
# Shear Modulus (GPa) = -32.69799 29.12690 -1.78555
#
# Velocity S-wave (km/s) = -3.60009 3.39781 -0.84127
# Velocity P-wave (km/s) = 2.94484 5.37671 3.18095
#
# Compressibility (1/GPa) = 0.04604314
#
# Stress axis : x y z
#
# Youngs Moduli (GPa) = 45.10925 59.69496 160.05282
#
# Poissons Ratio (x) = -0.06499 -0.00877
# Poissons Ratio (y) = -0.04911 0.11301
# Poissons Ratio (z) = -0.00247 0.04215
#
# Static dielectric constant tensor:
#      x y z
#    x 2.045590 0.000000 0.026020 
#    y 0.000000 1.953170 0.000000 
#    z 0.026020 0.000000 2.013380 
# 
# From -- ./inp_files/90551.got.cif
#   From: 2010.05.17/outbox.cif.g08.bks.cpg/sg10_46_cif.got.tgz:90551.got - 2010.06.03 11:33:40.
