data_PCOD9148375
_publ_section_title
;
Structure prediction by ZEFSAII (Michael W. Deem and Ramdas Pophale) SiO2 
 PCOD9148375
Probable space group: P 2/M
;
_chemical_formula_sum "Si O2"
_cell_formula_units_Z 28
_cell_length_a 14.006777
_cell_length_b 8.518933
_cell_length_c 18.362608
_cell_angle_alpha 90.000000
_cell_angle_beta 147.035277
_cell_angle_gamma 90.000000
_cell_volume 1192.214816
_symmetry_space_group_name_H-M "P 2/M"
_symmetry_group_IT_number 10
_symmetry_cell_setting 'monoclinic'
loop_
_space_group_symop_operation_xyz
x,y,z
-x,y,-z
-x,-y,-z
x,-y,z
loop_
_atom_site_type_symbol
_atom_site_label
_atom_site_fract_x
_atom_site_fract_y
_atom_site_fract_z
Si Si1 0.431484 0.185220 0.275963
Si Si2 0.846934 0.825973 0.208383
Si Si3 0.098384 0.816550 0.984475
Si Si4 0.206761 0.166282 0.654578
Si Si5 0.775709 0.683063 0.554075
Si Si6 0.706582 0.500000 0.118560
Si Si7 0.765378 0.680678 0.713996
Si Si8 0.201734 0.500000 0.654728
O O1 0.294586 0.240754 0.126523
O O2 0.617134 0.267148 0.401844
O O3 0.334376 0.214861 0.291344
O O4 0.451241 0.000000 0.280388
O O5 0.781577 0.835293 0.250197
O O6 0.762220 0.668011 0.119951
O O7 0.054169 0.790483 0.346456
O O8 0.814757 0.000000 0.155139
O O9 0.101001 0.000000 0.965347
O O10 0.000000 0.807614 0.000000
O O11 0.972492 0.720866 0.850975
O O12 0.281714 0.335217 0.681099
O O13 0.000000 0.167259 0.500000
O O14 0.280710 0.000000 0.674641
O O15 0.822660 0.500000 0.573740
O O16 0.711350 0.701433 0.596206
O O17 0.795843 0.500000 0.255917
O O18 0.500000 0.500000 0.000000
O O19 0.736562 0.500000 0.716611
O O20 0.000000 0.500000 0.500000
#
# Coordination Sequence:
#
# PCOD9148375 Si02
#       8
#     4   4   4   4   4   2   4   2
#     4  10  20  33  51  77 106 141 191 239 279 329
#     4  10  20  35  56  82 112 148 181 216 279 337
#     4   8  16  31  49  70  98 132 178 234 280 323
#     4   8  14  26  47  75 102 128 164 209 249 307
#     4  11  22  35  51  76 113 148 184 235 282 326
#     4  10  20  36  58  82 109 135 170 222 260 317
#     4  10  20  32  50  76 106 146 192 235 279 327
#     4   8  14  26  48  76 102 129 160 194 249 301
#
# _framework density 23.485700000000001
#
# number of rings (size 3 to 8) (size 9 to 14) (size 15 to 20)
#    0.000    2.571    0.714    2.571    0.000    7.429 
#    0.000    0.000    0.000    6.857    0.000   10.000 
#    0.000    0.000    0.000    0.000    0.000    0.000 
#
# Total GULP energy -156360.692063 kJ/mol
# GULP energy per Si atom -5584.310431 kJ/mol
# Density = 2.343225 g / cm^3
# Si number density = 23.485700 Si / 1000 Ang^3
#
#
#
# Elastic Constant Matrix: (Units=GPa)
#
#
# Indices 1 2 3 4 5 6 
#
# 1 66.4726 17.1439 6.5730 0.0000 2.9223 0.0000
# 2 17.1439 161.5043 -2.7152 0.0000 6.6990 0.0000
# 3 6.5730 -2.7152 41.1137 0.0000 3.9487 0.0000
# 4 0.0000 0.0000 0.0000 32.0911 0.0000 -12.2117
# 5 2.9223 6.6990 3.9487 0.0000 26.6562 0.0000
# 6 0.0000 0.0000 0.0000 -12.2117 0.0000 41.5888
#
#
#
# Elastic Compliance Matrix: (Units=1/GPa)
#
#
# Indices 1 2 3 4 5 6 
#
# 1 0.015769 -0.001678 -0.002542 0.000000 -0.000930 0.000000
# 2 -0.001678 0.006449 0.000844 0.000000 -0.001562 0.000000
# 3 -0.002542 0.000844 0.025136 0.000000 -0.003657 0.000000
# 4 0.000000 0.000000 0.000000 0.035081 0.000000 0.010301
# 5 -0.000930 -0.001562 -0.003657 0.000000 0.038551 0.000000
# 6 0.000000 0.000000 0.000000 0.010301 0.000000 0.027070
#
#
# Mechanical properties :
#
#
# Convention : Reuss Voigt Hill
#
# Bulk Modulus (GPa) = 24.62975 34.56598 29.59787
# Shear Modulus (GPa) = 29.70146 36.60651 33.15398
#
# Velocity S-wave (km/s) = 3.56007 3.95229 3.76129
# Velocity P-wave (km/s) = 5.23533 5.96467 5.61186
#
# Compressibility (1/GPa) = 0.04060130
#
# Stress axis : x y z
#
# Youngs Moduli (GPa) = 63.41597 155.06562 39.78318
#
# Poissons Ratio (x) = 0.26021 0.10115
# Poissons Ratio (y) = 0.10641 -0.03358
# Poissons Ratio (z) = 0.16123 -0.13090
#
# Static dielectric constant tensor:
#      x y z
#    x 1.885240 0.000000 -0.000960 
#    y 0.000000 1.907920 0.000000 
#    z -0.000960 0.000000 1.877500 
# 
# From -- ./inp_files/85014.got.cif
#   From: 2010.05.17/outbox.cif.g08.bks.cpg/sg10_43_cif.got.tgz:85014.got - 2010.06.03 11:33:40.
