data_PCOD9148161
_publ_section_title
;
Structure prediction by ZEFSAII (Michael W. Deem and Ramdas Pophale) SiO2 
 PCOD9148161
Probable space group: P 2/M
;
_chemical_formula_sum "Si O2"
_cell_formula_units_Z 26
_cell_length_a 17.915023
_cell_length_b 21.605237
_cell_length_c 17.049162
_cell_angle_alpha 90.000000
_cell_angle_beta 163.280173
_cell_angle_gamma 90.000000
_cell_volume 1898.484946
_symmetry_space_group_name_H-M "P 2/M"
_symmetry_group_IT_number 10
_symmetry_cell_setting 'monoclinic'
loop_
_space_group_symop_operation_xyz
x,y,z
-x,y,-z
-x,-y,-z
x,-y,z
loop_
_atom_site_type_symbol
_atom_site_label
_atom_site_fract_x
_atom_site_fract_y
_atom_site_fract_z
Si Si1 0.178241 0.390018 0.853309
Si Si2 0.244325 0.068824 0.689345
Si Si3 0.251952 0.575251 0.300170
Si Si4 0.025731 0.738677 0.621036
Si Si5 0.671667 0.425784 0.442448
Si Si6 0.529140 0.809395 0.124196
Si Si7 0.254119 0.500000 0.808693
O O1 0.249927 0.439994 0.859265
O O2 0.119846 0.325040 0.753182
O O3 0.921173 0.412329 0.640071
O O4 0.420887 0.390856 0.156611
O O5 0.334225 0.124218 0.722786
O O6 0.000000 0.086361 0.500000
O O7 0.185605 0.000000 0.597370
O O8 0.500000 0.062192 0.000000
O O9 0.500000 0.594873 0.500000
O O10 0.246333 0.500000 0.294317
O O11 0.268844 0.592730 0.408104
O O12 0.000000 0.596987 0.000000
O O13 0.740131 0.758588 0.361211
O O14 0.000000 0.733453 0.500000
O O15 0.240703 0.790790 0.859644
O O16 0.617769 0.500000 0.386484
O O17 0.500000 0.807289 0.000000
O O18 0.000000 0.500000 0.500000
O O19 0.500000 0.500000 0.000000
#
# Coordination Sequence:
#
# PCOD9148161 Si02
#       7
#     4   4   4   4   4   4   2
#     4  12  22  35  46  61  78 104 136 175 218 251
#     4   9  15  23  37  57  77  95 117 150 200 255
#     4   9  17  29  47  69  86 101 118 140 183 252
#     4  10  20  31  43  55  73 102 139 176 207 244
#     4  11  20  34  49  64  84 103 123 160 211 255
#     4   9  16  28  41  55  73  97 126 163 206 243
#     4  12  24  36  46  56  72  98 136 180 220 254
#
# _framework density 13.695131999999999
#
# number of rings (size 3 to 8) (size 9 to 14) (size 15 to 20)
#    0.000    1.846    1.538    5.538    0.000    4.308 
#    0.000    0.000    0.000    0.000    0.000    0.000 
#    0.000    0.000    0.000    0.000    0.000    0.000 
#
# Total GULP energy -144836.103497 kJ/mol
# GULP energy per Si atom -5570.619365 kJ/mol
# Density = 1.366396 g / cm^3
# Si number density = 13.695132 Si / 1000 Ang^3
#
#
#
# Elastic Constant Matrix: (Units=GPa)
#
#
# Indices 1 2 3 4 5 6 
#
# 1 44.5627 21.0282 27.4059 0.0000 -4.0510 0.0000
# 2 21.0282 71.3674 24.4132 0.0000 -5.4366 0.0000
# 3 27.4059 24.4132 107.4471 0.0000 -1.8035 0.0000
# 4 0.0000 0.0000 0.0000 7.6050 0.0000 8.2626
# 5 -4.0510 -5.4366 -1.8035 0.0000 20.6426 0.0000
# 6 0.0000 0.0000 0.0000 8.2626 0.0000 1.7853
#
#
#
# Elastic Compliance Matrix: (Units=1/GPa)
#
#
# Indices 1 2 3 4 5 6 
#
# 1 0.029460 -0.006351 -0.006011 0.000000 0.003583 0.000000
# 2 -0.006351 0.016850 -0.002158 0.000000 0.003003 0.000000
# 3 -0.006011 -0.002158 0.011318 0.000000 -0.000759 0.000000
# 4 0.000000 0.000000 0.000000 -0.032642 0.000000 0.151071
# 5 0.003583 0.003003 -0.000759 0.000000 0.049871 0.000000
# 6 0.000000 0.000000 0.000000 0.151071 0.000000 -0.139047
#
#
# Mechanical properties :
#
#
# Convention : Reuss Voigt Hill
#
# Bulk Modulus (GPa) = 34.98060 41.00800 37.99430
# Shear Modulus (GPa) = -195.15875 16.04189 -89.55843
#
# Velocity S-wave (km/s) = -11.95038 3.42622 -8.09545
# Velocity P-wave (km/s) = 12.83813 6.75726 7.71872
#
# Compressibility (1/GPa) = 0.02858727
#
# Stress axis : x y z
#
# Youngs Moduli (GPa) = 33.94472 59.34584 88.35698
#
# Poissons Ratio (x) = 0.37691 0.53111
# Poissons Ratio (y) = 0.21558 0.19070
# Poissons Ratio (z) = 0.20404 0.12808
#
# Static dielectric constant tensor:
#      x y z
#    x 1.425760 0.000000 0.008590 
#    y 0.000000 1.494530 0.000000 
#    z 0.008590 0.000000 1.463020 
# 
# From -- ./inp_files/9896.got.cif
#   From: 2010.05.17/outbox.cif.g08.bks.cpg/sg10_5_cif.got.tgz:9896.got - 2010.06.03 11:33:40.
