data_PCOD9148450
_publ_section_title
;
Structure prediction by ZEFSAII (Michael W. Deem and Ramdas Pophale) SiO2 
 PCOD9148450
Probable space group: P 2/M
;
_chemical_formula_sum "Si O2"
_cell_formula_units_Z 28
_cell_length_a 8.973812
_cell_length_b 13.761595
_cell_length_c 15.659847
_cell_angle_alpha 90.000000
_cell_angle_beta 124.962885
_cell_angle_gamma 90.000000
_cell_volume 1584.873577
_symmetry_space_group_name_H-M "P 2/M"
_symmetry_group_IT_number 10
_symmetry_cell_setting 'monoclinic'
loop_
_space_group_symop_operation_xyz
x,y,z
-x,y,-z
-x,-y,-z
x,-y,z
loop_
_atom_site_type_symbol
_atom_site_label
_atom_site_fract_x
_atom_site_fract_y
_atom_site_fract_z
Si Si1 0.358934 0.302723 0.381050
Si Si2 0.903163 0.197277 0.381050
Si Si3 0.409968 0.385596 0.881649
Si Si4 0.493773 0.750001 0.243773
Si Si5 0.146668 0.885596 0.118351
Si Si6 0.862100 0.111281 0.688328
Si Si7 0.014557 0.611281 0.688328
O O1 0.500000 0.333102 0.500000
O O2 0.447925 0.304281 0.317211
O O3 0.294746 0.191249 0.377311
O O4 0.173920 0.364201 0.327020
O O5 0.686496 0.195718 0.317213
O O6 0.000000 0.166898 0.500000
O O7 0.980116 0.135798 0.327019
O O8 0.959872 0.308750 0.377310
O O9 0.449754 0.500000 0.883094
O O10 0.484584 0.324042 0.827220
O O11 0.190764 0.374949 0.806804
O O12 0.500000 0.354207 0.000000
O O13 0.330144 0.824044 0.172780
O O14 0.077154 0.874946 0.193196
O O15 0.183562 0.000000 0.116907
O O16 0.000000 0.854206 0.000000
O O17 0.801367 0.000000 0.658655
O O18 0.015942 0.500000 0.658653
#
# Coordination Sequence:
#
# PCOD9148450 Si02
#       7
#     4   4   4   4   4   4   4
#     4  10  20  35  52  75 106 135 169 212 252 297
#     4  10  20  35  52  75 106 135 169 212 252 297
#     4   9  19  36  55  76 104 135 168 210 257 303
#     4  10  20  32  54  80 102 134 172 210 254 302
#     4   9  19  36  55  76 104 135 168 210 257 303
#     4   9  19  35  53  73 101 136 171 208 253 303
#     4   9  19  35  53  73 101 136 171 208 253 303
#
# _framework density 17.667023
#
# number of rings (size 3 to 8) (size 9 to 14) (size 15 to 20)
#    0.000    2.571    0.000    1.714    0.000    6.857 
#    0.000    5.714    0.000    6.000    0.000    0.000 
#    0.000    0.000    0.000    0.000    0.000    0.000 
#
# Total GULP energy -156112.101684 kJ/mol
# GULP energy per Si atom -5575.432203 kJ/mol
# Density = 1.762681 g / cm^3
# Si number density = 17.667023 Si / 1000 Ang^3
#
#
#
# Elastic Constant Matrix: (Units=GPa)
#
#
# Indices 1 2 3 4 5 6 
#
# 1 123.6775 23.5387 79.0652 0.0000 0.4284 0.0000
# 2 23.5387 51.3532 29.1690 0.0000 -0.1481 0.0000
# 3 79.0652 29.1690 131.7595 0.0000 -0.6396 0.0000
# 4 0.0000 0.0000 0.0000 20.7816 0.0000 -0.2770
# 5 0.4284 -0.1481 -0.6396 0.0000 14.2236 0.0000
# 6 0.0000 0.0000 0.0000 -0.2770 0.0000 10.2712
#
#
#
# Elastic Compliance Matrix: (Units=1/GPa)
#
#
# Indices 1 2 3 4 5 6 
#
# 1 0.013267 -0.001784 -0.007570 0.000000 -0.000759 0.000000
# 2 -0.001784 0.022514 -0.003913 0.000000 0.000112 0.000000
# 3 -0.007570 -0.003913 0.013002 0.000000 0.000772 0.000000
# 4 0.000000 0.000000 0.000000 0.048137 0.000000 0.001298
# 5 -0.000759 0.000112 0.000772 0.000000 0.070364 0.000000
# 6 0.000000 0.000000 0.000000 0.001298 0.000000 0.097395
#
#
# Mechanical properties :
#
#
# Convention : Reuss Voigt Hill
#
# Bulk Modulus (GPa) = 44.94552 63.37068 54.15810
# Shear Modulus (GPa) = 16.74320 20.72310 18.73315
#
# Velocity S-wave (km/s) = 3.08183 3.42860 3.25983
# Velocity P-wave (km/s) = 6.17731 7.18478 6.70001
#
# Compressibility (1/GPa) = 0.02224916
#
# Stress axis : x y z
#
# Youngs Moduli (GPa) = 75.37486 44.41759 76.90996
#
# Poissons Ratio (x) = 0.07922 0.58221
# Poissons Ratio (y) = 0.13443 0.30097
# Poissons Ratio (z) = 0.57059 0.17382
#
# Static dielectric constant tensor:
#      x y z
#    x 1.589000 0.000000 0.000060 
#    y 0.000000 1.606190 0.000000 
#    z 0.000060 0.000000 1.586800 
# 
# From -- ./inp_files/29435.got.cif
#   From: 2010.05.17/outbox.cif.g08.bks.cpg/sg10_15_cif.got.tgz:29435.got - 2010.06.03 11:33:40.
