data_PCOD9148515
_publ_section_title
;
Structure prediction by ZEFSAII (Michael W. Deem and Ramdas Pophale) SiO2 
 PCOD9148515
Probable space group: P 2/M
;
_chemical_formula_sum "Si O2"
_cell_formula_units_Z 26
_cell_length_a 10.823241
_cell_length_b 28.423351
_cell_length_c 7.516924
_cell_angle_alpha 90.000000
_cell_angle_beta 28.877331
_cell_angle_gamma 90.000000
_cell_volume 1116.766350
_symmetry_space_group_name_H-M "P 2/M"
_symmetry_group_IT_number 10
_symmetry_cell_setting 'monoclinic'
loop_
_space_group_symop_operation_xyz
x,y,z
-x,y,-z
-x,-y,-z
x,-y,z
loop_
_atom_site_type_symbol
_atom_site_label
_atom_site_fract_x
_atom_site_fract_y
_atom_site_fract_z
Si Si1 0.620025 0.711662 0.148082
Si Si2 0.887682 0.247147 0.324706
Si Si3 0.283303 0.855971 0.417164
Si Si4 0.887321 0.446044 0.344127
Si Si5 0.505432 0.050109 0.775184
Si Si6 0.000000 0.918531 0.500000
Si Si7 0.613363 0.603517 0.155800
O O1 0.500000 0.714083 0.500000
O O2 0.392980 0.730549 0.309309
O O3 0.670947 0.657559 0.037529
O O4 0.884426 0.741229 0.824999
O O5 0.833600 0.191814 0.366187
O O6 0.000000 0.267537 0.000000
O O7 0.384795 0.898696 0.415887
O O8 0.087855 0.883462 0.541634
O O9 0.500000 0.842226 0.000000
O O10 0.838496 0.500000 0.457594
O O11 0.618735 0.418052 0.668315
O O12 0.000000 0.446119 0.000000
O O13 0.118759 0.424374 0.168484
O O14 0.617212 0.000000 0.574132
O O15 0.500000 0.050913 0.000000
O O16 0.202666 0.051056 0.134813
O O17 0.500000 0.603308 0.500000
#
# Coordination Sequence:
#
# PCOD9148515 Si02
#       7
#     4   4   4   4   4   2   4
#     4   9  18  30  45  63  84 117 160 201 232 267
#     4  10  20  33  49  68  91 121 162 200 233 271
#     4   9  19  30  47  69  96 120 151 191 235 284
#     4   9  15  21  32  51  76 107 144 185 227 269
#     4   8  14  25  42  66  92 116 147 183 227 274
#     4   8  15  26  44  68  92 120 146 184 229 280
#     4   9  15  24  36  51  76 107 146 190 225 261
#
# _framework density 23.281502
#
# number of rings (size 3 to 8) (size 9 to 14) (size 15 to 20)
#    0.000    3.385    0.000    1.615    4.308    6.154 
#    0.000    0.000    0.000    0.462    0.000    1.077 
#    0.000    0.000    0.000    0.000    0.000   53.846 
#
# Total GULP energy -144735.551002 kJ/mol
# GULP energy per Si atom -5566.751962 kJ/mol
# Density = 2.322851 g / cm^3
# Si number density = 23.281502 Si / 1000 Ang^3
#
#
#
# Elastic Constant Matrix: (Units=GPa)
#
#
# Indices 1 2 3 4 5 6 
#
# 1 7.6696 11.6296 71.4523 0.0000 1.5840 0.0000
# 2 11.6296 168.3971 78.9004 0.0000 -32.8526 0.0000
# 3 71.4523 78.9004 100.1374 0.0000 -46.9394 0.0000
# 4 0.0000 0.0000 0.0000 -67.1181 0.0000 92.3176
# 5 1.5840 -32.8526 -46.9394 0.0000 48.5306 0.0000
# 6 0.0000 0.0000 0.0000 92.3176 0.0000 -98.8771
#
#
#
# Elastic Compliance Matrix: (Units=1/GPa)
#
#
# Indices 1 2 3 4 5 6 
#
# 1 -0.008811 -0.004183 0.015349 0.000000 0.012302 0.000000
# 2 -0.004183 0.007485 -0.000866 0.000000 0.004366 0.000000
# 3 0.015349 -0.000866 -0.001451 0.000000 -0.002491 0.000000
# 4 0.000000 0.000000 0.000000 0.052424 0.000000 0.048946
# 5 0.012302 0.004366 -0.002491 0.000000 0.020750 0.000000
# 6 0.000000 0.000000 0.000000 0.048946 0.000000 0.035586
#
#
# Mechanical properties :
#
#
# Convention : Reuss Voigt Hill
#
# Bulk Modulus (GPa) = 56.10837 66.68543 61.39690
# Shear Modulus (GPa) = 54.75033 -15.87813 19.43610
#
# Velocity S-wave (km/s) = 4.85466 -2.61436 2.89248
# Velocity P-wave (km/s) = 7.45493 4.42630 6.13058
#
# Compressibility (1/GPa) = 0.01782265
#
# Stress axis : x y z
#
# Youngs Moduli (GPa) = -113.50021 133.60621 -688.98388
#
# Poissons Ratio (x) = 0.55892 10.57537
# Poissons Ratio (y) = -0.47481 -0.59663
# Poissons Ratio (z) = 1.74214 0.11570
#
# Static dielectric constant tensor:
#      x y z
#    x 1.960340 0.000000 -0.072740 
#    y 0.000000 1.885620 0.000000 
#    z -0.072740 0.000000 2.256090 
# 
# From -- ./inp_files/52124.got.cif
#   From: 2010.05.17/outbox.cif.g08.bks.cpg/sg10_27_cif.got.tgz:52124.got - 2010.06.03 11:33:40.
