data_PCOD9148756
_publ_section_title
;
Structure prediction by ZEFSAII (Michael W. Deem and Ramdas Pophale) SiO2 
 PCOD9148756
Probable space group: P 2/M
;
_chemical_formula_sum "Si O2"
_cell_formula_units_Z 32
_cell_length_a 15.623679
_cell_length_b 8.785880
_cell_length_c 23.070276
_cell_angle_alpha 90.000000
_cell_angle_beta 31.100334
_cell_angle_gamma 90.000000
_cell_volume 1635.776298
_symmetry_space_group_name_H-M "P 2/M"
_symmetry_group_IT_number 10
_symmetry_cell_setting 'monoclinic'
loop_
_space_group_symop_operation_xyz
x,y,z
-x,y,-z
-x,-y,-z
x,-y,z
loop_
_atom_site_type_symbol
_atom_site_label
_atom_site_fract_x
_atom_site_fract_y
_atom_site_fract_z
Si Si1 0.464543 0.818095 0.834022
Si Si2 0.871306 0.316547 0.124373
Si Si3 0.500414 0.681709 0.690291
Si Si4 0.656687 0.672691 0.828276
Si Si5 0.103412 0.182693 0.080076
Si Si6 0.199876 0.174944 0.542676
Si Si7 0.870952 0.183845 0.800903
Si Si8 0.988076 0.667224 0.439079
O O1 0.539898 0.744599 0.732097
O O2 0.538975 0.762649 0.852301
O O3 0.481071 0.000000 0.821144
O O4 0.270209 0.775557 0.948732
O O5 0.871470 0.500000 0.124663
O O6 0.684917 0.265146 0.218940
O O7 0.945759 0.257037 0.141314
O O8 0.000000 0.264913 0.000000
O O9 0.500703 0.500000 0.693367
O O10 0.629903 0.736540 0.566390
O O11 0.596633 0.500000 0.872217
O O12 0.717827 0.748298 0.852913
O O13 0.829424 0.666322 0.692932
O O14 0.131429 0.226536 0.130571
O O15 0.086524 0.000000 0.088254
O O16 0.051633 0.232285 0.670581
O O17 0.111813 0.197035 0.531592
O O18 0.233330 0.000000 0.537172
O O19 0.863200 0.000000 0.799755
O O20 0.911588 0.500000 0.469375
O O21 0.000000 0.681413 0.500000
#
# Coordination Sequence:
#
# PCOD9148756 Si02
#       8
#     4   4   4   4   4   4   4   4
#     4  11  22  35  55  85 116 147 188 235 283 335
#     4  10  21  39  61  86 114 145 181 226 285 342
#     4  11  22  37  58  84 117 148 179 229 287 340
#     4  10  20  33  52  80 113 152 193 232 275 327
#     4  10  22  39  61  85 111 148 190 234 282 333
#     4  10  20  34  55  80 108 145 187 229 274 328
#     4   9  20  40  59  79 113 154 193 233 277 324
#     4   9  17  30  48  71 103 143 185 228 276 325
#
# _framework density 19.562576
#
# number of rings (size 3 to 8) (size 9 to 14) (size 15 to 20)
#    0.000    2.000    1.250    2.250    0.000    5.000 
#    0.000    3.125    0.000    3.750    0.000    0.000 
#    0.000    0.000    0.000    0.000    0.000    0.000 
#
# Total GULP energy -178507.213992 kJ/mol
# GULP energy per Si atom -5578.350437 kJ/mol
# Density = 1.951805 g / cm^3
# Si number density = 19.562576 Si / 1000 Ang^3
#
#
#
# Elastic Constant Matrix: (Units=GPa)
#
#
# Indices 1 2 3 4 5 6 
#
# 1 84.3698 10.7370 8.9561 0.0000 -6.4512 0.0000
# 2 10.7370 32.0924 13.5115 0.0000 -2.4114 0.0000
# 3 8.9561 13.5115 59.5362 0.0000 -9.3607 0.0000
# 4 0.0000 0.0000 0.0000 24.1044 0.0000 -3.3417
# 5 -6.4512 -2.4114 -9.3607 0.0000 30.5207 0.0000
# 6 0.0000 0.0000 0.0000 -3.3417 0.0000 30.9466
#
#
#
# Elastic Compliance Matrix: (Units=1/GPa)
#
#
# Indices 1 2 3 4 5 6 
#
# 1 0.012568 -0.003748 -0.000703 0.000000 0.002145 0.000000
# 2 -0.003748 0.035573 -0.007556 0.000000 -0.000299 0.000000
# 3 -0.000703 -0.007556 0.019437 0.000000 0.005216 0.000000
# 4 0.000000 0.000000 0.000000 0.042117 0.000000 0.004548
# 5 0.002145 -0.000299 0.005216 0.000000 0.034794 0.000000
# 6 0.000000 0.000000 0.000000 0.004548 0.000000 0.032805
#
#
# Mechanical properties :
#
#
# Convention : Reuss Voigt Hill
#
# Bulk Modulus (GPa) = 22.95466 26.93416 24.94441
# Shear Modulus (GPa) = 23.16648 26.63393 24.90020
#
# Velocity S-wave (km/s) = 3.44499 3.69382 3.57157
# Velocity P-wave (km/s) = 5.25199 5.65601 5.45774
#
# Compressibility (1/GPa) = 0.04356415
#
# Stress axis : x y z
#
# Youngs Moduli (GPa) = 79.56623 28.11137 51.44782
#
# Poissons Ratio (x) = 0.10536 0.03616
# Poissons Ratio (y) = 0.29820 0.38876
# Poissons Ratio (z) = 0.05592 0.21242
#
# Static dielectric constant tensor:
#      x y z
#    x 1.677690 0.000000 -0.010820 
#    y 0.000000 1.704790 0.000000 
#    z -0.010820 0.000000 1.720920 
# 
# From -- ./inp_files/89562.got.cif
#   From: 2010.05.17/outbox.cif.g08.bks.cpg/sg10_45_cif.got.tgz:89562.got - 2010.06.03 11:33:40.
