data_PCOD9148637
_publ_section_title
;
Structure prediction by ZEFSAII (Michael W. Deem and Ramdas Pophale) SiO2 
 PCOD9148637
Probable space group: P 2/M
;
_chemical_formula_sum "Si O2"
_cell_formula_units_Z 32
_cell_length_a 14.444659
_cell_length_b 7.532496
_cell_length_c 13.516990
_cell_angle_alpha 90.000000
_cell_angle_beta 94.172823
_cell_angle_gamma 90.000000
_cell_volume 1466.808432
_symmetry_space_group_name_H-M "P 2/M"
_symmetry_group_IT_number 10
_symmetry_cell_setting 'monoclinic'
loop_
_space_group_symop_operation_xyz
x,y,z
-x,y,-z
-x,-y,-z
x,-y,z
loop_
_atom_site_type_symbol
_atom_site_label
_atom_site_fract_x
_atom_site_fract_y
_atom_site_fract_z
Si Si1 0.745172 0.787789 0.644162
Si Si2 0.918240 0.286766 0.774553
Si Si3 0.398136 0.782356 0.532859
Si Si4 0.648744 0.787233 0.833289
Si Si5 0.315069 0.212055 0.733924
Si Si6 0.542930 0.785197 0.104879
Si Si7 0.873282 0.713656 0.188927
Si Si8 0.182480 0.708754 0.032613
O O1 0.853137 0.754625 0.675488
O O2 0.685868 0.725250 0.546293
O O3 0.696068 0.714555 0.739021
O O4 0.734209 0.000000 0.642847
O O5 0.919786 0.500000 0.782155
O O6 0.871674 0.219072 0.874251
O O7 0.023723 0.222907 0.776249
O O8 0.500000 0.727488 0.500000
O O9 0.367500 0.722672 0.640004
O O10 0.400715 0.000000 0.534324
O O11 0.540835 0.747390 0.826376
O O12 0.709031 0.729398 0.932292
O O13 0.655671 0.000000 0.833818
O O14 0.364268 0.282661 0.837452
O O15 0.206116 0.243507 0.737926
O O16 0.328441 0.000000 0.734365
O O17 0.552615 0.000000 0.092708
O O18 0.500000 0.715792 0.000000
O O19 0.876618 0.500000 0.183350
O O20 0.845127 0.781775 0.076723
O O21 0.160939 0.500000 0.027727
#
# Coordination Sequence:
#
# PCOD9148637 Si02
#       8
#     4   4   4   4   4   4   4   4
#     4   9  17  30  50  75  98 120 155 205 250 284
#     4   9  18  33  52  72  96 130 168 201 240 293
#     4   9  17  32  55  79 101 127 161 201 245 293
#     4   9  16  27  45  70  98 125 155 196 244 290
#     4  10  20  33  51  74  98 129 168 204 240 288
#     4   9  16  26  42  66  96 127 156 187 228 282
#     4  10  20  34  50  69  98 133 165 202 246 289
#     4   9  17  30  49  72  97 128 166 202 238 287
#
# _framework density 21.816074
#
# number of rings (size 3 to 8) (size 9 to 14) (size 15 to 20)
#    0.000    2.750    0.000    1.875    0.000    6.500 
#    0.000    1.875    0.000   12.750    0.000    0.000 
#    0.000    0.000    0.000    0.000    0.000    0.000 
#
# Total GULP energy -178445.577382 kJ/mol
# GULP energy per Si atom -5576.424293 kJ/mol
# Density = 2.176642 g / cm^3
# Si number density = 21.816074 Si / 1000 Ang^3
#
#
#
# Elastic Constant Matrix: (Units=GPa)
#
#
# Indices 1 2 3 4 5 6 
#
# 1 110.3183 0.7876 67.6805 0.0000 10.8957 0.0000
# 2 0.7876 52.6063 5.9783 0.0000 0.1940 0.0000
# 3 67.6805 5.9783 103.4145 0.0000 13.8900 0.0000
# 4 0.0000 0.0000 0.0000 9.5437 0.0000 3.8276
# 5 10.8957 0.1940 13.8900 0.0000 30.1442 0.0000
# 6 0.0000 0.0000 0.0000 3.8276 0.0000 22.7296
#
#
#
# Elastic Compliance Matrix: (Units=1/GPa)
#
#
# Indices 1 2 3 4 5 6 
#
# 1 0.015215 0.000899 -0.009881 0.000000 -0.000952 0.000000
# 2 0.000899 0.019193 -0.001745 0.000000 0.000356 0.000000
# 3 -0.009881 -0.001745 0.016796 0.000000 -0.004156 0.000000
# 4 0.000000 0.000000 0.000000 0.112370 0.000000 -0.018923
# 5 -0.000952 0.000356 -0.004156 0.000000 0.035431 0.000000
# 6 0.000000 0.000000 0.000000 -0.018923 0.000000 0.047182
#
#
# Mechanical properties :
#
#
# Convention : Reuss Voigt Hill
#
# Bulk Modulus (GPa) = 33.61699 46.13689 39.87694
# Shear Modulus (GPa) = 18.01423 25.27635 21.64529
#
# Velocity S-wave (km/s) = 2.87667 3.40753 3.15329
# Velocity P-wave (km/s) = 5.14552 6.05605 5.61926
#
# Compressibility (1/GPa) = 0.02974686
#
# Stress axis : x y z
#
# Youngs Moduli (GPa) = 65.72666 52.10308 59.53820
#
# Poissons Ratio (x) = -0.04682 0.58832
# Poissons Ratio (y) = -0.05907 0.10392
# Poissons Ratio (z) = 0.64947 0.09094
#
# Static dielectric constant tensor:
#      x y z
#    x 1.800770 0.000000 -0.001010 
#    y 0.000000 1.838770 0.000000 
#    z -0.001010 0.000000 1.814840 
# 
# From -- ./inp_files/46708.got.cif
#   From: 2010.05.17/outbox.cif.g08.bks.cpg/sg10_24_cif.got.tgz:46708.got - 2010.06.03 11:33:40.
