data_PCOD9148678
_publ_section_title
;
Structure prediction by ZEFSAII (Michael W. Deem and Ramdas Pophale) SiO2 
 PCOD9148678
Probable space group: P 2/M
;
_chemical_formula_sum "Si O2"
_cell_formula_units_Z 24
_cell_length_a 11.718201
_cell_length_b 7.759609
_cell_length_c 12.753900
_cell_angle_alpha 90.000000
_cell_angle_beta 86.740626
_cell_angle_gamma 90.000000
_cell_volume 1157.819067
_symmetry_space_group_name_H-M "P 2/M"
_symmetry_group_IT_number 10
_symmetry_cell_setting 'monoclinic'
loop_
_space_group_symop_operation_xyz
x,y,z
-x,y,-z
-x,-y,-z
x,-y,z
loop_
_atom_site_type_symbol
_atom_site_label
_atom_site_fract_x
_atom_site_fract_y
_atom_site_fract_z
Si Si1 0.255206 0.208609 0.161922
Si Si2 0.916379 0.801016 0.650373
Si Si3 0.492700 0.295544 0.881852
Si Si4 0.721922 0.705117 0.236767
Si Si5 0.873193 0.208291 0.038044
Si Si6 0.837695 0.300697 0.433794
O O1 0.162794 0.266896 0.252377
O O2 0.383292 0.269771 0.174953
O O3 0.255470 0.000000 0.163932
O O4 0.213748 0.264876 0.048819
O O5 0.847995 0.792798 0.544269
O O6 0.035492 0.706471 0.623800
O O7 0.945294 0.000000 0.672422
O O8 0.470552 0.500000 0.893298
O O9 0.389699 0.223659 0.816823
O O10 0.500000 0.222663 0.000000
O O11 0.706673 0.500000 0.251257
O O12 0.827423 0.731770 0.152029
O O13 0.753099 0.773371 0.350164
O O14 0.874504 0.000000 0.039554
O O15 0.000000 0.266273 0.000000
O O16 0.809793 0.500000 0.457062
#
# Coordination Sequence:
#
# PCOD9148678 Si02
#       6
#     4   4   4   4   4   4
#     4  10  21  35  53  79 107 138 178 220 263 315
#     4  10  20  36  57  80 109 141 177 217 265 318
#     4  10  20  36  56  76 104 143 182 219 263 313
#     4  10  21  36  53  78 107 138 177 219 263 314
#     4  10  20  33  51  77 108 138 170 213 266 319
#     4  10  20  35  56  81 109 139 177 219 265 317
#
# _framework density 20.728629000000002
#
# number of rings (size 3 to 8) (size 9 to 14) (size 15 to 20)
#    0.000    2.000    1.667    3.000    0.000    5.333 
#    0.000    0.833    0.000    5.000    0.000    0.000 
#    0.000    0.000    0.000    0.000    0.000    0.000 
#
# Total GULP energy -134037.119651 kJ/mol
# GULP energy per Si atom -5584.879985 kJ/mol
# Density = 2.068145 g / cm^3
# Si number density = 20.728629 Si / 1000 Ang^3
#
#
#
# Elastic Constant Matrix: (Units=GPa)
#
#
# Indices 1 2 3 4 5 6 
#
# 1 47.1593 -6.0904 -6.4112 0.0000 21.0150 0.0000
# 2 -6.0904 31.9777 -4.4791 0.0000 5.8389 0.0000
# 3 -6.4112 -4.4791 65.8235 0.0000 18.4948 0.0000
# 4 0.0000 0.0000 0.0000 18.5226 0.0000 -5.3055
# 5 21.0150 5.8389 18.4948 0.0000 37.9036 0.0000
# 6 0.0000 0.0000 0.0000 -5.3055 0.0000 11.9064
#
#
#
# Elastic Compliance Matrix: (Units=1/GPa)
#
#
# Indices 1 2 3 4 5 6 
#
# 1 0.038101 0.014513 0.013051 0.000000 -0.029728 0.000000
# 2 0.014513 0.038715 0.009253 0.000000 -0.018525 0.000000
# 3 0.013051 0.009253 0.022629 0.000000 -0.019703 0.000000
# 4 0.000000 0.000000 0.000000 0.061887 0.000000 0.027577
# 5 -0.029728 -0.018525 -0.019703 0.000000 0.055333 0.000000
# 6 0.000000 0.000000 0.000000 0.027577 0.000000 0.096276
#
#
# Mechanical properties :
#
#
# Convention : Reuss Voigt Hill
#
# Bulk Modulus (GPa) = 5.77772 12.33325 9.05548
# Shear Modulus (GPa) = 16.83510 24.46262 20.64886
#
# Velocity S-wave (km/s) = 2.85295 3.43904 3.15961
# Velocity P-wave (km/s) = 3.69402 4.66177 4.20582
#
# Compressibility (1/GPa) = 0.17307875
#
# Stress axis : x y z
#
# Youngs Moduli (GPa) = 26.24628 25.83011 44.19093
#
# Poissons Ratio (x) = -0.37487 -0.57675
# Poissons Ratio (y) = -0.38091 -0.40890
# Poissons Ratio (z) = -0.34255 -0.23901
#
# Static dielectric constant tensor:
#      x y z
#    x 1.736780 0.000000 0.037410 
#    y 0.000000 1.741860 0.000000 
#    z 0.037410 0.000000 1.740160 
# 
# From -- ./inp_files/45152.got.cif
#   From: 2010.05.17/outbox.cif.g08.bks.cpg/sg10_23_cif.got.tgz:45152.got - 2010.06.03 11:33:40.
