data_PCOD9148238
_publ_section_title
;
Structure prediction by ZEFSAII (Michael W. Deem and Ramdas Pophale) SiO2 
 PCOD9148238
Probable space group: P 2/M
;
_chemical_formula_sum "Si O2"
_cell_formula_units_Z 24
_cell_length_a 14.390071
_cell_length_b 7.388709
_cell_length_c 18.838615
_cell_angle_alpha 90.000000
_cell_angle_beta 28.718836
_cell_angle_gamma 90.000000
_cell_volume 962.464140
_symmetry_space_group_name_H-M "P 2/M"
_symmetry_group_IT_number 10
_symmetry_cell_setting 'monoclinic'
loop_
_space_group_symop_operation_xyz
x,y,z
-x,y,-z
-x,-y,-z
x,-y,z
loop_
_atom_site_type_symbol
_atom_site_label
_atom_site_fract_x
_atom_site_fract_y
_atom_site_fract_z
Si Si1 0.167449 0.212993 0.835636
Si Si2 0.294483 0.721868 0.101811
Si Si3 0.705633 0.282004 0.394741
Si Si4 0.876818 0.708324 0.645662
Si Si5 0.572166 0.703717 0.626510
Si Si6 0.458032 0.292164 0.853140
O O1 0.139946 0.237469 0.769630
O O2 0.366424 0.306259 0.724483
O O3 0.192275 0.000000 0.832159
O O4 0.000000 0.278454 0.000000
O O5 0.286618 0.500000 0.105189
O O6 0.137281 0.782729 0.265048
O O7 0.500000 0.771030 0.000000
O O8 0.305842 0.783543 0.012529
O O9 0.500000 0.216266 0.500000
O O10 0.699618 0.500000 0.403420
O O11 0.711743 0.217004 0.472092
O O12 0.945284 0.500000 0.607111
O O13 0.659412 0.701838 0.761067
O O14 0.000000 0.794311 0.500000
O O15 0.643181 0.500000 0.595565
O O16 0.516118 0.792411 0.738920
O O17 0.395978 0.500000 0.879366
#
# Coordination Sequence:
#
# PCOD9148238 Si02
#       6
#     4   4   4   4   4   4
#     4  10  20  32  46  64  84 108 141 178 213 253
#     4   7  10  17  29  45  68 101 136 163 191 232
#     4   8  15  28  45  64  85 110 140 171 207 255
#     4   8  12  18  30  49  75 107 139 169 199 233
#     4   9  17  29  45  65  88 113 141 175 214 254
#     4   8  13  22  35  52  78 109 137 166 202 244
#
# _framework density 24.935994000000001
#
# number of rings (size 3 to 8) (size 9 to 14) (size 15 to 20)
#    0.000    3.667    0.000    3.500    0.000    4.333 
#    0.000    1.667    0.000    6.000    0.000    0.000 
#    0.000    6.667    0.000    0.000    0.000    4.167 
#
# Total GULP energy -133651.165763 kJ/mol
# GULP energy per Si atom -5568.798573 kJ/mol
# Density = 2.487924 g / cm^3
# Si number density = 24.935994 Si / 1000 Ang^3
#
#
#
# Elastic Constant Matrix: (Units=GPa)
#
#
# Indices 1 2 3 4 5 6 
#
# 1 91.8405 3.0088 73.3492 0.0000 48.7639 0.0000
# 2 3.0088 93.0420 7.0657 0.0000 5.5096 0.0000
# 3 73.3492 7.0657 216.3424 0.0000 95.1700 0.0000
# 4 0.0000 0.0000 0.0000 -1.3250 0.0000 -17.0719
# 5 48.7639 5.5096 95.1700 0.0000 78.8521 0.0000
# 6 0.0000 0.0000 0.0000 -17.0719 0.0000 -40.3371
#
#
#
# Elastic Compliance Matrix: (Units=1/GPa)
#
#
# Indices 1 2 3 4 5 6 
#
# 1 0.016775 0.000083 -0.002396 0.000000 -0.007488 0.000000
# 2 0.000083 0.010793 -0.000056 0.000000 -0.000738 0.000000
# 3 -0.002396 -0.000056 0.010197 0.000000 -0.010821 0.000000
# 4 0.000000 0.000000 0.000000 0.169481 0.000000 -0.071730
# 5 -0.007488 -0.000738 -0.010821 0.000000 0.030425 0.000000
# 6 0.000000 0.000000 0.000000 -0.071730 0.000000 0.005567
#
#
# Mechanical properties :
#
#
# Convention : Reuss Voigt Hill
#
# Bulk Modulus (GPa) = 30.27890 63.11913 46.69902
# Shear Modulus (GPa) = 19.30605 28.62474 23.96540
#
# Velocity S-wave (km/s) = 2.78551 3.39179 3.10349
# Velocity P-wave (km/s) = 4.74494 6.38015 5.62231
#
# Compressibility (1/GPa) = 0.03302630
#
# Stress axis : x y z
#
# Youngs Moduli (GPa) = 59.61131 92.65181 98.06910
#
# Poissons Ratio (x) = -0.00768 0.23501
# Poissons Ratio (y) = -0.00494 0.00550
# Poissons Ratio (z) = 0.14285 0.00520
#
# Static dielectric constant tensor:
#      x y z
#    x 1.988390 0.000000 0.075810 
#    y 0.000000 2.099020 0.000000 
#    z 0.075810 0.000000 2.087280 
# 
# From -- ./inp_files/85564.got.cif
#   From: 2010.05.17/outbox.cif.g08.bks.cpg/sg10_43_cif.got.tgz:85564.got - 2010.06.03 11:33:40.
