data_PCOD9148568
_publ_section_title
;
Structure prediction by ZEFSAII (Michael W. Deem and Ramdas Pophale) SiO2 
 PCOD9148568
Probable space group: P 2/M
;
_chemical_formula_sum "Si O2"
_cell_formula_units_Z 20
_cell_length_a 8.992058
_cell_length_b 7.333541
_cell_length_c 18.743705
_cell_angle_alpha 90.000000
_cell_angle_beta 118.596960
_cell_angle_gamma 90.000000
_cell_volume 1085.242821
_symmetry_space_group_name_H-M "P 2/M"
_symmetry_group_IT_number 10
_symmetry_cell_setting 'monoclinic'
loop_
_space_group_symop_operation_xyz
x,y,z
-x,y,-z
-x,-y,-z
x,-y,z
loop_
_atom_site_type_symbol
_atom_site_label
_atom_site_fract_x
_atom_site_fract_y
_atom_site_fract_z
Si Si1 0.619712 0.214066 0.309157
Si Si2 0.822145 0.783405 0.215378
Si Si3 0.362126 0.500000 0.189269
Si Si4 0.108333 0.500000 0.245028
Si Si5 0.179968 0.217144 0.506214
Si Si6 0.692314 0.500000 0.571588
Si Si7 0.444306 0.500000 0.905937
O O1 0.772530 0.242055 0.287478
O O2 0.463252 0.327616 0.244423
O O3 0.680969 0.265754 0.401840
O O4 0.581391 0.000000 0.300436
O O5 0.672258 0.676054 0.139459
O O6 0.992305 0.675615 0.235175
O O7 0.828096 0.000000 0.202562
O O8 0.176735 0.500000 0.180169
O O9 0.398387 0.500000 0.113281
O O10 0.267458 0.500000 0.335689
O O11 0.218194 0.325727 0.443846
O O12 0.000000 0.263487 0.500000
O O13 0.183225 0.000000 0.495247
O O14 0.500000 0.500000 0.500000
O O15 0.500000 0.500000 0.000000
#
# Coordination Sequence:
#
# PCOD9148568 Si02
#       7
#     4   4   2   2   4   2   2
#     4   9  17  32  52  71  95 133 181 223 258 304
#     4   9  19  36  57  80 107 141 177 212 255 310
#     4  10  20  35  53  75 104 135 168 209 256 308
#     4  11  22  34  51  75 106 145 180 214 260 318
#     4  10  20  33  50  71  95 130 179 230 271 305
#     4  12  24  34  47  72 107 143 180 225 277 316
#     4   9  19  37  63  90 108 129 166 210 257 310
#
# _framework density 18.429057
#
# number of rings (size 3 to 8) (size 9 to 14) (size 15 to 20)
#    0.000    2.200    0.000    3.900    0.000    4.000 
#    0.000    2.000    0.000    1.200    0.000    0.000 
#    0.000    0.000    0.000    0.000    0.000    0.000 
#
# Total GULP energy -111646.412452 kJ/mol
# GULP energy per Si atom -5582.320623 kJ/mol
# Density = 1.838711 g / cm^3
# Si number density = 18.429057 Si / 1000 Ang^3
#
#
#
# Elastic Constant Matrix: (Units=GPa)
#
#
# Indices 1 2 3 4 5 6 
#
# 1 86.3319 33.0598 12.7652 0.0000 -11.7039 0.0000
# 2 33.0598 95.5497 17.7832 0.0000 -6.7145 0.0000
# 3 12.7652 17.7832 79.0131 0.0000 -20.6059 0.0000
# 4 0.0000 0.0000 0.0000 -429.8398 0.0000 -414.1425
# 5 -11.7039 -6.7145 -20.6059 0.0000 21.4332 0.0000
# 6 0.0000 0.0000 0.0000 -414.1425 0.0000 -291.4042
#
#
#
# Elastic Compliance Matrix: (Units=1/GPa)
#
#
# Indices 1 2 3 4 5 6 
#
# 1 0.014160 -0.004515 0.000502 0.000000 0.006800 0.000000
# 2 -0.004515 0.012395 -0.002256 0.000000 -0.000752 0.000000
# 3 0.000502 -0.002256 0.017310 0.000000 0.016209 0.000000
# 4 0.000000 0.000000 0.000000 0.006300 0.000000 -0.008953
# 5 0.006800 -0.000752 0.016209 0.000000 0.065718 0.000000
# 6 0.000000 0.000000 0.000000 -0.008953 0.000000 0.009292
#
#
# Mechanical properties :
#
#
# Convention : Reuss Voigt Hill
#
# Bulk Modulus (GPa) = 31.92172 43.12346 37.52259
# Shear Modulus (GPa) = 33.74830 -126.80974 -46.53072
#
# Velocity S-wave (km/s) = 4.28396 -8.30416 -5.03025
# Velocity P-wave (km/s) = 6.46751 8.27616 3.65145
#
# Compressibility (1/GPa) = 0.03132664
#
# Stress axis : x y z
#
# Youngs Moduli (GPa) = 70.62264 80.67791 57.76983
#
# Poissons Ratio (x) = 0.36424 -0.02900
# Poissons Ratio (y) = 0.31884 0.13034
# Poissons Ratio (z) = -0.03545 0.18203
#
# Static dielectric constant tensor:
#      x y z
#    x 1.648550 0.000000 0.006270 
#    y 0.000000 1.632750 0.000000 
#    z 0.006270 0.000000 1.608710 
# 
# From -- ./inp_files/74220.got.cif
#   From: 2010.05.17/outbox.cif.g08.bks.cpg/sg10_38_cif.got.tgz:74220.got - 2010.06.03 11:33:40.
