data_PCOD9148200
_publ_section_title
;
Structure prediction by ZEFSAII (Michael W. Deem and Ramdas Pophale) SiO2 
 PCOD9148200
Probable space group: P 2/M
;
_chemical_formula_sum "Si O2"
_cell_formula_units_Z 24
_cell_length_a 21.294065
_cell_length_b 7.273645
_cell_length_c 14.445923
_cell_angle_alpha 90.000000
_cell_angle_beta 156.549697
_cell_angle_gamma 90.000000
_cell_volume 890.406418
_symmetry_space_group_name_H-M "P 2/M"
_symmetry_group_IT_number 10
_symmetry_cell_setting 'monoclinic'
loop_
_space_group_symop_operation_xyz
x,y,z
-x,y,-z
-x,-y,-z
x,-y,z
loop_
_atom_site_type_symbol
_atom_site_label
_atom_site_fract_x
_atom_site_fract_y
_atom_site_fract_z
Si Si1 0.667979 0.790239 0.197520
Si Si2 0.171008 0.275601 0.119652
Si Si3 0.331349 0.289648 0.161448
Si Si4 0.485944 0.722803 0.191505
Si Si5 0.004800 0.223203 0.615003
Si Si6 0.826139 0.277885 0.660989
O O1 0.842828 0.711693 0.446481
O O2 0.668418 0.000000 0.230366
O O3 0.500000 0.702475 0.000000
O O4 0.645035 0.792672 0.055212
O O5 0.174617 0.500000 0.121867
O O6 0.297902 0.209862 0.217168
O O7 0.994484 0.214477 0.852257
O O8 0.186563 0.226048 0.247765
O O9 0.383150 0.500000 0.245743
O O10 0.161615 0.288295 0.879400
O O11 0.450523 0.211217 0.247189
O O12 0.478579 0.500000 0.182144
O O13 0.660287 0.778164 0.393630
O O14 0.000000 0.278676 0.500000
O O15 0.004592 0.000000 0.617088
O O16 0.829960 0.500000 0.663333
#
# Coordination Sequence:
#
# PCOD9148200 Si02
#       6
#     4   4   4   4   4   4
#     4  10  22  38  53  71  97 131 169 204 244 296
#     4   8  15  29  48  71  99 132 165 197 241 294
#     4  10  20  31  49  78 104 128 163 206 246 284
#     4  10  20  32  49  77 105 128 161 206 249 286
#     4  10  20  36  54  70  95 134 169 198 241 298
#     4   8  15  29  48  70 100 133 163 198 242 293
#
# _framework density 26.953983999999998
#
# number of rings (size 3 to 8) (size 9 to 14) (size 15 to 20)
#    0.000    2.667    1.667    1.000    2.333    2.000 
#    0.000    3.333    0.000    1.000    0.000    4.667 
#    0.000    0.000    0.000    0.000    0.000    0.000 
#
# Total GULP energy -134241.699581 kJ/mol
# GULP energy per Si atom -5593.404149 kJ/mol
# Density = 2.689264 g / cm^3
# Si number density = 26.953984 Si / 1000 Ang^3
#
#
#
# Elastic Constant Matrix: (Units=GPa)
#
#
# Indices 1 2 3 4 5 6 
#
# 1 98.3090 13.7455 -8.5527 0.0000 16.1040 0.0000
# 2 13.7455 135.4148 -1.3185 0.0000 4.5803 0.0000
# 3 -8.5527 -1.3185 118.1213 0.0000 19.9675 0.0000
# 4 0.0000 0.0000 0.0000 3.1803 0.0000 -7.3146
# 5 16.1040 4.5803 19.9675 0.0000 53.8723 0.0000
# 6 0.0000 0.0000 0.0000 -7.3146 0.0000 -0.2113
#
#
#
# Elastic Compliance Matrix: (Units=1/GPa)
#
#
# Indices 1 2 3 4 5 6 
#
# 1 0.011046 -0.000981 0.001422 0.000000 -0.003746 0.000000
# 2 -0.000981 0.007498 0.000076 0.000000 -0.000372 0.000000
# 3 0.001422 0.000076 0.009220 0.000000 -0.003849 0.000000
# 4 0.000000 0.000000 0.000000 0.003900 0.000000 -0.135018
# 5 -0.003746 -0.000372 -0.003849 0.000000 0.021140 0.000000
# 6 0.000000 0.000000 0.000000 -0.135018 0.000000 -0.058704
#
#
# Mechanical properties :
#
#
# Convention : Reuss Voigt Hill
#
# Bulk Modulus (GPa) = 34.72428 39.95485 37.33957
# Shear Modulus (GPa) = 1875.69907 34.56633 955.13270
#
# Velocity S-wave (km/s) = 26.40833 3.58497 18.84479
# Velocity P-wave (km/s) = 30.70468 5.65611 22.07679
#
# Compressibility (1/GPa) = 0.02879829
#
# Stress axis : x y z
#
# Youngs Moduli (GPa) = 90.52684 133.37606 108.45598
#
# Poissons Ratio (x) = 0.13081 -0.15423
# Poissons Ratio (y) = 0.08878 -0.00820
# Poissons Ratio (z) = -0.12874 -0.01009
#
# Static dielectric constant tensor:
#      x y z
#    x 2.145750 0.000000 0.003800 
#    y 0.000000 2.015150 0.000000 
#    z 0.003800 0.000000 2.063450 
# 
# From -- ./inp_files/27988.got.cif
#   From: 2010.05.17/outbox.cif.g08.bks.cpg/sg10_14_cif.got.tgz:27988.got - 2010.06.03 11:33:40.
