data_PCOD9148755
_publ_section_title
;
Structure prediction by ZEFSAII (Michael W. Deem and Ramdas Pophale) SiO2 
 PCOD9148755
Probable space group: P 2/M
;
_chemical_formula_sum "Si O2"
_cell_formula_units_Z 28
_cell_length_a 14.753739
_cell_length_b 8.874851
_cell_length_c 13.679666
_cell_angle_alpha 90.000000
_cell_angle_beta 57.001842
_cell_angle_gamma 90.000000
_cell_volume 1502.239336
_symmetry_space_group_name_H-M "P 2/M"
_symmetry_group_IT_number 10
_symmetry_cell_setting 'monoclinic'
loop_
_space_group_symop_operation_xyz
x,y,z
-x,y,-z
-x,-y,-z
x,-y,z
loop_
_atom_site_type_symbol
_atom_site_label
_atom_site_fract_x
_atom_site_fract_y
_atom_site_fract_z
Si Si1 0.827148 0.318449 0.269186
Si Si2 0.752418 0.180055 0.795831
Si Si3 0.603523 0.316361 0.501217
Si Si4 0.607353 0.679849 0.724400
Si Si5 0.059599 0.320349 0.195323
Si Si6 0.393144 0.177246 0.931825
Si Si7 0.823708 0.177705 0.058229
O O1 0.824434 0.500000 0.257826
O O2 0.715564 0.270424 0.384984
O O3 0.838705 0.243394 0.156634
O O4 0.932736 0.283133 0.271564
O O5 0.707650 0.247565 0.722303
O O6 0.866186 0.244607 0.766076
O O7 0.757899 0.000000 0.788713
O O8 0.665153 0.219576 0.932385
O O9 0.500000 0.264588 0.500000
O O10 0.601493 0.500000 0.502058
O O11 0.599323 0.269134 0.616542
O O12 0.617502 0.500000 0.720406
O O13 0.498168 0.729447 0.843416
O O14 0.072505 0.500000 0.192905
O O15 0.104646 0.262093 0.064648
O O16 0.300416 0.196260 0.904260
O O17 0.422052 0.000000 0.920553
O O18 0.848751 0.000000 0.040354
#
# Coordination Sequence:
#
# PCOD9148755 Si02
#       7
#     4   4   4   4   4   4   4
#     4  10  20  35  55  78 106 141 180 223 266 308
#     4  10  21  37  55  76 108 144 174 214 268 321
#     4   9  19  36  56  79 107 138 174 217 263 310
#     4  11  21  33  55  82 105 137 180 222 265 313
#     4  10  20  34  54  80 107 137 178 223 264 312
#     4   9  19  34  51  75 108 143 174 210 263 319
#     4  10  20  33  52  80 113 145 175 213 265 321
#
# _framework density 18.638840999999999
#
# number of rings (size 3 to 8) (size 9 to 14) (size 15 to 20)
#    0.000    2.143    0.000    4.286    0.000    9.143 
#    0.000    2.143    0.000    8.143    0.000    0.000 
#    0.000    0.000    0.000    0.000    0.000    0.000 
#
# Total GULP energy -156378.934028 kJ/mol
# GULP energy per Si atom -5584.961930 kJ/mol
# Density = 1.859642 g / cm^3
# Si number density = 18.638841 Si / 1000 Ang^3
#
#
#
# Elastic Constant Matrix: (Units=GPa)
#
#
# Indices 1 2 3 4 5 6 
#
# 1 170.0861 54.8258 82.5659 0.0000 8.9496 0.0000
# 2 54.8258 39.3419 24.7155 0.0000 1.4514 0.0000
# 3 82.5659 24.7155 48.8955 0.0000 7.9036 0.0000
# 4 0.0000 0.0000 0.0000 -4.6010 0.0000 15.7822
# 5 8.9496 1.4514 7.9036 0.0000 33.3059 0.0000
# 6 0.0000 0.0000 0.0000 15.7822 0.0000 19.7949
#
#
#
# Elastic Compliance Matrix: (Units=1/GPa)
#
#
# Indices 1 2 3 4 5 6 
#
# 1 0.041723 -0.019950 -0.061039 0.000000 0.004143 0.000000
# 2 -0.019950 0.047068 0.009735 0.000000 0.000999 0.000000
# 3 -0.061039 0.009735 0.120648 0.000000 -0.012653 0.000000
# 4 0.000000 0.000000 0.000000 -0.058194 0.000000 0.046397
# 5 0.004143 0.000999 -0.012653 0.000000 0.031870 0.000000
# 6 0.000000 0.000000 0.000000 0.046397 0.000000 0.013526
#
#
# Mechanical properties :
#
#
# Convention : Reuss Voigt Hill
#
# Bulk Modulus (GPa) = 14.94096 64.72644 39.83370
# Shear Modulus (GPa) = 13.83281 16.11438 14.97359
#
# Velocity S-wave (km/s) = 2.72720 2.94353 2.83743
# Velocity P-wave (km/s) = 4.23677 6.80841 5.67031
#
# Compressibility (1/GPa) = 0.06693010
#
# Stress axis : x y z
#
# Youngs Moduli (GPa) = 23.96769 21.24604 8.28858
#
# Poissons Ratio (x) = 0.42387 0.50593
# Poissons Ratio (y) = 0.47816 -0.08069
# Poissons Ratio (z) = 1.46297 -0.20684
#
# Static dielectric constant tensor:
#      x y z
#    x 1.656580 0.000000 -0.001350 
#    y 0.000000 1.620930 0.000000 
#    z -0.001350 0.000000 1.615560 
# 
# From -- ./inp_files/49460.got.cif
#   From: 2010.05.17/outbox.cif.g08.bks.cpg/sg10_25_cif.got.tgz:49460.got - 2010.06.03 11:33:40.
