data_PCOD9148546
_publ_section_title
;
Structure prediction by ZEFSAII (Michael W. Deem and Ramdas Pophale) SiO2 
 PCOD9148546
Probable space group: P 2/M
;
_chemical_formula_sum "Si O2"
_cell_formula_units_Z 28
_cell_length_a 15.292430
_cell_length_b 14.727462
_cell_length_c 8.859862
_cell_angle_alpha 90.000000
_cell_angle_beta 54.594160
_cell_angle_gamma 90.000000
_cell_volume 1626.393427
_symmetry_space_group_name_H-M "P 2/M"
_symmetry_group_IT_number 10
_symmetry_cell_setting 'monoclinic'
loop_
_space_group_symop_operation_xyz
x,y,z
-x,y,-z
-x,-y,-z
x,-y,z
loop_
_atom_site_type_symbol
_atom_site_label
_atom_site_fract_x
_atom_site_fract_y
_atom_site_fract_z
Si Si1 0.624613 0.808918 0.555694
Si Si2 0.370855 0.000000 0.959382
Si Si3 0.168265 0.258442 0.512847
Si Si4 0.000000 0.104394 0.682867
Si Si5 0.629145 0.000000 0.701090
Si Si6 0.375387 0.808918 0.804921
Si Si7 0.000001 0.606534 0.819222
Si Si8 0.168264 0.258443 0.150625
O O1 0.711824 0.744485 0.544060
O O2 0.654645 0.909045 0.586227
O O3 0.500000 0.791340 0.722136
O O4 0.632139 0.806235 0.367861
O O5 0.345355 0.090955 0.895519
O O6 0.500000 0.000000 0.843599
O O7 0.324255 0.000000 0.175745
O O8 0.167889 0.262478 0.332111
O O9 0.102772 0.166262 0.623108
O O10 0.101764 0.341669 0.647345
O O11 0.897229 0.166264 0.828652
O O12 0.000000 0.100143 0.500000
O O13 0.999999 0.000000 0.738145
O O14 0.288175 0.744484 0.967709
O O15 0.000002 0.500000 0.783838
O O16 0.898237 0.658329 0.850871
O O17 0.000000 0.617517 0.000000
#
# Coordination Sequence:
#
# PCOD9148546 Si02
#       8
#     4   2   4   4   2   4   4   4
#     4  10  20  33  49  72 107 147 184 224 267 315
#     4   9  17  29  45  66  95 138 189 229 260 299
#     4  10  20  33  54  81 107 139 178 224 269 314
#     4   8  16  30  46  69 102 137 172 212 259 307
#     4   9  17  29  45  66  95 138 189 229 260 299
#     4  10  20  33  49  72 107 147 184 224 267 315
#     4  10  21  39  62  83 106 137 172 216 271 330
#     4  10  20  33  54  81 107 139 178 224 269 314
#
# _framework density 17.216006
#
# number of rings (size 3 to 8) (size 9 to 14) (size 15 to 20)
#    0.000    2.429    0.000    3.429    2.000    4.571 
#    0.000    0.000    0.000    3.429    0.000    6.000 
#    0.000    0.000    0.000    0.000    0.000    0.000 
#
# Total GULP energy -156158.055626 kJ/mol
# GULP energy per Si atom -5577.073415 kJ/mol
# Density = 1.717682 g / cm^3
# Si number density = 17.216006 Si / 1000 Ang^3
#
#
#
# Elastic Constant Matrix: (Units=GPa)
#
#
# Indices 1 2 3 4 5 6 
#
# 1 120.5626 62.7636 54.7560 0.0000 -12.6206 0.0000
# 2 62.7636 115.3802 56.3141 0.0000 -7.4854 0.0000
# 3 54.7560 56.3141 96.0403 0.0000 -15.8371 0.0000
# 4 0.0000 0.0000 0.0000 11.0513 0.0000 18.6480
# 5 -12.6206 -7.4854 -15.8371 0.0000 23.7326 0.0000
# 6 0.0000 0.0000 0.0000 18.6480 0.0000 -5.0182
#
#
#
# Elastic Compliance Matrix: (Units=1/GPa)
#
#
# Indices 1 2 3 4 5 6 
#
# 1 0.012975 -0.004887 -0.004099 0.000000 0.002623 0.000000
# 2 -0.004887 0.014005 -0.005760 0.000000 -0.002025 0.000000
# 3 -0.004099 -0.005760 0.017380 0.000000 0.007601 0.000000
# 4 0.000000 0.000000 0.000000 0.012446 0.000000 0.046249
# 5 0.002623 -0.002025 0.007601 0.000000 0.047965 0.000000
# 6 0.000000 0.000000 0.000000 0.046249 0.000000 -0.027409
#
#
# Mechanical properties :
#
#
# Convention : Reuss Voigt Hill
#
# Bulk Modulus (GPa) = 67.25824 75.51673 71.38749
# Shear Modulus (GPa) = 44.71832 16.49643 30.60738
#
# Velocity S-wave (km/s) = 5.10208 3.09884 4.22102
# Velocity P-wave (km/s) = 8.59421 7.53414 8.08157
#
# Compressibility (1/GPa) = 0.01486807
#
# Stress axis : x y z
#
# Youngs Moduli (GPa) = 77.07130 71.40193 57.53642
#
# Poissons Ratio (x) = 0.34895 0.23587
# Poissons Ratio (y) = 0.37665 0.33140
# Poissons Ratio (z) = 0.31595 0.41126
#
# Static dielectric constant tensor:
#      x y z
#    x 1.601520 0.000000 -0.020260 
#    y 0.000000 1.569670 0.000000 
#    z -0.020260 0.000000 1.584070 
# 
# From -- ./inp_files/28998.got.cif
#   From: 2010.05.17/outbox.cif.g08.bks.cpg/sg10_15_cif.got.tgz:28998.got - 2010.06.03 11:33:40.
