data_PCOD9148411
_publ_section_title
;
Structure prediction by ZEFSAII (Michael W. Deem and Ramdas Pophale) SiO2 
 PCOD9148411
Probable space group: P 2/M
;
_chemical_formula_sum "Si O2"
_cell_formula_units_Z 24
_cell_length_a 9.910208
_cell_length_b 7.507931
_cell_length_c 26.634881
_cell_angle_alpha 90.000000
_cell_angle_beta 146.311527
_cell_angle_gamma 90.000000
_cell_volume 1099.243719
_symmetry_space_group_name_H-M "P 2/M"
_symmetry_group_IT_number 10
_symmetry_cell_setting 'monoclinic'
loop_
_space_group_symop_operation_xyz
x,y,z
-x,y,-z
-x,-y,-z
x,-y,z
loop_
_atom_site_type_symbol
_atom_site_label
_atom_site_fract_x
_atom_site_fract_y
_atom_site_fract_z
Si Si1 0.403172 0.282263 0.915002
Si Si2 0.939060 0.207333 0.422665
Si Si3 0.282673 0.282921 0.083572
Si Si4 0.444564 0.785538 0.538523
Si Si5 0.151946 0.286365 0.251848
Si Si6 0.405676 0.703081 0.230671
O O1 0.406078 0.500000 0.915430
O O2 0.574120 0.221955 0.921814
O O3 0.122056 0.224565 0.821699
O O4 0.500000 0.228299 0.000000
O O5 0.685360 0.298875 0.333441
O O6 0.000000 0.212156 0.500000
O O7 0.178678 0.282948 0.470960
O O8 0.906017 0.000000 0.397848
O O9 0.295387 0.500000 0.085232
O O10 0.392408 0.220384 0.170648
O O11 0.000000 0.233734 0.000000
O O12 0.500000 0.721240 0.500000
O O13 0.652655 0.748052 0.643840
O O14 0.425246 0.000000 0.531396
O O15 0.139161 0.500000 0.243313
O O16 0.253298 0.215934 0.229724
O O17 0.313649 0.500000 0.197086
#
# Coordination Sequence:
#
# PCOD9148411 Si02
#       6
#     4   4   4   4   4   4
#     4   9  17  30  49  73 104 138 169 205 253 307
#     4  10  20  36  55  74  99 137 178 210 250 305
#     4   9  17  30  49  74 104 136 169 207 253 305
#     4  10  22  38  54  73 101 138 176 212 254 307
#     4  10  20  33  51  78 107 135 169 212 259 301
#     4  10  20  32  51  79 107 134 169 214 258 298
#
# _framework density 21.833190999999999
#
# number of rings (size 3 to 8) (size 9 to 14) (size 15 to 20)
#    0.000    2.333    1.667    1.000    2.333    5.333 
#    0.000    0.000    0.000    1.000    0.000    0.000 
#    0.000    0.000    0.000    0.000    0.000    0.000 
#
# Total GULP energy -133979.335192 kJ/mol
# GULP energy per Si atom -5582.472300 kJ/mol
# Density = 2.178350 g / cm^3
# Si number density = 21.833191 Si / 1000 Ang^3
#
#
#
# Elastic Constant Matrix: (Units=GPa)
#
#
# Indices 1 2 3 4 5 6 
#
# 1 234.4241 12.1170 86.9860 0.0000 10.6342 0.0000
# 2 12.1170 57.0292 -3.4506 0.0000 -1.7766 0.0000
# 3 86.9860 -3.4506 113.0168 0.0000 3.9514 0.0000
# 4 0.0000 0.0000 0.0000 70.2885 0.0000 20.6549
# 5 10.6342 -1.7766 3.9514 0.0000 40.9653 0.0000
# 6 0.0000 0.0000 0.0000 20.6549 0.0000 -24.7997
#
#
#
# Elastic Compliance Matrix: (Units=1/GPa)
#
#
# Indices 1 2 3 4 5 6 
#
# 1 0.006171 -0.001637 -0.004757 0.000000 -0.001214 0.000000
# 2 -0.001637 0.018022 0.001774 0.000000 0.001035 0.000000
# 3 -0.004757 0.001774 0.012560 0.000000 0.000100 0.000000
# 4 0.000000 0.000000 0.000000 0.011430 0.000000 0.009519
# 5 -0.001214 0.001035 0.000100 0.000000 0.024761 0.000000
# 6 0.000000 0.000000 0.000000 0.009519 0.000000 -0.032395
#
#
# Mechanical properties :
#
#
# Convention : Reuss Voigt Hill
#
# Bulk Modulus (GPa) = 36.34600 66.19721 51.27161
# Shear Modulus (GPa) = 84.80362 37.87866 61.34114
#
# Velocity S-wave (km/s) = 6.23906 4.16975 5.30626
# Velocity P-wave (km/s) = 8.28158 7.31900 7.81512
#
# Compressibility (1/GPa) = 0.02751335
#
# Stress axis : x y z
#
# Youngs Moduli (GPa) = 162.06107 55.48708 79.61736
#
# Poissons Ratio (x) = 0.09081 0.37872
# Poissons Ratio (y) = 0.26524 -0.14122
# Poissons Ratio (z) = 0.77089 -0.09842
#
# Static dielectric constant tensor:
#      x y z
#    x 1.779110 0.000000 -0.012780 
#    y 0.000000 1.849440 0.000000 
#    z -0.012780 0.000000 1.739260 
# 
# From -- ./inp_files/24063.got.cif
#   From: 2010.05.17/outbox.cif.g08.bks.cpg/sg10_13_cif.got.tgz:24063.got - 2010.06.03 11:33:40.
