data_PCOD9148560
_publ_section_title
;
Structure prediction by ZEFSAII (Michael W. Deem and Ramdas Pophale) SiO2 
 PCOD9148560
Probable space group: P 2/M
;
_chemical_formula_sum "Si O2"
_cell_formula_units_Z 24
_cell_length_a 13.563155
_cell_length_b 14.643054
_cell_length_c 9.018168
_cell_angle_alpha 90.000000
_cell_angle_beta 43.499126
_cell_angle_gamma 90.000000
_cell_volume 1232.866162
_symmetry_space_group_name_H-M "P 2/M"
_symmetry_group_IT_number 10
_symmetry_cell_setting 'monoclinic'
loop_
_space_group_symop_operation_xyz
x,y,z
-x,y,-z
-x,-y,-z
x,-y,z
loop_
_atom_site_type_symbol
_atom_site_label
_atom_site_fract_x
_atom_site_fract_y
_atom_site_fract_z
Si Si1 0.127980 0.603624 0.745062
Si Si2 0.658750 0.105268 0.903969
Si Si3 0.521040 0.213090 0.310359
Si Si4 0.251379 0.745612 0.397714
Si Si5 0.837241 0.394518 0.721928
Si Si6 0.320674 0.399255 0.811385
O O1 0.117170 0.500000 0.691713
O O2 0.140656 0.688868 0.620775
O O3 0.265010 0.604394 0.704551
O O4 0.000000 0.613933 0.000000
O O5 0.766997 0.164057 0.683351
O O6 0.700944 0.000000 0.871489
O O7 0.500000 0.107849 0.000000
O O8 0.630657 0.153405 0.092582
O O9 0.500000 0.175495 0.500000
O O10 0.376693 0.225105 0.372896
O O11 0.579930 0.314874 0.265109
O O12 0.275061 0.668721 0.244123
O O13 0.815765 0.500000 0.705633
O O14 0.000000 0.369082 0.500000
O O15 0.808691 0.389002 0.928531
O O16 0.383693 0.500000 0.769679
#
# Coordination Sequence:
#
# PCOD9148560 Si02
#       6
#     4   4   4   4   4   4
#     4  10  20  34  53  80 113 153 194 223 256 312
#     4   9  20  38  59  83 107 136 180 236 289 334
#     4  11  21  36  55  81 113 142 182 223 280 340
#     4  11  20  34  59  80 110 146 182 228 278 329
#     4  10  20  34  53  79 109 147 192 227 260 318
#     4  10  20  33  49  76 116 148 178 223 269 321
#
# _framework density 19.466832
#
# number of rings (size 3 to 8) (size 9 to 14) (size 15 to 20)
#    0.000    1.833    3.333    1.500    0.000    4.667 
#    0.000    1.667    0.000    1.000    0.000    0.000 
#    0.000    0.000    0.000    0.000    0.000    0.000 
#
# Total GULP energy -133689.231592 kJ/mol
# GULP energy per Si atom -5570.384650 kJ/mol
# Density = 1.942252 g / cm^3
# Si number density = 19.466832 Si / 1000 Ang^3
#
#
#
# Elastic Constant Matrix: (Units=GPa)
#
#
# Indices 1 2 3 4 5 6 
#
# 1 52.7343 25.1323 15.5875 0.0000 24.4052 0.0000
# 2 25.1323 138.1534 67.1942 0.0000 19.1999 0.0000
# 3 15.5875 67.1942 114.3758 0.0000 25.1436 0.0000
# 4 0.0000 0.0000 0.0000 26.0363 0.0000 -2.6095
# 5 24.4052 19.1999 25.1436 0.0000 27.1150 0.0000
# 6 0.0000 0.0000 0.0000 -2.6095 0.0000 2.4441
#
#
#
# Elastic Compliance Matrix: (Units=1/GPa)
#
#
# Indices 1 2 3 4 5 6 
#
# 1 0.034686 -0.004141 0.004929 0.000000 -0.032858 0.000000
# 2 -0.004141 0.010722 -0.006136 0.000000 0.001824 0.000000
# 3 0.004929 -0.006136 0.014691 0.000000 -0.013714 0.000000
# 4 0.000000 0.000000 0.000000 0.043010 0.000000 0.045919
# 5 -0.032858 0.001824 -0.013714 0.000000 0.077880 0.000000
# 6 0.000000 0.000000 0.000000 0.045919 0.000000 0.458166
#
#
# Mechanical properties :
#
#
# Convention : Reuss Voigt Hill
#
# Bulk Modulus (GPa) = 20.24141 57.89907 39.07024
# Shear Modulus (GPa) = 7.50391 24.27572 15.88982
#
# Velocity S-wave (km/s) = 1.96547 3.53516 2.86011
# Velocity P-wave (km/s) = 3.94604 6.81690 5.56962
#
# Compressibility (1/GPa) = 0.04940366
#
# Stress axis : x y z
#
# Youngs Moduli (GPa) = 28.83001 93.26215 68.06851
#
# Poissons Ratio (x) = 0.38617 -0.33549
# Poissons Ratio (y) = 0.11938 0.41767
# Poissons Ratio (z) = -0.14210 0.57226
#
# Static dielectric constant tensor:
#      x y z
#    x 1.761040 0.000000 -0.002850 
#    y 0.000000 1.652180 0.000000 
#    z -0.002850 0.000000 1.754980 
# 
# From -- ./inp_files/24570.got.cif
#   From: 2010.05.17/outbox.cif.g08.bks.cpg/sg10_13_cif.got.tgz:24570.got - 2010.06.03 11:33:40.
