data_PCOD9148189
_publ_section_title
;
Structure prediction by ZEFSAII (Michael W. Deem and Ramdas Pophale) SiO2 
 PCOD9148189
Probable space group: P 2/M
;
_chemical_formula_sum "Si O2"
_cell_formula_units_Z 24
_cell_length_a 12.374946
_cell_length_b 7.377182
_cell_length_c 25.698014
_cell_angle_alpha 90.000000
_cell_angle_beta 157.531690
_cell_angle_gamma 90.000000
_cell_volume 896.587479
_symmetry_space_group_name_H-M "P 2/M"
_symmetry_group_IT_number 10
_symmetry_cell_setting 'monoclinic'
loop_
_space_group_symop_operation_xyz
x,y,z
-x,y,-z
-x,-y,-z
x,-y,z
loop_
_atom_site_type_symbol
_atom_site_label
_atom_site_fract_x
_atom_site_fract_y
_atom_site_fract_z
Si Si1 0.391840 0.791419 0.505209
Si Si2 0.854325 0.782973 0.987940
Si Si3 0.661745 0.778636 0.408130
Si Si4 0.167548 0.719270 0.793947
Si Si5 0.684325 0.779787 0.303271
Si Si6 0.816695 0.714469 0.084336
O O1 0.500000 0.703484 0.500000
O O2 0.466289 0.711703 0.594506
O O3 0.052155 0.790953 0.345944
O O4 0.486116 0.000000 0.547572
O O5 0.530144 0.718574 0.836487
O O6 0.964138 0.746212 0.094666
O O7 0.859829 0.000000 0.986872
O O8 0.000000 0.715142 0.000000
O O9 0.566244 0.726081 0.307891
O O10 0.992503 0.723470 0.557013
O O11 0.648425 0.000000 0.403682
O O12 0.161490 0.500000 0.787714
O O13 0.492051 0.781820 0.934148
O O14 0.071439 0.777765 0.809818
O O15 0.689337 0.000000 0.305176
O O16 0.795354 0.500000 0.080861
#
# Coordination Sequence:
#
# PCOD9148189 Si02
#       6
#     4   4   4   4   4   4
#     4  10  20  31  47  75 105 130 159 200 250 302
#     4  10  20  31  47  75 105 130 159 200 250 302
#     4   8  14  26  44  64  88 121 158 193 231 279
#     4   9  19  36  55  73  96 131 174 215 254 297
#     4   8  14  26  44  64  88 121 158 193 231 279
#     4   9  19  36  55  73  96 131 174 215 254 297
#
# _framework density 26.768163000000001
#
# number of rings (size 3 to 8) (size 9 to 14) (size 15 to 20)
#    0.000    3.000    0.000    3.000    0.000    4.667 
#    0.000    5.000    0.000    1.000    0.000    4.667 
#    0.000    0.000    0.000    0.000    0.000    0.000 
#
# Total GULP energy -134143.576533 kJ/mol
# GULP energy per Si atom -5589.315689 kJ/mol
# Density = 2.670724 g / cm^3
# Si number density = 26.768163 Si / 1000 Ang^3
#
#
#
# Elastic Constant Matrix: (Units=GPa)
#
#
# Indices 1 2 3 4 5 6 
#
# 1 171.3330 -3.1339 25.5112 0.0000 -47.4482 0.0000
# 2 -3.1339 104.7039 -0.3655 0.0000 1.7890 0.0000
# 3 25.5112 -0.3655 108.4579 0.0000 -34.0593 0.0000
# 4 0.0000 0.0000 0.0000 112.8194 0.0000 -78.1808
# 5 -47.4482 1.7890 -34.0593 0.0000 50.1354 0.0000
# 6 0.0000 0.0000 0.0000 -78.1808 0.0000 65.5401
#
#
#
# Elastic Compliance Matrix: (Units=1/GPa)
#
#
# Indices 1 2 3 4 5 6 
#
# 1 0.007944 0.000104 0.000625 0.000000 0.007939 0.000000
# 2 0.000104 0.009559 -0.000087 0.000000 -0.000301 0.000000
# 3 0.000625 -0.000087 0.011771 0.000000 0.008591 0.000000
# 4 0.000000 0.000000 0.000000 0.051125 0.000000 0.060985
# 5 0.007939 -0.000301 0.008591 0.000000 0.033307 0.000000
# 6 0.000000 0.000000 0.000000 0.060985 0.000000 0.088005
#
#
# Mechanical properties :
#
#
# Convention : Reuss Voigt Hill
#
# Bulk Modulus (GPa) = 32.72475 47.61316 40.16896
# Shear Modulus (GPa) = 23.74042 69.86450 46.80246
#
# Velocity S-wave (km/s) = 2.98130 5.11434 4.18597
# Velocity P-wave (km/s) = 4.90945 7.25956 6.19693
#
# Compressibility (1/GPa) = 0.03055791
#
# Stress axis : x y z
#
# Youngs Moduli (GPa) = 125.88019 104.61657 84.95662
#
# Poissons Ratio (x) = -0.01091 -0.05309
# Poissons Ratio (y) = -0.01313 0.00739
# Poissons Ratio (z) = -0.07866 0.00910
#
# Static dielectric constant tensor:
#      x y z
#    x 2.175360 0.000000 0.055560 
#    y 0.000000 2.005400 0.000000 
#    z 0.055560 0.000000 2.057390 
# 
# From -- ./inp_files/56528.got.cif
#   From: 2010.05.17/outbox.cif.g08.bks.cpg/sg10_29_cif.got.tgz:56528.got - 2010.06.03 11:33:40.
