data_PCOD9148359
_publ_section_title
;
Structure prediction by ZEFSAII (Michael W. Deem and Ramdas Pophale) SiO2 
 PCOD9148359
Probable space group: P 2/M
;
_chemical_formula_sum "Si O2"
_cell_formula_units_Z 24
_cell_length_a 8.427586
_cell_length_b 11.941956
_cell_length_c 25.199365
_cell_angle_alpha 90.000000
_cell_angle_beta 29.939899
_cell_angle_gamma 90.000000
_cell_volume 1265.750930
_symmetry_space_group_name_H-M "P 2/M"
_symmetry_group_IT_number 10
_symmetry_cell_setting 'monoclinic'
loop_
_space_group_symop_operation_xyz
x,y,z
-x,y,-z
-x,-y,-z
x,-y,z
loop_
_atom_site_type_symbol
_atom_site_label
_atom_site_fract_x
_atom_site_fract_y
_atom_site_fract_z
Si Si1 0.849255 0.130972 0.958621
Si Si2 0.238057 0.500000 0.529474
Si Si3 0.489564 0.868632 0.165469
Si Si4 0.123830 0.307988 0.813478
Si Si5 0.416538 0.500000 0.180981
Si Si6 0.805693 0.500000 0.291828
Si Si7 0.271021 0.310825 0.298855
Si Si8 0.237062 0.500000 0.029487
O O1 0.184361 0.139660 0.894149
O O2 0.911205 0.198373 0.886182
O O3 0.792682 0.000000 0.964740
O O4 0.584530 0.170700 0.078311
O O5 0.500000 0.500000 0.500000
O O6 0.444106 0.500000 0.416047
O O7 0.020045 0.388524 0.597859
O O8 0.229562 0.798056 0.273781
O O9 0.409204 0.000000 0.185540
O O10 0.120065 0.386780 0.762837
O O11 0.490419 0.284905 0.721999
O O12 0.970552 0.391119 0.901027
O O13 0.460903 0.391872 0.203584
O O14 0.048921 0.500000 0.269713
O O15 0.615086 0.500000 0.070666
O O16 0.500000 0.500000 0.000000
#
# Coordination Sequence:
#
# PCOD9148359 Si02
#       8
#     4   2   4   4   2   2   4   2
#     4   8  14  27  49  76 107 137 161 195 241 295
#     4  11  21  37  54  71  94 131 177 216 261 303
#     4   8  14  27  49  78 106 131 162 201 248 292
#     4  10  20  32  49  78 105 128 168 204 244 301
#     4  11  19  31  48  71  98 135 165 198 253 305
#     4  11  21  35  50  69  98 141 169 206 259 301
#     4  10  20  32  53  78  96 125 171 221 246 289
#     4  11  19  29  44  69 102 139 157 190 247 309
#
# _framework density 18.961075000000001
#
# number of rings (size 3 to 8) (size 9 to 14) (size 15 to 20)
#    0.000    2.333    3.333    4.000    0.000    4.000 
#    0.000    0.000    0.000    3.000    0.000    4.667 
#    0.000    0.000    0.000    0.000    0.000    0.000 
#
# Total GULP energy -133646.548809 kJ/mol
# GULP energy per Si atom -5568.606200 kJ/mol
# Density = 1.891792 g / cm^3
# Si number density = 18.961075 Si / 1000 Ang^3
#
#
#
# Elastic Constant Matrix: (Units=GPa)
#
#
# Indices 1 2 3 4 5 6 
#
# 1 54.4685 5.1682 5.3238 0.0000 -2.6418 0.0000
# 2 5.1682 75.9788 24.3086 0.0000 6.5832 0.0000
# 3 5.3238 24.3086 89.6931 0.0000 4.8548 0.0000
# 4 0.0000 0.0000 0.0000 28.5753 0.0000 8.2407
# 5 -2.6418 6.5832 4.8548 0.0000 23.5985 0.0000
# 6 0.0000 0.0000 0.0000 8.2407 0.0000 7.0183
#
#
#
# Elastic Compliance Matrix: (Units=1/GPa)
#
#
# Indices 1 2 3 4 5 6 
#
# 1 0.018691 -0.001202 -0.000925 0.000000 0.002618 0.000000
# 2 -0.001202 0.014740 -0.003735 0.000000 -0.003478 0.000000
# 3 -0.000925 -0.003735 0.012303 0.000000 -0.001593 0.000000
# 4 0.000000 0.000000 0.000000 0.052912 0.000000 -0.062129
# 5 0.002618 -0.003478 -0.001593 0.000000 0.043967 0.000000
# 6 0.000000 0.000000 0.000000 -0.062129 0.000000 0.215436
#
#
# Mechanical properties :
#
#
# Convention : Reuss Voigt Hill
#
# Bulk Modulus (GPa) = 29.40507 32.19351 30.79929
# Shear Modulus (GPa) = 13.11961 24.19438 18.65700
#
# Velocity S-wave (km/s) = 2.63330 3.57599 3.14022
# Velocity P-wave (km/s) = 4.97870 5.83660 5.42464
#
# Compressibility (1/GPa) = 0.03400774
#
# Stress axis : x y z
#
# Youngs Moduli (GPa) = 53.50250 67.84387 81.28393
#
# Poissons Ratio (x) = 0.08156 0.07521
# Poissons Ratio (y) = 0.06432 0.30361
# Poissons Ratio (z) = 0.04951 0.25341
#
# Static dielectric constant tensor:
#      x y z
#    x 1.693360 0.000000 -0.000720 
#    y 0.000000 1.732660 0.000000 
#    z -0.000720 0.000000 1.699390 
# 
# From -- ./inp_files/92222.got.cif
#   From: 2010.05.17/outbox.cif.g08.bks.cpg/sg10_47_cif.got.tgz:92222.got - 2010.06.03 11:33:40.
