data_PCOD9148100
_publ_section_title
;
Structure prediction by ZEFSAII (Michael W. Deem and Ramdas Pophale) SiO2 
 PCOD9148100
Probable space group: P 2/M
;
_chemical_formula_sum "Si O2"
_cell_formula_units_Z 32
_cell_length_a 15.737743
_cell_length_b 19.945847
_cell_length_c 16.050869
_cell_angle_alpha 90.000000
_cell_angle_beta 162.019563
_cell_angle_gamma 90.000000
_cell_volume 1555.318032
_symmetry_space_group_name_H-M "P 2/M"
_symmetry_group_IT_number 10
_symmetry_cell_setting 'monoclinic'
loop_
_space_group_symop_operation_xyz
x,y,z
-x,y,-z
-x,-y,-z
x,-y,z
loop_
_atom_site_type_symbol
_atom_site_label
_atom_site_fract_x
_atom_site_fract_y
_atom_site_fract_z
Si Si1 0.090988 0.265254 0.262815
Si Si2 0.839781 0.113264 0.674058
Si Si3 0.755114 0.924850 0.825366
Si Si4 0.595054 0.574983 0.377095
Si Si5 0.485439 0.290084 0.205994
Si Si6 0.974433 0.079715 0.618391
Si Si7 0.012037 0.606034 0.915424
Si Si8 0.527756 0.165902 0.121620
O O1 0.050414 0.187927 0.210143
O O2 0.381926 0.268914 0.581512
O O3 0.065894 0.314983 0.162002
O O4 0.845013 0.289677 0.094550
O O5 0.546671 0.105205 0.446161
O O6 0.806769 0.092967 0.547632
O O7 0.092045 0.070593 0.944006
O O8 0.721801 0.000000 0.761512
O O9 0.000000 0.890859 0.000000
O O10 0.596349 0.500000 0.343481
O O11 0.601791 0.633553 0.312913
O O12 0.818991 0.578828 0.660500
O O13 0.314292 0.590078 0.164624
O O14 0.559963 0.232216 0.209484
O O15 0.785229 0.116125 0.373568
O O16 0.014935 0.000000 0.642963
O O17 0.256866 0.121832 0.890555
O O18 0.000000 0.582757 0.000000
O O19 0.500000 0.187159 0.000000
#
# Coordination Sequence:
#
# PCOD9148100 Si02
#       8
#     4   4   4   4   4   4   4   4
#     4  10  20  36  59  78 109 153 198 246 286 342
#     4  12  21  39  62  80 108 152 202 248 299 356
#     4  11  24  39  54  78 110 145 192 252 308 351
#     4  10  21  35  59  87 117 161 198 240 296 344
#     4  10  19  40  58  83 116 151 198 241 280 356
#     4  12  25  40  62  92 121 155 200 248 302 371
#     4  10  21  35  54  84 122 157 197 243 292 347
#     4  12  24  41  64  89 120 159 195 240 309 369
#
# _framework density 20.574570999999999
#
# number of rings (size 3 to 8) (size 9 to 14) (size 15 to 20)
#    0.000    1.125    2.500    4.500    0.000    4.500 
#    0.000    3.750    0.000    0.375    0.000    0.000 
#    0.000    8.000    0.000    0.000    0.000    1.250 
#
# Total GULP energy -178423.863489 kJ/mol
# GULP energy per Si atom -5575.745734 kJ/mol
# Density = 2.052774 g / cm^3
# Si number density = 20.574571 Si / 1000 Ang^3
#
#
#
# Elastic Constant Matrix: (Units=GPa)
#
#
# Indices 1 2 3 4 5 6 
#
# 1 60.5582 27.5360 21.3796 0.0000 -4.2621 0.0000
# 2 27.5360 172.8846 22.7467 0.0000 -9.5522 0.0000
# 3 21.3796 22.7467 119.7743 0.0000 2.1646 0.0000
# 4 0.0000 0.0000 0.0000 42.0043 0.0000 12.6610
# 5 -4.2621 -9.5522 2.1646 0.0000 28.6199 0.0000
# 6 0.0000 0.0000 0.0000 12.6610 0.0000 20.8328
#
#
#
# Elastic Compliance Matrix: (Units=1/GPa)
#
#
# Indices 1 2 3 4 5 6 
#
# 1 0.018835 -0.002493 -0.002928 0.000000 0.002194 0.000000
# 2 -0.002493 0.006387 -0.000801 0.000000 0.001821 0.000000
# 3 -0.002928 -0.000801 0.009049 0.000000 -0.001388 0.000000
# 4 0.000000 0.000000 0.000000 0.029146 0.000000 -0.017714
# 5 0.002194 0.001821 -0.001388 0.000000 0.035980 0.000000
# 6 0.000000 0.000000 0.000000 -0.017714 0.000000 0.058767
#
#
# Mechanical properties :
#
#
# Convention : Reuss Voigt Hill
#
# Bulk Modulus (GPa) = 45.81627 55.17131 50.49379
# Shear Modulus (GPa) = 28.10810 37.06172 32.58491
#
# Velocity S-wave (km/s) = 3.70017 4.24882 3.98395
# Velocity P-wave (km/s) = 6.36959 7.13747 6.76444
#
# Compressibility (1/GPa) = 0.02182631
#
# Stress axis : x y z
#
# Youngs Moduli (GPa) = 53.09268 156.55984 110.51085
#
# Poissons Ratio (x) = 0.39037 0.32359
# Poissons Ratio (y) = 0.13238 0.08851
# Poissons Ratio (z) = 0.15546 0.12538
#
# Static dielectric constant tensor:
#      x y z
#    x 1.780880 0.000000 -0.031310 
#    y 0.000000 2.054800 0.000000 
#    z -0.031310 0.000000 1.752300 
# 
# From -- ./inp_files/67965.got.cif
#   From: 2010.05.17/outbox.cif.g08.bks.cpg/sg10_34_cif.got.tgz:67965.got - 2010.06.03 11:33:40.
