data_PCOD9148506
_publ_section_title
;
Structure prediction by ZEFSAII (Michael W. Deem and Ramdas Pophale) SiO2 
 PCOD9148506
Probable space group: P 2/M
;
_chemical_formula_sum "Si O2"
_cell_formula_units_Z 24
_cell_length_a 22.314943
_cell_length_b 8.804215
_cell_length_c 11.321542
_cell_angle_alpha 90.000000
_cell_angle_beta 147.303567
_cell_angle_gamma 90.000000
_cell_volume 1201.536255
_symmetry_space_group_name_H-M "P 2/M"
_symmetry_group_IT_number 10
_symmetry_cell_setting 'monoclinic'
loop_
_space_group_symop_operation_xyz
x,y,z
-x,y,-z
-x,-y,-z
x,-y,z
loop_
_atom_site_type_symbol
_atom_site_label
_atom_site_fract_x
_atom_site_fract_y
_atom_site_fract_z
Si Si1 0.538414 0.684265 0.879218
Si Si2 0.061991 0.327668 0.475574
Si Si3 0.852643 0.180621 0.021515
Si Si4 0.728320 0.315964 0.036737
Si Si5 0.127531 0.817300 0.208700
Si Si6 0.327334 0.317316 0.661426
O O1 0.534425 0.500000 0.869094
O O2 0.414146 0.734968 0.703364
O O3 0.606334 0.733307 0.876469
O O4 0.613807 0.723831 0.117984
O O5 0.070589 0.500000 0.443043
O O6 0.183151 0.270403 0.714050
O O7 0.000000 0.335886 0.500000
O O8 0.979666 0.229622 0.260038
O O9 0.773172 0.253892 0.987705
O O10 0.845574 0.000000 0.019433
O O11 0.826639 0.226849 0.844647
O O12 0.732891 0.500000 0.039712
O O13 0.207047 0.749894 0.439572
O O14 0.128178 0.000000 0.218831
O O15 0.000000 0.766529 0.000000
O O16 0.320160 0.500000 0.646910
#
# Coordination Sequence:
#
# PCOD9148506 Si02
#       6
#     4   4   4   4   4   4
#     4   8  16  33  57  84 110 131 161 217 273 305
#     4   8  15  27  45  70 100 132 164 203 251 302
#     4  10  20  33  48  70 102 138 175 215 254 299
#     4   9  17  31  52  76 105 136 164 205 263 314
#     4  10  23  40  53  70 106 147 176 212 263 308
#     4   9  18  35  59  83 104 132 175 218 255 307
#
# _framework density 19.974428
#
# number of rings (size 3 to 8) (size 9 to 14) (size 15 to 20)
#    0.000    3.000    0.000    2.500    2.333    4.667 
#    0.000    4.167    0.000    5.000    0.000    0.000 
#    0.000    0.000    0.000    0.000    0.000    0.000 
#
# Total GULP energy -133791.521849 kJ/mol
# GULP energy per Si atom -5574.646744 kJ/mol
# Density = 1.992897 g / cm^3
# Si number density = 19.974428 Si / 1000 Ang^3
#
#
#
# Elastic Constant Matrix: (Units=GPa)
#
#
# Indices 1 2 3 4 5 6 
#
# 1 85.2610 12.2776 15.6799 0.0000 20.5233 0.0000
# 2 12.2776 5.9212 7.9979 0.0000 -0.5781 0.0000
# 3 15.6799 7.9979 68.2665 0.0000 11.5887 0.0000
# 4 0.0000 0.0000 0.0000 7.2176 0.0000 1.2261
# 5 20.5233 -0.5781 11.5887 0.0000 30.7279 0.0000
# 6 0.0000 0.0000 0.0000 1.2261 0.0000 14.4934
#
#
#
# Elastic Compliance Matrix: (Units=1/GPa)
#
#
# Indices 1 2 3 4 5 6 
#
# 1 0.023452 -0.056254 0.004319 0.000000 -0.018351 0.000000
# 2 -0.056254 0.340957 -0.036851 0.000000 0.057885 0.000000
# 3 0.004319 -0.036851 0.019852 0.000000 -0.011065 0.000000
# 4 0.000000 0.000000 0.000000 0.140570 0.000000 -0.011891
# 5 -0.018351 0.057885 -0.011065 0.000000 0.050063 0.000000
# 6 0.000000 0.000000 0.000000 -0.011891 0.000000 0.070003
#
#
# Mechanical properties :
#
#
# Convention : Reuss Voigt Hill
#
# Bulk Modulus (GPa) = 4.83819 25.70661 15.27240
# Shear Modulus (GPa) = 5.60936 18.72067 12.16501
#
# Velocity S-wave (km/s) = 1.67761 3.06475 2.47053
# Velocity P-wave (km/s) = 2.48595 5.04195 3.97500
#
# Compressibility (1/GPa) = 0.20668886
#
# Stress axis : x y z
#
# Youngs Moduli (GPa) = 42.63969 2.93292 50.37220
#
# Poissons Ratio (x) = 0.16499 -0.21757
# Poissons Ratio (y) = 2.39867 1.85628
# Poissons Ratio (z) = -0.18417 0.10808
#
# Static dielectric constant tensor:
#      x y z
#    x 1.764820 0.000000 0.022010 
#    y 0.000000 1.673690 0.000000 
#    z 0.022010 0.000000 1.703420 
# 
# From -- ./inp_files/55045.got.cif
#   From: 2010.05.17/outbox.cif.g08.bks.cpg/sg10_28_cif.got.tgz:55045.got - 2010.06.03 11:33:40.
