data_PCOD9148377
_publ_section_title
;
Structure prediction by ZEFSAII (Michael W. Deem and Ramdas Pophale) SiO2 
 PCOD9148377
Probable space group: P 2/M
;
_chemical_formula_sum "Si O2"
_cell_formula_units_Z 20
_cell_length_a 5.406302
_cell_length_b 11.555248
_cell_length_c 14.838194
_cell_angle_alpha 90.000000
_cell_angle_beta 108.339930
_cell_angle_gamma 90.000000
_cell_volume 879.875623
_symmetry_space_group_name_H-M "P 2/M"
_symmetry_group_IT_number 10
_symmetry_cell_setting 'monoclinic'
loop_
_space_group_symop_operation_xyz
x,y,z
-x,y,-z
-x,-y,-z
x,-y,z
loop_
_atom_site_type_symbol
_atom_site_label
_atom_site_fract_x
_atom_site_fract_y
_atom_site_fract_z
Si Si1 0.193265 0.000000 0.435670
Si Si2 0.192545 0.500000 0.437394
Si Si3 0.693232 0.250724 0.607039
Si Si4 0.438526 0.706925 0.211907
Si Si5 0.721424 0.837249 0.967762
Si Si6 0.854033 0.372872 0.116977
O O1 0.500000 0.000000 0.500000
O O2 0.159980 0.874719 0.380625
O O3 0.000000 0.000000 0.500000
O O4 0.500000 0.500000 0.500000
O O5 0.155041 0.374505 0.384700
O O6 0.000000 0.500000 0.500000
O O7 0.500000 0.248648 0.500000
O O8 0.529905 0.262169 0.680588
O O9 0.378663 0.818478 0.143997
O O10 0.676685 0.648531 0.185574
O O11 0.161231 0.640069 0.172956
O O12 0.500000 0.891683 0.000000
O O13 0.774810 0.717873 0.030912
O O14 0.000000 0.890600 0.000000
O O15 0.801335 0.500000 0.076262
#
# Coordination Sequence:
#
# PCOD9148377 Si02
#       6
#     2   2   4   4   4   4
#     4  10  22  42  68  86 108 152 206 248 286 334
#     4  10  22  38  56  80 116 150 182 230 290 340
#     4  10  23  42  61  88 118 156 195 243 289 349
#     4  10  21  33  51  78 109 148 185 236 288 339
#     4   8  16  30  46  71 103 144 182 233 277 332
#     4  10  20  32  50  76 110 151 194 233 278 340
#
# _framework density 22.730487
#
# number of rings (size 3 to 8) (size 9 to 14) (size 15 to 20)
#    0.000    2.400    0.000    1.200    2.800   13.600 
#    0.000    0.000    0.000    0.000    0.000   12.600 
#    0.000    0.000    0.000    0.000    0.000    0.000 
#
# Total GULP energy -111435.043057 kJ/mol
# GULP energy per Si atom -5571.752153 kJ/mol
# Density = 2.267875 g / cm^3
# Si number density = 22.730487 Si / 1000 Ang^3
#
#
#
# Elastic Constant Matrix: (Units=GPa)
#
#
# Indices 1 2 3 4 5 6 
#
# 1 175.6530 29.4995 31.2198 0.0000 -34.7485 0.0000
# 2 29.4995 203.0405 33.1547 0.0000 -26.4663 0.0000
# 3 31.2198 33.1547 139.1195 0.0000 -32.6439 0.0000
# 4 0.0000 0.0000 0.0000 32.8311 0.0000 -26.6389
# 5 -34.7485 -26.4663 -32.6439 0.0000 48.6886 0.0000
# 6 0.0000 0.0000 0.0000 -26.6389 0.0000 81.8967
#
#
#
# Elastic Compliance Matrix: (Units=1/GPa)
#
#
# Indices 1 2 3 4 5 6 
#
# 1 0.006674 -0.000342 -0.000406 0.000000 0.004305 0.000000
# 2 -0.000342 0.005376 -0.000684 0.000000 0.002220 0.000000
# 3 -0.000406 -0.000684 0.008647 0.000000 0.005136 0.000000
# 4 0.000000 0.000000 0.000000 0.041380 0.000000 0.013460
# 5 0.004305 0.002220 0.005136 0.000000 0.028262 0.000000
# 6 0.000000 0.000000 0.000000 0.013460 0.000000 0.016589
#
#
# Mechanical properties :
#
#
# Convention : Reuss Voigt Hill
#
# Bulk Modulus (GPa) = 56.07303 78.39566 67.23435
# Shear Modulus (GPa) = 43.20174 60.94587 52.07381
#
# Velocity S-wave (km/s) = 4.36433 5.18369 4.79155
# Velocity P-wave (km/s) = 7.07945 8.38997 7.76242
#
# Compressibility (1/GPa) = 0.01783389
#
# Stress axis : x y z
#
# Youngs Moduli (GPa) = 149.82733 186.01901 115.64288
#
# Poissons Ratio (x) = 0.06366 0.04696
# Poissons Ratio (y) = 0.05128 0.07904
# Poissons Ratio (z) = 0.06084 0.12715
#
# Static dielectric constant tensor:
#      x y z
#    x 1.819290 0.000000 -0.025310 
#    y 0.000000 1.891170 0.000000 
#    z -0.025310 0.000000 1.781820 
# 
# From -- ./inp_files/58900.got.cif
#   From: 2010.05.17/outbox.cif.g08.bks.cpg/sg10_30_cif.got.tgz:58900.got - 2010.06.03 11:33:40.
