data_PCOD9148216
_publ_section_title
;
Structure prediction by ZEFSAII (Michael W. Deem and Ramdas Pophale) SiO2 
 PCOD9148216
Probable space group: P 2/M
;
_chemical_formula_sum "Si O2"
_cell_formula_units_Z 22
_cell_length_a 5.183616
_cell_length_b 10.607851
_cell_length_c 19.497267
_cell_angle_alpha 90.000000
_cell_angle_beta 117.813204
_cell_angle_gamma 90.000000
_cell_volume 948.241117
_symmetry_space_group_name_H-M "P 2/M"
_symmetry_group_IT_number 10
_symmetry_cell_setting 'monoclinic'
loop_
_space_group_symop_operation_xyz
x,y,z
-x,y,-z
-x,-y,-z
x,-y,z
loop_
_atom_site_type_symbol
_atom_site_label
_atom_site_fract_x
_atom_site_fract_y
_atom_site_fract_z
Si Si1 0.345123 0.000000 0.553290
Si Si2 0.663880 0.780580 0.342020
Si Si3 0.151705 0.000000 0.172051
Si Si4 0.650015 0.648836 0.950047
Si Si5 0.999271 0.500000 0.212013
Si Si6 0.307647 0.500000 0.677922
Si Si7 0.155725 0.000000 0.724163
Si Si8 0.812860 0.738712 0.833379
O O1 0.500000 0.000000 0.500000
O O2 0.410463 0.870533 0.603166
O O3 0.000000 0.000000 0.500000
O O4 0.777566 0.636559 0.365410
O O5 0.874796 0.873367 0.324529
O O6 0.382255 0.763656 0.258171
O O7 0.504598 0.000000 0.208501
O O8 0.034167 0.869283 0.128901
O O9 0.058675 0.000000 0.239555
O O10 0.588334 0.500000 0.937190
O O11 0.597946 0.707290 0.869019
O O12 0.500000 0.698569 0.000000
O O13 0.000000 0.661917 0.000000
O O14 0.340086 0.500000 0.277598
O O15 0.983210 0.622260 0.161085
O O16 0.809754 0.500000 0.257704
#
# Coordination Sequence:
#
# PCOD9148216 Si02
#       8
#     2   4   2   4   2   2   2   4
#     4  11  26  47  70  94 128 170 208 249 310 389
#     4   9  21  39  65  93 125 161 212 256 308 367
#     4  10  20  31  54  80 115 146 197 250 309 345
#     4  10  22  39  58  85 124 169 211 254 310 373
#     4  10  20  32  56  88 124 154 201 256 309 350
#     4  10  20  34  56  94 122 150 195 262 309 350
#     4   9  18  34  52  84 115 154 189 245 293 358
#     4  10  20  39  60  92 120 166 210 265 305 366
#
# _framework density 23.200852000000001
#
# number of rings (size 3 to 8) (size 9 to 14) (size 15 to 20)
#    0.000    2.182    0.909    1.636    0.000   14.545 
#    0.000    1.818    0.000    0.000    0.000    0.000 
#    0.000    0.000    0.000    0.000    0.000    0.000 
#
# Total GULP energy -122865.664373 kJ/mol
# GULP energy per Si atom -5584.802926 kJ/mol
# Density = 2.314805 g / cm^3
# Si number density = 23.200852 Si / 1000 Ang^3
#
#
#
# Elastic Constant Matrix: (Units=GPa)
#
#
# Indices 1 2 3 4 5 6 
#
# 1 122.1029 38.9409 56.8741 0.0000 -30.3583 0.0000
# 2 38.9409 240.1387 55.1556 0.0000 -28.0701 0.0000
# 3 56.8741 55.1556 103.0194 0.0000 -34.6989 0.0000
# 4 0.0000 0.0000 0.0000 38.6392 0.0000 -8.2895
# 5 -30.3583 -28.0701 -34.6989 0.0000 48.7299 0.0000
# 6 0.0000 0.0000 0.0000 -8.2895 0.0000 14.1272
#
#
#
# Elastic Compliance Matrix: (Units=1/GPa)
#
#
# Indices 1 2 3 4 5 6 
#
# 1 0.011472 -0.000310 -0.005026 0.000000 0.003390 0.000000
# 2 -0.000310 0.004812 -0.002021 0.000000 0.001139 0.000000
# 3 -0.005026 -0.002021 0.015940 0.000000 0.007055 0.000000
# 4 0.000000 0.000000 0.000000 0.029608 0.000000 0.017373
# 5 0.003390 0.001139 0.007055 0.000000 0.028313 0.000000
# 6 0.000000 0.000000 0.000000 0.017373 0.000000 0.080980
#
#
# Mechanical properties :
#
#
# Convention : Reuss Voigt Hill
#
# Bulk Modulus (GPa) = 57.10981 85.24469 71.17725
# Shear Modulus (GPa) = 26.08563 41.25195 33.66879
#
# Velocity S-wave (km/s) = 3.35675 4.22125 3.81358
# Velocity P-wave (km/s) = 6.30020 7.78334 7.08071
#
# Compressibility (1/GPa) = 0.01751013
#
# Stress axis : x y z
#
# Youngs Moduli (GPa) = 87.16503 207.81452 62.73482
#
# Poissons Ratio (x) = 0.06437 0.31530
# Poissons Ratio (y) = 0.02700 0.12682
# Poissons Ratio (z) = 0.43809 0.42010
#
# Static dielectric constant tensor:
#      x y z
#    x 1.917350 0.000000 0.075860 
#    y 0.000000 1.993250 0.000000 
#    z 0.075860 0.000000 1.950970 
# 
# From -- ./inp_files/73237.got.cif
#   From: 2010.05.17/outbox.cif.g08.bks.cpg/sg10_37_cif.got.tgz:73237.got - 2010.06.03 11:33:40.
