data_PCOD9148670
_publ_section_title
;
Structure prediction by ZEFSAII (Michael W. Deem and Ramdas Pophale) SiO2 
 PCOD9148670
Probable space group: P 2/M
;
_chemical_formula_sum "Si O2"
_cell_formula_units_Z 24
_cell_length_a 25.069126
_cell_length_b 9.002442
_cell_length_c 18.963084
_cell_angle_alpha 90.000000
_cell_angle_beta 18.744487
_cell_angle_gamma 90.000000
_cell_volume 1375.259231
_symmetry_space_group_name_H-M "P 2/M"
_symmetry_group_IT_number 10
_symmetry_cell_setting 'monoclinic'
loop_
_space_group_symop_operation_xyz
x,y,z
-x,y,-z
-x,-y,-z
x,-y,z
loop_
_atom_site_type_symbol
_atom_site_label
_atom_site_fract_x
_atom_site_fract_y
_atom_site_fract_z
Si Si1 0.983510 0.170661 0.106212
Si Si2 0.653543 0.821955 0.358770
Si Si3 0.643477 0.821071 0.025492
Si Si4 0.988783 0.171261 0.428354
Si Si5 0.346540 0.676791 0.140935
Si Si6 0.353097 0.323679 0.479757
O O1 0.828661 0.272027 0.319616
O O2 0.949192 0.000000 0.169616
O O3 0.000000 0.173768 0.000000
O O4 0.167950 0.214705 0.899593
O O5 0.500000 0.793224 0.500000
O O6 0.635586 0.734230 0.454036
O O7 0.658807 0.000000 0.367655
O O8 0.497113 0.754454 0.255115
O O9 0.636728 0.000000 0.032044
O O10 0.827203 0.780111 0.825004
O O11 0.630275 0.757943 0.962896
O O12 0.000000 0.173803 0.500000
O O13 0.830081 0.268349 0.607197
O O14 0.961276 0.000000 0.441735
O O15 0.340788 0.500000 0.136882
O O16 0.500000 0.711287 0.000000
O O17 0.368131 0.500000 0.457636
#
# Coordination Sequence:
#
# PCOD9148670 Si02
#       6
#     4   4   4   4   4   4
#     4   8  15  30  51  72  96 130 168 201 239 292
#     4   9  18  34  55  76  99 130 168 206 244 292
#     4  10  20  35  54  74  98 130 171 210 243 289
#     4   8  16  31  51  73  95 127 169 205 239 288
#     4  10  20  33  51  77 106 132 160 199 248 298
#     4  11  21  32  50  76 104 132 164 204 251 297
#
# _framework density 17.451256000000001
#
# number of rings (size 3 to 8) (size 9 to 14) (size 15 to 20)
#    0.000    2.667    0.000    4.500    0.000    8.333 
#    0.000    1.667    0.000    2.000    0.000    0.000 
#    0.000    0.000    0.000    0.000    0.000    0.000 
#
# Total GULP energy -133766.680646 kJ/mol
# GULP energy per Si atom -5573.611694 kJ/mol
# Density = 1.741154 g / cm^3
# Si number density = 17.451256 Si / 1000 Ang^3
#
#
#
# Elastic Constant Matrix: (Units=GPa)
#
#
# Indices 1 2 3 4 5 6 
#
# 1 51.3984 43.6941 56.4945 0.0000 -25.8808 0.0000
# 2 43.6941 87.1398 78.4138 0.0000 -15.3836 0.0000
# 3 56.4945 78.4138 173.9982 0.0000 -26.6559 0.0000
# 4 0.0000 0.0000 0.0000 108.0000 0.0000 8.6223
# 5 -25.8808 -15.3836 -26.6559 0.0000 30.6856 0.0000
# 6 0.0000 0.0000 0.0000 8.6223 0.0000 22.4915
#
#
#
# Elastic Compliance Matrix: (Units=1/GPa)
#
#
# Indices 1 2 3 4 5 6 
#
# 1 0.059222 -0.018503 -0.005374 0.000000 0.036004 0.000000
# 2 -0.018503 0.025246 -0.006715 0.000000 -0.008783 0.000000
# 3 -0.005374 -0.006715 0.010737 0.000000 0.001428 0.000000
# 4 0.000000 0.000000 0.000000 0.009552 0.000000 -0.003662
# 5 0.036004 -0.008783 0.001428 0.000000 0.059793 0.000000
# 6 0.000000 0.000000 0.000000 -0.003662 0.000000 0.045865
#
#
# Mechanical properties :
#
#
# Convention : Reuss Voigt Hill
#
# Bulk Modulus (GPa) = 29.39443 74.41568 51.90505
# Shear Modulus (GPa) = 17.67169 41.16435 29.41802
#
# Velocity S-wave (km/s) = 3.18564 4.86204 4.11021
# Velocity P-wave (km/s) = 5.51465 8.61706 7.23413
#
# Compressibility (1/GPa) = 0.03402005
#
# Stress axis : x y z
#
# Youngs Moduli (GPa) = 16.88571 39.61031 93.13572
#
# Poissons Ratio (x) = 0.73292 0.50051
# Poissons Ratio (y) = 0.31244 0.62541
# Poissons Ratio (z) = 0.09074 0.26599
#
# Static dielectric constant tensor:
#      x y z
#    x 1.581020 0.000000 -0.023030 
#    y 0.000000 1.578600 0.000000 
#    z -0.023030 0.000000 1.624230 
# 
# From -- ./inp_files/33748.got.cif
#   From: 2010.05.17/outbox.cif.g08.bks.cpg/sg10_17_cif.got.tgz:33748.got - 2010.06.03 11:33:40.
