data_PCOD9148126
_publ_section_title
;
Structure prediction by ZEFSAII (Michael W. Deem and Ramdas Pophale) SiO2 
 PCOD9148126
Probable space group: P 2/M
;
_chemical_formula_sum "Si O2"
_cell_formula_units_Z 32
_cell_length_a 26.511787
_cell_length_b 13.681087
_cell_length_c 8.847793
_cell_angle_alpha 90.000000
_cell_angle_beta 146.036434
_cell_angle_gamma 90.000000
_cell_volume 1792.860500
_symmetry_space_group_name_H-M "P 2/M"
_symmetry_group_IT_number 10
_symmetry_cell_setting 'monoclinic'
loop_
_space_group_symop_operation_xyz
x,y,z
-x,y,-z
-x,-y,-z
x,-y,z
loop_
_atom_site_type_symbol
_atom_site_label
_atom_site_fract_x
_atom_site_fract_y
_atom_site_fract_z
Si Si1 0.277702 0.892318 0.474768
Si Si2 0.014177 0.111083 0.313851
Si Si3 0.565857 0.244816 0.036298
Si Si4 0.142842 0.828273 0.899628
Si Si5 0.405947 0.385089 0.176295
Si Si6 0.278973 0.247508 0.029253
Si Si7 0.178945 0.887188 0.541371
Si Si8 0.553008 0.113010 0.471814
O O1 0.349604 0.806520 0.673043
O O2 0.208261 0.881306 0.441647
O O3 0.320298 0.000000 0.594089
O O4 0.220325 0.885619 0.180211
O O5 0.089412 0.115018 0.634782
O O6 0.074033 0.132634 0.315949
O O7 0.936272 0.185141 0.172837
O O8 0.977569 0.000000 0.213249
O O9 0.500000 0.287802 0.000000
O O10 0.591804 0.322522 0.972195
O O11 0.511887 0.158742 0.815436
O O12 0.197898 0.743641 0.949156
O O13 0.500000 0.367778 0.500000
O O14 0.397619 0.500000 0.126589
O O15 0.325525 0.344201 0.081165
O O16 0.359348 0.180792 0.295658
O O17 0.238599 0.185925 0.788645
O O18 0.195832 0.000000 0.631513
O O19 0.500000 0.117187 0.500000
O O20 0.575453 0.000000 0.497261
#
# Coordination Sequence:
#
# PCOD9148126 Si02
#       8
#     4   4   4   4   4   4   4   4
#     4  11  21  32  47  76 113 151 183 211 252 307
#     4   9  17  32  48  73 109 149 188 218 251 298
#     4  12  23  36  53  77 113 139 172 222 274 330
#     4  10  20  29  50  74 106 142 179 217 255 300
#     4  11  23  42  63  78  97 133 184 234 281 325
#     4  11  18  35  54  75 100 137 184 223 257 307
#     4   9  18  30  50  75 109 148 181 216 253 307
#     4  11  20  32  51  74 106 150 187 212 243 299
#
# _framework density 17.848572999999998
#
# number of rings (size 3 to 8) (size 9 to 14) (size 15 to 20)
#    0.000    1.500    3.750    3.000    0.000    7.250 
#    0.000    1.875    0.000    0.000    0.000    7.000 
#    0.000    9.000    0.000    0.000    0.000    0.000 
#
# Total GULP energy -178513.966424 kJ/mol
# GULP energy per Si atom -5578.561451 kJ/mol
# Density = 1.780795 g / cm^3
# Si number density = 17.848573 Si / 1000 Ang^3
#
#
#
# Elastic Constant Matrix: (Units=GPa)
#
#
# Indices 1 2 3 4 5 6 
#
# 1 98.7945 26.3095 16.3069 0.0000 31.8249 0.0000
# 2 26.3095 75.1150 27.5779 0.0000 9.9986 0.0000
# 3 16.3069 27.5779 77.1902 0.0000 2.0101 0.0000
# 4 0.0000 0.0000 0.0000 10.7856 0.0000 3.1571
# 5 31.8249 9.9986 2.0101 0.0000 23.1146 0.0000
# 6 0.0000 0.0000 0.0000 3.1571 0.0000 7.6660
#
#
#
# Elastic Compliance Matrix: (Units=1/GPa)
#
#
# Indices 1 2 3 4 5 6 
#
# 1 0.019381 -0.002472 -0.002550 0.000000 -0.025394 0.000000
# 2 -0.002472 0.016568 -0.005311 0.000000 -0.003301 0.000000
# 3 -0.002550 -0.005311 0.015275 0.000000 0.004480 0.000000
# 4 0.000000 0.000000 0.000000 0.105425 0.000000 -0.043418
# 5 -0.025394 -0.003301 0.004480 0.000000 0.079264 0.000000
# 6 0.000000 0.000000 0.000000 -0.043418 0.000000 0.148327
#
#
# Mechanical properties :
#
#
# Convention : Reuss Voigt Hill
#
# Bulk Modulus (GPa) = 32.72483 43.49870 38.11176
# Shear Modulus (GPa) = 12.04548 20.37360 16.20954
#
# Velocity S-wave (km/s) = 2.60065 3.38223 3.01686
# Velocity P-wave (km/s) = 5.23377 6.29893 5.79089
#
# Compressibility (1/GPa) = 0.03055784
#
# Stress axis : x y z
#
# Youngs Moduli (GPa) = 51.59576 60.35667 65.46830
#
# Poissons Ratio (x) = 0.14921 0.16694
# Poissons Ratio (y) = 0.12755 0.34771
# Poissons Ratio (z) = 0.13157 0.32056
#
# Static dielectric constant tensor:
#      x y z
#    x 1.699180 0.000000 0.007300 
#    y 0.000000 1.554940 0.000000 
#    z 0.007300 0.000000 1.633380 
# 
# From -- ./inp_files/37733.got.cif
#   From: 2010.05.17/outbox.cif.g08.bks.cpg/sg10_19_cif.got.tgz:37733.got - 2010.06.03 11:33:40.
