data_PCOD9148775
_publ_section_title
;
Structure prediction by ZEFSAII (Michael W. Deem and Ramdas Pophale) SiO2 
 PCOD9148775
Probable space group: P 2/M
;
_chemical_formula_sum "Si O2"
_cell_formula_units_Z 28
_cell_length_a 5.400077
_cell_length_b 9.954554
_cell_length_c 26.910755
_cell_angle_alpha 90.000000
_cell_angle_beta 71.102953
_cell_angle_gamma 90.000000
_cell_volume 1368.628647
_symmetry_space_group_name_H-M "P 2/M"
_symmetry_group_IT_number 10
_symmetry_cell_setting 'monoclinic'
loop_
_space_group_symop_operation_xyz
x,y,z
-x,y,-z
-x,-y,-z
x,-y,z
loop_
_atom_site_type_symbol
_atom_site_label
_atom_site_fract_x
_atom_site_fract_y
_atom_site_fract_z
Si Si1 0.694523 0.656839 0.534049
Si Si2 0.983736 0.838884 0.695952
Si Si3 0.271491 0.355100 0.952946
Si Si4 0.358625 0.851778 0.101237
Si Si5 0.112174 0.349201 0.848264
Si Si6 0.511094 0.850312 0.793575
Si Si7 0.574403 0.836558 0.636707
O O1 0.500000 0.678114 0.500000
O O2 0.662866 0.500000 0.551665
O O3 0.622762 0.759885 0.582211
O O4 0.000000 0.675051 0.500000
O O5 0.796969 0.810368 0.755079
O O6 0.805411 0.798563 0.660214
O O7 0.284822 0.794435 0.675016
O O8 0.000318 0.000000 0.693154
O O9 0.395088 0.500000 0.957709
O O10 0.446305 0.224159 0.948193
O O11 0.226901 0.361820 0.896579
O O12 0.000000 0.344800 0.000000
O O13 0.485312 0.867153 0.147482
O O14 0.128989 0.748246 0.126817
O O15 0.273875 0.000000 0.090109
O O16 0.046796 0.500000 0.835429
O O17 0.307977 0.269616 0.799138
O O18 0.443146 0.000000 0.776504
O O19 0.579108 0.000000 0.630737
#
# Coordination Sequence:
#
# PCOD9148775 Si02
#       7
#     4   4   4   4   4   4   4
#     4  10  21  37  57  80 110 151 190 227 276 332
#     4   9  19  34  56  82 112 146 184 230 280 331
#     4   9  19  36  54  72  99 136 174 216 270 328
#     4  10  20  33  53  78 103 135 175 219 268 327
#     4  10  20  34  53  76 103 133 173 223 268 323
#     4   9  19  35  55  76 101 140 181 217 265 328
#     4  10  20  35  56  85 114 144 185 234 280 325
#
# _framework density 20.458437
#
# number of rings (size 3 to 8) (size 9 to 14) (size 15 to 20)
#    0.000    2.429    0.000    1.714    2.000    2.571 
#    0.000    4.286    0.000    0.000    0.000    0.000 
#    0.000    0.000    0.000    0.000    0.000    0.000 
#
# Total GULP energy -156068.409897 kJ/mol
# GULP energy per Si atom -5573.871782 kJ/mol
# Density = 2.041187 g / cm^3
# Si number density = 20.458437 Si / 1000 Ang^3
#
#
#
# Elastic Constant Matrix: (Units=GPa)
#
#
# Indices 1 2 3 4 5 6 
#
# 1 67.8529 34.3642 13.8428 0.0000 -8.5439 0.0000
# 2 34.3642 136.3771 34.4472 0.0000 -19.4532 0.0000
# 3 13.8428 34.4472 81.2785 0.0000 -8.9482 0.0000
# 4 0.0000 0.0000 0.0000 35.2962 0.0000 -10.3369
# 5 -8.5439 -19.4532 -8.9482 0.0000 33.9719 0.0000
# 6 0.0000 0.0000 0.0000 -10.3369 0.0000 17.1913
#
#
#
# Elastic Compliance Matrix: (Units=1/GPa)
#
#
# Indices 1 2 3 4 5 6 
#
# 1 0.017105 -0.003764 -0.001114 0.000000 0.001853 0.000000
# 2 -0.003764 0.009574 -0.003004 0.000000 0.003744 0.000000
# 3 -0.001114 -0.003004 0.013951 0.000000 0.001674 0.000000
# 4 0.000000 0.000000 0.000000 0.034387 0.000000 0.020676
# 5 0.001853 0.003744 0.001674 0.000000 0.032487 0.000000
# 6 0.000000 0.000000 0.000000 0.020676 0.000000 0.070601
#
#
# Mechanical properties :
#
#
# Convention : Reuss Voigt Hill
#
# Bulk Modulus (GPa) = 40.21790 50.09078 45.15434
# Shear Modulus (GPa) = 24.73314 30.81551 27.77433
#
# Velocity S-wave (km/s) = 3.48076 3.88525 3.68856
# Velocity P-wave (km/s) = 5.98793 6.68313 6.34506
#
# Compressibility (1/GPa) = 0.02486455
#
# Stress axis : x y z
#
# Youngs Moduli (GPa) = 58.46310 104.44821 71.68124
#
# Poissons Ratio (x) = 0.39319 0.07984
# Poissons Ratio (y) = 0.22008 0.21535
# Poissons Ratio (z) = 0.06511 0.31380
#
# Static dielectric constant tensor:
#      x y z
#    x 1.808190 0.000000 0.013320 
#    y 0.000000 1.774280 0.000000 
#    z 0.013320 0.000000 1.720740 
# 
# From -- ./inp_files/13585.got.cif
#   From: 2010.05.17/outbox.cif.g08.bks.cpg/sg10_7_cif.got.tgz:13585.got - 2010.06.03 11:33:40.
