data_PCOD9148246
_publ_section_title
;
Structure prediction by ZEFSAII (Michael W. Deem and Ramdas Pophale) SiO2 
 PCOD9148246
Probable space group: P 2/M
;
_chemical_formula_sum "Si O2"
_cell_formula_units_Z 20
_cell_length_a 9.816817
_cell_length_b 12.098447
_cell_length_c 13.650272
_cell_angle_alpha 90.000000
_cell_angle_beta 33.159507
_cell_angle_gamma 90.000000
_cell_volume 886.760819
_symmetry_space_group_name_H-M "P 2/M"
_symmetry_group_IT_number 10
_symmetry_cell_setting 'monoclinic'
loop_
_space_group_symop_operation_xyz
x,y,z
-x,y,-z
-x,-y,-z
x,-y,z
loop_
_atom_site_type_symbol
_atom_site_label
_atom_site_fract_x
_atom_site_fract_y
_atom_site_fract_z
Si Si1 0.105976 0.500000 0.324822
Si Si2 0.088281 0.126964 0.831990
Si Si3 0.901128 0.741969 0.672870
Si Si4 0.458246 0.745749 0.372880
Si Si5 0.432263 0.500000 0.427433
Si Si6 0.552171 0.867959 0.111330
O O1 0.221889 0.620233 0.239145
O O2 0.864499 0.500000 0.402071
O O3 0.000000 0.500000 0.500000
O O4 0.331978 0.202416 0.683535
O O5 0.149461 0.000000 0.768228
O O6 0.841445 0.163844 0.921872
O O7 0.000000 0.125665 0.000000
O O8 0.162670 0.755113 0.572966
O O9 0.000000 0.744338 0.500000
O O10 0.680707 0.830019 0.814123
O O11 0.515419 0.614943 0.328674
O O12 0.492411 0.811696 0.251535
O O13 0.500000 0.500000 0.500000
O O14 0.549452 0.000000 0.120468
#
# Coordination Sequence:
#
# PCOD9148246 Si02
#       6
#     2   4   4   4   2   4
#     4   8  14  28  45  64  88 114 146 188 238 272
#     4   8  14  25  40  60  90 121 145 179 232 281
#     4   8  14  22  37  60  87 115 143 177 217 264
#     4   9  16  27  42  60  85 120 154 184 223 272
#     4  10  20  32  46  66  94 126 158 194 235 274
#     4   9  16  25  40  67  98 120 143 184 235 278
#
# _framework density 22.553996000000001
#
# number of rings (size 3 to 8) (size 9 to 14) (size 15 to 20)
#    0.000    3.400    0.000    3.000    0.000    4.400 
#    0.000    5.500    0.000    2.400    0.000   11.200 
#    0.000   12.800    0.000    0.000    0.000    0.000 
#
# Total GULP energy -111443.794028 kJ/mol
# GULP energy per Si atom -5572.189701 kJ/mol
# Density = 2.250266 g / cm^3
# Si number density = 22.553996 Si / 1000 Ang^3
#
#
#
# Elastic Constant Matrix: (Units=GPa)
#
#
# Indices 1 2 3 4 5 6 
#
# 1 122.8094 16.1534 45.7593 0.0000 -43.6563 0.0000
# 2 16.1534 125.9797 91.8208 0.0000 -39.3667 0.0000
# 3 45.7593 91.8208 123.8524 0.0000 -32.4430 0.0000
# 4 0.0000 0.0000 0.0000 6.7268 0.0000 -34.2024
# 5 -43.6563 -39.3667 -32.4430 0.0000 46.3180 0.0000
# 6 0.0000 0.0000 0.0000 -34.2024 0.0000 15.4342
#
#
#
# Elastic Compliance Matrix: (Units=1/GPa)
#
#
# Indices 1 2 3 4 5 6 
#
# 1 0.016319 0.009656 -0.008584 0.000000 0.017575 0.000000
# 2 0.009656 0.025055 -0.017367 0.000000 0.018232 0.000000
# 3 -0.008584 -0.017367 0.022210 0.000000 -0.007295 0.000000
# 4 0.000000 0.000000 0.000000 -0.014479 0.000000 -0.032085
# 5 0.017575 0.018232 -0.007295 0.000000 0.048541 0.000000
# 6 0.000000 0.000000 0.000000 -0.032085 0.000000 -0.006310
#
#
# Mechanical properties :
#
#
# Convention : Reuss Voigt Hill
#
# Bulk Modulus (GPa) = 32.26415 75.56760 53.91588
# Shear Modulus (GPa) = 37.24214 28.28966 32.76590
#
# Velocity S-wave (km/s) = 4.06796 3.54546 3.81566
# Velocity P-wave (km/s) = 6.03330 7.09495 6.58556
#
# Compressibility (1/GPa) = 0.03099415
#
# Stress axis : x y z
#
# Youngs Moduli (GPa) = 61.27867 39.91299 45.02440
#
# Poissons Ratio (x) = -0.38542 0.38651
# Poissons Ratio (y) = -0.59173 0.78193
# Poissons Ratio (z) = 0.52604 0.69316
#
# Static dielectric constant tensor:
#      x y z
#    x 1.970430 0.000000 -0.072360 
#    y 0.000000 1.821850 0.000000 
#    z -0.072360 0.000000 1.846750 
# 
# From -- ./inp_files/45489.got.cif
#   From: 2010.05.17/outbox.cif.g08.bks.cpg/sg10_23_cif.got.tgz:45489.got - 2010.06.03 11:33:40.
