data_PCOD9148587
_publ_section_title
;
Structure prediction by ZEFSAII (Michael W. Deem and Ramdas Pophale) SiO2 
 PCOD9148587
Probable space group: P 2/M
;
_chemical_formula_sum "Si O2"
_cell_formula_units_Z 32
_cell_length_a 31.356786
_cell_length_b 8.446558
_cell_length_c 13.288118
_cell_angle_alpha 90.000000
_cell_angle_beta 152.252826
_cell_angle_gamma 90.000000
_cell_volume 1638.553348
_symmetry_space_group_name_H-M "P 2/M"
_symmetry_group_IT_number 10
_symmetry_cell_setting 'monoclinic'
loop_
_space_group_symop_operation_xyz
x,y,z
-x,y,-z
-x,-y,-z
x,-y,z
loop_
_atom_site_type_symbol
_atom_site_label
_atom_site_fract_x
_atom_site_fract_y
_atom_site_fract_z
Si Si1 0.625938 0.811419 0.056576
Si Si2 0.740257 0.817894 0.840498
Si Si3 0.102522 0.193867 0.680254
Si Si4 0.165032 0.181730 0.178410
Si Si5 0.029400 0.808317 0.170397
Si Si6 0.574673 0.312124 0.379097
Si Si7 0.332149 0.686240 0.634106
Si Si8 0.815117 0.193505 0.362882
O O1 0.528502 0.742742 0.821270
O O2 0.621724 0.000000 0.039981
O O3 0.644533 0.767664 0.212110
O O4 0.711388 0.754387 0.166969
O O5 0.791257 0.815274 0.839740
O O6 0.643656 0.738877 0.611848
O O7 0.722144 0.000000 0.831688
O O8 0.814381 0.751619 0.073721
O O9 0.133868 0.239405 0.633397
O O10 0.000000 0.244925 0.500000
O O11 0.100845 0.000000 0.681703
O O12 0.226991 0.283964 0.382229
O O13 0.168164 0.000000 0.223449
O O14 0.059414 0.226942 0.948222
O O15 0.122104 0.750300 0.413318
O O16 0.038500 0.000000 0.183100
O O17 0.000000 0.749175 0.000000
O O18 0.578431 0.500000 0.379925
O O19 0.610765 0.251990 0.344357
O O20 0.350386 0.500000 0.683729
O O21 0.814098 0.000000 0.360739
#
# Coordination Sequence:
#
# PCOD9148587 Si02
#       8
#     4   4   4   4   4   4   4   4
#     4  11  21  33  51  74 102 136 173 214 255 298
#     4   9  17  30  51  78 102 126 164 211 254 298
#     4   9  16  29  52  81 110 135 162 206 260 305
#     4   9  16  27  46  73 101 129 165 207 248 296
#     4   9  15  24  41  67 100 134 164 197 241 293
#     4  10  21  36  53  73 100 135 172 211 257 306
#     4  10  20  33  50  73 102 136 171 208 254 306
#     4   9  18  30  46  74 107 136 169 209 256 306
#
# _framework density 19.529422
#
# number of rings (size 3 to 8) (size 9 to 14) (size 15 to 20)
#    0.000    2.500    0.000    3.000    0.000    8.000 
#    0.000    0.625    0.000    9.750    0.000    0.000 
#    0.000    0.000    0.000    0.000    0.000    0.000 
#
# Total GULP energy -178389.741779 kJ/mol
# GULP energy per Si atom -5574.679431 kJ/mol
# Density = 1.948497 g / cm^3
# Si number density = 19.529422 Si / 1000 Ang^3
#
#
#
# Elastic Constant Matrix: (Units=GPa)
#
#
# Indices 1 2 3 4 5 6 
#
# 1 90.3251 9.4815 70.1125 0.0000 14.3445 0.0000
# 2 9.4815 6.5515 14.4765 0.0000 0.7840 0.0000
# 3 70.1125 14.4765 144.9823 0.0000 9.7854 0.0000
# 4 0.0000 0.0000 0.0000 -17.9539 0.0000 -7.4932
# 5 14.3445 0.7840 9.7854 0.0000 30.3438 0.0000
# 6 0.0000 0.0000 0.0000 -7.4932 0.0000 5.2805
#
#
#
# Elastic Compliance Matrix: (Units=1/GPa)
#
#
# Indices 1 2 3 4 5 6 
#
# 1 0.019216 -0.009574 -0.007913 0.000000 -0.006285 0.000000
# 2 -0.009574 0.200664 -0.015704 0.000000 0.004406 0.000000
# 3 -0.007913 -0.015704 0.012279 0.000000 0.000186 0.000000
# 4 0.000000 0.000000 0.000000 -0.034981 0.000000 -0.049639
# 5 -0.006285 0.004406 0.000186 0.000000 0.035753 0.000000
# 6 0.000000 0.000000 0.000000 -0.049639 0.000000 0.118936
#
#
# Mechanical properties :
#
#
# Convention : Reuss Voigt Hill
#
# Bulk Modulus (GPa) = 6.03213 47.77778 26.90495
# Shear Modulus (GPa) = 10.55948 13.38666 11.97307
#
# Velocity S-wave (km/s) = 2.32781 2.62097 2.47873
# Velocity P-wave (km/s) = 3.21253 5.80318 4.69027
#
# Compressibility (1/GPa) = 0.16577904
#
# Stress axis : x y z
#
# Youngs Moduli (GPa) = 52.03935 4.98344 81.43749
#
# Poissons Ratio (x) = 0.04771 0.64439
# Poissons Ratio (y) = 0.49822 1.27888
# Poissons Ratio (z) = 0.41177 0.07826
#
# Static dielectric constant tensor:
#      x y z
#    x 1.714150 0.000000 0.011250 
#    y 0.000000 1.677980 0.000000 
#    z 0.011250 0.000000 1.685270 
# 
# From -- ./inp_files/58325.got.cif
#   From: 2010.05.17/outbox.cif.g08.bks.cpg/sg10_30_cif.got.tgz:58325.got - 2010.06.03 11:33:40.
