data_PCOD9148158
_publ_section_title
;
Structure prediction by ZEFSAII (Michael W. Deem and Ramdas Pophale) SiO2 
 PCOD9148158
Probable space group: P 2/M
;
_chemical_formula_sum "Si O2"
_cell_formula_units_Z 24
_cell_length_a 18.001092
_cell_length_b 7.319095
_cell_length_c 16.955465
_cell_angle_alpha 90.000000
_cell_angle_beta 157.044374
_cell_angle_gamma 90.000000
_cell_volume 871.265885
_symmetry_space_group_name_H-M "P 2/M"
_symmetry_group_IT_number 10
_symmetry_cell_setting 'monoclinic'
loop_
_space_group_symop_operation_xyz
x,y,z
-x,y,-z
-x,-y,-z
x,-y,z
loop_
_atom_site_type_symbol
_atom_site_label
_atom_site_fract_x
_atom_site_fract_y
_atom_site_fract_z
Si Si1 0.016602 0.797732 0.425732
Si Si2 0.119741 0.222963 0.359892
Si Si3 0.570105 0.289215 0.150470
Si Si4 0.673958 0.219619 0.771558
Si Si5 0.222377 0.219556 0.292320
Si Si6 0.436695 0.780522 0.174829
O O1 0.996993 0.716618 0.316763
O O2 0.244290 0.816681 0.644475
O O3 0.000000 0.717717 0.500000
O O4 0.925541 0.000000 0.339317
O O5 0.100884 0.281679 0.249354
O O6 0.342766 0.272977 0.592732
O O7 0.102329 0.000000 0.342771
O O8 0.625971 0.500000 0.195231
O O9 0.408621 0.280269 0.058275
O O10 0.500000 0.217269 0.000000
O O11 0.447942 0.246837 0.532297
O O12 0.791745 0.288175 0.811555
O O13 0.691298 0.285968 0.878264
O O14 0.703900 0.000000 0.802703
O O15 0.194050 0.000000 0.261506
O O16 0.428101 0.000000 0.167341
#
# Coordination Sequence:
#
# PCOD9148158 Si02
#       6
#     4   4   4   4   4   4
#     4   9  17  29  45  64  84 106 135 170 205 241
#     4   7  10  17  30  50  75 100 124 152 189 233
#     4  10  20  31  42  58  81 109 140 170 201 240
#     4   7   9  13  24  45  70  94 121 152 185 226
#     4   7   8  11  22  43  71  97 119 146 182 226
#     4   8  13  22  36  53  73  98 129 163 198 234
#
# _framework density 27.546125
#
# number of rings (size 3 to 8) (size 9 to 14) (size 15 to 20)
#    0.000    4.000    0.000    4.500    0.000    1.667 
#    0.000    0.000    0.000    0.000    0.000   21.000 
#    0.000    1.333    0.000   16.667    0.000   14.333 
#
# Total GULP energy -133748.295641 kJ/mol
# GULP energy per Si atom -5572.845652 kJ/mol
# Density = 2.748343 g / cm^3
# Si number density = 27.546125 Si / 1000 Ang^3
#
#
#
# Elastic Constant Matrix: (Units=GPa)
#
#
# Indices 1 2 3 4 5 6 
#
# 1 399.0914 6.7654 56.9644 0.0000 -34.2559 0.0000
# 2 6.7654 102.1643 -1.3150 0.0000 -0.3735 0.0000
# 3 56.9644 -1.3150 58.9230 0.0000 16.3946 0.0000
# 4 0.0000 0.0000 0.0000 -6.3424 0.0000 1.1815
# 5 -34.2559 -0.3735 16.3946 0.0000 60.8685 0.0000
# 6 0.0000 0.0000 0.0000 1.1815 0.0000 30.3091
#
#
#
# Elastic Compliance Matrix: (Units=1/GPa)
#
#
# Indices 1 2 3 4 5 6 
#
# 1 0.003347 -0.000263 -0.004070 0.000000 0.002978 0.000000
# 2 -0.000263 0.009812 0.000538 0.000000 -0.000233 0.000000
# 3 -0.004070 0.000538 0.023301 0.000000 -0.008563 0.000000
# 4 0.000000 0.000000 0.000000 -0.156532 0.000000 0.006102
# 5 0.002978 -0.000233 -0.008563 0.000000 0.020410 0.000000
# 6 0.000000 0.000000 0.000000 0.006102 0.000000 0.032756
#
#
# Mechanical properties :
#
#
# Convention : Reuss Voigt Hill
#
# Bulk Modulus (GPa) = 34.63923 76.11204 55.37564
# Shear Modulus (GPa) = -100.61383 50.15131 -25.23126
#
# Velocity S-wave (km/s) = -6.05020 4.27151 -3.02977
# Velocity P-wave (km/s) = 6.01699 7.21239 2.81197
#
# Compressibility (1/GPa) = 0.02886900
#
# Stress axis : x y z
#
# Youngs Moduli (GPa) = 298.80205 101.91967 42.91747
#
# Poissons Ratio (x) = 0.02682 0.17467
# Poissons Ratio (y) = 0.07862 -0.02309
# Poissons Ratio (z) = 1.21611 -0.05484
#
# Static dielectric constant tensor:
#      x y z
#    x 2.269860 0.000000 -0.122800 
#    y 0.000000 2.062560 0.000000 
#    z -0.122800 0.000000 2.341530 
# 
# From -- ./inp_files/52391.got.cif
#   From: 2010.05.17/outbox.cif.g08.bks.cpg/sg10_27_cif.got.tgz:52391.got - 2010.06.03 11:33:40.
