data_PCOD9148572
_publ_section_title
;
Structure prediction by ZEFSAII (Michael W. Deem and Ramdas Pophale) SiO2 
 PCOD9148572
Probable space group: P 2/M
;
_chemical_formula_sum "Si O2"
_cell_formula_units_Z 32
_cell_length_a 16.004546
_cell_length_b 7.659320
_cell_length_c 22.205659
_cell_angle_alpha 90.000000
_cell_angle_beta 33.161588
_cell_angle_gamma 90.000000
_cell_volume 1488.971035
_symmetry_space_group_name_H-M "P 2/M"
_symmetry_group_IT_number 10
_symmetry_cell_setting 'monoclinic'
loop_
_space_group_symop_operation_xyz
x,y,z
-x,y,-z
-x,-y,-z
x,-y,z
loop_
_atom_site_type_symbol
_atom_site_label
_atom_site_fract_x
_atom_site_fract_y
_atom_site_fract_z
Si Si1 0.125339 0.793233 0.567988
Si Si2 0.512065 0.713815 0.924577
Si Si3 0.355737 0.300204 0.904143
Si Si4 0.827663 0.704871 0.673278
Si Si5 0.822820 0.285775 0.101998
Si Si6 0.667648 0.799309 0.657446
Si Si7 0.295116 0.291133 0.578060
Si Si8 0.370653 0.286717 0.664675
O O1 0.268206 0.722127 0.442938
O O2 0.154475 0.753288 0.619872
O O3 0.972425 0.730783 0.628181
O O4 0.128466 0.000000 0.558194
O O5 0.505331 0.500000 0.928453
O O6 0.386827 0.776656 0.951610
O O7 0.677693 0.763658 0.799849
O O8 0.500000 0.773493 0.000000
O O9 0.305440 0.500000 0.943762
O O10 0.245670 0.222202 0.920247
O O11 0.523825 0.299105 0.771995
O O12 0.816120 0.500000 0.667083
O O13 0.808295 0.793687 0.620050
O O14 0.816156 0.500000 0.105712
O O15 0.717657 0.228672 0.221991
O O16 0.000000 0.236616 0.000000
O O17 0.619298 0.000000 0.679033
O O18 0.306790 0.500000 0.573332
O O19 0.289043 0.232855 0.651159
O O20 0.453648 0.227986 0.451372
O O21 0.371932 0.500000 0.666064
#
# Coordination Sequence:
#
# PCOD9148572 Si02
#       8
#     4   4   4   4   4   4   4   4
#     4  11  22  33  46  71 105 134 163 201 249 299
#     4   8  15  30  49  72 100 126 160 204 244 287
#     4   9  17  30  51  76  98 129 170 208 249 298
#     4  10  20  33  51  75 100 130 166 203 247 296
#     4   9  16  27  45  75 106 128 160 212 265 303
#     4  10  20  33  50  71  99 134 166 203 248 292
#     4   9  17  31  51  72  95 129 169 207 251 302
#     4   8  15  29  48  70  98 127 162 212 258 298
#
# _framework density 21.491353
#
# number of rings (size 3 to 8) (size 9 to 14) (size 15 to 20)
#    0.000    2.750    0.000    3.750    0.000    4.500 
#    2.250    1.250    0.000   10.500    0.000    0.000 
#    0.000    0.000    0.000    0.000    0.000    0.000 
#
# Total GULP energy -178477.890946 kJ/mol
# GULP energy per Si atom -5577.434092 kJ/mol
# Density = 2.144244 g / cm^3
# Si number density = 21.491353 Si / 1000 Ang^3
#
#
#
# Elastic Constant Matrix: (Units=GPa)
#
#
# Indices 1 2 3 4 5 6 
#
# 1 187.4295 -5.1151 50.7123 0.0000 14.2373 0.0000
# 2 -5.1151 42.8534 0.1980 0.0000 2.7767 0.0000
# 3 50.7123 0.1980 51.9293 0.0000 18.5146 0.0000
# 4 0.0000 0.0000 0.0000 4.6785 0.0000 10.0353
# 5 14.2373 2.7767 18.5146 0.0000 31.6627 0.0000
# 6 0.0000 0.0000 0.0000 10.0353 0.0000 -12.4916
#
#
#
# Elastic Compliance Matrix: (Units=1/GPa)
#
#
# Indices 1 2 3 4 5 6 
#
# 1 0.007312 0.000841 -0.007512 0.000000 0.001031 0.000000
# 2 0.000841 0.023593 -0.000049 0.000000 -0.002419 0.000000
# 3 -0.007512 -0.000049 0.032074 0.000000 -0.015373 0.000000
# 4 0.000000 0.000000 0.000000 0.078490 0.000000 0.063056
# 5 0.001031 -0.002419 -0.015373 0.000000 0.040321 0.000000
# 6 0.000000 0.000000 0.000000 0.063056 0.000000 -0.029397
#
#
# Mechanical properties :
#
#
# Convention : Reuss Voigt Hill
#
# Bulk Modulus (GPa) = 20.18584 41.53362 30.85973
# Shear Modulus (GPa) = 27.42042 20.53105 23.97573
#
# Velocity S-wave (km/s) = 3.57582 3.09417 3.34368
# Velocity P-wave (km/s) = 5.14409 5.66859 5.41269
#
# Compressibility (1/GPa) = 0.04953967
#
# Stress axis : x y z
#
# Youngs Moduli (GPa) = 136.75372 42.38601 31.17805
#
# Poissons Ratio (x) = -0.03564 0.23420
# Poissons Ratio (y) = -0.11498 0.00152
# Poissons Ratio (z) = 1.02725 0.00206
#
# Static dielectric constant tensor:
#      x y z
#    x 1.822690 0.000000 0.019310 
#    y 0.000000 1.792210 0.000000 
#    z 0.019310 0.000000 1.764240 
# 
# From -- ./inp_files/84705.got.cif
#   From: 2010.05.17/outbox.cif.g08.bks.cpg/sg10_43_cif.got.tgz:84705.got - 2010.06.03 11:33:40.
