data_PCOD9148853
_publ_section_title
;
Structure prediction by ZEFSAII (Michael W. Deem and Ramdas Pophale) SiO2 
 PCOD9148853
Probable space group: P 2/M
;
_chemical_formula_sum "Si O2"
_cell_formula_units_Z 32
_cell_length_a 23.982662
_cell_length_b 17.625440
_cell_length_c 12.162642
_cell_angle_alpha 90.000000
_cell_angle_beta 159.729199
_cell_angle_gamma 90.000000
_cell_volume 1781.211218
_symmetry_space_group_name_H-M "P 2/M"
_symmetry_group_IT_number 10
_symmetry_cell_setting 'monoclinic'
loop_
_space_group_symop_operation_xyz
x,y,z
-x,y,-z
-x,-y,-z
x,-y,z
loop_
_atom_site_type_symbol
_atom_site_label
_atom_site_fract_x
_atom_site_fract_y
_atom_site_fract_z
Si Si1 0.825685 0.203179 0.214422
Si Si2 0.315472 0.742206 0.617095
Si Si3 0.448133 0.327730 0.285738
Si Si4 0.285653 0.783489 0.325630
Si Si5 0.915900 0.254932 0.600025
Si Si6 0.793403 0.585756 0.314190
Si Si7 0.689330 0.421190 0.374577
Si Si8 0.680201 0.086232 0.785866
O O1 0.839610 0.196813 0.371078
O O2 0.000000 0.232282 0.500000
O O3 0.684979 0.263400 0.931109
O O4 0.788352 0.127759 0.077731
O O5 0.304150 0.794594 0.490322
O O6 0.192456 0.751998 0.490575
O O7 0.274293 0.656737 0.498192
O O8 0.500000 0.742834 0.000000
O O9 0.500000 0.360569 0.500000
O O10 0.591362 0.281787 0.489897
O O11 0.362293 0.387474 0.044764
O O12 0.318472 0.859244 0.317146
O O13 0.101252 0.760943 0.963812
O O14 0.902403 0.338311 0.517057
O O15 0.844386 0.500000 0.373995
O O16 0.759254 0.580634 0.381270
O O17 0.737704 0.500000 0.520101
O O18 0.500000 0.422432 0.000000
O O19 0.500000 0.085419 0.500000
O O20 0.730565 0.000000 0.856631
#
# Coordination Sequence:
#
# PCOD9148853 Si02
#       8
#     4   4   4   4   4   4   4   4
#     4  11  18  36  59  86 114 144 186 231 283 336
#     4  10  20  33  55  84 110 152 197 237 277 339
#     4  11  19  32  55  79 109 149 194 232 288 336
#     4  12  20  38  57  83 118 146 191 235 282 348
#     4  10  21  34  57  84 113 155 196 237 286 332
#     4   9  19  33  50  74 111 150 193 243 286 330
#     4   8  13  26  45  70  99 133 180 232 281 315
#     4  11  23  39  63  93 119 145 178 230 291 339
#
# _framework density 17.965302999999999
#
# number of rings (size 3 to 8) (size 9 to 14) (size 15 to 20)
#    0.000    1.750    3.750    3.375    0.000    0.500 
#    0.000    1.250    0.000   18.375    0.000    0.000 
#    0.000    0.000    0.000    0.000    0.000    0.000 
#
# Total GULP energy -178184.085645 kJ/mol
# GULP energy per Si atom -5568.252676 kJ/mol
# Density = 1.792441 g / cm^3
# Si number density = 17.965303 Si / 1000 Ang^3
#
#
#
# Elastic Constant Matrix: (Units=GPa)
#
#
# Indices 1 2 3 4 5 6 
#
# 1 90.3288 51.0724 29.3327 0.0000 -4.2028 0.0000
# 2 51.0724 98.7400 28.2355 0.0000 -10.5018 0.0000
# 3 29.3327 28.2355 69.0162 0.0000 -3.2574 0.0000
# 4 0.0000 0.0000 0.0000 13.1671 0.0000 -3.5363
# 5 -4.2028 -10.5018 -3.2574 0.0000 30.9365 0.0000
# 6 0.0000 0.0000 0.0000 -3.5363 0.0000 13.9720
#
#
#
# Elastic Compliance Matrix: (Units=1/GPa)
#
#
# Indices 1 2 3 4 5 6 
#
# 1 0.016585 -0.007508 -0.004011 0.000000 -0.000718 0.000000
# 2 -0.007508 0.015239 -0.002862 0.000000 0.003852 0.000000
# 3 -0.004011 -0.002862 0.017380 0.000000 0.000314 0.000000
# 4 0.000000 0.000000 0.000000 0.081486 0.000000 0.020624
# 5 -0.000718 0.003852 0.000314 0.000000 0.033567 0.000000
# 6 0.000000 0.000000 0.000000 0.020624 0.000000 0.076792
#
#
# Mechanical properties :
#
#
# Convention : Reuss Voigt Hill
#
# Bulk Modulus (GPa) = 48.91837 52.81846 50.86841
# Shear Modulus (GPa) = 18.07513 21.57807 19.82660
#
# Velocity S-wave (km/s) = 3.17537 3.46944 3.32566
# Velocity P-wave (km/s) = 6.38220 6.74637 6.56681
#
# Compressibility (1/GPa) = 0.02044222
#
# Stress axis : x y z
#
# Youngs Moduli (GPa) = 60.29674 65.62165 57.53831
#
# Poissons Ratio (x) = 0.49266 0.23079
# Poissons Ratio (y) = 0.45268 0.16466
# Poissons Ratio (z) = 0.24186 0.18780
#
# Static dielectric constant tensor:
#      x y z
#    x 1.625870 0.000000 -0.009430 
#    y 0.000000 1.648000 0.000000 
#    z -0.009430 0.000000 1.624640 
# 
# From -- ./inp_files/57102.got.cif
#   From: 2010.05.17/outbox.cif.g08.bks.cpg/sg10_29_cif.got.tgz:57102.got - 2010.06.03 11:33:40.
