data_PCOD9148217
_publ_section_title
;
Structure prediction by ZEFSAII (Michael W. Deem and Ramdas Pophale) SiO2 
 PCOD9148217
Probable space group: P 2/M
;
_chemical_formula_sum "Si O2"
_cell_formula_units_Z 28
_cell_length_a 23.556535
_cell_length_b 13.416143
_cell_length_c 20.299008
_cell_angle_alpha 90.000000
_cell_angle_beta 162.857077
_cell_angle_gamma 90.000000
_cell_volume 1890.936560
_symmetry_space_group_name_H-M "P 2/M"
_symmetry_group_IT_number 10
_symmetry_cell_setting 'monoclinic'
loop_
_space_group_symop_operation_xyz
x,y,z
-x,y,-z
-x,-y,-z
x,-y,z
loop_
_atom_site_type_symbol
_atom_site_label
_atom_site_fract_x
_atom_site_fract_y
_atom_site_fract_z
Si Si1 0.097543 0.120713 0.709971
Si Si2 0.718815 0.114080 0.715444
Si Si3 0.564390 0.617621 0.647548
Si Si4 0.289379 0.121471 0.786612
Si Si5 0.094749 0.235958 0.964058
Si Si6 0.332401 0.774737 0.475489
Si Si7 0.707857 0.879509 0.936776
O O1 0.227535 0.151643 0.791716
O O2 0.880157 0.152628 0.451381
O O3 0.096222 0.000000 0.708180
O O4 0.182538 0.149223 0.874515
O O5 0.500000 0.122223 0.500000
O O6 0.713685 0.148674 0.634824
O O7 0.779444 0.000000 0.789136
O O8 0.850027 0.183512 0.905820
O O9 0.500000 0.634844 0.500000
O O10 0.559042 0.500000 0.653708
O O11 0.423486 0.679075 0.539486
O O12 0.775992 0.664372 0.893370
O O13 0.291811 0.000000 0.788833
O O14 0.500000 0.156541 0.000000
O O15 0.866111 0.249339 0.707987
O O16 0.175243 0.164040 0.995868
O O17 0.498276 0.828014 0.701955
O O18 0.692209 0.000000 0.914921
#
# Coordination Sequence:
#
# PCOD9148217 Si02
#       7
#     4   4   4   4   4   4   4
#     4   8  15  26  39  57  83 115 151 188 220 251
#     4  11  19  31  47  61  85 120 155 188 220 258
#     4  10  20  36  53  67  84 105 137 190 247 290
#     4   8  13  23  40  59  79 108 149 191 222 248
#     4  11  21  33  47  66  88 114 150 190 229 271
#     4  11  21  33  47  66  88 114 150 190 229 271
#     4  10  20  32  43  62  94 127 157 187 221 262
#
# _framework density 14.807477
#
# number of rings (size 3 to 8) (size 9 to 14) (size 15 to 20)
#    0.000    2.143    4.286    2.143    0.000    4.571 
#    0.000    4.286    0.000    0.000    0.000    0.000 
#    0.000    0.000    0.000   41.143    0.000   93.714 
#
# Total GULP energy -156053.372779 kJ/mol
# GULP energy per Si atom -5573.334742 kJ/mol
# Density = 1.477377 g / cm^3
# Si number density = 14.807477 Si / 1000 Ang^3
#
#
#
# Elastic Constant Matrix: (Units=GPa)
#
#
# Indices 1 2 3 4 5 6 
#
# 1 40.3009 6.9551 57.1421 0.0000 -2.5362 0.0000
# 2 6.9551 66.6196 22.2513 0.0000 3.8361 0.0000
# 3 57.1421 22.2513 119.8540 0.0000 11.6387 0.0000
# 4 0.0000 0.0000 0.0000 0.1655 0.0000 0.1616
# 5 -2.5362 3.8361 11.6387 0.0000 37.0653 0.0000
# 6 0.0000 0.0000 0.0000 0.1616 0.0000 -0.1781
#
#
#
# Elastic Compliance Matrix: (Units=1/GPa)
#
#
# Indices 1 2 3 4 5 6 
#
# 1 0.090363 0.004744 -0.045916 0.000000 0.020110 0.000000
# 2 0.004744 0.016272 -0.005313 0.000000 0.000309 0.000000
# 3 -0.045916 -0.005313 0.032462 0.000000 -0.012785 0.000000
# 4 0.000000 0.000000 0.000000 3.204203 0.000000 2.906640
# 5 0.020110 0.000309 -0.012785 0.000000 0.032338 0.000000
# 6 0.000000 0.000000 0.000000 2.906640 0.000000 -2.977728
#
#
# Mechanical properties :
#
#
# Convention : Reuss Voigt Hill
#
# Bulk Modulus (GPa) = 21.67821 44.38572 33.03197
# Shear Modulus (GPa) = 9.87643 16.77227 13.32435
#
# Velocity S-wave (km/s) = 2.58542 3.36920 3.00299
# Velocity P-wave (km/s) = 4.85637 6.72128 5.86344
#
# Compressibility (1/GPa) = 0.04612927
#
# Stress axis : x y z
#
# Youngs Moduli (GPa) = 11.06642 61.45509 30.80490
#
# Poissons Ratio (x) = -0.29156 1.41443
# Poissons Ratio (y) = -0.05250 0.16366
# Poissons Ratio (z) = 0.50812 0.32650
#
# Static dielectric constant tensor:
#      x y z
#    x 1.493820 0.000000 0.018560 
#    y 0.000000 1.465330 0.000000 
#    z 0.018560 0.000000 1.517020 
# 
# From -- ./inp_files/79667.got.cif
#   From: 2010.05.17/outbox.cif.g08.bks.cpg/sg10_40_cif.got.tgz:79667.got - 2010.06.03 11:33:40.
