data_PCOD9148931
_publ_section_title
;
Structure prediction by ZEFSAII (Michael W. Deem and Ramdas Pophale) SiO2 
 PCOD9148931
Probable space group: P 2/M
;
_chemical_formula_sum "Si O2"
_cell_formula_units_Z 28
_cell_length_a 28.245736
_cell_length_b 8.711759
_cell_length_c 21.841708
_cell_angle_alpha 90.000000
_cell_angle_beta 162.834060
_cell_angle_gamma 90.000000
_cell_volume 1586.257178
_symmetry_space_group_name_H-M "P 2/M"
_symmetry_group_IT_number 10
_symmetry_cell_setting 'monoclinic'
loop_
_space_group_symop_operation_xyz
x,y,z
-x,y,-z
-x,-y,-z
x,-y,z
loop_
_atom_site_type_symbol
_atom_site_label
_atom_site_fract_x
_atom_site_fract_y
_atom_site_fract_z
Si Si1 0.830566 0.683999 0.821770
Si Si2 0.242408 0.183456 0.685886
Si Si3 0.937423 0.316235 0.356992
Si Si4 0.494708 0.184628 0.638616
Si Si5 0.321398 0.178417 0.249430
Si Si6 0.585753 0.316565 0.881740
Si Si7 0.508565 0.816198 0.112389
O O1 0.824309 0.500000 0.811653
O O2 0.677066 0.751085 0.595810
O O3 0.799123 0.736273 0.853388
O O4 0.000000 0.732722 0.000000
O O5 0.344162 0.214278 0.750933
O O6 0.074568 0.267527 0.479702
O O7 0.220962 0.000000 0.664056
O O8 0.351719 0.231974 0.879161
O O9 0.927658 0.500000 0.349577
O O10 0.000000 0.255584 0.500000
O O11 0.764068 0.261401 0.121414
O O12 0.637045 0.236361 0.767585
O O13 0.531082 0.239232 0.751679
O O14 0.488666 0.000000 0.627142
O O15 0.500000 0.184163 0.500000
O O16 0.272528 0.000000 0.186429
O O17 0.586129 0.500000 0.874738
O O18 0.480486 0.268770 0.810051
O O19 0.498332 0.000000 0.109144
#
# Coordination Sequence:
#
# PCOD9148931 Si02
#       7
#     4   4   4   4   4   4   4
#     4  10  20  34  56  87 116 142 175 213 254 308
#     4   9  18  32  52  75  98 129 174 222 266 316
#     4  10  20  34  50  74 105 135 174 221 269 320
#     4  10  21  37  56  79 108 142 180 220 263 315
#     4   8  16  32  54  79 106 139 178 214 253 304
#     4  11  22  35  53  77 106 141 178 220 271 323
#     4   9  18  33  51  74 102 133 172 218 267 319
#
# _framework density 17.651613999999999
#
# number of rings (size 3 to 8) (size 9 to 14) (size 15 to 20)
#    0.000    2.429    1.429    3.000    0.000    6.286 
#    0.000    2.857    0.000    3.429    0.000    0.000 
#    0.000    0.000    0.000    0.000    0.000    0.000 
#
# Total GULP energy -156059.827597 kJ/mol
# GULP energy per Si atom -5573.565271 kJ/mol
# Density = 1.761144 g / cm^3
# Si number density = 17.651614 Si / 1000 Ang^3
#
#
#
# Elastic Constant Matrix: (Units=GPa)
#
#
# Indices 1 2 3 4 5 6 
#
# 1 134.2816 36.4595 51.2075 0.0000 -4.2919 0.0000
# 2 36.4595 29.7369 24.0606 0.0000 0.7992 0.0000
# 3 51.2075 24.0606 63.1820 0.0000 5.6914 0.0000
# 4 0.0000 0.0000 0.0000 18.9661 0.0000 7.9104
# 5 -4.2919 0.7992 5.6914 0.0000 27.7834 0.0000
# 6 0.0000 0.0000 0.0000 7.9104 0.0000 27.0276
#
#
#
# Elastic Compliance Matrix: (Units=1/GPa)
#
#
# Indices 1 2 3 4 5 6 
#
# 1 0.013059 -0.010516 -0.006916 0.000000 0.003737 0.000000
# 2 -0.010516 0.057235 -0.013222 0.000000 -0.000562 0.000000
# 3 -0.006916 -0.013222 0.027029 0.000000 -0.006225 0.000000
# 4 0.000000 0.000000 0.000000 0.060057 0.000000 -0.017577
# 5 0.003737 -0.000562 -0.006225 0.000000 0.037861 0.000000
# 6 0.000000 0.000000 0.000000 -0.017577 0.000000 0.042144
#
#
# Mechanical properties :
#
#
# Convention : Reuss Voigt Hill
#
# Bulk Modulus (GPa) = 27.76699 50.07285 38.91992
# Shear Modulus (GPa) = 16.09283 22.45362 19.27323
#
# Velocity S-wave (km/s) = 3.02270 3.57044 3.30793
# Velocity P-wave (km/s) = 5.28649 6.73990 6.05695
#
# Compressibility (1/GPa) = 0.03601399
#
# Stress axis : x y z
#
# Youngs Moduli (GPa) = 76.57507 17.47190 36.99794
#
# Poissons Ratio (x) = 0.18373 0.25588
# Poissons Ratio (y) = 0.80525 0.48920
# Poissons Ratio (z) = 0.52960 0.23102
#
# Static dielectric constant tensor:
#      x y z
#    x 1.631190 0.000000 0.009250 
#    y 0.000000 1.597450 0.000000 
#    z 0.009250 0.000000 1.594280 
# 
# From -- ./inp_files/86689.got.cif
#   From: 2010.05.17/outbox.cif.g08.bks.cpg/sg10_44_cif.got.tgz:86689.got - 2010.06.03 11:33:40.
