data_PCOD9148535
_publ_section_title
;
Structure prediction by ZEFSAII (Michael W. Deem and Ramdas Pophale) SiO2 
 PCOD9148535
Probable space group: P 2/M
;
_chemical_formula_sum "Si O2"
_cell_formula_units_Z 32
_cell_length_a 25.907779
_cell_length_b 9.279709
_cell_length_c 22.512771
_cell_angle_alpha 90.000000
_cell_angle_beta 15.654532
_cell_angle_gamma 90.000000
_cell_volume 1460.474676
_symmetry_space_group_name_H-M "P 2/M"
_symmetry_group_IT_number 10
_symmetry_cell_setting 'monoclinic'
loop_
_space_group_symop_operation_xyz
x,y,z
-x,y,-z
-x,-y,-z
x,-y,z
loop_
_atom_site_type_symbol
_atom_site_label
_atom_site_fract_x
_atom_site_fract_y
_atom_site_fract_z
Si Si1 0.967205 0.836393 0.281583
Si Si2 0.464782 0.836391 0.286431
Si Si3 0.904669 0.333745 0.969834
Si Si4 0.092564 0.663600 0.530889
Si Si5 0.778904 0.166264 0.721097
Si Si6 0.779573 0.833828 0.220426
Si Si7 0.346328 0.666254 0.528176
Si Si8 0.660535 0.336400 0.962919
O O1 0.758335 0.845653 0.483329
O O2 0.936989 0.750102 0.375726
O O3 0.094323 0.749094 0.093716
O O4 0.034029 0.000000 0.217805
O O5 0.470404 0.749095 0.341558
O O6 0.537695 0.000000 0.210472
O O7 0.562424 0.750103 0.124862
O O8 0.847181 0.500000 0.027644
O O9 0.125794 0.334093 0.748415
O O10 0.785619 0.249782 0.151619
O O11 0.159403 0.500000 0.467102
O O12 0.219251 0.750566 0.343304
O O13 0.883460 0.654384 0.733081
O O14 0.655641 0.249434 0.906914
O O15 0.000000 0.165977 0.500000
O O16 0.722068 0.000000 0.777933
O O17 0.660094 0.750223 0.402668
O O18 0.721715 0.000000 0.278284
O O19 0.000000 0.834359 0.000000
O O20 0.403173 0.500000 0.471654
O O21 0.587589 0.500000 0.038918
#
# Coordination Sequence:
#
# PCOD9148535 Si02
#       8
#     4   4   4   4   4   4   4   4
#     4  10  20  33  49  71 100 132 164 200 244 291
#     4  10  20  33  49  71 100 132 164 200 244 291
#     4   9  16  26  41  62  90 124 160 198 241 287
#     4  10  20  34  53  76 100 127 161 200 241 287
#     4   9  17  31  52  75  98 125 158 198 242 285
#     4   9  15  23  37  59  88 121 158 199 240 283
#     4   9  16  26  41  62  90 124 160 198 241 287
#     4  10  20  34  53  76 100 127 161 200 241 287
#
# _framework density 21.910685000000001
#
# number of rings (size 3 to 8) (size 9 to 14) (size 15 to 20)
#    0.000    2.500    0.000    3.000    0.000    9.000 
#    0.000    0.625    0.000    3.750    0.000    0.875 
#    0.000    7.000    0.000    0.000    0.000    0.000 
#
# Total GULP energy -178905.875249 kJ/mol
# GULP energy per Si atom -5590.808602 kJ/mol
# Density = 2.186082 g / cm^3
# Si number density = 21.910685 Si / 1000 Ang^3
#
#
#
# Elastic Constant Matrix: (Units=GPa)
#
#
# Indices 1 2 3 4 5 6 
#
# 1 103.6408 88.4264 64.7612 0.0000 45.7459 0.0000
# 2 88.4264 291.1116 99.0773 0.0000 84.9669 0.0000
# 3 64.7612 99.0773 116.1160 0.0000 53.7644 0.0000
# 4 0.0000 0.0000 0.0000 28.2089 0.0000 22.2054
# 5 45.7459 84.9669 53.7644 0.0000 86.2771 0.0000
# 6 0.0000 0.0000 0.0000 22.2054 0.0000 25.4256
#
#
#
# Elastic Compliance Matrix: (Units=1/GPa)
#
#
# Indices 1 2 3 4 5 6 
#
# 1 0.016521 -0.002103 -0.006076 0.000000 -0.002902 0.000000
# 2 -0.002103 0.005772 -0.002300 0.000000 -0.003136 0.000000
# 3 -0.006076 -0.002300 0.016055 0.000000 -0.004519 0.000000
# 4 0.000000 0.000000 0.000000 0.113432 0.000000 -0.099066
# 5 -0.002902 -0.003136 -0.004519 0.000000 0.019033 0.000000
# 6 0.000000 0.000000 0.000000 -0.099066 0.000000 0.125849
#
#
# Mechanical properties :
#
#
# Convention : Reuss Voigt Hill
#
# Bulk Modulus (GPa) = 57.50382 112.82200 85.16291
# Shear Modulus (GPa) = 15.45989 45.22253 30.34121
#
# Velocity S-wave (km/s) = 2.65917 4.54800 3.72528
# Velocity P-wave (km/s) = 5.97745 8.89846 7.57999
#
# Compressibility (1/GPa) = 0.01739015
#
# Stress axis : x y z
#
# Youngs Moduli (GPa) = 60.53015 173.24760 62.28490
#
# Poissons Ratio (x) = 0.36442 0.37842
# Poissons Ratio (y) = 0.12732 0.14325
# Poissons Ratio (z) = 0.36775 0.39846
#
# Static dielectric constant tensor:
#      x y z
#    x 1.811800 0.000000 -0.076520 
#    y 0.000000 1.773700 0.000000 
#    z -0.076520 0.000000 1.802210 
# 
# From -- ./inp_files/52811.got.cif
#   From: 2010.05.17/outbox.cif.g08.bks.cpg/sg10_27_cif.got.tgz:52811.got - 2010.06.03 11:33:40.
