data_PCOD9148592
_publ_section_title
;
Structure prediction by ZEFSAII (Michael W. Deem and Ramdas Pophale) SiO2 
 PCOD9148592
Probable space group: P 2/M
;
_chemical_formula_sum "Si O2"
_cell_formula_units_Z 30
_cell_length_a 27.993403
_cell_length_b 13.685421
_cell_length_c 12.494907
_cell_angle_alpha 90.000000
_cell_angle_beta 160.739746
_cell_angle_gamma 90.000000
_cell_volume 1578.977765
_symmetry_space_group_name_H-M "P 2/M"
_symmetry_group_IT_number 10
_symmetry_cell_setting 'monoclinic'
loop_
_space_group_symop_operation_xyz
x,y,z
-x,y,-z
-x,-y,-z
x,-y,z
loop_
_atom_site_type_symbol
_atom_site_label
_atom_site_fract_x
_atom_site_fract_y
_atom_site_fract_z
Si Si1 0.013531 0.000000 0.813810
Si Si2 0.383918 0.210621 0.489714
Si Si3 0.338936 0.109051 0.613944
Si Si4 0.880901 0.820465 0.673117
Si Si5 0.181600 0.722036 0.675728
Si Si6 0.930997 0.825666 0.240569
Si Si7 0.393518 0.893225 0.173441
Si Si8 0.457470 0.387685 0.287025
O O1 0.954090 0.086488 0.770770
O O2 0.051921 0.086325 0.806495
O O3 0.340491 0.185078 0.519331
O O4 0.501995 0.129146 0.705405
O O5 0.461228 0.311966 0.620208
O O6 0.238322 0.199607 0.112893
O O7 0.243432 0.143204 0.510790
O O8 0.282003 0.000000 0.456484
O O9 0.500000 0.099826 0.000000
O O10 0.826161 0.748969 0.465346
O O11 0.000000 0.770962 0.000000
O O12 0.023038 0.732866 0.390390
O O13 0.272547 0.811580 0.920394
O O14 0.285024 0.630427 0.912608
O O15 0.000000 0.852060 0.500000
O O16 0.500000 0.890231 0.500000
O O17 0.324918 0.000000 0.018516
O O18 0.500000 0.363992 0.500000
O O19 0.494879 0.500000 0.345011
#
# Coordination Sequence:
#
# PCOD9148592 Si02
#       8
#     2   4   4   4   4   4   4   4
#     4  10  22  34  49  76 115 166 200 226 256 326
#     4  11  22  36  55  83 117 145 190 240 293 335
#     4  11  22  34  53  80 113 154 198 244 278 319
#     4  11  22  36  55  75 115 162 205 233 267 327
#     4  10  21  37  58  83 114 152 196 239 286 341
#     4  11  22  34  53  82 121 155 189 236 287 338
#     4  10  20  33  50  73 111 155 191 227 275 342
#     4  10  21  42  69  89 110 144 186 236 298 366
#
# _framework density 18.999634
#
# number of rings (size 3 to 8) (size 9 to 14) (size 15 to 20)
#    0.000    1.467    0.667    7.200    7.467    1.067 
#    0.000    0.667    0.000    6.400    0.000    0.000 
#    0.000    0.000    0.000    0.000    0.000    0.000 
#
# Total GULP energy -167106.831807 kJ/mol
# GULP energy per Si atom -5570.227727 kJ/mol
# Density = 1.895639 g / cm^3
# Si number density = 18.999634 Si / 1000 Ang^3
#
#
#
# Elastic Constant Matrix: (Units=GPa)
#
#
# Indices 1 2 3 4 5 6 
#
# 1 87.9227 20.7359 -8.8234 0.0000 -5.5374 0.0000
# 2 20.7359 66.5780 1.2513 0.0000 -8.2809 0.0000
# 3 -8.8234 1.2513 43.0531 0.0000 -5.6825 0.0000
# 4 0.0000 0.0000 0.0000 11.4755 0.0000 -2.2995
# 5 -5.5374 -8.2809 -5.6825 0.0000 34.3630 0.0000
# 6 0.0000 0.0000 0.0000 -2.2995 0.0000 12.3031
#
#
#
# Elastic Compliance Matrix: (Units=1/GPa)
#
#
# Indices 1 2 3 4 5 6 
#
# 1 0.012664 -0.003799 0.002918 0.000000 0.001608 0.000000
# 2 -0.003799 0.016624 -0.000832 0.000000 0.003256 0.000000
# 3 0.002918 -0.000832 0.024418 0.000000 0.004308 0.000000
# 4 0.000000 0.000000 0.000000 0.090533 0.000000 0.016921
# 5 0.001608 0.003256 0.004308 0.000000 0.030857 0.000000
# 6 0.000000 0.000000 0.000000 0.016921 0.000000 0.084443
#
#
# Mechanical properties :
#
#
# Convention : Reuss Voigt Hill
#
# Bulk Modulus (GPa) = 19.88887 24.87571 22.38229
# Shear Modulus (GPa) = 17.87473 23.92098 20.89786
#
# Velocity S-wave (km/s) = 3.07056 3.55212 3.32008
# Velocity P-wave (km/s) = 4.80228 5.47216 5.14813
#
# Compressibility (1/GPa) = 0.05027938
#
# Stress axis : x y z
#
# Youngs Moduli (GPa) = 78.96597 60.15459 40.95356
#
# Poissons Ratio (x) = 0.22853 -0.11950
# Poissons Ratio (y) = 0.29999 0.03407
# Poissons Ratio (z) = -0.23042 0.05005
#
# Static dielectric constant tensor:
#      x y z
#    x 1.650330 0.000000 0.139190 
#    y 0.000000 1.628530 0.000000 
#    z 0.139190 0.000000 1.011130 
# 
# From -- ./inp_files/57793.got.cif
#   From: 2010.05.17/outbox.cif.g08.bks.cpg/sg10_29_cif.got.tgz:57793.got - 2010.06.03 11:33:40.
