data_PCOD9148900
_publ_section_title
;
Structure prediction by ZEFSAII (Michael W. Deem and Ramdas Pophale) SiO2 
 PCOD9148900
Probable space group: P 2/M
;
_chemical_formula_sum "Si O2"
_cell_formula_units_Z 18
_cell_length_a 5.632155
_cell_length_b 18.675653
_cell_length_c 7.037821
_cell_angle_alpha 90.000000
_cell_angle_beta 75.610398
_cell_angle_gamma 90.000000
_cell_volume 717.043915
_symmetry_space_group_name_H-M "P 2/M"
_symmetry_group_IT_number 10
_symmetry_cell_setting 'monoclinic'
loop_
_space_group_symop_operation_xyz
x,y,z
-x,y,-z
-x,-y,-z
x,-y,z
loop_
_atom_site_type_symbol
_atom_site_label
_atom_site_fract_x
_atom_site_fract_y
_atom_site_fract_z
Si Si1 0.000000 0.655305 0.500000
Si Si2 0.771907 0.581070 0.189905
Si Si3 0.671457 0.863834 0.205737
Si Si4 0.539167 0.285332 0.719014
Si Si5 0.838698 0.083247 0.762113
O O1 0.856163 0.603702 0.384915
O O2 0.831188 0.705613 0.667203
O O3 0.677291 0.500000 0.204316
O O4 0.572866 0.641047 0.185347
O O5 0.000000 0.585587 0.000000
O O6 0.610962 0.781274 0.171564
O O7 0.401857 0.894072 0.308919
O O8 0.903675 0.874362 0.298189
O O9 0.751710 0.903543 0.996782
O O10 0.500000 0.278163 0.500000
O O11 0.890028 0.000000 0.722247
#
# Coordination Sequence:
#
# PCOD9148900 Si02
#       5
#     2   4   4   4   4
#     4  10  23  42  64  88 133 178 226 266 341 396
#     4  10  23  41  65  96 131 169 223 279 332 402
#     4  10  20  33  61  88 124 161 208 272 327 394
#     4  10  24  40  61  89 129 170 221 270 336 400
#     4  10  20  36  61  94 124 162 215 275 339 406
#
# _framework density 25.103062999999999
#
# number of rings (size 3 to 8) (size 9 to 14) (size 15 to 20)
#    0.000    2.000    0.000    3.667    9.333    7.556 
#    0.000    2.222    0.000    7.333    0.000    0.000 
#    0.000    0.000    0.000    0.000    0.000    0.000 
#
# Total GULP energy -100612.128369 kJ/mol
# GULP energy per Si atom -5589.562687 kJ/mol
# Density = 2.504593 g / cm^3
# Si number density = 25.103063 Si / 1000 Ang^3
#
#
#
# Elastic Constant Matrix: (Units=GPa)
#
#
# Indices 1 2 3 4 5 6 
#
# 1 172.2041 83.5375 31.5116 0.0000 -26.9287 0.0000
# 2 83.5375 180.0413 10.1249 0.0000 -37.0142 0.0000
# 3 31.5116 10.1249 97.5628 0.0000 -11.9690 0.0000
# 4 0.0000 0.0000 0.0000 78.9416 0.0000 -19.2469
# 5 -26.9287 -37.0142 -11.9690 0.0000 48.1959 0.0000
# 6 0.0000 0.0000 0.0000 -19.2469 0.0000 29.6565
#
#
#
# Elastic Compliance Matrix: (Units=1/GPa)
#
#
# Indices 1 2 3 4 5 6 
#
# 1 0.008014 -0.003310 -0.002070 0.000000 0.001422 0.000000
# 2 -0.003310 0.007963 0.000790 0.000000 0.004462 0.000000
# 3 -0.002070 0.000790 0.011107 0.000000 0.002208 0.000000
# 4 0.000000 0.000000 0.000000 0.015049 0.000000 0.009767
# 5 0.001422 0.004462 0.002208 0.000000 0.025519 0.000000
# 6 0.000000 0.000000 0.000000 0.009767 0.000000 0.040058
#
#
# Mechanical properties :
#
#
# Convention : Reuss Voigt Hill
#
# Bulk Modulus (GPa) = 55.85324 77.79512 66.82418
# Shear Modulus (GPa) = 40.69754 53.00107 46.84930
#
# Velocity S-wave (km/s) = 4.03080 4.59992 4.32473
# Velocity P-wave (km/s) = 6.63031 7.69869 7.18439
#
# Compressibility (1/GPa) = 0.01790406
#
# Stress axis : x y z
#
# Youngs Moduli (GPa) = 124.78534 125.58221 90.02942
#
# Poissons Ratio (x) = 0.41563 0.18640
# Poissons Ratio (y) = 0.41299 -0.07113
# Poissons Ratio (z) = 0.25837 -0.09922
#
# Static dielectric constant tensor:
#      x y z
#    x 1.955570 0.000000 -0.035480 
#    y 0.000000 1.918260 0.000000 
#    z -0.035480 0.000000 2.022270 
# 
# From -- ./inp_files/14668.got.cif
#   From: 2010.05.17/outbox.cif.g08.bks.cpg/sg10_8_cif.got.tgz:14668.got - 2010.06.03 11:33:40.
