data_PCOD9148317
_publ_section_title
;
Structure prediction by ZEFSAII (Michael W. Deem and Ramdas Pophale) SiO2 
 PCOD9148317
Probable space group: P 2/M
;
_chemical_formula_sum "Si O2"
_cell_formula_units_Z 32
_cell_length_a 26.467674
_cell_length_b 8.670479
_cell_length_c 14.864605
_cell_angle_alpha 90.000000
_cell_angle_beta 147.259941
_cell_angle_gamma 90.000000
_cell_volume 1844.895801
_symmetry_space_group_name_H-M "P 2/M"
_symmetry_group_IT_number 10
_symmetry_cell_setting 'monoclinic'
loop_
_space_group_symop_operation_xyz
x,y,z
-x,y,-z
-x,-y,-z
x,-y,z
loop_
_atom_site_type_symbol
_atom_site_label
_atom_site_fract_x
_atom_site_fract_y
_atom_site_fract_z
Si Si1 0.099473 0.684503 0.751412
Si Si2 0.339767 0.813448 0.419887
Si Si3 0.463805 0.824487 0.342795
Si Si4 0.895305 0.184377 0.439502
Si Si5 0.341445 0.316422 0.606895
Si Si6 0.730700 0.812252 0.882587
Si Si7 0.276565 0.315017 0.709025
Si Si8 0.466032 0.825297 0.052590
O O1 0.096141 0.500000 0.743869
O O2 0.124307 0.748290 0.689350
O O3 0.996727 0.750615 0.618606
O O4 0.176211 0.743524 0.936405
O O5 0.447027 0.752542 0.572506
O O6 0.299086 0.754601 0.452721
O O7 0.287175 0.770490 0.248811
O O8 0.344180 0.000000 0.427741
O O9 0.500000 0.834963 0.500000
O O10 0.360168 0.757241 0.195925
O O11 0.452995 0.000000 0.292600
O O12 0.815163 0.239542 0.386892
O O13 0.898716 0.000000 0.439607
O O14 0.337921 0.500000 0.597194
O O15 0.294241 0.268900 0.631029
O O16 0.449015 0.261261 0.773001
O O17 0.732162 0.000000 0.889310
O O18 0.270556 0.500000 0.703768
O O19 0.367055 0.259690 0.901092
O O20 0.456180 0.000000 0.071893
O O21 0.500000 0.832857 0.000000
#
# Coordination Sequence:
#
# PCOD9148317 Si02
#       8
#     4   4   4   4   4   4   4   4
#     4  11  22  37  56  79 107 134 162 204 259 315
#     4   9  17  30  50  74 103 140 181 220 253 294
#     4   7  12  25  45  68  94 127 167 208 245 280
#     4  11  22  38  59  80 101 128 166 211 258 310
#     4  10  20  32  48  72 107 145 176 212 258 307
#     4   9  17  32  53  76 103 137 177 217 256 301
#     4  10  20  35  53  75 104 137 172 212 263 314
#     4   9  17  30  48  70  97 132 175 215 249 292
#
# _framework density 17.345151999999999
#
# number of rings (size 3 to 8) (size 9 to 14) (size 15 to 20)
#    0.000    2.500    0.000    5.625    0.000    4.500 
#    0.000    4.375    0.000    3.000    0.000    5.250 
#    0.000    0.000    0.000    0.000    0.000    0.000 
#
# Total GULP energy -178365.414635 kJ/mol
# GULP energy per Si atom -5573.919207 kJ/mol
# Density = 1.730567 g / cm^3
# Si number density = 17.345152 Si / 1000 Ang^3
#
#
#
# Elastic Constant Matrix: (Units=GPa)
#
#
# Indices 1 2 3 4 5 6 
#
# 1 111.3127 46.5036 76.5716 0.0000 2.7060 0.0000
# 2 46.5036 76.2240 45.3715 0.0000 5.1871 0.0000
# 3 76.5716 45.3715 123.4824 0.0000 1.1818 0.0000
# 4 0.0000 0.0000 0.0000 297.6132 0.0000 31.7903
# 5 2.7060 5.1871 1.1818 0.0000 16.3881 0.0000
# 6 0.0000 0.0000 0.0000 31.7903 0.0000 26.0847
#
#
#
# Elastic Compliance Matrix: (Units=1/GPa)
#
#
# Indices 1 2 3 4 5 6 
#
# 1 0.017197 -0.005261 -0.008726 0.000000 -0.000545 0.000000
# 2 -0.005261 0.018799 -0.003599 0.000000 -0.004822 0.000000
# 3 -0.008726 -0.003599 0.014817 0.000000 0.001511 0.000000
# 4 0.000000 0.000000 0.000000 0.003863 0.000000 -0.004708
# 5 -0.000545 -0.004822 0.001511 0.000000 0.062527 0.000000
# 6 0.000000 0.000000 0.000000 -0.004708 0.000000 0.044074
#
#
# Mechanical properties :
#
#
# Convention : Reuss Voigt Hill
#
# Bulk Modulus (GPa) = 63.92949 71.99029 67.95989
# Shear Modulus (GPa) = 24.79374 77.52202 51.15788
#
# Velocity S-wave (km/s) = 3.78489 6.69259 5.43673
# Velocity P-wave (km/s) = 7.48584 10.06557 8.86999
#
# Compressibility (1/GPa) = 0.01564223
#
# Stress axis : x y z
#
# Youngs Moduli (GPa) = 58.14880 53.19356 67.48925
#
# Poissons Ratio (x) = 0.27984 0.58890
# Poissons Ratio (y) = 0.30591 0.24290
# Poissons Ratio (z) = 0.50740 0.19145
#
# Static dielectric constant tensor:
#      x y z
#    x 1.612360 0.000000 -0.009540 
#    y 0.000000 1.590040 0.000000 
#    z -0.009540 0.000000 1.577350 
# 
# From -- ./inp_files/72231.got.cif
#   From: 2010.05.17/outbox.cif.g08.bks.cpg/sg10_37_cif.got.tgz:72231.got - 2010.06.03 11:33:40.
