data_PCOD9148862
_publ_section_title
;
Structure prediction by ZEFSAII (Michael W. Deem and Ramdas Pophale) SiO2 
 PCOD9148862
Probable space group: P 2/M
;
_chemical_formula_sum "Si O2"
_cell_formula_units_Z 26
_cell_length_a 21.435180
_cell_length_b 12.351229
_cell_length_c 5.630810
_cell_angle_alpha 90.000000
_cell_angle_beta 57.030336
_cell_angle_gamma 90.000000
_cell_volume 1250.687543
_symmetry_space_group_name_H-M "P 2/M"
_symmetry_group_IT_number 10
_symmetry_cell_setting 'monoclinic'
loop_
_space_group_symop_operation_xyz
x,y,z
-x,y,-z
-x,-y,-z
x,-y,z
loop_
_atom_site_type_symbol
_atom_site_label
_atom_site_fract_x
_atom_site_fract_y
_atom_site_fract_z
Si Si1 0.864856 0.706950 0.044912
Si Si2 0.724057 0.375629 0.596580
Si Si3 0.759766 0.190840 0.881337
Si Si4 0.000000 0.730608 0.500000
Si Si5 0.578652 0.248346 0.769405
Si Si6 0.598775 0.876291 0.233502
Si Si7 0.903543 0.876034 0.344793
O O1 0.805909 0.632439 0.304883
O O2 0.905847 0.796852 0.117799
O O3 0.808937 0.774976 0.999190
O O4 0.934874 0.659215 0.756982
O O5 0.707262 0.500000 0.681421
O O6 0.733597 0.301280 0.808264
O O7 0.653388 0.321912 0.605889
O O8 0.816498 0.127936 0.595336
O O9 0.687196 0.125860 0.092925
O O10 0.048036 0.812584 0.562353
O O11 0.569874 0.188720 0.529565
O O12 0.500000 0.305423 0.000000
O O13 0.588755 0.171972 0.985276
O O14 0.574009 0.000000 0.284995
O O15 0.925562 0.000000 0.267028
#
# Coordination Sequence:
#
# PCOD9148862 Si02
#       7
#     4   4   4   2   4   4   4
#     4  10  20  38  57  84 118 155 201 255 307 371
#     4  10  22  42  66  86 114 159 206 262 328 375
#     4   9  20  38  56  86 122 158 207 262 301 369
#     4  10  21  34  55  84 126 160 195 248 305 364
#     4  11  24  42  63  96 132 164 214 266 309 377
#     4  11  22  39  64  94 133 178 212 250 310 378
#     4  10  20  33  55  86 122 165 205 245 302 367
#
# _framework density 20.788567
#
# number of rings (size 3 to 8) (size 9 to 14) (size 15 to 20)
#    0.000    1.846    1.538    2.077    0.000    7.077 
#    0.000    0.385    0.000   14.769    0.000    0.000 
#    0.000    0.000    0.000    0.000    0.000    0.000 
#
# Total GULP energy -144744.484416 kJ/mol
# GULP energy per Si atom -5567.095554 kJ/mol
# Density = 2.074125 g / cm^3
# Si number density = 20.788567 Si / 1000 Ang^3
#
#
#
# Elastic Constant Matrix: (Units=GPa)
#
#
# Indices 1 2 3 4 5 6 
#
# 1 63.3725 16.5925 25.4982 0.0000 7.5813 0.0000
# 2 16.5925 102.6510 23.3286 0.0000 6.8425 0.0000
# 3 25.4982 23.3286 99.5206 0.0000 -28.6594 0.0000
# 4 0.0000 0.0000 0.0000 -17.9607 0.0000 2.7800
# 5 7.5813 6.8425 -28.6594 0.0000 55.9256 0.0000
# 6 0.0000 0.0000 0.0000 2.7800 0.0000 -0.3477
#
#
#
# Elastic Compliance Matrix: (Units=1/GPa)
#
#
# Indices 1 2 3 4 5 6 
#
# 1 0.019330 -0.001319 -0.006278 0.000000 -0.005676 0.000000
# 2 -0.001319 0.010805 -0.002961 0.000000 -0.002661 0.000000
# 3 -0.006278 -0.002961 0.014899 0.000000 0.008848 0.000000
# 4 0.000000 0.000000 0.000000 0.234368 0.000000 1.873881
# 5 -0.005676 -0.002661 0.008848 0.000000 0.023510 0.000000
# 6 0.000000 0.000000 0.000000 1.873881 0.000000 12.106505
#
#
# Mechanical properties :
#
#
# Convention : Reuss Voigt Hill
#
# Bulk Modulus (GPa) = 41.81014 44.04252 42.92633
# Shear Modulus (GPa) = 0.40198 20.86509 10.63354
#
# Velocity S-wave (km/s) = 0.44021 3.17153 2.26411
# Velocity P-wave (km/s) = 4.51820 5.88586 5.24679
#
# Compressibility (1/GPa) = 0.02391764
#
# Stress axis : x y z
#
# Youngs Moduli (GPa) = 51.73267 92.54726 67.11954
#
# Poissons Ratio (x) = 0.12211 0.42137
# Poissons Ratio (y) = 0.06826 0.19874
# Poissons Ratio (z) = 0.32477 0.27403
#
# Static dielectric constant tensor:
#      x y z
#    x 2.090330 0.000000 0.070230 
#    y 0.000000 1.676580 0.000000 
#    z 0.070230 0.000000 1.905850 
# 
# From -- ./inp_files/12341.got.cif
#   From: 2010.05.17/outbox.cif.g08.bks.cpg/sg10_7_cif.got.tgz:12341.got - 2010.06.03 11:33:40.
