data_PCOD9148594
_publ_section_title
;
Structure prediction by ZEFSAII (Michael W. Deem and Ramdas Pophale) SiO2 
 PCOD9148594
Probable space group: P 2/M
;
_chemical_formula_sum "Si O2"
_cell_formula_units_Z 28
_cell_length_a 23.544661
_cell_length_b 7.459988
_cell_length_c 9.592022
_cell_angle_alpha 90.000000
_cell_angle_beta 52.331305
_cell_angle_gamma 90.000000
_cell_volume 1333.592750
_symmetry_space_group_name_H-M "P 2/M"
_symmetry_group_IT_number 10
_symmetry_cell_setting 'monoclinic'
loop_
_space_group_symop_operation_xyz
x,y,z
-x,y,-z
-x,-y,-z
x,-y,z
loop_
_atom_site_type_symbol
_atom_site_label
_atom_site_fract_x
_atom_site_fract_y
_atom_site_fract_z
Si Si1 0.432638 0.281658 0.512465
Si Si2 0.567362 0.718342 0.810380
Si Si3 0.865553 0.787746 0.544054
Si Si4 0.865553 0.212254 0.859286
Si Si5 0.000000 0.219771 0.839275
Si Si6 0.272742 0.284186 0.431177
Si Si7 0.727258 0.284186 0.249404
O O1 0.500000 0.217195 0.500000
O O2 0.432930 0.500000 0.519092
O O3 0.441523 0.232847 0.337715
O O4 0.352521 0.223643 0.675589
O O5 0.567070 0.500000 0.817881
O O6 0.647480 0.776356 0.733150
O O7 0.500000 0.782805 0.000000
O O8 0.865492 0.714549 0.701762
O O9 0.790106 0.765261 0.579295
O O10 0.929617 0.718934 0.350133
O O11 0.878331 0.000000 0.536463
O O12 0.929617 0.281066 0.861016
O O13 0.878331 0.000000 0.828544
O O14 0.790106 0.234739 0.050387
O O15 0.000000 0.000000 0.841922
O O16 0.000000 0.277771 0.000000
O O17 0.274699 0.500000 0.433600
O O18 0.259185 0.222024 0.611222
O O19 0.725301 0.500000 0.257697
#
# Coordination Sequence:
#
# PCOD9148594 Si02
#       7
#     4   4   4   4   4   4   4
#     4   8  14  25  42  65  92 121 154 192 232 275
#     4   8  14  25  42  65  92 121 154 192 232 275
#     4  10  20  33  50  73  99 125 156 196 238 280
#     4  10  20  33  50  73  99 125 156 196 238 280
#     4   9  17  31  52  73  92 121 160 196 232 279
#     4   9  18  32  49  71  99 128 159 196 237 282
#     4   9  18  32  49  71  99 128 159 196 237 282
#
# _framework density 20.995915
#
# number of rings (size 3 to 8) (size 9 to 14) (size 15 to 20)
#    0.000    3.000    0.000    3.000    0.000    5.143 
#    0.000    3.571    0.000    5.143    0.000    0.000 
#    0.000    0.000    0.000    0.000    0.000    0.000 
#
# Total GULP energy -156257.227145 kJ/mol
# GULP energy per Si atom -5580.615255 kJ/mol
# Density = 2.094813 g / cm^3
# Si number density = 20.995915 Si / 1000 Ang^3
#
#
#
# Elastic Constant Matrix: (Units=GPa)
#
#
# Indices 1 2 3 4 5 6 
#
# 1 226.6828 1.4287 139.0602 0.0000 -6.2093 0.0000
# 2 1.4287 59.7247 3.9036 0.0000 3.3295 0.0000
# 3 139.0602 3.9036 210.0112 0.0000 -16.2243 0.0000
# 4 0.0000 0.0000 0.0000 13.7066 0.0000 -5.0172
# 5 -6.2093 3.3295 -16.2243 0.0000 28.0296 0.0000
# 6 0.0000 0.0000 0.0000 -5.0172 0.0000 17.4354
#
#
#
# Elastic Compliance Matrix: (Units=1/GPa)
#
#
# Indices 1 2 3 4 5 6 
#
# 1 0.007475 0.000224 -0.005054 0.000000 -0.001296 0.000000
# 2 0.000224 0.016910 -0.000643 0.000000 -0.002331 0.000000
# 3 -0.005054 -0.000643 0.008416 0.000000 0.003828 0.000000
# 4 0.000000 0.000000 0.000000 0.081547 0.000000 0.023466
# 5 -0.001296 -0.002331 0.003828 0.000000 0.037882 0.000000
# 6 0.000000 0.000000 0.000000 0.023466 0.000000 0.064107
#
#
# Mechanical properties :
#
#
# Convention : Reuss Voigt Hill
#
# Bulk Modulus (GPa) = 45.75516 87.24483 66.50000
# Shear Modulus (GPa) = 21.31586 35.30275 28.30931
#
# Velocity S-wave (km/s) = 3.18974 4.10495 3.67594
# Velocity P-wave (km/s) = 5.95026 8.00693 7.05395
#
# Compressibility (1/GPa) = 0.02185546
#
# Stress axis : x y z
#
# Youngs Moduli (GPa) = 133.78267 59.13632 118.82542
#
# Poissons Ratio (x) = -0.01323 0.60052
# Poissons Ratio (y) = -0.02993 0.07635
# Poissons Ratio (z) = 0.67611 0.03800
#
# Static dielectric constant tensor:
#      x y z
#    x 1.730000 0.000000 -0.005980 
#    y 0.000000 1.828080 0.000000 
#    z -0.005980 0.000000 1.725560 
# 
# From -- ./inp_files/34410.got.cif
#   From: 2010.05.17/outbox.cif.g08.bks.cpg/sg10_18_cif.got.tgz:34410.got - 2010.06.03 11:33:40.
