data_PCOD9148723
_publ_section_title
;
Structure prediction by ZEFSAII (Michael W. Deem and Ramdas Pophale) SiO2 
 PCOD9148723
Probable space group: P 2/M
;
_chemical_formula_sum "Si O2"
_cell_formula_units_Z 32
_cell_length_a 20.313420
_cell_length_b 8.269064
_cell_length_c 14.775772
_cell_angle_alpha 90.000000
_cell_angle_beta 46.576193
_cell_angle_gamma 90.000000
_cell_volume 1802.598969
_symmetry_space_group_name_H-M "P 2/M"
_symmetry_group_IT_number 10
_symmetry_cell_setting 'monoclinic'
loop_
_space_group_symop_operation_xyz
x,y,z
-x,y,-z
-x,-y,-z
x,-y,z
loop_
_atom_site_type_symbol
_atom_site_label
_atom_site_fract_x
_atom_site_fract_y
_atom_site_fract_z
Si Si1 0.953707 0.303057 0.238019
Si Si2 0.857093 0.304795 0.862895
Si Si3 0.899713 0.807650 0.621821
Si Si4 0.338124 0.695040 0.470580
Si Si5 0.808274 0.303057 0.238019
Si Si6 0.808704 0.695040 0.529420
Si Si7 0.521535 0.192350 0.378179
Si Si8 0.719987 0.304795 0.137105
O O1 0.955569 0.500000 0.233149
O O2 0.902018 0.248886 0.195965
O O3 0.889102 0.258310 0.383625
O O4 0.054727 0.247580 0.163879
O O5 0.141807 0.500000 0.136052
O O6 0.868716 0.254746 0.748456
O O7 0.766934 0.249150 1.000000
O O8 0.831578 0.761623 0.605846
O O9 0.000000 0.742723 0.500000
O O10 0.906275 0.000000 0.621189
O O11 0.342388 0.500000 0.466319
O O12 0.272727 0.741690 0.616375
O O13 0.284819 0.746337 0.430361
O O14 0.437424 0.761623 0.394154
O O15 0.811282 0.500000 0.233149
O O16 0.781394 0.247580 0.163879
O O17 0.808708 0.500000 0.533680
O O18 0.500000 0.257277 0.500000
O O19 0.617172 0.254746 0.251544
O O20 0.527463 0.000000 0.378812
O O21 0.722141 0.500000 0.136052
#
# Coordination Sequence:
#
# PCOD9148723 Si02
#       8
#     4   4   4   4   4   4   4   4
#     4   8  14  26  46  74 105 134 166 206 253 301
#     4  10  20  33  52  77 104 138 177 217 261 305
#     4  11  22  34  51  76 105 141 178 213 256 304
#     4   9  17  31  54  80 103 131 169 216 265 305
#     4   8  14  26  46  74 105 134 166 206 253 301
#     4   9  17  31  54  80 103 131 169 216 265 305
#     4  11  22  34  51  76 105 141 178 213 256 304
#     4  10  20  33  52  77 104 138 177 217 261 305
#
# _framework density 17.752147000000001
#
# number of rings (size 3 to 8) (size 9 to 14) (size 15 to 20)
#    0.000    2.500    2.500    2.250    0.000    2.500 
#    0.000    2.500    0.000    1.500    0.000    7.000 
#    0.000    0.000    0.000    0.000    0.000    0.000 
#
# Total GULP energy -178434.062797 kJ/mol
# GULP energy per Si atom -5576.064462 kJ/mol
# Density = 1.771174 g / cm^3
# Si number density = 17.752147 Si / 1000 Ang^3
#
#
#
# Elastic Constant Matrix: (Units=GPa)
#
#
# Indices 1 2 3 4 5 6 
#
# 1 129.9325 17.4239 85.0268 0.0000 -0.1390 0.0000
# 2 17.4239 12.9389 23.3552 0.0000 0.2841 0.0000
# 3 85.0268 23.3552 131.9784 0.0000 0.2369 0.0000
# 4 0.0000 0.0000 0.0000 10.9469 0.0000 0.3766
# 5 -0.1390 0.2841 0.2369 0.0000 21.0196 0.0000
# 6 0.0000 0.0000 0.0000 0.3766 0.0000 3.0832
#
#
#
# Elastic Compliance Matrix: (Units=1/GPa)
#
#
# Indices 1 2 3 4 5 6 
#
# 1 0.013422 -0.003630 -0.008005 0.000000 0.000228 0.000000
# 2 -0.003630 0.114577 -0.017935 0.000000 -0.001370 0.000000
# 3 -0.008005 -0.017935 0.015908 0.000000 0.000010 0.000000
# 4 0.000000 0.000000 0.000000 0.091735 0.000000 -0.011205
# 5 0.000228 -0.001370 0.000010 0.000000 0.047594 0.000000
# 6 0.000000 0.000000 0.000000 -0.011205 0.000000 0.325708
#
#
# Mechanical properties :
#
#
# Convention : Reuss Voigt Hill
#
# Bulk Modulus (GPa) = 11.79696 58.49572 35.14634
# Shear Modulus (GPa) = 7.18041 16.94623 12.06332
#
# Velocity S-wave (km/s) = 2.01335 3.09301 2.60963
# Velocity P-wave (km/s) = 3.47341 6.76598 5.37788
#
# Compressibility (1/GPa) = 0.08476761
#
# Stress axis : x y z
#
# Youngs Moduli (GPa) = 74.50636 8.72774 62.86168
#
# Poissons Ratio (x) = 0.03168 0.50321
# Poissons Ratio (y) = 0.27044 1.12742
# Poissons Ratio (z) = 0.59642 0.15653
#
# Static dielectric constant tensor:
#      x y z
#    x 1.612260 0.000000 -0.000780 
#    y 0.000000 1.616630 0.000000 
#    z -0.000780 0.000000 1.595970 
# 
# From -- ./inp_files/66069.got.cif
#   From: 2010.05.17/outbox.cif.g08.bks.cpg/sg10_34_cif.got.tgz:66069.got - 2010.06.03 11:33:40.
