data_PCOD9148558
_publ_section_title
;
Structure prediction by ZEFSAII (Michael W. Deem and Ramdas Pophale) SiO2 
 PCOD9148558
Probable space group: P 2/M
;
_chemical_formula_sum "Si O2"
_cell_formula_units_Z 32
_cell_length_a 15.719271
_cell_length_b 9.015632
_cell_length_c 26.219993
_cell_angle_alpha 90.000000
_cell_angle_beta 149.787238
_cell_angle_gamma 90.000000
_cell_volume 1869.874760
_symmetry_space_group_name_H-M "P 2/M"
_symmetry_group_IT_number 10
_symmetry_cell_setting 'monoclinic'
loop_
_space_group_symop_operation_xyz
x,y,z
-x,y,-z
-x,-y,-z
x,-y,z
loop_
_atom_site_type_symbol
_atom_site_label
_atom_site_fract_x
_atom_site_fract_y
_atom_site_fract_z
Si Si1 0.068643 0.676954 0.954062
Si Si2 0.727435 0.676884 0.840300
Si Si3 0.884990 0.325101 0.226091
Si Si4 0.550154 0.676356 0.118991
Si Si5 0.243597 0.823079 0.685179
Si Si6 0.190947 0.824046 0.915345
Si Si7 0.628379 0.175933 0.362706
Si Si8 0.924410 0.322716 0.572329
O O1 0.083543 0.500000 0.952470
O O2 0.098652 0.764854 0.918037
O O3 0.886224 0.703600 0.885174
O O4 0.207510 0.716583 0.069162
O O5 0.693952 0.500000 0.822776
O O6 0.561784 0.764335 0.738437
O O7 0.897560 0.500000 0.220338
O O8 0.700364 0.300839 0.155951
O O9 0.900134 0.230385 0.183169
O O10 0.017599 0.290237 0.339703
O O11 0.527763 0.500000 0.114038
O O12 0.617254 0.748707 0.206013
O O13 0.376650 0.750077 0.012113
O O14 0.288969 0.795277 0.650071
O O15 0.065168 0.753133 0.609200
O O16 0.239752 0.000000 0.691609
O O17 0.205885 0.000000 0.924132
O O18 0.743273 0.259683 0.463315
O O19 0.631676 0.000000 0.373330
O O20 0.932417 0.500000 0.569778
#
# Coordination Sequence:
#
# PCOD9148558 Si02
#       8
#     4   4   4   4   4   4   4   4
#     4   9  19  37  58  79 105 135 168 209 253 301
#     4   9  19  36  58  81 103 133 172 209 250 302
#     4   9  20  37  53  71  98 135 177 218 257 296
#     4  10  20  34  52  74 103 140 178 214 252 298
#     4  10  20  33  49  75 110 141 171 209 256 307
#     4  12  23  32  50  79 106 136 171 208 257 311
#     4  11  22  33  50  77 108 140 170 208 259 308
#     4  10  21  36  54  74  99 137 181 219 254 296
#
# _framework density 17.113447000000001
#
# number of rings (size 3 to 8) (size 9 to 14) (size 15 to 20)
#    0.000    2.000    0.000    5.625    0.000   11.000 
#    0.000    1.250    0.000    0.750    0.000    5.250 
#    0.000    0.000    0.000    0.000    0.000    0.000 
#
# Total GULP energy -178759.694642 kJ/mol
# GULP energy per Si atom -5586.240458 kJ/mol
# Density = 1.707450 g / cm^3
# Si number density = 17.113447 Si / 1000 Ang^3
#
#
#
# Elastic Constant Matrix: (Units=GPa)
#
#
# Indices 1 2 3 4 5 6 
#
# 1 72.8366 61.5729 55.6535 0.0000 -18.7765 0.0000
# 2 61.5729 84.1786 63.5547 0.0000 -14.8634 0.0000
# 3 55.6535 63.5547 114.6558 0.0000 -2.6784 0.0000
# 4 0.0000 0.0000 0.0000 3.9702 0.0000 -56.1901
# 5 -18.7765 -14.8634 -2.6784 0.0000 17.5452 0.0000
# 6 0.0000 0.0000 0.0000 -56.1901 0.0000 -174.4221
#
#
#
# Elastic Compliance Matrix: (Units=1/GPa)
#
#
# Indices 1 2 3 4 5 6 
#
# 1 0.048599 -0.021781 -0.010771 0.000000 0.031913 0.000000
# 2 -0.021781 0.035594 -0.009030 0.000000 0.005465 0.000000
# 3 -0.010771 -0.009030 0.018573 0.000000 -0.016341 0.000000
# 4 0.000000 0.000000 0.000000 0.045307 0.000000 -0.014596
# 5 0.031913 0.005465 -0.016341 0.000000 0.093284 0.000000
# 6 0.000000 0.000000 0.000000 -0.014596 0.000000 -0.001031
#
#
# Mechanical properties :
#
#
# Convention : Reuss Voigt Hill
#
# Bulk Modulus (GPa) = 51.01315 70.35924 60.68619
# Shear Modulus (GPa) = 15.15045 -24.52199 -4.68577
#
# Velocity S-wave (km/s) = 2.97862 -3.78948 -1.65651
# Velocity P-wave (km/s) = 6.45779 4.69636 5.64619
#
# Compressibility (1/GPa) = 0.01960279
#
# Stress axis : x y z
#
# Youngs Moduli (GPa) = 20.57660 28.09465 53.84021
#
# Poissons Ratio (x) = 0.61193 0.57990
# Poissons Ratio (y) = 0.44818 0.48617
# Poissons Ratio (z) = 0.22163 0.25369
#
# Static dielectric constant tensor:
#      x y z
#    x 1.565140 0.000000 -0.007080 
#    y 0.000000 1.563330 0.000000 
#    z -0.007080 0.000000 1.575630 
# 
# From -- ./inp_files/66605.got.cif
#   From: 2010.05.17/outbox.cif.g08.bks.cpg/sg10_34_cif.got.tgz:66605.got - 2010.06.03 11:33:40.
