data_PCOD9148372
_publ_section_title
;
Structure prediction by ZEFSAII (Michael W. Deem and Ramdas Pophale) SiO2 
 PCOD9148372
Probable space group: P 2/M
;
_chemical_formula_sum "Si O2"
_cell_formula_units_Z 32
_cell_length_a 12.894336
_cell_length_b 9.014557
_cell_length_c 23.823929
_cell_angle_alpha 90.000000
_cell_angle_beta 136.932524
_cell_angle_gamma 90.000000
_cell_volume 1890.984262
_symmetry_space_group_name_H-M "P 2/M"
_symmetry_group_IT_number 10
_symmetry_cell_setting 'monoclinic'
loop_
_space_group_symop_operation_xyz
x,y,z
-x,y,-z
-x,-y,-z
x,-y,z
loop_
_atom_site_type_symbol
_atom_site_label
_atom_site_fract_x
_atom_site_fract_y
_atom_site_fract_z
Si Si1 0.339456 0.678258 0.461759
Si Si2 0.878846 0.178808 0.318115
Si Si3 0.970457 0.321183 0.855531
Si Si4 0.185435 0.178115 0.503267
Si Si5 0.350105 0.821063 0.680751
Si Si6 0.846995 0.169523 0.977278
Si Si7 0.325720 0.677384 0.188774
Si Si8 0.968277 0.678260 0.724777
O O1 0.500000 0.724759 0.500000
O O2 0.340907 0.500000 0.468957
O O3 0.305093 0.752930 0.507420
O O4 0.199128 0.716419 0.365342
O O5 0.725630 0.222215 0.289903
O O6 0.020185 0.222767 0.414628
O O7 0.912867 0.249294 0.271266
O O8 0.881033 0.000000 0.314146
O O9 0.983909 0.500000 0.864559
O O10 0.806820 0.282487 0.818721
O O11 0.980320 0.276807 0.794409
O O12 0.100529 0.246511 0.944637
O O13 0.232213 0.219188 0.584585
O O14 0.190293 0.000000 0.502090
O O15 0.511820 0.747411 0.733691
O O16 0.366660 0.000000 0.686894
O O17 0.728781 0.260649 0.893051
O O18 0.796786 0.000000 0.965799
O O19 0.000000 0.166856 0.000000
O O20 0.335529 0.500000 0.191329
O O21 0.983220 0.500000 0.728041
#
# Coordination Sequence:
#
# PCOD9148372 Si02
#       8
#     4   4   4   4   4   4   4   4
#     4   9  18  30  46  66  97 134 164 199 244 289
#     4   9  18  34  52  69  94 130 171 210 250 292
#     4   9  18  32  51  74 102 132 163 197 239 296
#     4   9  18  32  49  69  93 127 170 209 248 291
#     4  10  20  33  50  72  99 130 165 210 254 291
#     4   9  17  31  51  74 102 131 160 196 241 291
#     4  10  20  32  50  76 104 132 162 196 243 298
#     4   9  18  32  49  71  97 129 166 204 243 287
#
# _framework density 16.922405000000001
#
# number of rings (size 3 to 8) (size 9 to 14) (size 15 to 20)
#    0.000    2.750    0.000    1.125    1.750    5.250 
#    0.000    0.000    0.000    4.500    0.000    5.250 
#    0.000    0.000    0.000    0.000    0.000    0.000 
#
# Total GULP energy -178347.224189 kJ/mol
# GULP energy per Si atom -5573.350756 kJ/mol
# Density = 1.688389 g / cm^3
# Si number density = 16.922405 Si / 1000 Ang^3
#
#
#
# Elastic Constant Matrix: (Units=GPa)
#
#
# Indices 1 2 3 4 5 6 
#
# 1 78.4427 23.6774 38.9402 0.0000 -23.5013 0.0000
# 2 23.6774 20.2163 25.2479 0.0000 -8.9071 0.0000
# 3 38.9402 25.2479 72.2655 0.0000 -28.5533 0.0000
# 4 0.0000 0.0000 0.0000 26.0799 0.0000 -2.6321
# 5 -23.5013 -8.9071 -28.5533 0.0000 26.4107 0.0000
# 6 0.0000 0.0000 0.0000 -2.6321 0.0000 21.0381
#
#
#
# Elastic Compliance Matrix: (Units=1/GPa)
#
#
# Indices 1 2 3 4 5 6 
#
# 1 0.023205 -0.021824 0.000648 0.000000 0.013989 0.000000
# 2 -0.021824 0.108865 -0.033940 0.000000 -0.019397 0.000000
# 3 0.000648 -0.033940 0.036750 0.000000 0.028862 0.000000
# 4 0.000000 0.000000 0.000000 0.038834 0.000000 0.004859
# 5 0.013989 -0.019397 0.028862 0.000000 0.074973 0.000000
# 6 0.000000 0.000000 0.000000 0.004859 0.000000 0.048141
#
#
# Mechanical properties :
#
#
# Convention : Reuss Voigt Hill
#
# Bulk Modulus (GPa) = 17.06767 38.51729 27.79248
# Shear Modulus (GPa) = 10.85709 20.24302 15.55006
#
# Velocity S-wave (km/s) = 2.53569 3.46240 3.03463
# Velocity P-wave (km/s) = 4.32212 6.22855 5.36076
#
# Compressibility (1/GPa) = 0.05859030
#
# Stress axis : x y z
#
# Youngs Moduli (GPa) = 43.09440 9.18567 27.21072
#
# Poissons Ratio (x) = 0.20046 -0.01763
# Poissons Ratio (y) = 0.94047 0.92352
# Poissons Ratio (z) = -0.02793 0.31176
#
# Static dielectric constant tensor:
#      x y z
#    x 1.559990 0.000000 -0.002450 
#    y 0.000000 1.567660 0.000000 
#    z -0.002450 0.000000 1.567010 
# 
# From -- ./inp_files/54817.got.cif
#   From: 2010.05.17/outbox.cif.g08.bks.cpg/sg10_28_cif.got.tgz:54817.got - 2010.06.03 11:33:40.
