data_PCOD9148865
_publ_section_title
;
Structure prediction by ZEFSAII (Michael W. Deem and Ramdas Pophale) SiO2 
 PCOD9148865
Probable space group: P 2/M
;
_chemical_formula_sum "Si O2"
_cell_formula_units_Z 24
_cell_length_a 24.401227
_cell_length_b 7.688048
_cell_length_c 12.550772
_cell_angle_alpha 90.000000
_cell_angle_beta 154.400484
_cell_angle_gamma 90.000000
_cell_volume 1017.326780
_symmetry_space_group_name_H-M "P 2/M"
_symmetry_group_IT_number 10
_symmetry_cell_setting 'monoclinic'
loop_
_space_group_symop_operation_xyz
x,y,z
-x,y,-z
-x,-y,-z
x,-y,z
loop_
_atom_site_type_symbol
_atom_site_label
_atom_site_fract_x
_atom_site_fract_y
_atom_site_fract_z
Si Si1 0.310029 0.698098 0.160125
Si Si2 0.751962 0.289030 0.171086
Si Si3 0.360825 0.203220 0.484121
Si Si4 0.073691 0.211471 0.026479
Si Si5 0.435437 0.301060 0.991615
Si Si6 0.972207 0.205742 0.287407
O O1 0.353980 0.500000 0.234666
O O2 0.367291 0.779231 0.367318
O O3 0.323083 0.776887 0.065019
O O4 0.157120 0.701588 0.906483
O O5 0.743316 0.500000 0.154878
O O6 0.899376 0.241307 0.424998
O O7 0.688304 0.222318 0.168532
O O8 0.220052 0.265830 0.271287
O O9 0.463515 0.300382 0.734980
O O10 0.372081 0.000000 0.530440
O O11 0.076426 0.000000 0.036817
O O12 0.005382 0.256979 0.796379
O O13 0.000000 0.277232 0.000000
O O14 0.402412 0.500000 0.903905
O O15 0.500000 0.220322 0.000000
O O16 0.943921 0.000000 0.242566
#
# Coordination Sequence:
#
# PCOD9148865 Si02
#       6
#     4   4   4   4   4   4
#     4  10  20  37  60  83 114 152 189 230 281 342
#     4  10  22  38  57  82 113 155 195 228 278 341
#     4  10  21  37  59  85 114 145 187 240 285 332
#     4   8  16  31  51  77 109 144 178 219 275 332
#     4  10  23  42  60  80 113 153 193 236 280 334
#     4  10  20  33  55  87 119 148 183 234 286 333
#
# _framework density 23.591239000000002
#
# number of rings (size 3 to 8) (size 9 to 14) (size 15 to 20)
#    0.000    2.333    0.000    3.000    2.333    5.000 
#    0.000    3.333    0.000    3.000    0.000    0.000 
#    0.000    0.000    0.000    0.000    0.000    0.000 
#
# Total GULP energy -134067.330345 kJ/mol
# GULP energy per Si atom -5586.138764 kJ/mol
# Density = 2.353754 g / cm^3
# Si number density = 23.591239 Si / 1000 Ang^3
#
#
#
# Elastic Constant Matrix: (Units=GPa)
#
#
# Indices 1 2 3 4 5 6 
#
# 1 121.7751 1.2599 18.1720 0.0000 -9.5858 0.0000
# 2 1.2599 56.6872 -6.2593 0.0000 1.3701 0.0000
# 3 18.1720 -6.2593 96.3368 0.0000 3.2994 0.0000
# 4 0.0000 0.0000 0.0000 20.0666 0.0000 -9.8544
# 5 -9.5858 1.3701 3.2994 0.0000 27.4056 0.0000
# 6 0.0000 0.0000 0.0000 -9.8544 0.0000 9.1495
#
#
#
# Elastic Compliance Matrix: (Units=1/GPa)
#
#
# Indices 1 2 3 4 5 6 
#
# 1 0.008744 -0.000472 -0.001793 0.000000 0.003298 0.000000
# 2 -0.000472 0.017823 0.001289 0.000000 -0.001211 0.000000
# 3 -0.001793 0.001289 0.010871 0.000000 -0.002000 0.000000
# 4 0.000000 0.000000 0.000000 0.105786 0.000000 0.113936
# 5 0.003298 -0.001211 -0.002000 0.000000 0.037944 0.000000
# 6 0.000000 0.000000 0.000000 0.113936 0.000000 0.232009
#
#
# Mechanical properties :
#
#
# Convention : Reuss Voigt Hill
#
# Bulk Modulus (GPa) = 28.18144 33.46046 30.82095
# Shear Modulus (GPa) = 11.71077 28.76611 20.23844
#
# Velocity S-wave (km/s) = 2.23043 3.49572 2.93214
# Velocity P-wave (km/s) = 4.31332 5.52337 4.95542
#
# Compressibility (1/GPa) = 0.03548435
#
# Stress axis : x y z
#
# Youngs Moduli (GPa) = 114.36548 56.10821 91.99050
#
# Poissons Ratio (x) = 0.02648 0.16494
# Poissons Ratio (y) = 0.05398 -0.11853
# Poissons Ratio (z) = 0.20505 -0.07230
#
# Static dielectric constant tensor:
#      x y z
#    x 1.942860 0.000000 0.007800 
#    y 0.000000 1.868540 0.000000 
#    z 0.007800 0.000000 1.864570 
# 
# From -- ./inp_files/56676.got.cif
#   From: 2010.05.17/outbox.cif.g08.bks.cpg/sg10_29_cif.got.tgz:56676.got - 2010.06.03 11:33:40.
