data_PCOD9148714
_publ_section_title
;
Structure prediction by ZEFSAII (Michael W. Deem and Ramdas Pophale) SiO2 
 PCOD9148714
Probable space group: P 2/M
;
_chemical_formula_sum "Si O2"
_cell_formula_units_Z 32
_cell_length_a 24.158054
_cell_length_b 7.561386
_cell_length_c 10.390916
_cell_angle_alpha 90.000000
_cell_angle_beta 128.513031
_cell_angle_gamma 90.000000
_cell_volume 1485.193277
_symmetry_space_group_name_H-M "P 2/M"
_symmetry_group_IT_number 10
_symmetry_cell_setting 'monoclinic'
loop_
_space_group_symop_operation_xyz
x,y,z
-x,y,-z
-x,-y,-z
x,-y,z
loop_
_atom_site_type_symbol
_atom_site_label
_atom_site_fract_x
_atom_site_fract_y
_atom_site_fract_z
Si Si1 0.727901 0.781398 0.792256
Si Si2 0.832086 0.793791 0.158263
Si Si3 0.759249 0.793551 0.560339
Si Si4 0.862044 0.787988 0.489580
Si Si5 0.396997 0.286357 0.758023
Si Si6 0.576103 0.204275 0.640798
Si Si7 0.984109 0.710282 0.332644
Si Si8 0.451228 0.286037 0.116436
O O1 0.763148 0.721245 0.710389
O O2 0.646642 0.720207 0.680365
O O3 0.727423 0.000000 0.792463
O O4 0.770654 0.719937 0.979331
O O5 0.843711 0.717771 0.318961
O O6 0.906561 0.781062 0.189662
O O7 0.815701 0.000000 0.152560
O O8 0.809652 0.716891 0.522863
O O9 0.677550 0.781289 0.399192
O O10 0.778277 0.000000 0.597495
O O11 0.944461 0.753221 0.639672
O O12 0.853979 0.000000 0.471368
O O13 0.395114 0.500000 0.752207
O O14 0.466300 0.231276 0.777308
O O15 0.412694 0.233522 0.928462
O O16 0.500000 0.288062 0.500000
O O17 0.583187 0.212057 0.805090
O O18 0.572570 0.000000 0.593027
O O19 0.977495 0.500000 0.328330
O O20 0.000000 0.780027 0.500000
O O21 0.449616 0.500000 0.120429
#
# Coordination Sequence:
#
# PCOD9148714 Si02
#       8
#     4   4   4   4   4   4   4   4
#     4   9  19  34  51  74 108 140 168 211 266 310
#     4   9  17  32  53  74 101 136 169 208 254 302
#     4  10  20  34  53  77 104 135 174 212 253 309
#     4   9  18  31  52  79 102 131 173 209 246 307
#     4   9  19  35  52  71 101 136 169 214 267 309
#     4  10  20  33  52  76 104 137 175 218 265 308
#     4   9  17  31  52  78 105 131 164 210 257 301
#     4   9  19  35  52  72  98 133 176 216 259 313
#
# _framework density 21.546016000000002
#
# number of rings (size 3 to 8) (size 9 to 14) (size 15 to 20)
#    0.000    2.750    0.000    1.875    1.750    4.250 
#    0.000    3.750    0.000    3.750    0.000    0.000 
#    0.000    0.000    0.000    0.000    0.000    0.000 
#
# Total GULP energy -178547.921388 kJ/mol
# GULP energy per Si atom -5579.622543 kJ/mol
# Density = 2.149698 g / cm^3
# Si number density = 21.546016 Si / 1000 Ang^3
#
#
#
# Elastic Constant Matrix: (Units=GPa)
#
#
# Indices 1 2 3 4 5 6 
#
# 1 122.9961 -1.2505 37.0862 0.0000 -6.2725 0.0000
# 2 -1.2505 53.4987 -0.3340 0.0000 -3.0387 0.0000
# 3 37.0862 -0.3340 63.6125 0.0000 7.3138 0.0000
# 4 0.0000 0.0000 0.0000 108.9690 0.0000 43.8156
# 5 -6.2725 -3.0387 7.3138 0.0000 26.0995 0.0000
# 6 0.0000 0.0000 0.0000 43.8156 0.0000 4.7610
#
#
#
# Elastic Compliance Matrix: (Units=1/GPa)
#
#
# Indices 1 2 3 4 5 6 
#
# 1 0.010322 0.000448 -0.006517 0.000000 0.004359 0.000000
# 2 0.000448 0.018837 -0.000441 0.000000 0.002425 0.000000
# 3 -0.006517 -0.000441 0.020359 0.000000 -0.007323 0.000000
# 4 0.000000 0.000000 0.000000 -0.003398 0.000000 0.031274
# 5 0.004359 0.002425 -0.007323 0.000000 0.041697 0.000000
# 6 0.000000 0.000000 0.000000 0.031274 0.000000 -0.077779
#
#
# Mechanical properties :
#
#
# Convention : Reuss Voigt Hill
#
# Bulk Modulus (GPa) = 27.39772 34.56785 30.98279
# Shear Modulus (GPa) = 141.94946 41.60627 91.77786
#
# Velocity S-wave (km/s) = 8.12558 4.39913 6.53366
# Velocity P-wave (km/s) = 10.03877 6.47161 8.44567
#
# Compressibility (1/GPa) = 0.03649938
#
# Stress axis : x y z
#
# Youngs Moduli (GPa) = 96.87945 53.08568 49.11838
#
# Poissons Ratio (x) = -0.02379 0.32009
# Poissons Ratio (y) = -0.04342 0.02167
# Poissons Ratio (z) = 0.63133 0.02342
#
# Static dielectric constant tensor:
#      x y z
#    x 1.794510 0.000000 -0.002850 
#    y 0.000000 1.785060 0.000000 
#    z -0.002850 0.000000 1.776490 
# 
# From -- ./inp_files/56473.got.cif
#   From: 2010.05.17/outbox.cif.g08.bks.cpg/sg10_29_cif.got.tgz:56473.got - 2010.06.03 11:33:40.
