data_PCOD9148045
_publ_section_title
;
Structure prediction by ZEFSAII (Michael W. Deem and Ramdas Pophale) SiO2 
 PCOD9148045
Probable space group: P 2/M
;
_chemical_formula_sum "Si O2"
_cell_formula_units_Z 17
_cell_length_a 8.175764
_cell_length_b 20.285482
_cell_length_c 9.354295
_cell_angle_alpha 90.000000
_cell_angle_beta 147.375189
_cell_angle_gamma 90.000000
_cell_volume 836.416719
_symmetry_space_group_name_H-M "P 2/M"
_symmetry_group_IT_number 10
_symmetry_cell_setting 'monoclinic'
loop_
_space_group_symop_operation_xyz
x,y,z
-x,y,-z
-x,-y,-z
x,-y,z
loop_
_atom_site_type_symbol
_atom_site_label
_atom_site_fract_x
_atom_site_fract_y
_atom_site_fract_z
Si Si1 0.328006 0.366885 0.723739
Si Si2 0.642240 0.261650 0.760461
Si Si3 0.000000 0.500000 0.000000
Si Si4 0.642418 0.000000 0.261625
Si Si5 0.724349 0.500000 0.487650
Si Si6 0.640089 0.855019 0.261495
O O1 0.551614 0.324767 0.788177
O O2 0.243966 0.433763 0.580639
O O3 0.000000 0.330987 0.500000
O O4 0.500000 0.376663 0.000000
O O5 0.500000 0.268879 0.500000
O O6 0.499274 0.199596 0.738090
O O7 0.000000 0.255369 0.000000
O O8 0.964014 0.500000 0.794322
O O9 0.631918 0.500000 0.735523
O O10 0.568312 0.928433 0.270860
O O11 0.000000 0.000000 0.500000
O O12 0.500000 0.000000 0.000000
O O13 0.000000 0.848447 0.500000
O O14 0.500000 0.849138 0.000000
#
# Coordination Sequence:
#
# PCOD9148045 Si02
#       6
#     4   4   1   2   2   4
#     4  12  25  44  67  93 122 161 210 261 307 364
#     4  12  26  41  60  90 127 164 206 251 313 373
#     4  10  24  40  64 100 128 160 186 246 322 370
#     4   8  16  30  58  90 114 152 206 254 298 358
#     4  11  24  41  70  93 128 156 208 247 319 366
#     4  10  19  38  63  88 120 161 208 254 303 362
#
# _framework density 20.324798000000001
#
# number of rings (size 3 to 8) (size 9 to 14) (size 15 to 20)
#    0.000    1.176    0.000    6.353    4.941    0.000 
#    0.000    1.176    0.000    0.000    0.000    0.000 
#    0.000    0.000    0.000    0.000    0.000    0.000 
#
# Total GULP energy -94713.292472 kJ/mol
# GULP energy per Si atom -5571.370145 kJ/mol
# Density = 2.027854 g / cm^3
# Si number density = 20.324798 Si / 1000 Ang^3
#
#
#
# Elastic Constant Matrix: (Units=GPa)
#
#
# Indices 1 2 3 4 5 6 
#
# 1 111.8169 58.6249 55.2718 0.0000 -0.2499 0.0000
# 2 58.6249 146.0967 28.1231 0.0000 -23.3246 0.0000
# 3 55.2718 28.1231 211.8440 0.0000 -13.3523 0.0000
# 4 0.0000 0.0000 0.0000 -88.1316 0.0000 -51.8100
# 5 -0.2499 -23.3246 -13.3523 0.0000 53.3067 0.0000
# 6 0.0000 0.0000 0.0000 -51.8100 0.0000 -75.6005
#
#
#
# Elastic Compliance Matrix: (Units=1/GPa)
#
#
# Indices 1 2 3 4 5 6 
#
# 1 0.013079 -0.005154 -0.002912 0.000000 -0.002923 0.000000
# 2 -0.005154 0.009521 0.000347 0.000000 0.004229 0.000000
# 3 -0.002912 0.000347 0.005530 0.000000 0.001524 0.000000
# 4 0.000000 0.000000 0.000000 -0.019002 0.000000 0.013022
# 5 -0.002923 0.004229 0.001524 0.000000 0.020978 0.000000
# 6 0.000000 0.000000 0.000000 0.013022 0.000000 -0.022152
#
#
# Mechanical properties :
#
#
# Convention : Reuss Voigt Hill
#
# Bulk Modulus (GPa) = 78.79161 83.75524 81.27343
# Shear Modulus (GPa) = 181.01025 -0.23589 90.38718
#
# Velocity S-wave (km/s) = 9.44734 -0.34105 6.67592
# Velocity P-wave (km/s) = 12.56397 6.41426 9.97487
#
# Compressibility (1/GPa) = 0.01269171
#
# Stress axis : x y z
#
# Youngs Moduli (GPa) = 76.46104 105.02727 180.82462
#
# Poissons Ratio (x) = 0.54133 0.52662
# Poissons Ratio (y) = 0.39410 -0.06281
# Poissons Ratio (z) = 0.22268 -0.03648
#
# Static dielectric constant tensor:
#      x y z
#    x 1.734190 0.000000 0.032070 
#    y 0.000000 1.765850 0.000000 
#    z 0.032070 0.000000 1.725760 
# 
# From -- ./inp_files/20398.got.cif
#   From: 2010.05.17/outbox.cif.g08.bks.cpg/sg10_11_cif.got.tgz:20398.got - 2010.06.03 11:33:40.
