data_PCOD9148776
_publ_section_title
;
Structure prediction by ZEFSAII (Michael W. Deem and Ramdas Pophale) SiO2 
 PCOD9148776
Probable space group: P 2/M
;
_chemical_formula_sum "Si O2"
_cell_formula_units_Z 24
_cell_length_a 21.835585
_cell_length_b 7.564416
_cell_length_c 11.187230
_cell_angle_alpha 90.000000
_cell_angle_beta 146.551389
_cell_angle_gamma 90.000000
_cell_volume 1018.505135
_symmetry_space_group_name_H-M "P 2/M"
_symmetry_group_IT_number 10
_symmetry_cell_setting 'monoclinic'
loop_
_space_group_symop_operation_xyz
x,y,z
-x,y,-z
-x,-y,-z
x,-y,z
loop_
_atom_site_type_symbol
_atom_site_label
_atom_site_fract_x
_atom_site_fract_y
_atom_site_fract_z
Si Si1 0.668082 0.286544 0.595489
Si Si2 0.126787 0.715979 0.208502
Si Si3 0.253776 0.283994 0.654870
Si Si4 0.654634 0.800347 0.842292
Si Si5 0.468849 0.300203 0.126367
Si Si6 0.874902 0.286188 0.315503
O O1 0.665216 0.500000 0.584851
O O2 0.793644 0.230318 0.771233
O O3 0.627723 0.238406 0.661583
O O4 0.584824 0.218308 0.357002
O O5 0.122670 0.500000 0.202079
O O6 0.193120 0.769938 0.435515
O O7 0.000000 0.778104 0.000000
O O8 0.259486 0.500000 0.663689
O O9 0.176969 0.231827 0.641920
O O10 0.379496 0.222166 0.888415
O O11 0.597838 0.690369 0.855392
O O12 0.623290 0.000000 0.819020
O O13 0.786675 0.775226 0.073571
O O14 0.493633 0.500000 0.126702
O O15 0.876104 0.500000 0.314602
O O16 0.000000 0.223908 0.500000
#
# Coordination Sequence:
#
# PCOD9148776 Si02
#       6
#     4   4   4   4   4   4
#     4  10  20  33  53  78 105 141 180 220 266 316
#     4   9  18  30  49  79 109 135 171 220 267 316
#     4   8  15  29  48  75 107 134 166 213 266 312
#     4  11  22  34  51  78 111 141 174 220 269 321
#     4   9  18  34  54  77 106 137 176 224 270 318
#     4   9  18  32  55  81 106 140 178 218 263 312
#
# _framework density 23.563943999999999
#
# number of rings (size 3 to 8) (size 9 to 14) (size 15 to 20)
#    0.000    2.667    0.000    3.000    2.333    3.667 
#    0.000    3.333    0.000    4.500    0.000    5.833 
#    0.000    0.000    0.000    0.000    0.000    0.000 
#
# Total GULP energy -134062.873267 kJ/mol
# GULP energy per Si atom -5585.953053 kJ/mol
# Density = 2.351031 g / cm^3
# Si number density = 23.563944 Si / 1000 Ang^3
#
#
#
# Elastic Constant Matrix: (Units=GPa)
#
#
# Indices 1 2 3 4 5 6 
#
# 1 84.4774 4.6121 51.3499 0.0000 2.0071 0.0000
# 2 4.6121 65.9587 0.9810 0.0000 0.7844 0.0000
# 3 51.3499 0.9810 143.7170 0.0000 7.9947 0.0000
# 4 0.0000 0.0000 0.0000 -189.7306 0.0000 106.0129
# 5 2.0071 0.7844 7.9947 0.0000 47.9706 0.0000
# 6 0.0000 0.0000 0.0000 106.0129 0.0000 -74.6472
#
#
#
# Elastic Compliance Matrix: (Units=1/GPa)
#
#
# Indices 1 2 3 4 5 6 
#
# 1 0.015189 -0.000985 -0.005436 0.000000 0.000287 0.000000
# 2 -0.000985 0.015229 0.000262 0.000000 -0.000251 0.000000
# 3 -0.005436 0.000262 0.008969 0.000000 -0.001272 0.000000
# 4 0.000000 0.000000 0.000000 -0.025528 0.000000 -0.036255
# 5 0.000287 -0.000251 -0.001272 0.000000 0.021050 0.000000
# 6 0.000000 0.000000 0.000000 -0.036255 0.000000 -0.064885
#
#
# Mechanical properties :
#
#
# Convention : Reuss Voigt Hill
#
# Bulk Modulus (GPa) = 36.94224 45.33768 41.13996
# Shear Modulus (GPa) = -579.04905 -27.46743 -303.25824
#
# Velocity S-wave (km/s) = -15.69295 -3.41787 -11.35673
# Velocity P-wave (km/s) = 17.68182 1.92516 12.42861
#
# Compressibility (1/GPa) = 0.02706928
#
# Stress axis : x y z
#
# Youngs Moduli (GPa) = 65.83787 65.66445 111.49013
#
# Poissons Ratio (x) = 0.06465 0.60608
# Poissons Ratio (y) = 0.06482 -0.02919
# Poissons Ratio (z) = 0.35791 -0.01719
#
# Static dielectric constant tensor:
#      x y z
#    x 1.880980 0.000000 0.017750 
#    y 0.000000 1.895260 0.000000 
#    z 0.017750 0.000000 1.892480 
# 
# From -- ./inp_files/56536.got.cif
#   From: 2010.05.17/outbox.cif.g08.bks.cpg/sg10_29_cif.got.tgz:56536.got - 2010.06.03 11:33:40.
