data_PCOD9148552
_publ_section_title
;
Structure prediction by ZEFSAII (Michael W. Deem and Ramdas Pophale) SiO2 
 PCOD9148552
Probable space group: P 2/M
;
_chemical_formula_sum "Si O2"
_cell_formula_units_Z 32
_cell_length_a 18.271728
_cell_length_b 8.877867
_cell_length_c 22.641679
_cell_angle_alpha 90.000000
_cell_angle_beta 149.105760
_cell_angle_gamma 90.000000
_cell_volume 1885.815764
_symmetry_space_group_name_H-M "P 2/M"
_symmetry_group_IT_number 10
_symmetry_cell_setting 'monoclinic'
loop_
_space_group_symop_operation_xyz
x,y,z
-x,y,-z
-x,-y,-z
x,-y,z
loop_
_atom_site_type_symbol
_atom_site_label
_atom_site_fract_x
_atom_site_fract_y
_atom_site_fract_z
Si Si1 0.174323 0.679720 0.424213
Si Si2 0.698445 0.679374 0.608947
Si Si3 0.841358 0.820064 0.369245
Si Si4 0.443934 0.320205 0.784774
Si Si5 0.600995 0.318400 0.014851
Si Si6 0.877482 0.179606 0.257263
Si Si7 0.533171 0.819833 0.322577
Si Si8 0.593467 0.820139 0.644766
O O1 0.178365 0.500000 0.435898
O O2 0.184523 0.708701 0.360447
O O3 0.315000 0.750728 0.551572
O O4 0.030651 0.748685 0.350419
O O5 0.677856 0.500000 0.598727
O O6 0.711163 0.746878 0.683407
O O7 0.556538 0.755487 0.483508
O O8 0.718347 0.734120 0.318591
O O9 0.832428 0.786370 0.293519
O O10 0.000000 0.780173 0.500000
O O11 0.822943 0.000000 0.365311
O O12 0.448108 0.500000 0.782398
O O13 0.502491 0.245572 0.765938
O O14 0.528732 0.275755 0.902828
O O15 0.613736 0.500000 0.025322
O O16 0.754890 0.245833 0.130829
O O17 0.500000 0.273231 0.000000
O O18 0.887373 0.000000 0.258211
O O19 0.416517 0.784235 0.292648
O O20 0.548316 0.000000 0.330590
O O21 0.596546 0.000000 0.639836
#
# Coordination Sequence:
#
# PCOD9148552 Si02
#       8
#     4   4   4   4   4   4   4   4
#     4  10  20  33  50  74 106 139 170 206 250 300
#     4   9  16  26  43  68  98 133 168 203 240 285
#     4  10  21  35  50  71 101 132 161 200 249 300
#     4  11  22  35  54  75  95 130 171 208 255 301
#     4  10  21  39  57  73  97 128 167 216 259 300
#     4  11  22  34  53  77 100 132 170 209 255 299
#     4  10  20  33  49  73 107 138 167 208 253 299
#     4   9  16  26  43  67  97 135 168 198 242 293
#
# _framework density 16.968783999999999
#
# number of rings (size 3 to 8) (size 9 to 14) (size 15 to 20)
#    0.000    2.000    1.250    3.750    0.000    6.000 
#    0.000    0.000    0.000    0.000    0.000    0.875 
#    0.000    7.000    0.000    0.000    0.000    0.000 
#
# Total GULP energy -178489.022992 kJ/mol
# GULP energy per Si atom -5577.781968 kJ/mol
# Density = 1.693016 g / cm^3
# Si number density = 16.968784 Si / 1000 Ang^3
#
#
#
# Elastic Constant Matrix: (Units=GPa)
#
#
# Indices 1 2 3 4 5 6 
#
# 1 103.6631 37.8345 10.6706 0.0000 -28.6444 0.0000
# 2 37.8345 39.6242 8.6832 0.0000 -11.0495 0.0000
# 3 10.6706 8.6832 41.7020 0.0000 -20.4066 0.0000
# 4 0.0000 0.0000 0.0000 23.8270 0.0000 -0.1127
# 5 -28.6444 -11.0495 -20.4066 0.0000 20.3874 0.0000
# 6 0.0000 0.0000 0.0000 -0.1127 0.0000 30.7487
#
#
#
# Elastic Compliance Matrix: (Units=1/GPa)
#
#
# Indices 1 2 3 4 5 6 
#
# 1 0.027902 -0.016973 0.021710 0.000000 0.051734 0.000000
# 2 -0.016973 0.040291 -0.009859 0.000000 -0.011878 0.000000
# 3 0.021710 -0.009859 0.064268 0.000000 0.089488 0.000000
# 4 0.000000 0.000000 0.000000 0.041970 0.000000 0.000154
# 5 0.051734 -0.011878 0.089488 0.000000 0.204872 0.000000
# 6 0.000000 0.000000 0.000000 0.000154 0.000000 0.032522
#
#
# Mechanical properties :
#
#
# Convention : Reuss Voigt Hill
#
# Bulk Modulus (GPa) = 8.18204 33.26287 20.72246
# Shear Modulus (GPa) = 10.80364 23.51268 17.15816
#
# Velocity S-wave (km/s) = 2.52598 3.72646 3.18332
# Velocity P-wave (km/s) = 3.65236 6.17740 5.07445
#
# Compressibility (1/GPa) = 0.12221886
#
# Stress axis : x y z
#
# Youngs Moduli (GPa) = 35.84000 24.81920 15.55990
#
# Poissons Ratio (x) = 0.42125 -0.33781
# Poissons Ratio (y) = 0.60830 0.15340
# Poissons Ratio (z) = -0.77810 0.24469
#
# Static dielectric constant tensor:
#      x y z
#    x 1.622550 0.000000 -0.024670 
#    y 0.000000 1.564400 0.000000 
#    z -0.024670 0.000000 1.539220 
# 
# From -- ./inp_files/89961.got.cif
#   From: 2010.05.17/outbox.cif.g08.bks.cpg/sg10_45_cif.got.tgz:89961.got - 2010.06.03 11:33:40.
