data_PCOD9148673
_publ_section_title
;
Structure prediction by ZEFSAII (Michael W. Deem and Ramdas Pophale) SiO2 
 PCOD9148673
Probable space group: P 2/M
;
_chemical_formula_sum "Si O2"
_cell_formula_units_Z 24
_cell_length_a 25.009355
_cell_length_b 8.982894
_cell_length_c 19.044572
_cell_angle_alpha 90.000000
_cell_angle_beta 19.160829
_cell_angle_gamma 90.000000
_cell_volume 1404.288248
_symmetry_space_group_name_H-M "P 2/M"
_symmetry_group_IT_number 10
_symmetry_cell_setting 'monoclinic'
loop_
_space_group_symop_operation_xyz
x,y,z
-x,y,-z
-x,-y,-z
x,-y,z
loop_
_atom_site_type_symbol
_atom_site_label
_atom_site_fract_x
_atom_site_fract_y
_atom_site_fract_z
Si Si1 0.650672 0.177447 0.863795
Si Si2 0.656285 0.320795 0.010217
Si Si3 0.821301 0.678933 0.193206
Si Si4 0.514315 0.176472 0.650486
Si Si5 0.018597 0.329193 0.561888
Si Si6 0.335489 0.669752 0.751472
O O1 0.823461 0.231946 0.617897
O O2 0.655344 0.000000 0.868114
O O3 0.500000 0.214454 0.000000
O O4 0.631764 0.256400 0.962698
O O5 0.650346 0.500000 0.015184
O O6 0.528618 0.254694 0.223152
O O7 0.839962 0.278580 0.807840
O O8 0.792833 0.500000 0.233748
O O9 0.682766 0.761735 0.409357
O O10 0.799813 0.716305 0.137283
O O11 0.000000 0.711960 0.000000
O O12 0.375512 0.225531 0.766686
O O13 0.519877 0.000000 0.650805
O O14 0.046394 0.500000 0.549598
O O15 0.000000 0.329801 0.500000
O O16 0.500000 0.666884 0.500000
O O17 0.305898 0.500000 0.812644
#
# Coordination Sequence:
#
# PCOD9148673 Si02
#       6
#     4   4   4   4   4   4
#     4  10  20  33  51  77 107 135 163 200 250 305
#     4  10  20  35  54  74  98 130 172 214 249 293
#     4   9  18  34  55  76 100 134 172 206 246 299
#     4  11  21  32  50  76 104 132 165 208 258 302
#     4   8  16  31  51  73  94 124 167 206 239 285
#     4   8  15  30  51  72  95 126 165 203 238 288
#
# _framework density 17.090509000000001
#
# number of rings (size 3 to 8) (size 9 to 14) (size 15 to 20)
#    0.000    2.667    0.000    4.500    0.000    8.333 
#    0.000    1.667    0.000    2.000    0.000    0.000 
#    0.000    0.000    0.000    0.000    0.000    0.000 
#
# Total GULP energy -133744.890850 kJ/mol
# GULP energy per Si atom -5572.703785 kJ/mol
# Density = 1.705161 g / cm^3
# Si number density = 17.090509 Si / 1000 Ang^3
#
#
#
# Elastic Constant Matrix: (Units=GPa)
#
#
# Indices 1 2 3 4 5 6 
#
# 1 93.0930 53.2231 52.5581 0.0000 -20.2149 0.0000
# 2 53.2231 78.8771 50.5971 0.0000 -7.3584 0.0000
# 3 52.5581 50.5971 78.3252 0.0000 -10.7971 0.0000
# 4 0.0000 0.0000 0.0000 -51.0477 0.0000 -8.9058
# 5 -20.2149 -7.3584 -10.7971 0.0000 30.7760 0.0000
# 6 0.0000 0.0000 0.0000 -8.9058 0.0000 18.4492
#
#
#
# Elastic Compliance Matrix: (Units=1/GPa)
#
#
# Indices 1 2 3 4 5 6 
#
# 1 0.022634 -0.009361 -0.007776 0.000000 0.009900 0.000000
# 2 -0.009361 0.025522 -0.010731 0.000000 -0.003811 0.000000
# 3 -0.007776 -0.010731 0.025072 0.000000 0.001123 0.000000
# 4 0.000000 0.000000 0.000000 -0.018068 0.000000 -0.008722
# 5 0.009900 -0.003811 0.001123 0.000000 0.038479 0.000000
# 6 0.000000 0.000000 0.000000 -0.008722 0.000000 0.049993
#
#
# Mechanical properties :
#
#
# Convention : Reuss Voigt Hill
#
# Bulk Modulus (GPa) = 57.16796 62.56134 59.86465
# Shear Modulus (GPa) = 24.36665 5.89663 15.13164
#
# Velocity S-wave (km/s) = 3.78000 1.85950 2.97877
# Velocity P-wave (km/s) = 7.25079 6.42617 6.85090
#
# Compressibility (1/GPa) = 0.01749232
#
# Stress axis : x y z
#
# Youngs Moduli (GPa) = 44.18205 39.18135 39.88460
#
# Poissons Ratio (x) = 0.36676 0.31015
# Poissons Ratio (y) = 0.41357 0.42801
# Poissons Ratio (z) = 0.34357 0.42047
#
# Static dielectric constant tensor:
#      x y z
#    x 1.585780 0.000000 -0.008530 
#    y 0.000000 1.568680 0.000000 
#    z -0.008530 0.000000 1.592980 
# 
# From -- ./inp_files/31202.got.cif
#   From: 2010.05.17/outbox.cif.g08.bks.cpg/sg10_16_cif.got.tgz:31202.got - 2010.06.03 11:33:40.
