data_PCOD9148950
_publ_section_title
;
Structure prediction by ZEFSAII (Michael W. Deem and Ramdas Pophale) SiO2 
 PCOD9148950
Probable space group: P 2/M
;
_chemical_formula_sum "Si O2"
_cell_formula_units_Z 28
_cell_length_a 19.590258
_cell_length_b 8.678447
_cell_length_c 10.976521
_cell_angle_alpha 90.000000
_cell_angle_beta 56.412388
_cell_angle_gamma 90.000000
_cell_volume 1554.580419
_symmetry_space_group_name_H-M "P 2/M"
_symmetry_group_IT_number 10
_symmetry_cell_setting 'monoclinic'
loop_
_space_group_symop_operation_xyz
x,y,z
-x,y,-z
-x,-y,-z
x,-y,z
loop_
_atom_site_type_symbol
_atom_site_label
_atom_site_fract_x
_atom_site_fract_y
_atom_site_fract_z
Si Si1 0.252967 0.184639 0.879721
Si Si2 0.875393 0.819986 0.577402
Si Si3 0.439191 0.183937 0.947157
Si Si4 0.017676 0.677696 0.316535
Si Si5 0.924547 0.180259 0.982481
Si Si6 0.262670 0.680990 0.137620
Si Si7 0.560932 0.186921 0.332776
O O1 0.343502 0.238909 0.747750
O O2 0.259953 0.000000 0.882187
O O3 0.169563 0.217035 0.886616
O O4 0.238307 0.249789 0.029949
O O5 0.929938 0.782417 0.643133
O O6 0.787153 0.759502 0.704009
O O7 0.923395 0.728474 0.425158
O O8 0.874827 0.000000 0.551485
O O9 0.465401 0.223411 0.781486
O O10 0.419820 0.000000 0.963943
O O11 0.500000 0.209236 0.000000
O O12 0.357793 0.279519 0.053988
O O13 0.028012 0.500000 0.340072
O O14 0.051390 0.710114 0.151202
O O15 0.923060 0.000000 0.943466
O O16 0.000000 0.192881 0.000000
O O17 0.246256 0.500000 0.154031
O O18 0.500000 0.243009 0.500000
O O19 0.560932 0.000000 0.340957
#
# Coordination Sequence:
#
# PCOD9148950 Si02
#       7
#     4   4   4   4   4   4   4
#     4   9  17  31  51  72  98 133 175 221 263 312
#     4  11  20  33  53  75 101 133 170 216 263 311
#     4   9  18  33  52  76 106 140 176 216 264 322
#     4  11  21  33  50  75 104 134 170 214 267 315
#     4  10  20  34  51  72 102 142 185 223 262 315
#     4  11  20  31  51  78 105 134 172 218 264 320
#     4   8  14  27  50  77 100 127 169 217 262 309
#
# _framework density 18.011291
#
# number of rings (size 3 to 8) (size 9 to 14) (size 15 to 20)
#    0.000    2.143    1.429    5.571    0.000    0.571 
#    0.000    1.429    0.000   12.000    0.000    0.000 
#    0.000    0.000    0.000    0.000    0.000    0.000 
#
# Total GULP energy -155935.857848 kJ/mol
# GULP energy per Si atom -5569.137780 kJ/mol
# Density = 1.797030 g / cm^3
# Si number density = 18.011291 Si / 1000 Ang^3
#
#
#
# Elastic Constant Matrix: (Units=GPa)
#
#
# Indices 1 2 3 4 5 6 
#
# 1 81.4622 18.2407 40.8414 0.0000 -12.6712 0.0000
# 2 18.2407 19.5292 17.8481 0.0000 -3.7299 0.0000
# 3 40.8414 17.8481 115.7754 0.0000 -22.4989 0.0000
# 4 0.0000 0.0000 0.0000 15.0158 0.0000 10.6829
# 5 -12.6712 -3.7299 -22.4989 0.0000 16.7447 0.0000
# 6 0.0000 0.0000 0.0000 10.6829 0.0000 16.0902
#
#
#
# Elastic Compliance Matrix: (Units=1/GPa)
#
#
# Indices 1 2 3 4 5 6 
#
# 1 0.017581 -0.012416 -0.003032 0.000000 0.006465 0.000000
# 2 -0.012416 0.068390 -0.006806 0.000000 -0.003306 0.000000
# 3 -0.003032 -0.006806 0.013555 0.000000 0.014403 0.000000
# 4 0.000000 0.000000 0.000000 0.126215 0.000000 -0.083800
# 5 0.006465 -0.003306 0.014403 0.000000 0.083229 0.000000
# 6 0.000000 0.000000 0.000000 -0.083800 0.000000 0.117788
#
#
# Mechanical properties :
#
#
# Convention : Reuss Voigt Hill
#
# Bulk Modulus (GPa) = 18.17509 41.18080 29.67794
# Shear Modulus (GPa) = 10.21231 18.89257 14.55244
#
# Velocity S-wave (km/s) = 2.38375 3.24223 2.84555
# Velocity P-wave (km/s) = 4.20585 6.07697 5.22584
#
# Compressibility (1/GPa) = 0.05502037
#
# Stress axis : x y z
#
# Youngs Moduli (GPa) = 56.87860 14.62192 73.77343
#
# Poissons Ratio (x) = 0.18154 0.22365
# Poissons Ratio (y) = 0.70620 0.50208
# Poissons Ratio (z) = 0.17243 0.09951
#
# Static dielectric constant tensor:
#      x y z
#    x 1.650160 0.000000 -0.034650 
#    y 0.000000 1.599110 0.000000 
#    z -0.034650 0.000000 1.648740 
# 
# From -- ./inp_files/54668.got.cif
#   From: 2010.05.17/outbox.cif.g08.bks.cpg/sg10_28_cif.got.tgz:54668.got - 2010.06.03 11:33:40.
