data_PCOD9148195
_publ_section_title
;
Structure prediction by ZEFSAII (Michael W. Deem and Ramdas Pophale) SiO2 
 PCOD9148195
Probable space group: P 2/M
;
_chemical_formula_sum "Si O2"
_cell_formula_units_Z 32
_cell_length_a 12.572261
_cell_length_b 15.967918
_cell_length_c 9.889837
_cell_angle_alpha 90.000000
_cell_angle_beta 46.864279
_cell_angle_gamma 90.000000
_cell_volume 1448.827484
_symmetry_space_group_name_H-M "P 2/M"
_symmetry_group_IT_number 10
_symmetry_cell_setting 'monoclinic'
loop_
_space_group_symop_operation_xyz
x,y,z
-x,y,-z
-x,-y,-z
x,-y,z
loop_
_atom_site_type_symbol
_atom_site_label
_atom_site_fract_x
_atom_site_fract_y
_atom_site_fract_z
Si Si1 0.852672 0.594389 0.051380
Si Si2 0.604768 0.728635 0.247364
Si Si3 0.272640 0.093859 0.798527
Si Si4 0.302928 0.720524 0.423587
Si Si5 0.135615 0.906413 0.212737
Si Si6 0.193666 0.095310 0.564515
Si Si7 0.992780 0.358790 0.657747
Si Si8 0.722466 0.751749 0.847994
O O1 0.810739 0.500000 0.128930
O O2 0.904010 0.592811 0.849858
O O3 0.727407 0.662345 0.184649
O O4 0.000000 0.619456 0.000000
O O5 0.629358 0.822153 0.283820
O O6 0.438783 0.697107 0.399597
O O7 0.634821 0.736914 0.059857
O O8 0.181615 0.095847 0.739132
O O9 0.343385 0.000000 0.741905
O O10 0.177220 0.101105 0.017400
O O11 0.283775 0.820645 0.457322
O O12 0.150626 0.671137 0.574176
O O13 0.334169 0.708179 0.236706
O O14 0.249830 0.849638 0.192371
O O15 0.963199 0.891396 0.368338
O O16 0.159606 0.000000 0.236407
O O17 0.245857 0.000000 0.486745
O O18 0.000000 0.397219 0.500000
O O19 0.888448 0.278896 0.726880
#
# Coordination Sequence:
#
# PCOD9148195 Si02
#       8
#     4   4   4   4   4   4   4   4
#     4  10  23  44  68  93 118 150 196 246 297 360
#     4  10  22  37  61  84 114 159 193 239 296 355
#     4   9  19  34  51  77 114 155 201 241 284 348
#     4  11  21  34  53  85 118 151 196 240 294 348
#     4   9  16  29  50  75 104 150 205 252 288 332
#     4  10  20  31  48  78 118 156 195 247 297 340
#     4   9  19  37  62  88 120 154 193 239 293 353
#     4   9  18  35  54  77 111 153 200 243 280 344
#
# _framework density 22.086828000000001
#
# number of rings (size 3 to 8) (size 9 to 14) (size 15 to 20)
#    0.000    2.375    1.250    0.750    1.750    3.250 
#    0.000    3.125    0.000   15.000    0.000    0.000 
#    0.000    0.000    0.000    0.000    0.000    0.000 
#
# Total GULP energy -178445.619097 kJ/mol
# GULP energy per Si atom -5576.425597 kJ/mol
# Density = 2.203656 g / cm^3
# Si number density = 22.086828 Si / 1000 Ang^3
#
#
#
# Elastic Constant Matrix: (Units=GPa)
#
#
# Indices 1 2 3 4 5 6 
#
# 1 99.4909 42.2526 23.6914 0.0000 -24.7733 0.0000
# 2 42.2526 88.6939 22.1085 0.0000 -29.6588 0.0000
# 3 23.6914 22.1085 73.6423 0.0000 -0.2706 0.0000
# 4 0.0000 0.0000 0.0000 -0.4449 0.0000 12.7484
# 5 -24.7733 -29.6588 -0.2706 0.0000 44.3223 0.0000
# 6 0.0000 0.0000 0.0000 12.7484 0.0000 2.8617
#
#
#
# Elastic Compliance Matrix: (Units=1/GPa)
#
#
# Indices 1 2 3 4 5 6 
#
# 1 0.013788 -0.004130 -0.003178 0.000000 0.004924 0.000000
# 2 -0.004130 0.017284 -0.003826 0.000000 0.009234 0.000000
# 3 -0.003178 -0.003826 0.015735 0.000000 -0.004240 0.000000
# 4 0.000000 0.000000 0.000000 -0.017471 0.000000 0.077832
# 5 0.004924 0.009234 -0.004240 0.000000 0.031467 0.000000
# 6 0.000000 0.000000 0.000000 0.077832 0.000000 0.002716
#
#
# Mechanical properties :
#
#
# Convention : Reuss Voigt Hill
#
# Bulk Modulus (GPa) = 40.75248 48.65911 44.70580
# Shear Modulus (GPa) = 53.21119 20.93277 37.07198
#
# Velocity S-wave (km/s) = 4.91367 3.08189 4.10135
# Velocity P-wave (km/s) = 7.11922 5.89430 6.53552
#
# Compressibility (1/GPa) = 0.02453838
#
# Stress axis : x y z
#
# Youngs Moduli (GPa) = 72.52839 57.85808 63.55425
#
# Poissons Ratio (x) = 0.23894 0.20196
# Poissons Ratio (y) = 0.29953 0.24318
# Poissons Ratio (z) = 0.23048 0.22138
#
# Static dielectric constant tensor:
#      x y z
#    x 1.829170 0.000000 0.036100 
#    y 0.000000 1.827860 0.000000 
#    z 0.036100 0.000000 1.852880 
# 
# From -- ./inp_files/47823.got.cif
#   From: 2010.05.17/outbox.cif.g08.bks.cpg/sg10_24_cif.got.tgz:47823.got - 2010.06.03 11:33:40.
