data_PCOD9148235
_publ_section_title
;
Structure prediction by ZEFSAII (Michael W. Deem and Ramdas Pophale) SiO2 
 PCOD9148235
Probable space group: P 2/M
;
_chemical_formula_sum "Si O2"
_cell_formula_units_Z 28
_cell_length_a 14.318406
_cell_length_b 8.891993
_cell_length_c 14.318405
_cell_angle_alpha 90.000000
_cell_angle_beta 119.250940
_cell_angle_gamma 90.000000
_cell_volume 1590.552048
_symmetry_space_group_name_H-M "P 2/M"
_symmetry_group_IT_number 10
_symmetry_cell_setting 'monoclinic'
loop_
_space_group_symop_operation_xyz
x,y,z
-x,y,-z
-x,-y,-z
x,-y,z
loop_
_atom_site_type_symbol
_atom_site_label
_atom_site_fract_x
_atom_site_fract_y
_atom_site_fract_z
Si Si1 0.365016 0.182667 0.841661
Si Si2 0.611758 0.181285 0.937358
Si Si3 0.158339 0.182667 0.634984
Si Si4 0.565503 0.830397 0.434497
Si Si5 0.062642 0.181285 0.388241
Si Si6 0.631411 0.679442 0.757034
Si Si7 0.757034 0.679442 0.631411
O O1 0.486205 0.227854 0.877672
O O2 0.272801 0.237250 0.727199
O O3 0.365203 0.000000 0.838694
O O4 0.342634 0.223397 0.938750
O O5 0.664261 0.255146 0.872841
O O6 0.615857 0.000000 0.931133
O O7 0.122327 0.227854 0.513795
O O8 0.061250 0.223397 0.657366
O O9 0.161306 0.000000 0.634797
O O10 0.500000 0.838764 0.500000
O O11 0.485147 0.746496 0.326186
O O12 0.673814 0.746496 0.514853
O O13 0.587972 0.000000 0.412028
O O14 0.127159 0.255146 0.335739
O O15 0.068867 0.000000 0.384143
O O16 0.624873 0.500000 0.756455
O O17 0.710608 0.722249 0.710608
O O18 0.756455 0.500000 0.624873
#
# Coordination Sequence:
#
# PCOD9148235 Si02
#       7
#     4   4   4   4   4   4   4
#     4   8  15  29  48  71  98 123 153 199 246 281
#     4   9  17  29  49  74  94 122 163 196 231 286
#     4   8  15  29  48  71  98 123 153 199 246 281
#     4   9  17  29  45  65  89 121 161 195 224 271
#     4   9  17  29  49  74  94 122 163 196 231 286
#     4  10  20  32  45  65  98 132 157 191 240 285
#     4  10  20  32  45  65  98 132 157 191 240 285
#
# _framework density 17.603950999999999
#
# number of rings (size 3 to 8) (size 9 to 14) (size 15 to 20)
#    0.000    3.000    0.000    3.000    2.000    3.429 
#    0.000    2.857    0.000    3.429    0.000    6.000 
#    0.000    0.000    0.000    0.000    0.000    0.000 
#
# Total GULP energy -156047.198795 kJ/mol
# GULP energy per Si atom -5573.114243 kJ/mol
# Density = 1.756388 g / cm^3
# Si number density = 17.603951 Si / 1000 Ang^3
#
#
#
# Elastic Constant Matrix: (Units=GPa)
#
#
# Indices 1 2 3 4 5 6 
#
# 1 59.5210 14.3390 3.7490 0.0000 -9.2317 0.0000
# 2 14.3390 26.0037 4.7144 0.0000 -8.3352 0.0000
# 3 3.7490 4.7144 44.1231 0.0000 -4.1033 0.0000
# 4 0.0000 0.0000 0.0000 13.3979 0.0000 -1.4913
# 5 -9.2317 -8.3352 -4.1033 0.0000 26.9974 0.0000
# 6 0.0000 0.0000 0.0000 -1.4913 0.0000 15.1199
#
#
#
# Elastic Compliance Matrix: (Units=1/GPa)
#
#
# Indices 1 2 3 4 5 6 
#
# 1 0.019716 -0.009623 -0.000301 0.000000 0.003725 0.000000
# 2 -0.009623 0.047880 -0.003276 0.000000 0.010994 0.000000
# 3 -0.000301 -0.003276 0.023265 0.000000 0.002422 0.000000
# 4 0.000000 0.000000 0.000000 0.075467 0.000000 0.007443
# 5 0.003725 0.010994 0.002422 0.000000 0.042077 0.000000
# 6 0.000000 0.000000 0.000000 0.007443 0.000000 0.066872
#
#
# Mechanical properties :
#
#
# Convention : Reuss Voigt Hill
#
# Bulk Modulus (GPa) = 15.51308 19.47252 17.49280
# Shear Modulus (GPa) = 15.47207 18.22607 16.84907
#
# Velocity S-wave (km/s) = 2.96784 3.22116 3.09709
# Velocity P-wave (km/s) = 4.53602 4.99199 4.76946
#
# Compressibility (1/GPa) = 0.06446172
#
# Stress axis : x y z
#
# Youngs Moduli (GPa) = 50.72081 20.88537 42.98374
#
# Poissons Ratio (x) = 0.20098 0.01292
# Poissons Ratio (y) = 0.48810 0.14080
# Poissons Ratio (z) = 0.01525 0.06842
#
# Static dielectric constant tensor:
#      x y z
#    x 1.620680 0.000000 -0.014350 
#    y 0.000000 1.588930 0.000000 
#    z -0.014350 0.000000 1.604110 
# 
# From -- ./inp_files/66239.got.cif
#   From: 2010.05.17/outbox.cif.g08.bks.cpg/sg10_34_cif.got.tgz:66239.got - 2010.06.03 11:33:40.
