data_PCOD9148456
_publ_section_title
;
Structure prediction by ZEFSAII (Michael W. Deem and Ramdas Pophale) SiO2 
 PCOD9148456
Probable space group: P 2/M
;
_chemical_formula_sum "Si O2"
_cell_formula_units_Z 30
_cell_length_a 17.824005
_cell_length_b 14.267633
_cell_length_c 5.569824
_cell_angle_alpha 90.000000
_cell_angle_beta 107.389071
_cell_angle_gamma 90.000000
_cell_volume 1351.706543
_symmetry_space_group_name_H-M "P 2/M"
_symmetry_group_IT_number 10
_symmetry_cell_setting 'monoclinic'
loop_
_space_group_symop_operation_xyz
x,y,z
-x,y,-z
-x,-y,-z
x,-y,z
loop_
_atom_site_type_symbol
_atom_site_label
_atom_site_fract_x
_atom_site_fract_y
_atom_site_fract_z
Si Si1 0.205307 0.760992 0.079209
Si Si2 0.908003 0.272022 0.402896
Si Si3 0.619807 0.793823 0.871764
Si Si4 0.189931 0.893598 0.457104
Si Si5 0.547024 0.500000 0.300365
Si Si6 0.619112 0.108966 0.365686
Si Si7 0.353463 0.396752 0.916820
Si Si8 0.791510 0.608664 0.534055
O O1 0.284552 0.796044 0.027743
O O2 0.172034 0.853549 0.176406
O O3 0.237015 0.683725 0.299100
O O4 0.130712 0.710376 0.890961
O O5 0.857590 0.179490 0.425973
O O6 0.877745 0.355933 0.542537
O O7 0.000000 0.258260 0.500000
O O8 0.596736 0.837503 0.592434
O O9 0.591652 0.846222 0.086802
O O10 0.603956 0.683342 0.894497
O O11 0.285073 0.888259 0.557158
O O12 0.166805 0.000000 0.477517
O O13 0.500000 0.500000 0.500000
O O14 0.603559 0.411562 0.301021
O O15 0.500000 0.500000 0.000000
O O16 0.595537 0.000000 0.359941
O O17 0.352961 0.500000 0.034491
O O18 0.264352 0.377215 0.752747
O O19 0.787329 0.500000 0.598928
#
# Coordination Sequence:
#
# PCOD9148456 Si02
#       8
#     4   4   4   4   2   4   4   4
#     4  10  20  34  54  76 106 143 201 259 303 364
#     4  11  22  37  53  74 109 145 195 267 317 359
#     4  11  18  35  57  85 119 158 205 248 302 365
#     4   9  19  34  50  72 102 146 194 245 318 383
#     4  10  24  42  62  98 143 167 193 239 294 360
#     4  10  20  32  54  84 120 156 202 267 314 350
#     4   9  20  38  62  91 123 167 198 243 289 367
#     4  10  21  39  56  82 108 147 207 245 297 364
#
# _framework density 22.194167
#
# number of rings (size 3 to 8) (size 9 to 14) (size 15 to 20)
#    0.400    1.600    2.667    2.000    0.000    6.933 
#    0.000    1.333    0.000    0.000    0.000    0.000 
#    0.000   10.667    0.000    0.000    0.000    0.000 
#
# Total GULP energy -167136.103732 kJ/mol
# GULP energy per Si atom -5571.203458 kJ/mol
# Density = 2.214365 g / cm^3
# Si number density = 22.194167 Si / 1000 Ang^3
#
#
#
# Elastic Constant Matrix: (Units=GPa)
#
#
# Indices 1 2 3 4 5 6 
#
# 1 78.5780 10.8151 16.6319 0.0000 8.5492 0.0000
# 2 10.8151 151.5471 39.5886 0.0000 -22.2853 0.0000
# 3 16.6319 39.5886 66.9839 0.0000 -21.2561 0.0000
# 4 0.0000 0.0000 0.0000 -3.7935 0.0000 -27.8647
# 5 8.5492 -22.2853 -21.2561 0.0000 28.6213 0.0000
# 6 0.0000 0.0000 0.0000 -27.8647 0.0000 -1.2442
#
#
#
# Elastic Compliance Matrix: (Units=1/GPa)
#
#
# Indices 1 2 3 4 5 6 
#
# 1 0.015314 -0.000882 -0.006477 0.000000 -0.010072 0.000000
# 2 -0.000882 0.008126 -0.003261 0.000000 0.004169 0.000000
# 3 -0.006477 -0.003261 0.023907 0.000000 0.017151 0.000000
# 4 0.000000 0.000000 0.000000 0.001612 0.000000 -0.036107
# 5 -0.010072 0.004169 0.017151 0.000000 0.053931 0.000000
# 6 0.000000 0.000000 0.000000 -0.036107 0.000000 0.004916
#
#
# Mechanical properties :
#
#
# Convention : Reuss Voigt Hill
#
# Bulk Modulus (GPa) = 38.30310 47.90893 43.10602
# Shear Modulus (GPa) = 36.29789 20.05496 28.17643
#
# Velocity S-wave (km/s) = 4.04848 3.00928 3.56693
# Velocity P-wave (km/s) = 6.25694 5.80581 6.03559
#
# Compressibility (1/GPa) = 0.02610754
#
# Stress axis : x y z
#
# Youngs Moduli (GPa) = 65.29825 123.05464 41.82883
#
# Poissons Ratio (x) = 0.10852 0.27094
# Poissons Ratio (y) = 0.05759 0.13640
# Poissons Ratio (z) = 0.42296 0.40127
#
# Static dielectric constant tensor:
#      x y z
#    x 1.890800 0.000000 -0.058450 
#    y 0.000000 1.854980 0.000000 
#    z -0.058450 0.000000 1.924880 
# 
# From -- ./inp_files/11443.got.cif
#   From: 2010.05.17/outbox.cif.g08.bks.cpg/sg10_6_cif.got.tgz:11443.got - 2010.06.03 11:33:40.
