data_PCOD9148701
_publ_section_title
;
Structure prediction by ZEFSAII (Michael W. Deem and Ramdas Pophale) SiO2 
 PCOD9148701
Probable space group: P 2/M
;
_chemical_formula_sum "Si O2"
_cell_formula_units_Z 28
_cell_length_a 8.912789
_cell_length_b 13.656451
_cell_length_c 17.875311
_cell_angle_alpha 90.000000
_cell_angle_beta 39.653744
_cell_angle_gamma 90.000000
_cell_volume 1388.434657
_symmetry_space_group_name_H-M "P 2/M"
_symmetry_group_IT_number 10
_symmetry_cell_setting 'monoclinic'
loop_
_space_group_symop_operation_xyz
x,y,z
-x,y,-z
-x,-y,-z
x,-y,z
loop_
_atom_site_type_symbol
_atom_site_label
_atom_site_fract_x
_atom_site_fract_y
_atom_site_fract_z
Si Si1 0.876419 0.609643 0.692540
Si Si2 0.675292 0.612382 0.072619
Si Si3 0.665465 0.114020 0.841749
Si Si4 0.818306 0.793657 0.935997
Si Si5 0.180800 0.194821 0.369903
Si Si6 0.694048 0.385738 0.363205
Si Si7 0.305815 0.258532 0.786337
O O1 0.916236 0.500000 0.646020
O O2 0.607996 0.614201 0.823562
O O3 0.902291 0.696157 0.623054
O O4 0.057212 0.623391 0.690528
O O5 0.753976 0.500000 0.041500
O O6 0.730296 0.667953 0.129474
O O7 0.777340 0.678497 0.967227
O O8 0.782720 0.173953 0.864505
O O9 0.800267 0.134101 0.713557
O O10 0.663882 0.000000 0.861213
O O11 0.396709 0.152784 0.938879
O O12 0.079532 0.811597 0.865907
O O13 0.445932 0.205403 0.298197
O O14 0.000000 0.155577 0.500000
O O15 0.500000 0.358695 0.500000
O O16 0.655977 0.500000 0.358127
O O17 0.680495 0.320571 0.295069
#
# Coordination Sequence:
#
# PCOD9148701 Si02
#       7
#     4   4   4   4   4   4   4
#     4   9  18  35  57  86 126 172 217 249 294 369
#     4  10  21  37  59  92 135 174 203 244 305 371
#     4  11  25  47  70  91 119 163 211 266 331 382
#     4  11  22  41  66  92 124 165 211 255 309 376
#     4  11  23  42  66  94 126 164 205 257 319 379
#     4  10  20  33  51  81 123 176 226 258 290 348
#     4  11  22  35  61  92 133 162 207 257 311 365
#
# _framework density 20.166595999999998
#
# number of rings (size 3 to 8) (size 9 to 14) (size 15 to 20)
#    0.000    1.571    2.857    3.429    2.000    2.857 
#    0.000    4.286    0.000    0.857    0.000    0.000 
#    0.000    0.000    0.000    0.000    0.000    0.000 
#
# Total GULP energy -156528.880554 kJ/mol
# GULP energy per Si atom -5590.317163 kJ/mol
# Density = 2.012070 g / cm^3
# Si number density = 20.166596 Si / 1000 Ang^3
#
#
#
# Elastic Constant Matrix: (Units=GPa)
#
#
# Indices 1 2 3 4 5 6 
#
# 1 118.0202 43.8986 54.5112 0.0000 -3.4895 0.0000
# 2 43.8986 69.7218 40.4595 0.0000 2.1305 0.0000
# 3 54.5112 40.4595 116.5807 0.0000 17.5686 0.0000
# 4 0.0000 0.0000 0.0000 1.0411 0.0000 -2.9120
# 5 -3.4895 2.1305 17.5686 0.0000 23.7814 0.0000
# 6 0.0000 0.0000 0.0000 -2.9120 0.0000 2.2904
#
#
#
# Elastic Compliance Matrix: (Units=1/GPa)
#
#
# Indices 1 2 3 4 5 6 
#
# 1 0.013055 -0.005414 -0.005162 0.000000 0.006214 0.000000
# 2 -0.005414 0.020449 -0.004692 0.000000 0.000840 0.000000
# 3 -0.005162 -0.004692 0.014258 0.000000 -0.010870 0.000000
# 4 0.000000 0.000000 0.000000 -0.375790 0.000000 -0.477764
# 5 0.006214 0.000840 -0.010870 0.000000 0.050916 0.000000
# 6 0.000000 0.000000 0.000000 -0.477764 0.000000 -0.170809
#
#
# Mechanical properties :
#
#
# Convention : Reuss Voigt Hill
#
# Bulk Modulus (GPa) = 58.05183 64.67349 61.36266
# Shear Modulus (GPa) = -12.14638 16.45281 2.15322
#
# Velocity S-wave (km/s) = -2.45685 2.85940 1.03442
# Velocity P-wave (km/s) = 4.56076 6.56055 5.64984
#
# Compressibility (1/GPa) = 0.01722598
#
# Stress axis : x y z
#
# Youngs Moduli (GPa) = 76.60056 48.90326 70.13836
#
# Poissons Ratio (x) = 0.26477 0.36202
# Poissons Ratio (y) = 0.41473 0.32906
# Poissons Ratio (z) = 0.39538 0.22944
#
# Static dielectric constant tensor:
#      x y z
#    x 1.712680 0.000000 -0.017640 
#    y 0.000000 1.705630 0.000000 
#    z -0.017640 0.000000 1.734400 
# 
# From -- ./inp_files/75291.got.cif
#   From: 2010.05.17/outbox.cif.g08.bks.cpg/sg10_38_cif.got.tgz:75291.got - 2010.06.03 11:33:40.
