data_PCOD9148744
_publ_section_title
;
Structure prediction by ZEFSAII (Michael W. Deem and Ramdas Pophale) SiO2 
 PCOD9148744
Probable space group: P 2/M
;
_chemical_formula_sum "Si O2"
_cell_formula_units_Z 32
_cell_length_a 30.355248
_cell_length_b 7.405215
_cell_length_c 23.743910
_cell_angle_alpha 90.000000
_cell_angle_beta 165.012955
_cell_angle_gamma 90.000000
_cell_volume 1380.235784
_symmetry_space_group_name_H-M "P 2/M"
_symmetry_group_IT_number 10
_symmetry_cell_setting 'monoclinic'
loop_
_space_group_symop_operation_xyz
x,y,z
-x,y,-z
-x,-y,-z
x,-y,z
loop_
_atom_site_type_symbol
_atom_site_label
_atom_site_fract_x
_atom_site_fract_y
_atom_site_fract_z
Si Si1 0.753348 0.719324 0.657118
Si Si2 0.377568 0.720807 0.156148
Si Si3 0.824948 0.281684 0.312590
Si Si4 0.425647 0.282906 0.093152
Si Si5 0.884207 0.720854 0.940085
Si Si6 0.327114 0.791149 0.760629
Si Si7 0.167152 0.705265 0.002189
Si Si8 0.793730 0.212152 0.508390
O O1 0.754428 0.500000 0.657342
O O2 0.570648 0.775706 0.409018
O O3 0.784614 0.773360 0.760591
O O4 0.919000 0.777254 0.826291
O O5 0.369839 0.500000 0.145457
O O6 0.341500 0.779643 0.047623
O O7 0.255057 0.784143 0.055073
O O8 0.822021 0.500000 0.310893
O O9 0.804788 0.217190 0.351233
O O10 0.000000 0.225732 0.500000
O O11 0.670606 0.218592 0.081807
O O12 0.414590 0.500000 0.078452
O O13 0.624585 0.235874 0.336502
O O14 0.884360 0.500000 0.941972
O O15 0.809223 0.786533 0.906586
O O16 0.256450 0.713594 0.615426
O O17 0.366888 0.000000 0.796402
O O18 0.500000 0.708661 0.000000
O O19 0.233781 0.500000 0.088022
O O20 0.964299 0.700882 0.742305
O O21 0.832414 0.000000 0.551605
#
# Coordination Sequence:
#
# PCOD9148744 Si02
#       8
#     4   4   4   4   4   4   4   4
#     4   8  13  24  43  71 108 141 170 211 254 301
#     4   9  18  30  48  76 110 142 171 211 262 311
#     4  10  22  36  55  83 111 138 170 212 261 315
#     4  10  20  36  55  77 105 138 175 214 260 312
#     4   8  14  25  45  74 105 138 175 210 253 305
#     4  10  21  39  58  77 103 135 176 220 261 310
#     4  10  20  33  52  79 108 140 174 213 263 314
#     4  11  23  38  56  77 102 136 178 222 263 307
#
# _framework density 23.184445
#
# number of rings (size 3 to 8) (size 9 to 14) (size 15 to 20)
#    0.000    2.500    1.250    1.875    1.750    4.000 
#    0.000    3.125    0.000    0.000    0.000    8.750 
#    0.000    0.000    0.000    0.000    0.000    0.000 
#
# Total GULP energy -178786.336716 kJ/mol
# GULP energy per Si atom -5587.073022 kJ/mol
# Density = 2.313168 g / cm^3
# Si number density = 23.184445 Si / 1000 Ang^3
#
#
#
# Elastic Constant Matrix: (Units=GPa)
#
#
# Indices 1 2 3 4 5 6 
#
# 1 172.9845 -1.8689 4.4623 0.0000 -2.0361 0.0000
# 2 -1.8689 81.4450 -6.1802 0.0000 -3.6197 0.0000
# 3 4.4623 -6.1802 29.3067 0.0000 -0.1861 0.0000
# 4 0.0000 0.0000 0.0000 -23.1229 0.0000 10.8848
# 5 -2.0361 -3.6197 -0.1861 0.0000 29.2253 0.0000
# 6 0.0000 0.0000 0.0000 10.8848 0.0000 -8.4880
#
#
#
# Elastic Compliance Matrix: (Units=1/GPa)
#
#
# Indices 1 2 3 4 5 6 
#
# 1 0.005809 0.000086 -0.000864 0.000000 0.000410 0.000000
# 2 0.000086 0.012551 0.002644 0.000000 0.001577 0.000000
# 3 -0.000864 0.002644 0.034814 0.000000 0.000489 0.000000
# 4 0.000000 0.000000 0.000000 -0.109117 0.000000 -0.139929
# 5 0.000410 0.001577 0.000489 0.000000 0.034444 0.000000
# 6 0.000000 0.000000 0.000000 -0.139929 0.000000 -0.297257
#
#
# Mechanical properties :
#
#
# Convention : Reuss Voigt Hill
#
# Bulk Modulus (GPa) = 17.57296 30.72917 24.15106
# Shear Modulus (GPa) = -16.47343 18.67778 1.10217
#
# Velocity S-wave (km/s) = -2.66848 2.84142 0.69024
# Velocity P-wave (km/s) = 1.37780 4.90386 3.32788
#
# Compressibility (1/GPa) = 0.05690563
#
# Stress axis : x y z
#
# Youngs Moduli (GPa) = 172.14974 79.67557 28.72404
#
# Poissons Ratio (x) = -0.00685 0.02481
# Poissons Ratio (y) = -0.01480 -0.07594
# Poissons Ratio (z) = 0.14869 -0.21063
#
# Static dielectric constant tensor:
#      x y z
#    x 1.866090 0.000000 -0.013760 
#    y 0.000000 1.932340 0.000000 
#    z -0.013760 0.000000 1.832920 
# 
# From -- ./inp_files/86989.got.cif
#   From: 2010.05.17/outbox.cif.g08.bks.cpg/sg10_44_cif.got.tgz:86989.got - 2010.06.03 11:33:40.
