data_PCOD9148584
_publ_section_title
;
Structure prediction by ZEFSAII (Michael W. Deem and Ramdas Pophale) SiO2 
 PCOD9148584
Probable space group: P 2/M
;
_chemical_formula_sum "Si O2"
_cell_formula_units_Z 28
_cell_length_a 19.672114
_cell_length_b 7.588217
_cell_length_c 11.109155
_cell_angle_alpha 90.000000
_cell_angle_beta 48.333422
_cell_angle_gamma 90.000000
_cell_volume 1238.818198
_symmetry_space_group_name_H-M "P 2/M"
_symmetry_group_IT_number 10
_symmetry_cell_setting 'monoclinic'
loop_
_space_group_symop_operation_xyz
x,y,z
-x,y,-z
-x,-y,-z
x,-y,z
loop_
_atom_site_type_symbol
_atom_site_label
_atom_site_fract_x
_atom_site_fract_y
_atom_site_fract_z
Si Si1 0.811496 0.213714 0.496142
Si Si2 0.183468 0.210888 0.011476
Si Si3 0.359219 0.289264 0.682998
Si Si4 0.509178 0.283543 0.687191
Si Si5 0.009446 0.215691 0.850670
Si Si6 0.250702 0.792309 0.183827
Si Si7 0.382925 0.702186 0.224203
O O1 0.896154 0.275310 0.319286
O O2 0.818688 0.266331 0.628868
O O3 0.710266 0.282212 0.586458
O O4 0.807012 0.000000 0.495572
O O5 0.254156 0.242869 0.820281
O O6 0.176068 0.000000 0.029633
O O7 0.228570 0.285454 0.080539
O O8 0.081802 0.276428 0.109007
O O9 0.366334 0.500000 0.674047
O O10 0.414987 0.226082 0.736110
O O11 0.413934 0.229494 0.500990
O O12 0.508261 0.500000 0.693557
O O13 0.538905 0.218597 0.783955
O O14 0.011259 0.000000 0.844596
O O15 0.000000 0.267655 0.000000
O O16 0.347781 0.767252 0.135940
O O17 0.239682 0.000000 0.184836
O O18 0.405140 0.500000 0.178693
#
# Coordination Sequence:
#
# PCOD9148584 Si02
#       7
#     4   4   4   4   4   4   4
#     4   8  16  31  49  69  95 129 162 196 242 290
#     4  10  20  33  50  73 102 128 160 206 243 281
#     4   9  18  34  53  72  98 131 162 195 243 298
#     4   8  16  32  53  74  96 127 165 198 237 295
#     4   9  18  31  49  74  99 127 164 200 238 291
#     4   8  17  32  48  70  98 131 166 196 240 290
#     4   9  16  29  52  75  94 121 163 208 238 276
#
# _framework density 22.602184999999999
#
# number of rings (size 3 to 8) (size 9 to 14) (size 15 to 20)
#    0.857    2.429    0.000    0.857    2.000    1.143 
#    0.000    7.857    0.000    6.000    0.000    0.000 
#    0.000    0.000    0.000    0.000    0.000    0.000 
#
# Total GULP energy -155937.504857 kJ/mol
# GULP energy per Si atom -5569.196602 kJ/mol
# Density = 2.255074 g / cm^3
# Si number density = 22.602185 Si / 1000 Ang^3
#
#
#
# Elastic Constant Matrix: (Units=GPa)
#
#
# Indices 1 2 3 4 5 6 
#
# 1 90.5591 -6.4794 36.5277 0.0000 -0.1689 0.0000
# 2 -6.4794 41.7527 3.2690 0.0000 2.4458 0.0000
# 3 36.5277 3.2690 120.1082 0.0000 -26.5506 0.0000
# 4 0.0000 0.0000 0.0000 -8.0008 0.0000 14.3075
# 5 -0.1689 2.4458 -26.5506 0.0000 27.7808 0.0000
# 6 0.0000 0.0000 0.0000 14.3075 0.0000 -2.0575
#
#
#
# Elastic Compliance Matrix: (Units=1/GPa)
#
#
# Indices 1 2 3 4 5 6 
#
# 1 0.013370 0.002796 -0.005298 0.000000 -0.005228 0.000000
# 2 0.002796 0.024853 -0.002544 0.000000 -0.004602 0.000000
# 3 -0.005298 -0.002544 0.012740 0.000000 0.012368 0.000000
# 4 0.000000 0.000000 0.000000 0.010930 0.000000 0.076006
# 5 -0.005228 -0.004602 0.012368 0.000000 0.048190 0.000000
# 6 0.000000 0.000000 0.000000 0.076006 0.000000 0.042502
#
#
# Mechanical properties :
#
#
# Convention : Reuss Voigt Hill
#
# Bulk Modulus (GPa) = 24.46724 35.45050 29.95887
# Shear Modulus (GPa) = 28.36055 18.15136 23.25595
#
# Velocity S-wave (km/s) = 3.54612 2.83694 3.21117
# Velocity P-wave (km/s) = 5.25502 5.14291 5.19927
#
# Compressibility (1/GPa) = 0.04087097
#
# Stress axis : x y z
#
# Youngs Moduli (GPa) = 74.79594 40.23622 78.49149
#
# Poissons Ratio (x) = -0.11249 0.41583
# Poissons Ratio (y) = -0.20912 0.19969
# Poissons Ratio (z) = 0.39626 0.10236
#
# Static dielectric constant tensor:
#      x y z
#    x 1.873880 0.000000 0.022230 
#    y 0.000000 1.847510 0.000000 
#    z 0.022230 0.000000 1.842550 
# 
# From -- ./inp_files/55515.got.cif
#   From: 2010.05.17/outbox.cif.g08.bks.cpg/sg10_28_cif.got.tgz:55515.got - 2010.06.03 11:33:40.
