data_PCOD9148147
_publ_section_title
;
Structure prediction by ZEFSAII (Michael W. Deem and Ramdas Pophale) SiO2 
 PCOD9148147
Probable space group: P 2/M
;
_chemical_formula_sum "Si O2"
_cell_formula_units_Z 28
_cell_length_a 22.429560
_cell_length_b 13.833867
_cell_length_c 9.567126
_cell_angle_alpha 90.000000
_cell_angle_beta 27.523958
_cell_angle_gamma 90.000000
_cell_volume 1371.829422
_symmetry_space_group_name_H-M "P 2/M"
_symmetry_group_IT_number 10
_symmetry_cell_setting 'monoclinic'
loop_
_space_group_symop_operation_xyz
x,y,z
-x,y,-z
-x,-y,-z
x,-y,z
loop_
_atom_site_type_symbol
_atom_site_label
_atom_site_fract_x
_atom_site_fract_y
_atom_site_fract_z
Si Si1 0.788892 0.288252 0.716621
Si Si2 0.463030 0.000000 0.915076
Si Si3 0.636304 0.000000 0.295173
Si Si4 0.355627 0.209729 0.742506
Si Si5 0.208900 0.779136 0.783445
Si Si6 0.024738 0.111021 0.614373
Si Si7 0.629059 0.203618 0.823496
Si Si8 0.970144 0.389141 0.725568
O O1 0.875129 0.189849 0.534605
O O2 0.674378 0.280726 0.843773
O O3 0.891505 0.373012 0.487926
O O4 0.725590 0.285785 0.001219
O O5 0.388817 0.101633 0.056218
O O6 0.500000 0.000000 0.000000
O O7 0.589003 0.000000 0.554462
O O8 0.500000 0.000000 0.500000
O O9 0.698801 0.899590 0.122197
O O10 0.500000 0.211430 0.500000
O O11 0.334476 0.223740 0.622818
O O12 0.256468 0.795536 0.528412
O O13 0.112076 0.864708 0.028536
O O14 0.129196 0.682864 0.991767
O O15 0.000000 0.126342 0.500000
O O16 0.061725 0.000000 0.561029
O O17 0.500000 0.220768 0.000000
O O18 0.928182 0.500000 0.816826
O O19 0.000000 0.362913 0.500000
#
# Coordination Sequence:
#
# PCOD9148147 Si02
#       8
#     4   2   2   4   4   4   4   4
#     4  11  21  38  59  89 119 156 202 247 308 358
#     4  10  20  38  48  75 122 178 212 233 269 328
#     4  10  20  30  48  79 112 162 220 237 269 332
#     4  11  20  32  56  84 118 159 208 247 287 354
#     4  11  21  38  59  87 117 158 201 244 306 358
#     4  10  21  35  54  83 115 153 199 260 304 339
#     4  11  24  38  57  85 132 168 204 244 287 351
#     4  10  21  43  71  95 114 142 198 267 318 370
#
# _framework density 20.410701
#
# number of rings (size 3 to 8) (size 9 to 14) (size 15 to 20)
#    0.000    1.429    2.857    5.143    4.000    2.286 
#    0.000    2.143    0.000    5.143    0.000    0.000 
#    0.000    0.000    0.000    0.000    0.000    0.000 
#
# Total GULP energy -156223.288278 kJ/mol
# GULP energy per Si atom -5579.403153 kJ/mol
# Density = 2.036424 g / cm^3
# Si number density = 20.410701 Si / 1000 Ang^3
#
#
#
# Elastic Constant Matrix: (Units=GPa)
#
#
# Indices 1 2 3 4 5 6 
#
# 1 60.7015 -8.9008 1.2913 0.0000 -7.8960 0.0000
# 2 -8.9008 63.9195 13.0940 0.0000 -6.4304 0.0000
# 3 1.2913 13.0940 75.8958 0.0000 8.5999 0.0000
# 4 0.0000 0.0000 0.0000 17.7548 0.0000 -0.5338
# 5 -7.8960 -6.4304 8.5999 0.0000 38.5774 0.0000
# 6 0.0000 0.0000 0.0000 -0.5338 0.0000 15.0181
#
#
#
# Elastic Compliance Matrix: (Units=1/GPa)
#
#
# Indices 1 2 3 4 5 6 
#
# 1 0.017541 0.003162 -0.001345 0.000000 0.004417 0.000000
# 2 0.003162 0.017238 -0.003516 0.000000 0.004304 0.000000
# 3 -0.001345 -0.003516 0.014263 0.000000 -0.004041 0.000000
# 4 0.000000 0.000000 0.000000 0.056383 0.000000 0.002004
# 5 0.004417 0.004304 -0.004041 0.000000 0.028444 0.000000
# 6 0.000000 0.000000 0.000000 0.002004 0.000000 0.066658
#
#
# Mechanical properties :
#
#
# Convention : Reuss Voigt Hill
#
# Bulk Modulus (GPa) = 21.90727 23.49841 22.70284
# Shear Modulus (GPa) = 22.81659 27.27219 25.04439
#
# Velocity S-wave (km/s) = 3.34709 3.65933 3.50669
# Velocity P-wave (km/s) = 5.06891 5.42145 5.24814
#
# Compressibility (1/GPa) = 0.04564694
#
# Stress axis : x y z
#
# Youngs Moduli (GPa) = 57.00946 58.01052 70.11027
#
# Poissons Ratio (x) = -0.18345 0.09427
# Poissons Ratio (y) = -0.18029 0.24648
# Poissons Ratio (z) = 0.07665 0.20394
#
# Static dielectric constant tensor:
#      x y z
#    x 1.763220 0.000000 -0.022530 
#    y 0.000000 1.727650 0.000000 
#    z -0.022530 0.000000 1.730440 
# 
# From -- ./inp_files/35277.got.cif
#   From: 2010.05.17/outbox.cif.g08.bks.cpg/sg10_18_cif.got.tgz:35277.got - 2010.06.03 11:33:40.
