data_PCOD9148492
_publ_section_title
;
Structure prediction by ZEFSAII (Michael W. Deem and Ramdas Pophale) SiO2 
 PCOD9148492
Probable space group: P 2/M
;
_chemical_formula_sum "Si O2"
_cell_formula_units_Z 32
_cell_length_a 22.337163
_cell_length_b 8.932098
_cell_length_c 31.508754
_cell_angle_alpha 90.000000
_cell_angle_beta 19.372451
_cell_angle_gamma 90.000000
_cell_volume 2085.297912
_symmetry_space_group_name_H-M "P 2/M"
_symmetry_group_IT_number 10
_symmetry_cell_setting 'monoclinic'
loop_
_space_group_symop_operation_xyz
x,y,z
-x,y,-z
-x,-y,-z
x,-y,z
loop_
_atom_site_type_symbol
_atom_site_label
_atom_site_fract_x
_atom_site_fract_y
_atom_site_fract_z
Si Si1 0.074089 0.829006 0.775544
Si Si2 0.817188 0.670867 0.593916
Si Si3 0.007357 0.818740 0.301922
Si Si4 0.222983 0.678747 0.078830
Si Si5 0.336650 0.171414 0.517280
Si Si6 0.387584 0.178294 0.197111
Si Si7 0.631323 0.328455 0.370663
Si Si8 0.073565 0.680721 0.349121
O O1 0.208812 0.828424 0.644709
O O2 0.194259 0.768197 0.733753
O O3 0.907540 0.727088 0.872665
O O4 0.015839 0.000000 0.821152
O O5 0.747492 0.500000 0.639773
O O6 0.681164 0.776966 0.709815
O O7 0.000000 0.668643 0.500000
O O8 0.892175 0.714523 0.497684
O O9 0.134055 0.750615 0.180489
O O10 0.059565 0.750758 0.312093
O O11 0.800402 0.778475 0.427799
O O12 0.020792 0.000000 0.292321
O O13 0.229670 0.500000 0.078205
O O14 0.419659 0.747837 0.940503
O O15 0.510275 0.267794 0.413111
O O16 0.391432 0.000000 0.473036
O O17 0.241515 0.248524 0.262273
O O18 0.394241 0.000000 0.187796
O O19 0.500000 0.322631 0.500000
O O20 0.682611 0.500000 0.329920
O O21 0.092741 0.500000 0.335204
#
# Coordination Sequence:
#
# PCOD9148492 Si02
#       8
#     4   4   4   4   4   4   4   4
#     4   9  16  27  41  58  83 114 148 184 223 264
#     4   8  16  32  51  70  91 113 142 184 231 273
#     4  10  20  33  47  66  93 123 156 190 226 269
#     4  11  21  33  47  64  91 124 156 188 227 272
#     4   8  15  26  39  56  82 115 146 181 222 261
#     4  11  21  33  50  70  91 117 152 190 229 271
#     4   9  15  22  36  58  81 109 147 184 217 259
#     4  10  20  34  51  70  92 119 151 187 229 272
#
# _framework density 15.345529000000001
#
# number of rings (size 3 to 8) (size 9 to 14) (size 15 to 20)
#    0.000    2.500    0.000    5.250    0.000    8.250 
#    0.000    2.500    0.000    0.000    0.000    0.000 
#    0.000    1.000    0.000   10.500    0.000    8.125 
#
# Total GULP energy -178277.606080 kJ/mol
# GULP energy per Si atom -5571.175190 kJ/mol
# Density = 1.531060 g / cm^3
# Si number density = 15.345529 Si / 1000 Ang^3
#
#
#
# Elastic Constant Matrix: (Units=GPa)
#
#
# Indices 1 2 3 4 5 6 
#
# 1 58.1340 49.5198 60.8319 0.0000 -14.7347 0.0000
# 2 49.5198 111.1274 50.7076 0.0000 -7.1848 0.0000
# 3 60.8319 50.7076 63.1858 0.0000 -5.0317 0.0000
# 4 0.0000 0.0000 0.0000 21.6227 0.0000 -8.3625
# 5 -14.7347 -7.1848 -5.0317 0.0000 14.5466 0.0000
# 6 0.0000 0.0000 0.0000 -8.3625 0.0000 13.2163
#
#
#
# Elastic Compliance Matrix: (Units=1/GPa)
#
#
# Indices 1 2 3 4 5 6 
#
# 1 -0.135520 -0.002913 0.125212 0.000000 -0.095400 0.000000
# 2 -0.002913 0.014278 -0.008563 0.000000 0.001140 0.000000
# 3 0.125212 -0.008563 -0.090581 0.000000 0.091269 0.000000
# 4 0.000000 0.000000 0.000000 0.061232 0.000000 0.038744
# 5 -0.095400 0.001140 0.091269 0.000000 0.004245 0.000000
# 6 0.000000 0.000000 0.000000 0.038744 0.000000 0.100179
#
#
# Mechanical properties :
#
#
# Convention : Reuss Voigt Hill
#
# Bulk Modulus (GPa) = 63.90210 61.61844 62.76027
# Shear Modulus (GPa) = -18.62735 14.63629 -1.99553
#
# Velocity S-wave (km/s) = -3.48783 3.09169 -1.14159
# Velocity P-wave (km/s) = 5.05100 7.27914 6.26492
#
# Compressibility (1/GPa) = 0.01564894
#
# Stress axis : x y z
#
# Youngs Moduli (GPa) = -7.37900 70.03960 -11.03990
#
# Poissons Ratio (x) = 0.20401 1.38232
# Poissons Ratio (y) = -0.02149 -0.09454
# Poissons Ratio (z) = 0.92394 0.59975
#
# Static dielectric constant tensor:
#      x y z
#    x 1.512640 0.000000 -0.006700 
#    y 0.000000 1.513000 0.000000 
#    z -0.006700 0.000000 1.495720 
# 
# From -- ./inp_files/95655.got.cif
#   From: 2010.05.17/outbox.cif.g08.bks.cpg/sg10_48_cif.got.tgz:95655.got - 2010.06.03 11:33:40.
