data_PCOD9148261
_publ_section_title
;
Structure prediction by ZEFSAII (Michael W. Deem and Ramdas Pophale) SiO2 
 PCOD9148261
Probable space group: P 2/M
;
_chemical_formula_sum "Si O2"
_cell_formula_units_Z 30
_cell_length_a 26.217053
_cell_length_b 16.526588
_cell_length_c 26.620102
_cell_angle_alpha 90.000000
_cell_angle_beta 168.667760
_cell_angle_gamma 90.000000
_cell_volume 2266.390284
_symmetry_space_group_name_H-M "P 2/M"
_symmetry_group_IT_number 10
_symmetry_cell_setting 'monoclinic'
loop_
_space_group_symop_operation_xyz
x,y,z
-x,y,-z
-x,-y,-z
x,-y,z
loop_
_atom_site_type_symbol
_atom_site_label
_atom_site_fract_x
_atom_site_fract_y
_atom_site_fract_z
Si Si1 0.946340 0.309685 0.008068
Si Si2 0.040166 0.140942 0.154434
Si Si3 0.526611 0.903722 0.351564
Si Si4 0.445374 0.591801 0.507178
Si Si5 0.925032 0.901344 0.276772
Si Si6 0.480194 0.098315 0.771448
Si Si7 0.776721 0.901391 0.245724
Si Si8 0.782107 0.000000 0.747167
O O1 0.989861 0.225817 0.078609
O O2 0.157714 0.372712 0.233269
O O3 0.660539 0.347803 0.737182
O O4 0.000000 0.298295 0.000000
O O5 0.247152 0.142382 0.399785
O O6 0.169550 0.078418 0.240299
O O7 0.758911 0.108897 0.900684
O O8 0.516518 0.878052 0.283607
O O9 0.589280 0.000000 0.414481
O O10 0.500000 0.589023 0.500000
O O11 0.469312 0.500000 0.549366
O O12 0.836052 0.875159 0.246228
O O13 0.215063 0.876279 0.542573
O O14 0.923211 0.000000 0.275495
O O15 0.725393 0.874823 0.040945
O O16 0.484878 0.000000 0.776050
O O17 0.000000 0.876779 0.500000
O O18 0.774301 0.000000 0.242491
O O19 0.500000 0.875125 0.000000
O O20 0.500000 0.000000 0.500000
O O21 0.000000 0.000000 0.000000
#
# Coordination Sequence:
#
# PCOD9148261 Si02
#       8
#     4   4   4   4   4   4   4   2
#     4  10  20  32  47  67  87 105 126 154 187 230
#     4  12  22  35  47  62  82 105 133 166 198 238
#     4  11  20  34  46  58  74 100 136 169 207 237
#     4   9  17  31  50  69  87 105 123 145 179 226
#     4   9  15  24  34  50  66  83 112 147 187 227
#     4   9  17  26  40  52  64  85 117 162 195 225
#     4   9  15  21  30  44  65  89 107 130 171 231
#     4  12  24  36  48  60  78 106 136 160 190 234
#
# _framework density 13.236908
#
# number of rings (size 3 to 8) (size 9 to 14) (size 15 to 20)
#    0.000    2.000    1.333    4.000    0.000    8.533 
#    0.000    0.000    0.000    0.000    0.000    0.000 
#    0.000    0.000    0.000    0.000    0.000    0.000 
#
# Total GULP energy -167267.626878 kJ/mol
# GULP energy per Si atom -5575.587563 kJ/mol
# Density = 1.320678 g / cm^3
# Si number density = 13.236908 Si / 1000 Ang^3
#
#
#
# Elastic Constant Matrix: (Units=GPa)
#
#
# Indices 1 2 3 4 5 6 
#
# 1 47.9320 14.1597 9.3242 0.0000 -5.9276 0.0000
# 2 14.1597 43.3870 9.5887 0.0000 -4.5447 0.0000
# 3 9.3242 9.5887 74.7926 0.0000 -6.8028 0.0000
# 4 0.0000 0.0000 0.0000 9.0140 0.0000 -0.9505
# 5 -5.9276 -4.5447 -6.8028 0.0000 24.1658 0.0000
# 6 0.0000 0.0000 0.0000 -0.9505 0.0000 3.7149
#
#
#
# Elastic Compliance Matrix: (Units=1/GPa)
#
#
# Indices 1 2 3 4 5 6 
#
# 1 0.023747 -0.006951 -0.001702 0.000000 0.004038 0.000000
# 2 -0.006951 0.026082 -0.002244 0.000000 0.002568 0.000000
# 3 -0.001702 -0.002244 0.014156 0.000000 0.003146 0.000000
# 4 0.000000 0.000000 0.000000 0.114015 0.000000 0.029172
# 5 0.004038 0.002568 0.003146 0.000000 0.043740 0.000000
# 6 0.000000 0.000000 0.000000 0.029172 0.000000 0.276648
#
#
# Mechanical properties :
#
#
# Convention : Reuss Voigt Hill
#
# Bulk Modulus (GPa) = 23.70125 25.80631 24.75378
# Shear Modulus (GPa) = 9.35903 16.24822 12.80362
#
# Velocity S-wave (km/s) = 2.66191 3.50736 3.11347
# Velocity P-wave (km/s) = 5.23373 5.99501 5.62726
#
# Compressibility (1/GPa) = 0.04219187
#
# Stress axis : x y z
#
# Youngs Moduli (GPa) = 42.11110 38.34106 70.64018
#
# Poissons Ratio (x) = 0.26650 0.12023
# Poissons Ratio (y) = 0.29270 0.15849
# Poissons Ratio (z) = 0.07167 0.08602
#
# Static dielectric constant tensor:
#      x y z
#    x 1.435900 0.000000 0.011430 
#    y 0.000000 1.412970 0.000000 
#    z 0.011430 0.000000 1.505960 
# 
# From -- ./inp_files/12607.got.cif
#   From: 2010.05.17/outbox.cif.g08.bks.cpg/sg10_7_cif.got.tgz:12607.got - 2010.06.03 11:33:40.
