data_PCOD9148509
_publ_section_title
;
Structure prediction by ZEFSAII (Michael W. Deem and Ramdas Pophale) SiO2 
 PCOD9148509
Probable space group: P 2/M
;
_chemical_formula_sum "Si O2"
_cell_formula_units_Z 32
_cell_length_a 22.566308
_cell_length_b 8.300396
_cell_length_c 12.607891
_cell_angle_alpha 90.000000
_cell_angle_beta 46.670683
_cell_angle_gamma 90.000000
_cell_volume 1717.861111
_symmetry_space_group_name_H-M "P 2/M"
_symmetry_group_IT_number 10
_symmetry_cell_setting 'monoclinic'
loop_
_space_group_symop_operation_xyz
x,y,z
-x,y,-z
-x,-y,-z
x,-y,z
loop_
_atom_site_type_symbol
_atom_site_label
_atom_site_fract_x
_atom_site_fract_y
_atom_site_fract_z
Si Si1 0.302556 0.302619 0.998307
Si Si2 0.775352 0.307983 0.115435
Si Si3 0.783687 0.808037 0.448930
Si Si4 0.441467 0.178608 0.171846
Si Si5 0.515749 0.683831 0.280741
Si Si6 0.279225 0.691514 0.268683
Si Si7 0.906318 0.304337 0.121803
Si Si8 0.649991 0.190859 0.438361
O O1 0.305672 0.500000 0.994981
O O2 0.240461 0.247463 0.983634
O O3 0.393336 0.248220 0.850122
O O4 0.276972 0.254161 0.148740
O O5 0.784698 0.500000 0.096598
O O6 0.852439 0.246571 0.087516
O O7 0.695475 0.272626 0.284156
O O8 0.788655 0.731362 0.559842
O O9 0.859323 0.758222 0.282867
O O10 0.702926 0.758206 0.478239
O O11 0.780000 0.000000 0.464492
O O12 0.475673 0.304613 0.213225
O O13 0.355499 0.221929 0.228996
O O14 0.439509 0.000000 0.225532
O O15 0.500000 0.173464 0.000000
O O16 0.523734 0.500000 0.306934
O O17 0.445348 0.767026 0.436622
O O18 0.291837 0.500000 0.251757
O O19 0.903843 0.500000 0.126997
O O20 0.000000 0.253987 0.000000
O O21 0.659790 0.000000 0.416055
#
# Coordination Sequence:
#
# PCOD9148509 Si02
#       8
#     4   4   4   4   4   4   4   4
#     4   9  20  34  49  72  99 136 181 218 252 302
#     4   9  18  36  56  73 101 135 167 208 260 311
#     4  10  20  33  51  78 109 136 165 206 260 310
#     4  11  21  31  44  67  99 134 175 223 268 300
#     4  11  20  31  48  69  95 134 183 223 260 299
#     4  11  20  32  51  73 100 135 178 218 254 298
#     4   9  18  34  60  89 107 125 160 205 254 311
#     4  10  20  33  48  71 102 133 173 221 264 304
#
# _framework density 18.627817
#
# number of rings (size 3 to 8) (size 9 to 14) (size 15 to 20)
#    0.000    2.000    2.500    1.875    0.000    2.250 
#    0.000    5.000    0.000    0.750    0.000    5.250 
#    0.000    0.000    0.000    0.000    0.000    0.000 
#
# Total GULP energy -178410.351394 kJ/mol
# GULP energy per Si atom -5575.323481 kJ/mol
# Density = 1.858542 g / cm^3
# Si number density = 18.627817 Si / 1000 Ang^3
#
#
#
# Elastic Constant Matrix: (Units=GPa)
#
#
# Indices 1 2 3 4 5 6 
#
# 1 88.7517 -0.3431 62.8664 0.0000 7.2383 0.0000
# 2 -0.3431 15.6393 -0.7324 0.0000 -5.3266 0.0000
# 3 62.8664 -0.7324 94.2341 0.0000 -4.4343 0.0000
# 4 0.0000 0.0000 0.0000 -15.4246 0.0000 -15.4116
# 5 7.2383 -5.3266 -4.4343 0.0000 24.4019 0.0000
# 6 0.0000 0.0000 0.0000 -15.4116 0.0000 0.7079
#
#
#
# Elastic Compliance Matrix: (Units=1/GPa)
#
#
# Indices 1 2 3 4 5 6 
#
# 1 0.023745 -0.003953 -0.016384 0.000000 -0.010884 0.000000
# 2 -0.003953 0.069883 0.003988 0.000000 0.017152 0.000000
# 3 -0.016384 0.003988 0.022031 0.000000 0.009734 0.000000
# 4 0.000000 0.000000 0.000000 -0.002849 0.000000 -0.062034
# 5 -0.010884 0.017152 0.009734 0.000000 0.049722 0.000000
# 6 0.000000 0.000000 0.000000 -0.062034 0.000000 0.062086
#
#
# Mechanical properties :
#
#
# Convention : Reuss Voigt Hill
#
# Bulk Modulus (GPa) = 12.05400 35.80078 23.92739
# Shear Modulus (GPa) = 17.54566 11.05933 14.30250
#
# Velocity S-wave (km/s) = 3.07238 2.43924 2.77393
# Velocity P-wave (km/s) = 4.36704 5.21478 4.80962
#
# Compressibility (1/GPa) = 0.08296003
#
# Stress axis : x y z
#
# Youngs Moduli (GPa) = 42.11369 14.30962 45.39018
#
# Poissons Ratio (x) = 0.05657 0.74367
# Poissons Ratio (y) = 0.16649 -0.18099
# Poissons Ratio (z) = 0.68999 -0.05706
#
# Static dielectric constant tensor:
#      x y z
#    x 1.648000 0.000000 0.021680 
#    y 0.000000 1.648250 0.000000 
#    z 0.021680 0.000000 1.718620 
# 
# From -- ./inp_files/55185.got.cif
#   From: 2010.05.17/outbox.cif.g08.bks.cpg/sg10_28_cif.got.tgz:55185.got - 2010.06.03 11:33:40.
