data_PCOD9148020
_publ_section_title
;
Structure prediction by ZEFSAII (Michael W. Deem and Ramdas Pophale) SiO2 
 PCOD9148020
Probable space group: P 2/M
;
_chemical_formula_sum "Si O2"
_cell_formula_units_Z 26
_cell_length_a 7.812958
_cell_length_b 15.901412
_cell_length_c 12.646504
_cell_angle_alpha 90.000000
_cell_angle_beta 59.464915
_cell_angle_gamma 90.000000
_cell_volume 1353.272616
_symmetry_space_group_name_H-M "P 2/M"
_symmetry_group_IT_number 10
_symmetry_cell_setting 'monoclinic'
loop_
_space_group_symop_operation_xyz
x,y,z
-x,y,-z
-x,-y,-z
x,-y,z
loop_
_atom_site_type_symbol
_atom_site_label
_atom_site_fract_x
_atom_site_fract_y
_atom_site_fract_z
Si Si1 0.684344 0.093184 0.863249
Si Si2 0.075890 0.748955 0.258774
Si Si3 0.404360 0.906101 0.359177
Si Si4 0.836771 0.405098 0.897070
Si Si5 0.699116 0.595788 0.171586
Si Si6 0.000000 0.827000 0.500000
Si Si7 0.388535 0.734978 0.642229
O O1 0.834969 0.169831 0.827905
O O2 0.614232 0.094932 0.762821
O O3 0.772329 0.000000 0.853858
O O4 0.500000 0.102999 0.000000
O O5 0.185563 0.665796 0.184012
O O6 0.083342 0.769402 0.380342
O O7 0.844792 0.739578 0.306219
O O8 0.184754 0.885511 0.474333
O O9 0.538057 0.828088 0.351281
O O10 0.468625 0.000000 0.370547
O O11 0.791777 0.500000 0.875619
O O12 0.069528 0.403869 0.861010
O O13 0.711704 0.386937 0.042381
O O14 0.626562 0.500000 0.210602
O O15 0.584604 0.666598 0.273368
O O16 0.500000 0.708770 0.500000
#
# Coordination Sequence:
#
# PCOD9148020 Si02
#       7
#     4   4   4   4   4   2   4
#     4   9  20  38  57  78 105 144 186 215 264 333
#     4  10  20  34  57  80 107 144 176 229 267 316
#     4  10  21  36  55  77 109 145 181 224 263 315
#     4   8  15  31  54  80 104 137 178 217 269 324
#     4   8  16  31  53  78 108 139 174 217 267 327
#     4  10  19  38  53  74 104 150 195 208 259 326
#     4  11  21  34  52  85 113 134 182 230 270 308
#
# _framework density 19.212686000000001
#
# number of rings (size 3 to 8) (size 9 to 14) (size 15 to 20)
#    0.000    2.615    1.538    1.154    2.154    1.846 
#    0.000    0.385    0.000    6.923    0.000    0.000 
#    0.000    0.000    0.000    0.000    0.000    0.000 
#
# Total GULP energy -145001.692059 kJ/mol
# GULP energy per Si atom -5576.988156 kJ/mol
# Density = 1.916896 g / cm^3
# Si number density = 19.212686 Si / 1000 Ang^3
#
#
#
# Elastic Constant Matrix: (Units=GPa)
#
#
# Indices 1 2 3 4 5 6 
#
# 1 15.8634 21.0000 9.0159 0.0000 -8.1665 0.0000
# 2 21.0000 174.0054 101.2802 0.0000 -7.1814 0.0000
# 3 9.0159 101.2802 117.3467 0.0000 -7.3162 0.0000
# 4 0.0000 0.0000 0.0000 27.7476 0.0000 3.6770
# 5 -8.1665 -7.1814 -7.3162 0.0000 14.1722 0.0000
# 6 0.0000 0.0000 0.0000 3.6770 0.0000 33.2431
#
#
#
# Elastic Compliance Matrix: (Units=1/GPa)
#
#
# Indices 1 2 3 4 5 6 
#
# 1 0.110135 -0.016211 0.009273 0.000000 0.060036 0.000000
# 2 -0.016211 0.013942 -0.011293 0.000000 -0.008107 0.000000
# 3 0.009273 -0.011293 0.018116 0.000000 0.008973 0.000000
# 4 0.000000 0.000000 0.000000 0.036575 0.000000 -0.004046
# 5 0.060036 -0.008107 0.008973 0.000000 0.105680 0.000000
# 6 0.000000 0.000000 0.000000 -0.004046 0.000000 0.030529
#
#
# Mechanical properties :
#
#
# Convention : Reuss Voigt Hill
#
# Bulk Modulus (GPa) = 9.45807 63.31195 36.38501
# Shear Modulus (GPa) = 12.93051 26.76054 19.84552
#
# Velocity S-wave (km/s) = 2.59708 3.73615 3.21742
# Velocity P-wave (km/s) = 3.73183 7.18585 5.72552
#
# Compressibility (1/GPa) = 0.10572976
#
# Stress axis : x y z
#
# Youngs Moduli (GPa) = 9.07977 71.72597 55.20125
#
# Poissons Ratio (x) = 1.16277 -0.51188
# Poissons Ratio (y) = 0.14720 0.62339
# Poissons Ratio (z) = -0.08420 0.81000
#
# Static dielectric constant tensor:
#      x y z
#    x 1.700150 0.000000 0.018700 
#    y 0.000000 1.677000 0.000000 
#    z 0.018700 0.000000 1.658700 
# 
# From -- ./inp_files/42609.got.cif
#   From: 2010.05.17/outbox.cif.g08.bks.cpg/sg10_22_cif.got.tgz:42609.got - 2010.06.03 11:33:40.
