data_PCOD9148012
_publ_section_title
;
Structure prediction by ZEFSAII (Michael W. Deem and Ramdas Pophale) SiO2 
 PCOD9148012
Probable space group: P 2/M
;
_chemical_formula_sum "Si O2"
_cell_formula_units_Z 32
_cell_length_a 12.661598
_cell_length_b 8.547916
_cell_length_c 32.406063
_cell_angle_alpha 90.000000
_cell_angle_beta 151.847702
_cell_angle_gamma 90.000000
_cell_volume 1654.811384
_symmetry_space_group_name_H-M "P 2/M"
_symmetry_group_IT_number 10
_symmetry_cell_setting 'monoclinic'
loop_
_space_group_symop_operation_xyz
x,y,z
-x,y,-z
-x,-y,-z
x,-y,z
loop_
_atom_site_type_symbol
_atom_site_label
_atom_site_fract_x
_atom_site_fract_y
_atom_site_fract_z
Si Si1 0.810248 0.688872 0.206476
Si Si2 0.138414 0.690852 0.681448
Si Si3 0.740121 0.175770 0.919720
Si Si4 0.453329 0.318134 0.226323
Si Si5 0.662546 0.687400 0.983050
Si Si6 0.623467 0.311155 0.500501
Si Si7 0.891665 0.813264 0.825567
Si Si8 0.250313 0.812941 0.314293
O O1 0.826069 0.500000 0.211848
O O2 0.778839 0.737034 0.243831
O O3 0.040882 0.757566 0.269585
O O4 0.600544 0.732846 0.104756
O O5 0.145663 0.500000 0.683408
O O6 0.295901 0.742710 0.697638
O O7 0.881142 0.740790 0.588524
O O8 0.649891 0.294629 0.854637
O O9 0.640314 0.000000 0.881794
O O10 0.720191 0.244127 0.958190
O O11 0.000000 0.160046 0.000000
O O12 0.461999 0.500000 0.240833
O O13 0.287823 0.234822 0.201234
O O14 0.671448 0.500000 0.986006
O O15 0.859327 0.747009 0.080387
O O16 0.500000 0.258192 0.500000
O O17 0.624151 0.500000 0.501255
O O18 0.475868 0.254549 0.411508
O O19 0.798664 0.760357 0.749273
O O20 0.910365 0.000000 0.832416
O O21 0.261585 0.000000 0.318665
#
# Coordination Sequence:
#
# PCOD9148012 Si02
#       8
#     4   4   4   4   4   4   4   4
#     4  10  20  38  61  88 122 152 190 243 297 349
#     4   9  18  35  59  93 124 146 181 242 304 347
#     4  11  21  32  51  82 120 157 193 237 293 348
#     4  11  21  36  60  87 118 154 202 249 287 341
#     4  11  22  36  59  88 116 153 202 250 288 338
#     4  10  19  37  67  93 117 150 186 237 302 355
#     4  11  25  43  57  78 120 166 203 241 292 349
#     4  11  25  42  60  85 119 157 198 243 291 356
#
# _framework density 19.337551999999999
#
# number of rings (size 3 to 8) (size 9 to 14) (size 15 to 20)
#    0.000    1.500    3.750    1.875    0.000    4.250 
#    0.000    4.375    0.000    3.750    0.000    0.000 
#    0.000    0.000    0.000    0.000    0.000    0.000 
#
# Total GULP energy -178528.201102 kJ/mol
# GULP energy per Si atom -5579.006284 kJ/mol
# Density = 1.929354 g / cm^3
# Si number density = 19.337552 Si / 1000 Ang^3
#
#
#
# Elastic Constant Matrix: (Units=GPa)
#
#
# Indices 1 2 3 4 5 6 
#
# 1 31.9168 1.7074 22.9658 0.0000 2.5005 0.0000
# 2 1.7074 20.9455 19.5842 0.0000 3.3316 0.0000
# 3 22.9658 19.5842 127.2654 0.0000 9.5614 0.0000
# 4 0.0000 0.0000 0.0000 17.7653 0.0000 -14.6596
# 5 2.5005 3.3316 9.5614 0.0000 34.8630 0.0000
# 6 0.0000 0.0000 0.0000 -14.6596 0.0000 -15.2511
#
#
#
# Elastic Compliance Matrix: (Units=1/GPa)
#
#
# Indices 1 2 3 4 5 6 
#
# 1 0.036286 0.003803 -0.007056 0.000000 -0.001031 0.000000
# 2 0.003803 0.056483 -0.009140 0.000000 -0.003164 0.000000
# 3 -0.007056 -0.009140 0.010653 0.000000 -0.001542 0.000000
# 4 0.000000 0.000000 0.000000 0.031391 0.000000 -0.030174
# 5 -0.001031 -0.003164 -0.001542 0.000000 0.029483 0.000000
# 6 0.000000 0.000000 0.000000 -0.030174 0.000000 -0.036566
#
#
# Mechanical properties :
#
#
# Convention : Reuss Voigt Hill
#
# Bulk Modulus (GPa) = 12.71684 29.84917 21.28301
# Shear Modulus (GPa) = 27.97556 16.53346 22.25451
#
# Velocity S-wave (km/s) = 3.80767 2.92720 3.39609
# Velocity P-wave (km/s) = 5.09133 5.18594 5.13886
#
# Compressibility (1/GPa) = 0.07863586
#
# Stress axis : x y z
#
# Youngs Moduli (GPa) = 27.55902 17.70457 93.86764
#
# Poissons Ratio (x) = -0.06734 0.66231
# Poissons Ratio (y) = -0.10482 0.85800
# Poissons Ratio (z) = 0.19445 0.16183
#
# Static dielectric constant tensor:
#      x y z
#    x 1.673870 0.000000 0.024300 
#    y 0.000000 1.671200 0.000000 
#    z 0.024300 0.000000 1.695190 
# 
# From -- ./inp_files/83551.got.cif
#   From: 2010.05.17/outbox.cif.g08.bks.cpg/sg10_42_cif.got.tgz:83551.got - 2010.06.03 11:33:40.
