data_PCOD9148353
_publ_section_title
;
Structure prediction by ZEFSAII (Michael W. Deem and Ramdas Pophale) SiO2 
 PCOD9148353
Probable space group: P 2/M
;
_chemical_formula_sum "Si O2"
_cell_formula_units_Z 32
_cell_length_a 9.068471
_cell_length_b 14.267459
_cell_length_c 15.297112
_cell_angle_alpha 90.000000
_cell_angle_beta 97.757508
_cell_angle_gamma 90.000000
_cell_volume 1961.088897
_symmetry_space_group_name_H-M "P 2/M"
_symmetry_group_IT_number 10
_symmetry_cell_setting 'monoclinic'
loop_
_space_group_symop_operation_xyz
x,y,z
-x,y,-z
-x,-y,-z
x,-y,z
loop_
_atom_site_type_symbol
_atom_site_label
_atom_site_fract_x
_atom_site_fract_y
_atom_site_fract_z
Si Si1 0.171884 0.889308 0.518182
Si Si2 0.768511 0.607540 0.703951
Si Si3 0.383495 0.392286 0.117720
Si Si4 0.602370 0.111149 0.309540
Si Si5 0.659223 0.253836 0.166910
Si Si6 0.386007 0.770279 0.415137
Si Si7 0.147247 0.315623 0.960966
Si Si8 0.107119 0.394276 0.774287
O O1 0.249638 0.876022 0.618843
O O2 0.263309 0.831974 0.454368
O O3 0.000000 0.862392 0.500000
O O4 0.183911 0.000000 0.499526
O O5 0.751203 0.500000 0.672437
O O6 0.698176 0.612877 0.795217
O O7 0.685815 0.682096 0.637926
O O8 0.944793 0.627941 0.724204
O O9 0.435161 0.500000 0.108415
O O10 0.519258 0.318716 0.129537
O O11 0.262794 0.364527 0.035268
O O12 0.618031 0.162589 0.217966
O O13 0.473755 0.164351 0.353358
O O14 0.574409 0.000000 0.300127
O O15 0.764719 0.319673 0.236604
O O16 0.760122 0.239347 0.088344
O O17 0.500000 0.740017 0.500000
O O18 0.902896 0.386022 0.120604
O O19 0.000000 0.283458 0.000000
O O20 0.148396 0.500000 0.753281
#
# Coordination Sequence:
#
# PCOD9148353 Si02
#       8
#     4   4   4   4   4   4   4   4
#     4   9  19  34  58  85 104 127 168 224 276 321
#     4  10  20  33  52  78 110 145 179 212 256 316
#     4  11  19  31  51  77 108 139 180 225 258 307
#     4  10  20  37  56  80 107 133 171 221 276 318
#     4  10  21  32  51  78 105 139 173 217 269 312
#     4  10  20  36  57  80 107 142 173 214 264 318
#     4  10  20  32  49  75 108 142 177 217 269 307
#     4   9  19  32  49  76 108 140 174 213 264 312
#
# _framework density 16.317466
#
# number of rings (size 3 to 8) (size 9 to 14) (size 15 to 20)
#    0.750    1.375    2.500    1.500    1.750    2.750 
#    0.000    0.000    0.000    2.250    0.000    0.000 
#    0.000    0.000    0.000    0.000    0.000    0.000 
#
# Total GULP energy -178229.601044 kJ/mol
# GULP energy per Si atom -5569.675033 kJ/mol
# Density = 1.628033 g / cm^3
# Si number density = 16.317466 Si / 1000 Ang^3
#
#
#
# Elastic Constant Matrix: (Units=GPa)
#
#
# Indices 1 2 3 4 5 6 
#
# 1 93.9025 51.3140 31.3964 0.0000 19.9093 0.0000
# 2 51.3140 76.6742 48.9732 0.0000 17.1509 0.0000
# 3 31.3964 48.9732 68.2990 0.0000 8.1429 0.0000
# 4 0.0000 0.0000 0.0000 7.0178 0.0000 -5.2311
# 5 19.9093 17.1509 8.1429 0.0000 14.5955 0.0000
# 6 0.0000 0.0000 0.0000 -5.2311 0.0000 16.1631
#
#
#
# Elastic Compliance Matrix: (Units=1/GPa)
#
#
# Indices 1 2 3 4 5 6 
#
# 1 0.018891 -0.009032 -0.000429 0.000000 -0.014916 0.000000
# 2 -0.009032 0.035407 -0.019009 0.000000 -0.018680 0.000000
# 3 -0.000429 -0.019009 0.027570 0.000000 0.007541 0.000000
# 4 0.000000 0.000000 0.000000 0.187800 0.000000 0.060780
# 5 -0.014916 -0.018680 0.007541 0.000000 0.106603 0.000000
# 6 0.000000 0.000000 0.000000 0.060780 0.000000 0.081540
#
#
# Mechanical properties :
#
#
# Convention : Reuss Voigt Hill
#
# Bulk Modulus (GPa) = 40.11733 55.80478 47.96105
# Shear Modulus (GPa) = 9.55911 14.70143 12.13027
#
# Velocity S-wave (km/s) = 2.42300 3.00486 2.72948
# Velocity P-wave (km/s) = 5.69796 6.80533 6.27612
#
# Compressibility (1/GPa) = 0.02492688
#
# Stress axis : x y z
#
# Youngs Moduli (GPa) = 52.93521 28.24312 36.27125
#
# Poissons Ratio (x) = 0.25510 0.01557
# Poissons Ratio (y) = 0.47812 0.68948
# Poissons Ratio (z) = 0.02272 0.53688
#
# Static dielectric constant tensor:
#      x y z
#    x 1.558440 0.000000 -0.005650 
#    y 0.000000 1.522550 0.000000 
#    z -0.005650 0.000000 1.541320 
# 
# From -- ./inp_files/38254.got.cif
#   From: 2010.05.17/outbox.cif.g08.bks.cpg/sg10_20_cif.got.tgz:38254.got - 2010.06.03 11:33:40.
