data_PCOD9148779
_publ_section_title
;
Structure prediction by ZEFSAII (Michael W. Deem and Ramdas Pophale) SiO2 
 PCOD9148779
Probable space group: P 2/M
;
_chemical_formula_sum "Si O2"
_cell_formula_units_Z 32
_cell_length_a 12.358363
_cell_length_b 7.328191
_cell_length_c 20.385105
_cell_angle_alpha 90.000000
_cell_angle_beta 127.318443
_cell_angle_gamma 90.000000
_cell_volume 1468.215671
_symmetry_space_group_name_H-M "P 2/M"
_symmetry_group_IT_number 10
_symmetry_cell_setting 'monoclinic'
loop_
_space_group_symop_operation_xyz
x,y,z
-x,y,-z
-x,-y,-z
x,-y,z
loop_
_atom_site_type_symbol
_atom_site_label
_atom_site_fract_x
_atom_site_fract_y
_atom_site_fract_z
Si Si1 0.594299 0.221733 0.594299
Si Si2 0.890082 0.223058 0.657324
Si Si3 0.594534 0.281032 0.094533
Si Si4 0.575433 0.776942 0.342676
Si Si5 0.578553 0.789651 0.841840
Si Si6 0.105126 0.210349 0.841840
Si Si7 0.126873 0.223099 1.000000
Si Si8 0.874895 0.222611 0.500000
O O1 0.500000 0.280900 0.500000
O O2 0.746937 0.278141 0.636119
O O3 0.525300 0.278142 0.636118
O O4 0.594466 0.000000 0.594466
O O5 0.895284 0.280866 0.583135
O O6 0.005750 0.288084 0.749820
O O7 0.895575 0.000000 0.657003
O O8 0.597461 0.500000 0.097460
O O9 0.522980 0.216214 0.134099
O O10 0.745219 0.216214 0.134099
O O11 0.500000 0.221592 0.000000
O O12 0.506109 0.711916 0.250179
O O13 0.729014 0.719135 0.416864
O O14 0.581568 0.000000 0.342996
O O15 0.726396 0.714567 0.917616
O O16 0.607002 0.000000 0.834595
O O17 0.062187 0.000000 0.834594
O O18 0.108834 0.285432 0.917615
O O19 0.131180 0.000000 1.000000
O O20 0.000000 0.274154 0.000000
O O21 0.000000 0.279002 0.500000
O O22 0.873175 0.000000 0.500000
#
# Coordination Sequence:
#
# PCOD9148779 Si02
#       8
#     4   4   4   4   4   4   4   4
#     4   9  14  24  40  63 104 143 170 203 251 300
#     4   9  17  26  41  67  99 136 170 204 247 297
#     4  11  23  39  57  74  99 134 174 219 265 312
#     4   9  17  26  41  67  99 136 170 204 247 297
#     4  10  20  33  53  79 105 135 172 212 256 305
#     4  10  20  33  53  79 105 135 172 212 256 305
#     4   9  18  31  47  74 110 137 160 201 256 307
#     4   9  16  25  35  57  97 134 162 202 249 288
#
# _framework density 21.795162999999999
#
# number of rings (size 3 to 8) (size 9 to 14) (size 15 to 20)
#    0.000    2.500    2.500    0.375    3.500    0.500 
#    0.000    0.000    0.000    1.500    0.000    1.750 
#    0.000    1.000    0.000    0.000    0.000    0.000 
#
# Total GULP energy -178688.426312 kJ/mol
# GULP energy per Si atom -5584.013322 kJ/mol
# Density = 2.174556 g / cm^3
# Si number density = 21.795163 Si / 1000 Ang^3
#
#
#
# Elastic Constant Matrix: (Units=GPa)
#
#
# Indices 1 2 3 4 5 6 
#
# 1 210.5968 -8.0191 146.2352 0.0000 -0.4014 0.0000
# 2 -8.0191 84.5019 6.7292 0.0000 -0.6960 0.0000
# 3 146.2352 6.7292 267.0883 0.0000 -2.2660 0.0000
# 4 0.0000 0.0000 0.0000 -8.9440 0.0000 -2.1374
# 5 -0.4014 -0.6960 -2.2660 0.0000 36.5113 0.0000
# 6 0.0000 0.0000 0.0000 -2.1374 0.0000 -54.2356
#
#
#
# Elastic Compliance Matrix: (Units=1/GPa)
#
#
# Indices 1 2 3 4 5 6 
#
# 1 0.007758 0.001075 -0.004276 0.000000 -0.000160 0.000000
# 2 0.001075 0.012008 -0.000890 0.000000 0.000186 0.000000
# 3 -0.004276 -0.000890 0.006111 0.000000 0.000315 0.000000
# 4 0.000000 0.000000 0.000000 -0.112870 0.000000 0.004448
# 5 -0.000160 0.000186 0.000315 0.000000 0.027410 0.000000
# 6 0.000000 0.000000 0.000000 0.004448 0.000000 -0.018613
#
#
# Mechanical properties :
#
#
# Convention : Reuss Voigt Hill
#
# Bulk Modulus (GPa) = 56.50941 94.67529 75.59235
# Shear Modulus (GPa) = -77.98456 22.48245 -27.75106
#
# Velocity S-wave (km/s) = -5.98818 3.21523 -3.57216
# Velocity P-wave (km/s) = 4.67197 7.57077 4.21244
#
# Compressibility (1/GPa) = 0.01769617
#
# Stress axis : x y z
#
# Youngs Moduli (GPa) = 128.89103 83.27436 163.65150
#
# Poissons Ratio (x) = -0.08956 0.69983
# Poissons Ratio (y) = -0.13862 0.14562
# Poissons Ratio (z) = 0.55118 0.07410
#
# Static dielectric constant tensor:
#      x y z
#    x 1.681190 0.000000 -0.004550 
#    y 0.000000 1.841580 0.000000 
#    z -0.004550 0.000000 1.777480 
# 
# From -- ./inp_files/76540.got.cif
#   From: 2010.05.17/outbox.cif.g08.bks.cpg/sg10_39_cif.got.tgz:76540.got - 2010.06.03 11:33:40.
