data_PCOD9148092
_publ_section_title
;
Structure prediction by ZEFSAII (Michael W. Deem and Ramdas Pophale) SiO2 
 PCOD9148092
Probable space group: P 2/M
;
_chemical_formula_sum "Si O2"
_cell_formula_units_Z 26
_cell_length_a 24.451527
_cell_length_b 7.656702
_cell_length_c 9.791348
_cell_angle_alpha 90.000000
_cell_angle_beta 144.486285
_cell_angle_gamma 90.000000
_cell_volume 1064.853739
_symmetry_space_group_name_H-M "P 2/M"
_symmetry_group_IT_number 10
_symmetry_cell_setting 'monoclinic'
loop_
_space_group_symop_operation_xyz
x,y,z
-x,y,-z
-x,-y,-z
x,-y,z
loop_
_atom_site_type_symbol
_atom_site_label
_atom_site_fract_x
_atom_site_fract_y
_atom_site_fract_z
Si Si1 0.175977 0.202502 0.529299
Si Si2 0.387341 0.809381 0.286822
Si Si3 0.013759 0.703127 0.378554
Si Si4 0.610281 0.203166 0.104796
Si Si5 0.341529 0.709377 0.501671
Si Si6 0.605685 0.500000 0.902859
Si Si7 0.126829 0.711095 0.135649
O O1 0.280783 0.266937 0.705938
O O2 0.116653 0.226467 0.269880
O O3 0.119786 0.288969 0.537956
O O4 0.184568 0.000000 0.577306
O O5 0.500000 0.810023 0.500000
O O6 0.366941 0.775934 0.403856
O O7 0.349605 0.000000 0.170192
O O8 0.356575 0.652972 0.126993
O O9 0.985583 0.500000 0.331864
O O10 0.000000 0.781973 0.500000
O O11 0.946784 0.779253 0.124947
O O12 0.602750 0.217964 0.253171
O O13 0.559597 0.345697 0.909274
O O14 0.596878 0.000000 0.039731
O O15 0.346308 0.500000 0.515111
O O16 0.232149 0.759482 0.304208
O O17 0.120041 0.500000 0.128880
#
# Coordination Sequence:
#
# PCOD9148092 Si02
#       7
#     4   4   4   4   4   2   4
#     4  10  21  36  56  82 113 155 203 251 307 361
#     4  11  25  45  68  97 132 169 208 251 306 375
#     4  10  21  35  51  79 116 156 200 251 309 364
#     4  10  22  40  63  96 129 164 212 267 317 366
#     4  10  19  39  67  93 123 168 217 260 312 376
#     4  12  23  40  67  96 130 166 206 252 313 380
#     4   9  19  35  58  85 110 152 208 254 300 361
#
# _framework density 24.416501
#
# number of rings (size 3 to 8) (size 9 to 14) (size 15 to 20)
#    0.000    1.846    1.538    2.077    2.154    4.615 
#    2.769    1.538    0.000    2.769    0.000    0.000 
#    0.000    0.000    0.000    0.000    0.000    0.000 
#
# Total GULP energy -144978.409781 kJ/mol
# GULP energy per Si atom -5576.092684 kJ/mol
# Density = 2.436093 g / cm^3
# Si number density = 24.416501 Si / 1000 Ang^3
#
#
#
# Elastic Constant Matrix: (Units=GPa)
#
#
# Indices 1 2 3 4 5 6 
#
# 1 171.1575 31.7451 40.1476 0.0000 -43.3005 0.0000
# 2 31.7451 135.0324 19.2245 0.0000 -22.7726 0.0000
# 3 40.1476 19.2245 70.5016 0.0000 -17.7318 0.0000
# 4 0.0000 0.0000 0.0000 -6.6479 0.0000 0.5840
# 5 -43.3005 -22.7726 -17.7318 0.0000 43.0444 0.0000
# 6 0.0000 0.0000 0.0000 0.5840 0.0000 17.5826
#
#
#
# Elastic Compliance Matrix: (Units=1/GPa)
#
#
# Indices 1 2 3 4 5 6 
#
# 1 0.008369 -0.000369 -0.002897 0.000000 0.007030 0.000000
# 2 -0.000369 0.008250 -0.001155 0.000000 0.003517 0.000000
# 3 -0.002897 -0.001155 0.017026 0.000000 0.003489 0.000000
# 4 0.000000 0.000000 0.000000 -0.149985 0.000000 0.004982
# 5 0.007030 0.003517 0.003489 0.000000 0.033602 0.000000
# 6 0.000000 0.000000 0.000000 0.004982 0.000000 0.056709
#
#
# Mechanical properties :
#
#
# Convention : Reuss Voigt Hill
#
# Bulk Modulus (GPa) = 40.31746 62.10290 51.21018
# Shear Modulus (GPa) = -560.61072 29.83409 -265.38832
#
# Velocity S-wave (km/s) = -15.16910 3.49934 -10.43687
# Velocity P-wave (km/s) = 17.03684 6.46662 11.14533
#
# Compressibility (1/GPa) = 0.02480315
#
# Stress axis : x y z
#
# Youngs Moduli (GPa) = 119.48639 121.21124 58.73347
#
# Poissons Ratio (x) = 0.04479 0.17015
# Poissons Ratio (y) = 0.04415 0.06781
# Poissons Ratio (z) = 0.34615 0.13995
#
# Static dielectric constant tensor:
#      x y z
#    x 1.943010 0.000000 0.043310 
#    y 0.000000 1.937110 0.000000 
#    z 0.043310 0.000000 2.040820 
# 
# From -- ./inp_files/31642.got.cif
#   From: 2010.05.17/outbox.cif.g08.bks.cpg/sg10_16_cif.got.tgz:31642.got - 2010.06.03 11:33:40.
