data_PCOD9148840
_publ_section_title
;
Structure prediction by ZEFSAII (Michael W. Deem and Ramdas Pophale) SiO2 
 PCOD9148840
Probable space group: P 2/M
;
_chemical_formula_sum "Si O2"
_cell_formula_units_Z 32
_cell_length_a 12.623552
_cell_length_b 7.440469
_cell_length_c 33.057073
_cell_angle_alpha 90.000000
_cell_angle_beta 27.767776
_cell_angle_gamma 90.000000
_cell_volume 1446.534510
_symmetry_space_group_name_H-M "P 2/M"
_symmetry_group_IT_number 10
_symmetry_cell_setting 'monoclinic'
loop_
_space_group_symop_operation_xyz
x,y,z
-x,y,-z
-x,-y,-z
x,-y,z
loop_
_atom_site_type_symbol
_atom_site_label
_atom_site_fract_x
_atom_site_fract_y
_atom_site_fract_z
Si Si1 0.978765 0.293980 0.551581
Si Si2 0.487147 0.208703 0.746875
Si Si3 0.962877 0.282397 0.147286
Si Si4 0.208399 0.281289 0.638156
Si Si5 0.253064 0.788697 0.906781
Si Si6 0.138882 0.719775 0.175563
Si Si7 0.269640 0.719562 0.527689
Si Si8 0.616908 0.283309 0.048443
O O1 0.061529 0.500000 0.519413
O O2 0.718101 0.295801 0.653619
O O3 0.000000 0.210271 0.500000
O O4 0.129723 0.214484 0.536585
O O5 0.285543 0.222378 0.782362
O O6 0.384718 0.285569 0.823406
O O7 0.543765 0.000000 0.734302
O O8 0.961275 0.500000 0.147676
O O9 0.043306 0.223423 0.164442
O O10 0.150180 0.221131 0.051241
O O11 0.203447 0.500000 0.640026
O O12 0.465402 0.229028 0.562954
O O13 0.169692 0.223671 0.604932
O O14 0.025212 0.221339 0.732674
O O15 0.387593 0.769646 0.903170
O O16 0.221590 0.000000 0.908486
O O17 0.000000 0.712067 0.000000
O O18 0.139952 0.500000 0.174713
O O19 0.395674 0.777070 0.098543
O O20 0.262920 0.500000 0.530234
O O21 0.618487 0.500000 0.046634
#
# Coordination Sequence:
#
# PCOD9148840 Si02
#       8
#     4   4   4   4   4   4   4   4
#     4  10  22  37  58  87 116 143 180 232 285 337
#     4  11  24  40  58  80 110 152 196 234 279 332
#     4  10  20  35  55  80 114 148 183 229 279 334
#     4   8  14  26  46  72 103 140 172 210 263 322
#     4  10  21  39  58  77 109 153 195 234 277 331
#     4   9  18  30  50  79 112 144 176 222 282 334
#     4   8  15  28  46  74 109 136 168 212 266 327
#     4  10  20  33  54  85 115 143 181 231 285 333
#
# _framework density 22.121836999999999
#
# number of rings (size 3 to 8) (size 9 to 14) (size 15 to 20)
#    0.000    2.500    1.250    1.500    3.500    3.000 
#    0.000    0.625    0.000    1.500    0.000    1.750 
#    0.000    0.000    0.000    0.000    0.000    0.000 
#
# Total GULP energy -178789.242799 kJ/mol
# GULP energy per Si atom -5587.163837 kJ/mol
# Density = 2.207149 g / cm^3
# Si number density = 22.121837 Si / 1000 Ang^3
#
#
#
# Elastic Constant Matrix: (Units=GPa)
#
#
# Indices 1 2 3 4 5 6 
#
# 1 174.1850 -5.7994 49.4486 0.0000 7.5466 0.0000
# 2 -5.7994 68.4904 0.8050 0.0000 4.5191 0.0000
# 3 49.4486 0.8050 86.9846 0.0000 11.2856 0.0000
# 4 0.0000 0.0000 0.0000 -11.0221 0.0000 -1.4208
# 5 7.5466 4.5191 11.2856 0.0000 24.9421 0.0000
# 6 0.0000 0.0000 0.0000 -1.4208 0.0000 -21.1171
#
#
#
# Elastic Compliance Matrix: (Units=1/GPa)
#
#
# Indices 1 2 3 4 5 6 
#
# 1 0.006878 0.000658 -0.003857 0.000000 -0.000455 0.000000
# 2 0.000658 0.014844 -0.000145 0.000000 -0.002823 0.000000
# 3 -0.003857 -0.000145 0.014379 0.000000 -0.005313 0.000000
# 4 0.000000 0.000000 0.000000 -0.091520 0.000000 0.006158
# 5 -0.000455 -0.002823 -0.005313 0.000000 0.043146 0.000000
# 6 0.000000 0.000000 0.000000 0.006158 0.000000 -0.047769
#
#
# Mechanical properties :
#
#
# Convention : Reuss Voigt Hill
#
# Bulk Modulus (GPa) = 33.99847 46.50760 40.25303
# Shear Modulus (GPa) = -114.81055 17.57429 -48.61813
#
# Velocity S-wave (km/s) = -7.21192 2.82162 -4.69310
# Velocity P-wave (km/s) = 7.34487 5.62889 3.33636
#
# Compressibility (1/GPa) = 0.02941309
#
# Stress axis : x y z
#
# Youngs Moduli (GPa) = 145.40141 67.36618 69.54371
#
# Poissons Ratio (x) = -0.04431 0.26821
# Poissons Ratio (y) = -0.09563 0.01008
# Poissons Ratio (z) = 0.56078 0.00977
#
# Static dielectric constant tensor:
#      x y z
#    x 1.781760 0.000000 0.017740 
#    y 0.000000 1.872710 0.000000 
#    z 0.017740 0.000000 1.772210 
# 
# From -- ./inp_files/94937.got.cif
#   From: 2010.05.17/outbox.cif.g08.bks.cpg/sg10_48_cif.got.tgz:94937.got - 2010.06.03 11:33:40.
