data_PCOD9148197
_publ_section_title
;
Structure prediction by ZEFSAII (Michael W. Deem and Ramdas Pophale) SiO2 
 PCOD9148197
Probable space group: P 2/M
;
_chemical_formula_sum "Si O2"
_cell_formula_units_Z 32
_cell_length_a 21.164145
_cell_length_b 19.272242
_cell_length_c 9.030676
_cell_angle_alpha 90.000000
_cell_angle_beta 31.426893
_cell_angle_gamma 90.000000
_cell_volume 1920.581575
_symmetry_space_group_name_H-M "P 2/M"
_symmetry_group_IT_number 10
_symmetry_cell_setting 'monoclinic'
loop_
_space_group_symop_operation_xyz
x,y,z
-x,y,-z
-x,-y,-z
x,-y,z
loop_
_atom_site_type_symbol
_atom_site_label
_atom_site_fract_x
_atom_site_fract_y
_atom_site_fract_z
Si Si1 0.876611 0.292259 0.339785
Si Si2 0.049359 0.344536 0.243256
Si Si3 0.256818 0.175219 0.226980
Si Si4 0.752585 0.920378 0.259521
Si Si5 0.120667 0.919604 0.687945
Si Si6 0.522594 0.079879 0.130981
Si Si7 0.865563 0.576141 0.194267
Si Si8 0.863587 0.198665 0.835180
O O1 0.782413 0.233053 0.573543
O O2 0.813707 0.355711 0.378493
O O3 0.933936 0.320584 0.377159
O O4 0.000000 0.271977 0.000000
O O5 0.128618 0.274677 0.105533
O O6 0.000000 0.367950 0.500000
O O7 0.115847 0.402552 0.013372
O O8 0.159461 0.115801 0.460642
O O9 0.229090 0.199992 0.117415
O O10 0.384611 0.137882 0.997779
O O11 0.780769 0.912928 0.378654
O O12 0.608285 0.913758 0.529975
O O13 0.788259 0.000000 0.149505
O O14 0.823432 0.862118 0.026597
O O15 0.099577 0.000000 0.701399
O O16 0.000000 0.888845 0.000000
O O17 0.567802 0.000000 0.063872
O O18 0.500000 0.087164 0.000000
O O19 0.809755 0.500000 0.324093
O O20 0.000000 0.572547 0.000000
O O21 0.000000 0.187221 0.500000
#
# Coordination Sequence:
#
# PCOD9148197 Si02
#       8
#     4   4   4   4   4   4   4   4
#     4   9  18  29  49  73 102 135 170 215 258 303
#     4   9  16  30  45  69 107 135 163 204 257 307
#     4  12  20  31  53  72  96 135 174 211 261 309
#     4  10  22  38  52  69 100 135 173 224 267 306
#     4  10  20  31  49  73  93 124 173 217 260 310
#     4  10  21  38  55  71  94 130 180 228 266 308
#     4   8  16  28  46  72 102 141 176 200 239 304
#     4  11  22  34  50  75 106 135 170 212 261 318
#
# _framework density 16.661619000000002
#
# number of rings (size 3 to 8) (size 9 to 14) (size 15 to 20)
#    0.000    2.375    3.750    1.500    3.500    2.000 
#    0.000    1.250    0.000    0.000    0.000    0.000 
#    0.000    4.500    0.000    5.625    0.000    0.000 
#
# Total GULP energy -178180.976433 kJ/mol
# GULP energy per Si atom -5568.155514 kJ/mol
# Density = 1.662370 g / cm^3
# Si number density = 16.661619 Si / 1000 Ang^3
#
#
#
# Elastic Constant Matrix: (Units=GPa)
#
#
# Indices 1 2 3 4 5 6 
#
# 1 58.0504 25.4607 12.3413 0.0000 6.2707 0.0000
# 2 25.4607 102.2515 20.0770 0.0000 3.4930 0.0000
# 3 12.3413 20.0770 33.1120 0.0000 -3.8280 0.0000
# 4 0.0000 0.0000 0.0000 -15.0060 0.0000 -3.2516
# 5 6.2707 3.4930 -3.8280 0.0000 25.9305 0.0000
# 6 0.0000 0.0000 0.0000 -3.2516 0.0000 13.0395
#
#
#
# Elastic Compliance Matrix: (Units=1/GPa)
#
#
# Indices 1 2 3 4 5 6 
#
# 1 0.020764 -0.003795 -0.006063 0.000000 -0.005405 0.000000
# 2 -0.003795 0.011961 -0.006021 0.000000 -0.001582 0.000000
# 3 -0.006063 -0.006021 0.037006 0.000000 0.007740 0.000000
# 4 0.000000 0.000000 0.000000 -0.063224 0.000000 -0.015766
# 5 -0.005405 -0.001582 0.007740 0.000000 0.041228 0.000000
# 6 0.000000 0.000000 0.000000 -0.015766 0.000000 0.072759
#
#
# Mechanical properties :
#
#
# Convention : Reuss Voigt Hill
#
# Bulk Modulus (GPa) = 26.33444 34.35245 30.34344
# Shear Modulus (GPa) = 30.31993 13.82844 22.07419
#
# Velocity S-wave (km/s) = 4.27048 2.88402 3.64380
# Velocity P-wave (km/s) = 6.33685 5.63494 5.99618
#
# Compressibility (1/GPa) = 0.03797309
#
# Stress axis : x y z
#
# Youngs Moduli (GPa) = 48.16100 83.60475 27.02289
#
# Poissons Ratio (x) = 0.31729 0.16383
# Poissons Ratio (y) = 0.18278 0.16270
# Poissons Ratio (z) = 0.29198 0.50337
#
# Static dielectric constant tensor:
#      x y z
#    x 1.585250 0.000000 0.009430 
#    y 0.000000 1.600310 0.000000 
#    z 0.009430 0.000000 1.582800 
# 
# From -- ./inp_files/35431.got.cif
#   From: 2010.05.17/outbox.cif.g08.bks.cpg/sg10_18_cif.got.tgz:35431.got - 2010.06.03 11:33:40.
