data_PCOD9148940
_publ_section_title
;
Structure prediction by ZEFSAII (Michael W. Deem and Ramdas Pophale) SiO2 
 PCOD9148940
Probable space group: P 2/M
;
_chemical_formula_sum "Si O2"
_cell_formula_units_Z 28
_cell_length_a 8.779940
_cell_length_b 15.734159
_cell_length_c 13.483943
_cell_angle_alpha 90.000000
_cell_angle_beta 109.000103
_cell_angle_gamma 90.000000
_cell_volume 1761.253168
_symmetry_space_group_name_H-M "P 2/M"
_symmetry_group_IT_number 10
_symmetry_cell_setting 'monoclinic'
loop_
_space_group_symop_operation_xyz
x,y,z
-x,y,-z
-x,-y,-z
x,-y,z
loop_
_atom_site_type_symbol
_atom_site_label
_atom_site_fract_x
_atom_site_fract_y
_atom_site_fract_z
Si Si1 0.873701 0.093106 0.382126
Si Si2 0.824733 0.603096 0.000000
Si Si3 0.372977 0.732431 0.382823
Si Si4 0.429351 0.600688 0.221790
Si Si5 0.792439 0.399312 0.221790
Si Si6 0.009846 0.267569 0.382823
Si Si7 0.508425 0.906894 0.382126
O O1 0.693550 0.102280 0.387099
O O2 0.000000 0.090357 0.500000
O O3 0.923752 0.178278 0.336159
O O4 0.884013 0.000000 0.334242
O O5 0.824969 0.500000 0.000000
O O6 0.687067 0.628032 0.893097
O O7 0.793970 0.628032 0.106903
O O8 0.000000 0.631741 0.000000
O O9 0.500000 0.723183 0.500000
O O10 0.392003 0.655778 0.310278
O O11 0.194915 0.735590 0.389830
O O12 0.412407 0.821722 0.336159
O O13 0.402420 0.500000 0.234246
O O14 0.614188 0.611786 0.228376
O O15 0.831826 0.500000 0.234246
O O16 0.918274 0.344222 0.310278
O O17 0.000000 0.276817 0.500000
O O18 0.500000 0.909643 0.500000
O O19 0.450229 0.000000 0.334242
#
# Coordination Sequence:
#
# PCOD9148940 Si02
#       7
#     4   4   4   4   4   4   4
#     4   9  16  27  44  65  90 120 154 192 232 275
#     4   9  17  31  51  73  94 117 152 197 239 277
#     4  11  21  32  47  68  97 129 160 195 235 283
#     4  10  20  34  51  70  94 125 160 197 236 278
#     4  10  20  34  51  70  94 125 160 197 236 278
#     4  11  21  32  47  68  97 129 160 195 235 283
#     4   9  16  27  44  65  90 120 154 192 232 275
#
# _framework density 15.897771000000001
#
# number of rings (size 3 to 8) (size 9 to 14) (size 15 to 20)
#    0.000    2.143    0.000    6.429    0.000    5.714 
#    0.000    0.000    0.000    0.000    0.000    1.000 
#    0.000    8.000    0.000    0.000    0.000    0.000 
#
# Total GULP energy -156051.536329 kJ/mol
# GULP energy per Si atom -5573.269155 kJ/mol
# Density = 1.586159 g / cm^3
# Si number density = 15.897771 Si / 1000 Ang^3
#
#
#
# Elastic Constant Matrix: (Units=GPa)
#
#
# Indices 1 2 3 4 5 6 
#
# 1 124.4794 67.5340 46.1194 0.0000 -0.4313 0.0000
# 2 67.5340 95.1441 50.9340 0.0000 -0.2699 0.0000
# 3 46.1194 50.9340 73.4995 0.0000 -0.3976 0.0000
# 4 0.0000 0.0000 0.0000 -1.8048 0.0000 -0.4757
# 5 -0.4313 -0.2699 -0.3976 0.0000 25.9165 0.0000
# 6 0.0000 0.0000 0.0000 -0.4757 0.0000 27.4511
#
#
#
# Elastic Compliance Matrix: (Units=1/GPa)
#
#
# Indices 1 2 3 4 5 6 
#
# 1 0.013442 -0.007990 -0.002897 0.000000 0.000096 0.000000
# 2 -0.007990 0.021458 -0.009857 0.000000 -0.000061 0.000000
# 3 -0.002897 -0.009857 0.022255 0.000000 0.000191 0.000000
# 4 0.000000 0.000000 0.000000 -0.551568 0.000000 -0.009558
# 5 0.000096 -0.000061 0.000191 0.000000 0.038589 0.000000
# 6 0.000000 0.000000 0.000000 -0.009558 0.000000 0.036263
#
#
# Mechanical properties :
#
#
# Convention : Reuss Voigt Hill
#
# Bulk Modulus (GPa) = 63.82751 69.14421 66.48586
# Shear Modulus (GPa) = -13.41024 18.88160 2.73568
#
# Velocity S-wave (km/s) = -2.90751 3.45002 1.31321
# Velocity P-wave (km/s) = 5.38186 7.71088 6.64914
#
# Compressibility (1/GPa) = 0.01566723
#
# Stress axis : x y z
#
# Youngs Moduli (GPa) = 74.39365 46.60167 44.93319
#
# Poissons Ratio (x) = 0.37235 0.13018
# Poissons Ratio (y) = 0.59441 0.44291
# Poissons Ratio (z) = 0.21552 0.45936
#
# Static dielectric constant tensor:
#      x y z
#    x 1.528500 0.000000 -0.000430 
#    y 0.000000 1.570550 0.000000 
#    z -0.000430 0.000000 1.502290 
# 
# From -- ./inp_files/42746.got.cif
#   From: 2010.05.17/outbox.cif.g08.bks.cpg/sg10_22_cif.got.tgz:42746.got - 2010.06.03 11:33:40.
