data_PCOD9148811
_publ_section_title
;
Structure prediction by ZEFSAII (Michael W. Deem and Ramdas Pophale) SiO2 
 PCOD9148811
Probable space group: P 2/M
;
_chemical_formula_sum "Si O2"
_cell_formula_units_Z 24
_cell_length_a 11.821452
_cell_length_b 15.031627
_cell_length_c 20.602482
_cell_angle_alpha 90.000000
_cell_angle_beta 18.566194
_cell_angle_gamma 90.000000
_cell_volume 1165.653518
_symmetry_space_group_name_H-M "P 2/M"
_symmetry_group_IT_number 10
_symmetry_cell_setting 'monoclinic'
loop_
_space_group_symop_operation_xyz
x,y,z
-x,y,-z
-x,-y,-z
x,-y,z
loop_
_atom_site_type_symbol
_atom_site_label
_atom_site_fract_x
_atom_site_fract_y
_atom_site_fract_z
Si Si1 0.360568 0.228433 0.843228
Si Si2 0.925482 0.267342 0.205787
Si Si3 0.924570 0.399065 0.763622
Si Si4 0.230509 0.263944 0.497590
Si Si5 0.770667 0.100007 0.698659
Si Si6 0.820457 0.094960 0.875927
O O1 0.598192 0.288463 0.665745
O O2 0.621671 0.144689 0.713983
O O3 0.000000 0.205131 0.000000
O O4 0.233528 0.267590 0.981955
O O5 0.568386 0.251183 0.360292
O O6 0.933067 0.352892 0.247807
O O7 0.966296 0.184747 0.233023
O O8 0.055638 0.500000 0.686027
O O9 0.014203 0.340023 0.651825
O O10 0.500000 0.399494 0.000000
O O11 0.003248 0.173680 0.610471
O O12 0.923522 0.000000 0.612702
O O13 0.395869 0.089834 0.939745
O O14 0.004769 0.000000 0.762881
O O15 0.500000 0.104088 0.000000
#
# Coordination Sequence:
#
# PCOD9148811 Si02
#       6
#     4   4   4   4   4   4
#     4   9  20  37  57  83 117 157 195 233 281 332
#     4  10  20  37  59  83 115 151 189 235 283 337
#     4  11  24  42  64  87 111 144 188 238 292 348
#     4  11  22  36  58  86 117 152 189 234 285 338
#     4  10  20  33  53  83 119 158 197 235 276 329
#     4   9  17  31  52  78 112 153 192 232 279 330
#
# _framework density 20.589307999999999
#
# number of rings (size 3 to 8) (size 9 to 14) (size 15 to 20)
#    0.000    2.000    0.000    4.500    0.000    3.667 
#    0.000    4.167    0.000   12.000    0.000    0.000 
#    0.000    0.000    0.000    0.000    0.000    0.000 
#
# Total GULP energy -133735.211664 kJ/mol
# GULP energy per Si atom -5572.300486 kJ/mol
# Density = 2.054245 g / cm^3
# Si number density = 20.589308 Si / 1000 Ang^3
#
#
#
# Elastic Constant Matrix: (Units=GPa)
#
#
# Indices 1 2 3 4 5 6 
#
# 1 91.4386 63.0406 20.2410 0.0000 9.0328 0.0000
# 2 63.0406 163.5566 50.7815 0.0000 9.8030 0.0000
# 3 20.2410 50.7815 76.2872 0.0000 14.1679 0.0000
# 4 0.0000 0.0000 0.0000 7.1241 0.0000 15.6112
# 5 9.0328 9.8030 14.1679 0.0000 37.7642 0.0000
# 6 0.0000 0.0000 0.0000 15.6112 0.0000 16.4438
#
#
#
# Elastic Compliance Matrix: (Units=1/GPa)
#
#
# Indices 1 2 3 4 5 6 
#
# 1 0.015064 -0.005748 0.000238 0.000000 -0.002200 0.000000
# 2 -0.005748 0.009901 -0.005206 0.000000 0.000758 0.000000
# 3 0.000238 -0.005206 0.017489 0.000000 -0.005267 0.000000
# 4 0.000000 0.000000 0.000000 -0.129925 0.000000 0.123347
# 5 -0.002200 0.000758 -0.005267 0.000000 0.028786 0.000000
# 6 0.000000 0.000000 0.000000 0.123347 0.000000 -0.056288
#
#
# Mechanical properties :
#
#
# Convention : Reuss Voigt Hill
#
# Bulk Modulus (GPa) = 47.57138 66.60094 57.08616
# Shear Modulus (GPa) = -57.78002 25.41438 -16.18282
#
# Velocity S-wave (km/s) = -5.30321 3.51714 -2.80658
# Velocity P-wave (km/s) = 3.78730 6.99366 4.15738
#
# Compressibility (1/GPa) = 0.02102104
#
# Stress axis : x y z
#
# Youngs Moduli (GPa) = 66.38363 101.00358 57.17950
#
# Poissons Ratio (x) = 0.58059 -0.01362
# Poissons Ratio (y) = 0.38159 0.29768
# Poissons Ratio (z) = -0.01581 0.52583
#
# Static dielectric constant tensor:
#      x y z
#    x 1.837560 0.000000 0.113380 
#    y 0.000000 1.742660 0.000000 
#    z 0.113380 0.000000 1.867280 
# 
# From -- ./inp_files/84126.got.cif
#   From: 2010.05.17/outbox.cif.g08.bks.cpg/sg10_43_cif.got.tgz:84126.got - 2010.06.03 11:33:40.
