data_PCOD9148300
_publ_section_title
;
Structure prediction by ZEFSAII (Michael W. Deem and Ramdas Pophale) SiO2 
 PCOD9148300
Probable space group: P 2/M
;
_chemical_formula_sum "Si O2"
_cell_formula_units_Z 32
_cell_length_a 11.254933
_cell_length_b 14.534796
_cell_length_c 15.093006
_cell_angle_alpha 90.000000
_cell_angle_beta 42.436121
_cell_angle_gamma 90.000000
_cell_volume 1666.026665
_symmetry_space_group_name_H-M "P 2/M"
_symmetry_group_IT_number 10
_symmetry_cell_setting 'monoclinic'
loop_
_space_group_symop_operation_xyz
x,y,z
-x,y,-z
-x,-y,-z
x,-y,z
loop_
_atom_site_type_symbol
_atom_site_label
_atom_site_fract_x
_atom_site_fract_y
_atom_site_fract_z
Si Si1 0.315636 0.246570 0.092768
Si Si2 0.242592 0.394547 0.816467
Si Si3 0.104131 0.349578 0.078236
Si Si4 0.105985 0.897831 0.307656
Si Si5 0.081972 0.398286 0.637688
Si Si6 0.285540 0.896839 0.398885
Si Si7 0.732027 0.607613 0.732101
Si Si8 0.612870 0.300457 0.613405
O O1 0.159650 0.184384 0.215694
O O2 0.344369 0.332305 0.144621
O O3 0.247572 0.276976 0.034422
O O4 0.500000 0.194036 0.000000
O O5 0.228655 0.500000 0.790264
O O6 0.086377 0.332549 0.861413
O O7 0.428804 0.349086 0.694058
O O8 0.205381 0.399593 0.942575
O O9 0.036830 0.393259 0.208160
O O10 0.227785 0.888907 0.327972
O O11 0.903279 0.891340 0.447935
O O12 0.134768 0.000000 0.254269
O O13 0.162071 0.500000 0.587750
O O14 0.237373 0.325637 0.540986
O O15 0.941253 0.387878 0.635950
O O16 0.397647 0.809018 0.366289
O O17 0.358362 0.000000 0.373416
O O18 0.680085 0.500000 0.763097
O O19 0.679569 0.654017 0.668978
#
# Coordination Sequence:
#
# PCOD9148300 Si02
#       8
#     4   4   4   4   4   4   4   4
#     4  11  21  34  56  84 114 142 184 233 276 330
#     4  11  23  40  59  76 106 154 200 233 266 323
#     4  10  22  39  57  75 110 157 190 226 275 328
#     4   9  18  34  56  83 114 147 177 217 283 346
#     4  10  20  33  52  79 112 146 179 227 281 325
#     4   9  18  33  56  81 111 147 180 220 276 341
#     4  10  20  32  47  76 117 151 174 213 278 337
#     4  12  21  32  56  86 111 140 188 236 273 318
#
# _framework density 19.207376
#
# number of rings (size 3 to 8) (size 9 to 14) (size 15 to 20)
#    0.000    1.750    1.250    6.000    1.750    3.000 
#    0.000    1.250    0.000    0.750    0.000    4.375 
#    0.000    0.000    0.000    0.000    0.000    0.000 
#
# Total GULP energy -178323.779769 kJ/mol
# GULP energy per Si atom -5572.618118 kJ/mol
# Density = 1.916366 g / cm^3
# Si number density = 19.207376 Si / 1000 Ang^3
#
#
#
# Elastic Constant Matrix: (Units=GPa)
#
#
# Indices 1 2 3 4 5 6 
#
# 1 62.8332 11.2184 9.3613 0.0000 -5.8441 0.0000
# 2 11.2184 69.5014 -0.2981 0.0000 -2.1231 0.0000
# 3 9.3613 -0.2981 34.0321 0.0000 -5.7750 0.0000
# 4 0.0000 0.0000 0.0000 3.1807 0.0000 -8.6941
# 5 -5.8441 -2.1231 -5.7750 0.0000 24.3844 0.0000
# 6 0.0000 0.0000 0.0000 -8.6941 0.0000 4.3890
#
#
#
# Elastic Compliance Matrix: (Units=1/GPa)
#
#
# Indices 1 2 3 4 5 6 
#
# 1 0.017311 -0.002724 -0.004294 0.000000 0.002895 0.000000
# 2 -0.002724 0.014859 0.001030 0.000000 0.000885 0.000000
# 3 -0.004294 0.001030 0.031688 0.000000 0.006565 0.000000
# 4 0.000000 0.000000 0.000000 -0.071217 0.000000 -0.141074
# 5 0.002895 0.000885 0.006565 0.000000 0.043335 0.000000
# 6 0.000000 0.000000 0.000000 -0.141074 0.000000 -0.051611
#
#
# Mechanical properties :
#
#
# Convention : Reuss Voigt Hill
#
# Bulk Modulus (GPa) = 19.27504 22.99221 21.13362
# Shear Modulus (GPa) = 366.65183 16.12981 191.39082
#
# Velocity S-wave (km/s) = 13.83133 2.90103 9.99304
# Velocity P-wave (km/s) = 16.28285 4.81848 12.00727
#
# Compressibility (1/GPa) = 0.05188058
#
# Stress axis : x y z
#
# Youngs Moduli (GPa) = 57.76830 67.29763 31.55731
#
# Poissons Ratio (x) = 0.18333 0.13552
# Poissons Ratio (y) = 0.15737 -0.03249
# Poissons Ratio (z) = 0.24808 -0.06929
#
# Static dielectric constant tensor:
#      x y z
#    x 1.683750 0.000000 0.003420 
#    y 0.000000 1.694090 0.000000 
#    z 0.003420 0.000000 1.716590 
# 
# From -- ./inp_files/65068.got.cif
#   From: 2010.05.17/outbox.cif.g08.bks.cpg/sg10_33_cif.got.tgz:65068.got - 2010.06.03 11:33:40.
