data_PCOD9148656
_publ_section_title
;
Structure prediction by ZEFSAII (Michael W. Deem and Ramdas Pophale) SiO2 
 PCOD9148656
Probable space group: P 2/M
;
_chemical_formula_sum "Si O2"
_cell_formula_units_Z 32
_cell_length_a 20.783431
_cell_length_b 8.971857
_cell_length_c 14.470271
_cell_angle_alpha 90.000000
_cell_angle_beta 43.664284
_cell_angle_gamma 90.000000
_cell_volume 1862.931628
_symmetry_space_group_name_H-M "P 2/M"
_symmetry_group_IT_number 10
_symmetry_cell_setting 'monoclinic'
loop_
_space_group_symop_operation_xyz
x,y,z
-x,y,-z
-x,-y,-z
x,-y,z
loop_
_atom_site_type_symbol
_atom_site_label
_atom_site_fract_x
_atom_site_fract_y
_atom_site_fract_z
Si Si1 0.650942 0.821774 0.591487
Si Si2 0.510981 0.821123 0.094491
Si Si3 0.009792 0.821148 0.597063
Si Si4 0.513731 0.320930 0.592366
Si Si5 0.995210 0.821116 0.112736
Si Si6 0.353248 0.677310 0.904731
Si Si7 0.853038 0.322067 0.401878
Si Si8 0.846535 0.177302 0.908624
O O1 0.580755 0.786766 0.749356
O O2 0.599018 0.760475 0.554310
O O3 0.749992 0.745108 0.502940
O O4 0.661662 0.000000 0.575046
O O5 0.597823 0.747473 0.056261
O O6 0.523213 0.000000 0.083168
O O7 0.500000 0.773116 0.000000
O O8 0.914822 0.788120 0.751657
O O9 0.000000 0.781940 0.500000
O O10 0.092779 0.738669 0.564091
O O11 0.025397 0.000000 0.588028
O O12 0.500000 0.279365 0.500000
O O13 0.528353 0.500000 0.581978
O O14 0.421460 0.285127 0.747950
O O15 0.091872 0.786718 0.064916
O O16 0.913858 0.737649 0.252230
O O17 0.980117 0.000000 0.137841
O O18 0.000000 0.784120 0.000000
O O19 0.351162 0.500000 0.915879
O O20 0.250424 0.738933 0.996099
O O21 0.850519 0.500000 0.404741
O O22 0.829069 0.000000 0.926274
#
# Coordination Sequence:
#
# PCOD9148656 Si02
#       8
#     4   4   4   4   4   4   4   4
#     4  10  20  35  55  77 103 136 176 218 257 305
#     4   9  19  36  56  76  99 131 172 215 257 303
#     4   9  19  37  58  77 100 135 179 222 261 304
#     4   9  19  36  54  74 103 136 170 211 259 307
#     4   9  19  37  58  79 104 136 177 222 262 303
#     4  10  20  33  51  75 104 135 166 205 252 305
#     4  11  22  35  53  78 110 142 172 212 263 319
#     4   9  18  33  53  76 103 133 166 209 257 304
#
# _framework density 17.177227999999999
#
# number of rings (size 3 to 8) (size 9 to 14) (size 15 to 20)
#    0.000    2.500    0.000    2.625    0.000    6.000 
#    0.000    7.500    0.000    0.000    0.000    0.000 
#    0.000    0.000    0.000    0.000    0.000    0.000 
#
# Total GULP energy -178563.259316 kJ/mol
# GULP energy per Si atom -5580.101854 kJ/mol
# Density = 1.713813 g / cm^3
# Si number density = 17.177228 Si / 1000 Ang^3
#
#
#
# Elastic Constant Matrix: (Units=GPa)
#
#
# Indices 1 2 3 4 5 6 
#
# 1 175.0848 73.2285 116.3306 0.0000 3.4384 0.0000
# 2 73.2285 54.7590 56.5784 0.0000 -7.4395 0.0000
# 3 116.3306 56.5784 93.7834 0.0000 -3.4981 0.0000
# 4 0.0000 0.0000 0.0000 2.8270 0.0000 -13.5608
# 5 3.4384 -7.4395 -3.4981 0.0000 41.7433 0.0000
# 6 0.0000 0.0000 0.0000 -13.5608 0.0000 4.6832
#
#
#
# Elastic Compliance Matrix: (Units=1/GPa)
#
#
# Indices 1 2 3 4 5 6 
#
# 1 0.035072 -0.007111 -0.039492 0.000000 -0.007466 0.000000
# 2 -0.007111 0.051584 -0.022003 0.000000 0.007935 0.000000
# 3 -0.039492 -0.022003 0.073128 0.000000 0.005460 0.000000
# 4 0.000000 0.000000 0.000000 -0.027442 0.000000 -0.079463
# 5 -0.007466 0.007935 0.005460 0.000000 0.026443 0.000000
# 6 0.000000 0.000000 0.000000 -0.079463 0.000000 -0.016566
#
#
# Mechanical properties :
#
#
# Convention : Reuss Voigt Hill
#
# Bulk Modulus (GPa) = 44.30592 90.65579 67.48086
# Shear Modulus (GPa) = 17.42437 15.01667 16.22052
#
# Velocity S-wave (km/s) = 3.18840 2.95993 3.07629
# Velocity P-wave (km/s) = 6.27726 8.03572 7.21030
#
# Compressibility (1/GPa) = 0.02257035
#
# Stress axis : x y z
#
# Youngs Moduli (GPa) = 28.51269 19.38600 13.67473
#
# Poissons Ratio (x) = 0.13786 0.54005
# Poissons Ratio (y) = 0.20276 0.30088
# Poissons Ratio (z) = 1.12603 0.42655
#
# Static dielectric constant tensor:
#      x y z
#    x 1.554920 0.000000 0.012290 
#    y 0.000000 1.570720 0.000000 
#    z 0.012290 0.000000 1.565770 
# 
# From -- ./inp_files/70000.got.cif
#   From: 2010.05.17/outbox.cif.g08.bks.cpg/sg10_35_cif.got.tgz:70000.got - 2010.06.03 11:33:40.
