data_PCOD9148906
_publ_section_title
;
Structure prediction by ZEFSAII (Michael W. Deem and Ramdas Pophale) SiO2 
 PCOD9148906
Probable space group: P 2/M
;
_chemical_formula_sum "Si O2"
_cell_formula_units_Z 30
_cell_length_a 10.707751
_cell_length_b 9.801675
_cell_length_c 18.313589
_cell_angle_alpha 90.000000
_cell_angle_beta 115.680476
_cell_angle_gamma 90.000000
_cell_volume 1732.228307
_symmetry_space_group_name_H-M "P 2/M"
_symmetry_group_IT_number 10
_symmetry_cell_setting 'monoclinic'
loop_
_space_group_symop_operation_xyz
x,y,z
-x,y,-z
-x,-y,-z
x,-y,z
loop_
_atom_site_type_symbol
_atom_site_label
_atom_site_fract_x
_atom_site_fract_y
_atom_site_fract_z
Si Si1 0.025249 0.338651 0.165669
Si Si2 0.309952 0.846765 0.048740
Si Si3 0.709221 0.659739 0.095082
Si Si4 0.745919 0.660891 0.663106
Si Si5 0.505389 0.658290 0.180247
Si Si6 0.570639 0.657170 0.360864
Si Si7 0.000000 0.218704 0.000000
Si Si8 0.658964 0.157543 0.510388
O O1 0.041491 0.500000 0.172620
O O2 0.869450 0.306474 0.152491
O O3 0.143921 0.285264 0.249527
O O4 0.032320 0.298962 0.082751
O O5 0.382175 0.762419 0.131839
O O6 0.365536 0.000000 0.056767
O O7 0.334186 0.757299 0.982104
O O8 0.144799 0.854067 0.019310
O O9 0.702613 0.500000 0.069323
O O10 0.613974 0.673093 0.141666
O O11 0.772137 0.500000 0.652585
O O12 0.591862 0.666321 0.658362
O O13 0.743849 0.753927 0.590642
O O14 0.455838 0.500000 0.168665
O O15 0.575916 0.684183 0.275994
O O16 0.613697 0.500000 0.386091
O O17 0.652396 0.762634 0.432122
O O18 0.500000 0.157093 0.500000
O O19 0.703205 0.000000 0.515763
#
# Coordination Sequence:
#
# PCOD9148906 Si02
#       8
#     4   4   4   4   4   4   2   4
#     4   9  17  30  51  75  97 126 163 201 241 286
#     4  11  22  34  49  70  98 131 165 200 240 286
#     4   9  19  35  52  70  95 128 165 204 241 280
#     4   9  16  28  47  71  96 122 155 192 234 287
#     4  10  20  34  52  73  97 126 163 203 242 284
#     4   9  17  29  47  71  96 122 152 192 240 286
#     4  10  20  34  48  70 103 132 159 198 245 286
#     4   9  17  29  45  68  97 125 152 187 235 288
#
# _framework density 17.318733000000002
#
# number of rings (size 3 to 8) (size 9 to 14) (size 15 to 20)
#    0.000    2.533    0.000    2.400    0.000    6.933 
#    0.000    6.000    0.000    0.800    0.000    5.600 
#    0.000    0.000    0.000    0.000    0.000    0.000 
#
# Total GULP energy -167179.138164 kJ/mol
# GULP energy per Si atom -5572.637939 kJ/mol
# Density = 1.727932 g / cm^3
# Si number density = 17.318733 Si / 1000 Ang^3
#
#
#
# Elastic Constant Matrix: (Units=GPa)
#
#
# Indices 1 2 3 4 5 6 
#
# 1 39.9646 27.5810 26.3723 0.0000 -5.0840 0.0000
# 2 27.5810 71.0157 65.1471 0.0000 -1.8375 0.0000
# 3 26.3723 65.1471 136.0946 0.0000 1.4160 0.0000
# 4 0.0000 0.0000 0.0000 -4.9123 0.0000 4.8881
# 5 -5.0840 -1.8375 1.4160 0.0000 20.8814 0.0000
# 6 0.0000 0.0000 0.0000 4.8881 0.0000 6.3371
#
#
#
# Elastic Compliance Matrix: (Units=1/GPa)
#
#
# Indices 1 2 3 4 5 6 
#
# 1 0.035340 -0.012795 -0.000802 0.000000 0.007533 0.000000
# 2 -0.012795 0.029931 -0.011852 0.000000 0.000322 0.000000
# 3 -0.000802 -0.011852 0.013199 0.000000 -0.002133 0.000000
# 4 0.000000 0.000000 0.000000 -0.115171 0.000000 0.088837
# 5 0.007533 0.000322 -0.002133 0.000000 0.049896 0.000000
# 6 0.000000 0.000000 0.000000 0.088837 0.000000 0.089277
#
#
# Mechanical properties :
#
#
# Convention : Reuss Voigt Hill
#
# Bulk Modulus (GPa) = 36.26730 53.91951 45.09341
# Shear Modulus (GPa) = 30.75797 12.99288 21.87543
#
# Velocity S-wave (km/s) = 4.21883 2.74199 3.55788
# Velocity P-wave (km/s) = 6.68714 6.42074 6.55529
#
# Compressibility (1/GPa) = 0.02757305
#
# Stress axis : x y z
#
# Youngs Moduli (GPa) = 28.29692 33.40978 75.76476
#
# Poissons Ratio (x) = 0.42747 0.06074
# Poissons Ratio (y) = 0.36205 0.89795
# Poissons Ratio (z) = 0.02269 0.39597
#
# Static dielectric constant tensor:
#      x y z
#    x 1.597510 0.000000 0.013700 
#    y 0.000000 1.591880 0.000000 
#    z 0.013700 0.000000 1.591580 
# 
# From -- ./inp_files/76249.got.cif
#   From: 2010.05.17/outbox.cif.g08.bks.cpg/sg10_39_cif.got.tgz:76249.got - 2010.06.03 11:33:40.
