data_PCOD9148260
_publ_section_title
;
Structure prediction by ZEFSAII (Michael W. Deem and Ramdas Pophale) SiO2 
 PCOD9148260
Probable space group: P 2/M
;
_chemical_formula_sum "Si O2"
_cell_formula_units_Z 20
_cell_length_a 13.831314
_cell_length_b 18.516431
_cell_length_c 12.353445
_cell_angle_alpha 90.000000
_cell_angle_beta 158.503571
_cell_angle_gamma 90.000000
_cell_volume 1159.352543
_symmetry_space_group_name_H-M "P 2/M"
_symmetry_group_IT_number 10
_symmetry_cell_setting 'monoclinic'
loop_
_space_group_symop_operation_xyz
x,y,z
-x,y,-z
-x,-y,-z
x,-y,z
loop_
_atom_site_type_symbol
_atom_site_label
_atom_site_fract_x
_atom_site_fract_y
_atom_site_fract_z
Si Si1 0.769648 0.808146 0.842628
Si Si2 0.049777 0.418065 0.182241
Si Si3 0.551594 0.335361 0.683716
Si Si4 0.440907 0.912490 0.059164
Si Si5 0.030254 0.913463 0.279796
O O1 0.500000 0.830070 0.500000
O O2 0.673896 0.744145 0.822919
O O3 0.904695 0.872710 0.047981
O O4 0.000000 0.780661 0.000000
O O5 0.124689 0.500000 0.287899
O O6 0.275873 0.360330 0.445695
O O7 0.000000 0.416928 0.000000
O O8 0.773775 0.393295 0.944080
O O9 0.500000 0.338236 0.500000
O O10 0.672820 0.890158 0.382958
O O11 0.456668 0.000000 0.070673
O O12 0.500000 0.885533 0.000000
O O13 0.155891 0.896197 0.811145
O O14 0.025054 0.000000 0.257914
#
# Coordination Sequence:
#
# PCOD9148260 Si02
#       5
#     4   4   4   4   4
#     4  11  21  32  44  58  85 123 156 184 209 240
#     4   9  15  23  37  55  73  95 132 181 217 242
#     4   9  16  26  37  52  75 106 142 174 207 245
#     4   9  17  31  50  69  87 104 129 176 232 278
#     4  10  20  32  47  67  86 110 149 185 216 257
#
# _framework density 17.251007999999999
#
# number of rings (size 3 to 8) (size 9 to 14) (size 15 to 20)
#    0.000    2.400    0.000    5.400    0.000    5.600 
#    0.000    0.000    0.000    0.000    0.000    0.000 
#    0.000    0.000    0.000    0.000    0.000   70.000 
#
# Total GULP energy -111400.933084 kJ/mol
# GULP energy per Si atom -5570.046654 kJ/mol
# Density = 1.721174 g / cm^3
# Si number density = 17.251008 Si / 1000 Ang^3
#
#
#
# Elastic Constant Matrix: (Units=GPa)
#
#
# Indices 1 2 3 4 5 6 
#
# 1 15.7493 5.3940 4.9324 0.0000 7.4916 0.0000
# 2 5.3940 48.7190 11.1548 0.0000 0.1849 0.0000
# 3 4.9324 11.1548 55.4762 0.0000 16.7857 0.0000
# 4 0.0000 0.0000 0.0000 13.8779 0.0000 11.4736
# 5 7.4916 0.1849 16.7857 0.0000 22.8413 0.0000
# 6 0.0000 0.0000 0.0000 11.4736 0.0000 6.6091
#
#
#
# Elastic Compliance Matrix: (Units=1/GPa)
#
#
# Indices 1 2 3 4 5 6 
#
# 1 0.079174 -0.009451 0.003466 0.000000 -0.028438 0.000000
# 2 -0.009451 0.022913 -0.005978 0.000000 0.007308 0.000000
# 3 0.003466 -0.005978 0.024753 0.000000 -0.019279 0.000000
# 4 0.000000 0.000000 0.000000 -0.165549 0.000000 0.287397
# 5 -0.028438 0.007308 -0.019279 0.000000 0.067216 0.000000
# 6 0.000000 0.000000 0.000000 0.287397 0.000000 -0.347621
#
#
# Mechanical properties :
#
#
# Convention : Reuss Voigt Hill
#
# Bulk Modulus (GPa) = 9.71698 18.10078 13.90888
# Shear Modulus (GPa) = -19.16576 15.22988 -1.96794
#
# Velocity S-wave (km/s) = -3.33677 2.97449 -1.06923
# Velocity P-wave (km/s) = 3.03323 4.72357 2.56043
#
# Compressibility (1/GPa) = 0.10291264
#
# Stress axis : x y z
#
# Youngs Moduli (GPa) = 12.63041 43.64278 40.39933
#
# Poissons Ratio (x) = 0.41249 -0.14001
# Poissons Ratio (y) = 0.11938 0.24151
# Poissons Ratio (z) = -0.04377 0.26090
#
# Static dielectric constant tensor:
#      x y z
#    x 1.597040 0.000000 0.016370 
#    y 0.000000 1.616400 0.000000 
#    z 0.016370 0.000000 1.588430 
# 
# From -- ./inp_files/6717.got.cif
#   From: 2010.05.17/outbox.cif.g08.bks.cpg/sg10_4_cif.got.tgz:6717.got - 2010.06.03 11:33:40.
