data_PCOD9148044
_publ_section_title
;
Structure prediction by ZEFSAII (Michael W. Deem and Ramdas Pophale) SiO2 
 PCOD9148044
Probable space group: P 2/M
;
_chemical_formula_sum "Si O2"
_cell_formula_units_Z 30
_cell_length_a 10.792074
_cell_length_b 15.152909
_cell_length_c 11.585576
_cell_angle_alpha 90.000000
_cell_angle_beta 53.541413
_cell_angle_gamma 90.000000
_cell_volume 1523.804967
_symmetry_space_group_name_H-M "P 2/M"
_symmetry_group_IT_number 10
_symmetry_cell_setting 'monoclinic'
loop_
_space_group_symop_operation_xyz
x,y,z
-x,y,-z
-x,-y,-z
x,-y,z
loop_
_atom_site_type_symbol
_atom_site_label
_atom_site_fract_x
_atom_site_fract_y
_atom_site_fract_z
Si Si1 0.000000 0.837178 0.000000
Si Si2 0.376398 0.892725 0.400078
Si Si3 0.861295 0.718103 0.877746
Si Si4 0.834626 0.396154 0.281447
Si Si5 0.304086 0.601969 0.396520
Si Si6 0.293121 0.103348 0.700069
Si Si7 0.337725 0.604261 0.857937
Si Si8 0.168610 0.225839 0.360222
O O1 0.909336 0.780944 0.955497
O O2 0.133795 0.885518 0.854282
O O3 0.555441 0.864309 0.315346
O O4 0.296703 0.863577 0.565936
O O5 0.291974 0.841223 0.345477
O O6 0.365655 0.000000 0.392137
O O7 0.828366 0.769866 0.779208
O O8 0.010215 0.655965 0.777916
O O9 0.721164 0.658662 0.000510
O O10 0.869438 0.500000 0.250612
O O11 0.720890 0.385787 0.452622
O O12 0.757526 0.367203 0.203807
O O13 0.260538 0.500000 0.393616
O O14 0.482216 0.614472 0.266168
O O15 0.206347 0.675578 0.385091
O O16 0.324015 0.000000 0.669577
O O17 0.307224 0.500000 0.891716
O O18 0.000000 0.200681 0.500000
#
# Coordination Sequence:
#
# PCOD9148044 Si02
#       8
#     2   4   4   4   4   4   4   4
#     4  12  23  38  61  98 132 156 198 254 313 378
#     4   9  21  44  72  97 122 158 209 258 310 371
#     4  12  24  37  57  90 126 168 209 249 309 371
#     4  10  19  38  63  87 119 162 212 266 314 366
#     4  10  23  40  62  89 123 164 209 263 316 371
#     4   9  20  42  71  98 122 156 198 255 316 374
#     4  10  21  39  60  88 121 161 213 268 318 364
#     4  12  25  41  61  92 127 168 215 257 309 376
#
# _framework density 19.687560000000001
#
# number of rings (size 3 to 8) (size 9 to 14) (size 15 to 20)
#    0.000    1.600    2.667    2.600    1.867    4.800 
#    2.400    2.667    0.000    1.600    0.000    0.000 
#    0.000    0.000    0.000    0.000    0.000    0.000 
#
# Total GULP energy -167596.547287 kJ/mol
# GULP energy per Si atom -5586.551576 kJ/mol
# Density = 1.964275 g / cm^3
# Si number density = 19.687560 Si / 1000 Ang^3
#
#
#
# Elastic Constant Matrix: (Units=GPa)
#
#
# Indices 1 2 3 4 5 6 
#
# 1 55.1378 19.4269 10.7134 0.0000 14.4769 0.0000
# 2 19.4269 37.5776 11.4747 0.0000 6.1742 0.0000
# 3 10.7134 11.4747 86.4608 0.0000 -2.4270 0.0000
# 4 0.0000 0.0000 0.0000 14.6567 0.0000 -4.9172
# 5 14.4769 6.1742 -2.4270 0.0000 36.4178 0.0000
# 6 0.0000 0.0000 0.0000 -4.9172 0.0000 39.1620
#
#
#
# Elastic Compliance Matrix: (Units=1/GPa)
#
#
# Indices 1 2 3 4 5 6 
#
# 1 0.024368 -0.010729 -0.001820 0.000000 -0.007989 0.000000
# 2 -0.010729 0.033383 -0.003146 0.000000 -0.001604 0.000000
# 3 -0.001820 -0.003146 0.012267 0.000000 0.002074 0.000000
# 4 0.000000 0.000000 0.000000 0.071229 0.000000 0.008944
# 5 -0.007989 -0.001604 0.002074 0.000000 0.031045 0.000000
# 6 0.000000 0.000000 0.000000 0.008944 0.000000 0.026658
#
#
# Mechanical properties :
#
#
# Convention : Reuss Voigt Hill
#
# Bulk Modulus (GPa) = 25.88825 29.15624 27.52225
# Shear Modulus (GPa) = 20.55789 27.21803 23.88796
#
# Velocity S-wave (km/s) = 3.23492 3.72223 3.48710
# Velocity P-wave (km/s) = 5.20875 5.77191 5.49755
#
# Compressibility (1/GPa) = 0.03862756
#
# Stress axis : x y z
#
# Youngs Moduli (GPa) = 41.03765 29.95569 81.51841
#
# Poissons Ratio (x) = 0.32141 0.14834
# Poissons Ratio (y) = 0.44031 0.25645
# Poissons Ratio (z) = 0.07468 0.09424
#
# Static dielectric constant tensor:
#      x y z
#    x 1.675150 0.000000 -0.011280 
#    y 0.000000 1.709240 0.000000 
#    z -0.011280 0.000000 1.715700 
# 
# From -- ./inp_files/47637.got.cif
#   From: 2010.05.17/outbox.cif.g08.bks.cpg/sg10_24_cif.got.tgz:47637.got - 2010.06.03 11:33:40.
