data_PCOD9148275
_publ_section_title
;
Structure prediction by ZEFSAII (Michael W. Deem and Ramdas Pophale) SiO2 
 PCOD9148275
Probable space group: P 2/M
;
_chemical_formula_sum "Si O2"
_cell_formula_units_Z 24
_cell_length_a 23.929570
_cell_length_b 9.983660
_cell_length_c 17.604288
_cell_angle_alpha 90.000000
_cell_angle_beta 15.712176
_cell_angle_gamma 90.000000
_cell_volume 1138.937407
_symmetry_space_group_name_H-M "P 2/M"
_symmetry_group_IT_number 10
_symmetry_cell_setting 'monoclinic'
loop_
_space_group_symop_operation_xyz
x,y,z
-x,y,-z
-x,-y,-z
x,-y,z
loop_
_atom_site_type_symbol
_atom_site_label
_atom_site_fract_x
_atom_site_fract_y
_atom_site_fract_z
Si Si1 0.757968 0.350490 0.344815
Si Si2 0.309862 0.847495 0.691446
Si Si3 0.384113 0.349686 0.073449
Si Si4 0.053729 0.352451 0.275932
Si Si5 0.022917 0.344504 0.797911
Si Si6 0.773564 0.152611 0.837902
O O1 0.678759 0.500000 0.432379
O O2 0.648398 0.236626 0.439671
O O3 0.777371 0.330138 0.409706
O O4 0.000000 0.348265 0.000000
O O5 0.500000 0.850148 0.500000
O O6 0.247535 0.000000 0.755552
O O7 0.136054 0.763863 0.962895
O O8 0.455309 0.500000 0.956674
O O9 0.144487 0.361458 0.410497
O O10 0.379416 0.235481 0.016432
O O11 0.500000 0.314685 0.000000
O O12 0.155147 0.500000 0.143258
O O13 0.965744 0.326614 0.306929
O O14 0.193988 0.237206 0.127622
O O15 0.953790 0.500000 0.900561
O O16 0.000000 0.146726 0.500000
O O17 0.708275 0.000000 0.936302
#
# Coordination Sequence:
#
# PCOD9148275 Si02
#       6
#     4   4   4   4   4   4
#     4   8  15  29  48  68  90 118 154 191 227 272
#     4  10  20  32  47  69  96 124 154 188 228 277
#     4   9  17  30  49  71  95 124 157 193 233 276
#     4   9  17  31  50  70  93 121 155 194 233 274
#     4   9  18  32  50  71  92 118 155 196 234 273
#     4   9  17  29  46  68  94 125 159 191 227 275
#
# _framework density 21.072272999999999
#
# number of rings (size 3 to 8) (size 9 to 14) (size 15 to 20)
#    0.000    3.000    0.000    2.000    0.000    7.333 
#    0.000    1.667    0.000    4.000    0.000    0.000 
#    0.000    0.000    0.000    0.000    0.000    0.000 
#
# Total GULP energy -133815.480205 kJ/mol
# GULP energy per Si atom -5575.645009 kJ/mol
# Density = 2.102431 g / cm^3
# Si number density = 21.072273 Si / 1000 Ang^3
#
#
#
# Elastic Constant Matrix: (Units=GPa)
#
#
# Indices 1 2 3 4 5 6 
#
# 1 143.9268 111.0345 -2.5889 0.0000 -6.6719 0.0000
# 2 111.0345 186.9022 22.3798 0.0000 -7.6435 0.0000
# 3 -2.5889 22.3798 33.8755 0.0000 2.9235 0.0000
# 4 0.0000 0.0000 0.0000 20.2486 0.0000 -2.3520
# 5 -6.6719 -7.6435 2.9235 0.0000 21.5175 0.0000
# 6 0.0000 0.0000 0.0000 -2.3520 0.0000 30.8022
#
#
#
# Elastic Compliance Matrix: (Units=1/GPa)
#
#
# Indices 1 2 3 4 5 6 
#
# 1 0.014311 -0.009368 0.007272 0.000000 0.000122 0.000000
# 2 -0.009368 0.012091 -0.008929 0.000000 0.002604 0.000000
# 3 0.007272 -0.008929 0.036481 0.000000 -0.005873 0.000000
# 4 0.000000 0.000000 0.000000 0.049828 0.000000 0.003805
# 5 0.000122 0.002604 -0.005873 0.000000 0.048234 0.000000
# 6 0.000000 0.000000 0.000000 0.003805 0.000000 0.032756
#
#
# Mechanical properties :
#
#
# Convention : Reuss Voigt Hill
#
# Bulk Modulus (GPa) = 24.48878 69.59503 47.04191
# Shear Modulus (GPa) = 21.79953 30.10561 25.95257
#
# Velocity S-wave (km/s) = 3.21987 3.78389 3.51322
# Velocity P-wave (km/s) = 5.04678 7.22419 6.23133
#
# Compressibility (1/GPa) = 0.04083502
#
# Stress axis : x y z
#
# Youngs Moduli (GPa) = 69.87421 82.70444 27.41133
#
# Poissons Ratio (x) = 0.77477 -0.19934
# Poissons Ratio (y) = 0.65457 0.24475
# Poissons Ratio (z) = -0.50813 0.73844
#
# Static dielectric constant tensor:
#      x y z
#    x 1.786870 0.000000 0.023400 
#    y 0.000000 1.743110 0.000000 
#    z 0.023400 0.000000 1.805890 
# 
# From -- ./inp_files/31184.got.cif
#   From: 2010.05.17/outbox.cif.g08.bks.cpg/sg10_16_cif.got.tgz:31184.got - 2010.06.03 11:33:40.
