data_PCOD9148179
_publ_section_title
;
Structure prediction by ZEFSAII (Michael W. Deem and Ramdas Pophale) SiO2 
 PCOD9148179
Probable space group: P 2/M
;
_chemical_formula_sum "Si O2"
_cell_formula_units_Z 32
_cell_length_a 19.028542
_cell_length_b 7.390134
_cell_length_c 26.194992
_cell_angle_alpha 90.000000
_cell_angle_beta 23.947764
_cell_angle_gamma 90.000000
_cell_volume 1495.199020
_symmetry_space_group_name_H-M "P 2/M"
_symmetry_group_IT_number 10
_symmetry_cell_setting 'monoclinic'
loop_
_space_group_symop_operation_xyz
x,y,z
-x,y,-z
-x,-y,-z
x,-y,z
loop_
_atom_site_type_symbol
_atom_site_label
_atom_site_fract_x
_atom_site_fract_y
_atom_site_fract_z
Si Si1 0.097399 0.279671 0.357887
Si Si2 0.236892 0.218120 0.646422
Si Si3 0.741498 0.279736 0.641702
Si Si4 0.411659 0.779396 0.636122
Si Si5 0.301420 0.721380 0.122665
Si Si6 0.353333 0.281196 0.879404
Si Si7 0.193418 0.787067 0.875785
Si Si8 0.839273 0.711016 0.891924
O O1 0.097407 0.500000 0.357387
O O2 0.209996 0.225961 0.332648
O O3 0.181556 0.219000 0.249319
O O4 0.900421 0.222588 0.500098
O O5 0.392089 0.279036 0.506150
O O6 0.293735 0.273541 0.665842
O O7 0.046007 0.277772 0.758382
O O8 0.235197 0.000000 0.647226
O O9 0.740587 0.500000 0.641969
O O10 0.552028 0.219150 0.751139
O O11 0.325996 0.714667 0.745264
O O12 0.417106 0.000000 0.632625
O O13 0.297066 0.500000 0.125738
O O14 0.231628 0.785609 0.114339
O O15 0.500000 0.773987 0.000000
O O16 0.354103 0.500000 0.879988
O O17 0.265180 0.229880 0.884960
O O18 0.247157 0.214288 0.999198
O O19 0.178780 0.000000 0.873479
O O20 0.000000 0.709995 0.000000
O O21 0.789845 0.500000 0.924006
#
# Coordination Sequence:
#
# PCOD9148179 Si02
#       8
#     4   4   4   4   4   4   4   4
#     4   8  13  23  41  63  87 119 158 191 222 270
#     4   9  17  33  55  72  91 123 157 188 230 282
#     4   8  14  25  41  63  91 120 151 190 231 271
#     4   8  16  32  53  74  93 118 156 195 227 271
#     4   9  16  26  41  61  88 123 157 189 229 275
#     4  10  20  32  46  68  99 128 153 191 242 283
#     4  10  20  34  52  72  93 120 158 198 230 271
#     4  10  20  31  45  70 100 124 154 198 238 273
#
# _framework density 21.401831999999999
#
# number of rings (size 3 to 8) (size 9 to 14) (size 15 to 20)
#    0.000    3.000    0.000    3.000    0.000    5.750 
#    0.000    3.750    0.000    0.375    0.000    2.625 
#    0.000    0.000    0.000    0.000    0.000    0.000 
#
# Total GULP energy -178672.173303 kJ/mol
# GULP energy per Si atom -5583.505416 kJ/mol
# Density = 2.135312 g / cm^3
# Si number density = 21.401832 Si / 1000 Ang^3
#
#
#
# Elastic Constant Matrix: (Units=GPa)
#
#
# Indices 1 2 3 4 5 6 
#
# 1 158.9459 -11.9853 136.2305 0.0000 9.2244 0.0000
# 2 -11.9853 68.0906 -5.5323 0.0000 6.1823 0.0000
# 3 136.2305 -5.5323 197.1276 0.0000 15.9327 0.0000
# 4 0.0000 0.0000 0.0000 1.4677 0.0000 3.2741
# 5 9.2244 6.1823 15.9327 0.0000 45.0824 0.0000
# 6 0.0000 0.0000 0.0000 3.2741 0.0000 -10.1281
#
#
#
# Elastic Compliance Matrix: (Units=1/GPa)
#
#
# Indices 1 2 3 4 5 6 
#
# 1 0.015675 0.001848 -0.010810 0.000000 0.000360 0.000000
# 2 0.001848 0.015158 -0.000672 0.000000 -0.002219 0.000000
# 3 -0.010810 -0.000672 0.012701 0.000000 -0.002185 0.000000
# 4 0.000000 0.000000 0.000000 0.395859 0.000000 0.127969
# 5 0.000360 -0.002219 -0.002185 0.000000 0.023184 0.000000
# 6 0.000000 0.000000 0.000000 0.127969 0.000000 -0.057366
#
#
# Mechanical properties :
#
#
# Convention : Reuss Voigt Hill
#
# Bulk Modulus (GPa) = 41.20955 73.50999 57.35977
# Shear Modulus (GPa) = 11.55888 27.64780 19.60334
#
# Velocity S-wave (km/s) = 2.32650 3.59812 3.02978
# Velocity P-wave (km/s) = 5.14915 7.18916 6.25291
#
# Compressibility (1/GPa) = 0.02426622
#
# Stress axis : x y z
#
# Youngs Moduli (GPa) = 63.79665 65.96965 78.73452
#
# Poissons Ratio (x) = -0.12192 0.85110
# Poissons Ratio (y) = -0.11791 0.05294
# Poissons Ratio (z) = 0.68962 0.04436
#
# Static dielectric constant tensor:
#      x y z
#    x 1.713960 0.000000 0.013080 
#    y 0.000000 1.842170 0.000000 
#    z 0.013080 0.000000 1.755450 
# 
# From -- ./inp_files/93647.got.cif
#   From: 2010.05.17/outbox.cif.g08.bks.cpg/sg10_47_cif.got.tgz:93647.got - 2010.06.03 11:33:40.
