data_PCOD9148462
_publ_section_title
;
Structure prediction by ZEFSAII (Michael W. Deem and Ramdas Pophale) SiO2 
 PCOD9148462
Probable space group: P 2/M
;
_chemical_formula_sum "Si O2"
_cell_formula_units_Z 28
_cell_length_a 31.112756
_cell_length_b 12.118092
_cell_length_c 25.111756
_cell_angle_alpha 90.000000
_cell_angle_beta 9.449246
_cell_angle_gamma 90.000000
_cell_volume 1554.367957
_symmetry_space_group_name_H-M "P 2/M"
_symmetry_group_IT_number 10
_symmetry_cell_setting 'monoclinic'
loop_
_space_group_symop_operation_xyz
x,y,z
-x,y,-z
-x,-y,-z
x,-y,z
loop_
_atom_site_type_symbol
_atom_site_label
_atom_site_fract_x
_atom_site_fract_y
_atom_site_fract_z
Si Si1 0.049770 0.301288 0.151356
Si Si2 0.687688 0.500000 0.219934
Si Si3 0.735811 0.500000 0.356162
Si Si4 0.767895 0.798749 0.815432
Si Si5 0.466111 0.301747 0.733779
Si Si6 0.612228 0.374522 0.769632
Si Si7 0.664676 0.872942 0.574338
Si Si8 0.029953 0.623342 0.348594
O O1 0.829620 0.359956 0.457312
O O2 0.911986 0.194412 0.295129
O O3 0.141464 0.389511 0.995263
O O4 0.292944 0.273901 0.893226
O O5 0.500000 0.500000 0.500000
O O6 0.505477 0.500000 0.390250
O O7 0.693268 0.388303 0.441478
O O8 0.000000 0.500000 0.000000
O O9 0.914124 0.714394 0.676282
O O10 0.000000 0.858892 0.500000
O O11 0.596065 0.720458 0.986851
O O12 0.564368 0.865210 0.100759
O O13 0.566219 0.195445 0.643285
O O14 0.267852 0.365076 0.015793
O O15 0.509429 0.500000 0.893048
O O16 0.767687 0.360066 0.634835
O O17 0.720514 0.000000 0.494652
O O18 0.029299 0.500000 0.371738
#
# Coordination Sequence:
#
# PCOD9148462 Si02
#       8
#     4   2   2   4   4   4   4   4
#     4   9  18  34  54  79 112 139 175 222 262 318
#     4  10  20  32  54  92 120 141 165 205 277 333
#     4  10  20  32  54  92 120 141 165 205 277 333
#     4  10  21  33  46  72 104 132 175 233 280 314
#     4   9  18  34  54  79 112 139 175 222 262 318
#     4   9  16  29  49  70 100 141 176 206 260 329
#     4  10  22  37  58  78  96 146 200 226 264 310
#     4   9  16  29  49  70 100 141 176 206 260 329
#
# _framework density 18.013753000000001
#
# number of rings (size 3 to 8) (size 9 to 14) (size 15 to 20)
#    0.000    2.571    1.429    0.429    2.000    2.571 
#    0.000    1.429    0.000    0.857    0.000    8.000 
#    0.000    0.000    0.000    0.000    0.000    0.000 
#
# Total GULP energy -156193.071506 kJ/mol
# GULP energy per Si atom -5578.323982 kJ/mol
# Density = 1.797275 g / cm^3
# Si number density = 18.013753 Si / 1000 Ang^3
#
#
#
# Elastic Constant Matrix: (Units=GPa)
#
#
# Indices 1 2 3 4 5 6 
#
# 1 46.7222 38.8739 28.3746 0.0000 -18.5220 0.0000
# 2 38.8739 127.2935 43.7284 0.0000 -11.4819 0.0000
# 3 28.3746 43.7284 94.5279 0.0000 11.1013 0.0000
# 4 0.0000 0.0000 0.0000 -47.1410 0.0000 -47.1347
# 5 -18.5220 -11.4819 11.1013 0.0000 19.7487 0.0000
# 6 0.0000 0.0000 0.0000 -47.1347 0.0000 -19.4540
#
#
#
# Elastic Compliance Matrix: (Units=1/GPa)
#
#
# Indices 1 2 3 4 5 6 
#
# 1 0.083946 -0.005523 -0.033740 0.000000 0.094487 0.000000
# 2 -0.005523 0.011222 -0.003952 0.000000 0.003566 0.000000
# 3 -0.033740 -0.003952 0.028396 0.000000 -0.049904 0.000000
# 4 0.000000 0.000000 0.000000 0.014912 0.000000 -0.036130
# 5 0.094487 0.003566 -0.049904 0.000000 0.169380 0.000000
# 6 0.000000 0.000000 0.000000 -0.036130 0.000000 0.036134
#
#
# Mechanical properties :
#
#
# Convention : Reuss Voigt Hill
#
# Bulk Modulus (GPa) = 26.92981 54.49970 40.71475
# Shear Modulus (GPa) = 11.29184 1.13518 6.21351
#
# Velocity S-wave (km/s) = 2.50640 0.79470 1.85925
# Velocity P-wave (km/s) = 4.83302 5.58231 5.22113
#
# Compressibility (1/GPa) = 0.03713357
#
# Stress axis : x y z
#
# Youngs Moduli (GPa) = 11.91242 89.11208 35.21672
#
# Poissons Ratio (x) = 0.49216 1.18821
# Poissons Ratio (y) = 0.06579 0.13918
# Poissons Ratio (z) = 0.40192 0.35219
#
# Static dielectric constant tensor:
#      x y z
#    x 1.637880 0.000000 0.004880 
#    y 0.000000 1.568270 0.000000 
#    z 0.004880 0.000000 1.645460 
# 
# From -- ./inp_files/79609.got.cif
#   From: 2010.05.17/outbox.cif.g08.bks.cpg/sg10_40_cif.got.tgz:79609.got - 2010.06.03 11:33:40.
