data_PCOD9148478
_publ_section_title
;
Structure prediction by ZEFSAII (Michael W. Deem and Ramdas Pophale) SiO2 
 PCOD9148478
Probable space group: P 2/M
;
_chemical_formula_sum "Si O2"
_cell_formula_units_Z 24
_cell_length_a 14.926855
_cell_length_b 10.951395
_cell_length_c 14.282822
_cell_angle_alpha 90.000000
_cell_angle_beta 150.889204
_cell_angle_gamma 90.000000
_cell_volume 1135.885715
_symmetry_space_group_name_H-M "P 2/M"
_symmetry_group_IT_number 10
_symmetry_cell_setting 'monoclinic'
loop_
_space_group_symop_operation_xyz
x,y,z
-x,y,-z
-x,-y,-z
x,-y,z
loop_
_atom_site_type_symbol
_atom_site_label
_atom_site_fract_x
_atom_site_fract_y
_atom_site_fract_z
Si Si1 0.072554 0.728744 0.960729
Si Si2 0.067230 0.000000 0.954544
Si Si3 0.076619 0.133420 0.464868
Si Si4 0.503612 0.000000 0.615648
Si Si5 0.493539 0.862057 0.098776
Si Si6 0.130577 0.634179 0.394655
Si Si7 0.480689 0.752676 0.276134
O O1 0.972308 0.639549 0.798383
O O2 0.295021 0.716175 0.161432
O O3 0.000000 0.716889 0.000000
O O4 0.016594 0.866008 0.873241
O O5 0.286653 0.000000 0.158426
O O6 0.000000 0.000000 0.000000
O O7 0.296103 0.128193 0.676857
O O8 0.044616 0.256262 0.377925
O O9 0.000000 0.142890 0.500000
O O10 0.016919 0.000000 0.371361
O O11 0.500000 0.000000 0.500000
O O12 0.432816 0.126113 0.594812
O O13 0.407139 0.787662 0.104819
O O14 0.415862 0.000000 0.021456
O O15 0.500000 0.809564 0.000000
O O16 0.108470 0.500000 0.417322
O O17 0.348627 0.661202 0.578175
#
# Coordination Sequence:
#
# PCOD9148478 Si02
#       7
#     4   2   4   2   4   4   4
#     4  10  23  40  62  93 126 165 216 265 318 379
#     4   8  18  34  52  93 118 146 201 260 316 365
#     4   9  20  39  63  96 122 158 210 262 320 375
#     4  10  20  32  61  91 122 159 207 260 327 364
#     4   9  17  32  56  87 125 156 192 249 313 375
#     4  11  26  42  63  91 127 175 214 256 317 378
#     4  10  22  39  61  91 127 164 209 263 316 381
#
# _framework density 21.128886999999999
#
# number of rings (size 3 to 8) (size 9 to 14) (size 15 to 20)
#    0.000    2.333    0.833    0.000   11.667    1.333 
#    0.000    0.833    0.000    2.000    0.000    0.000 
#    0.000    0.000    0.000    0.000    0.000    0.000 
#
# Total GULP energy -133832.586574 kJ/mol
# GULP energy per Si atom -5576.357774 kJ/mol
# Density = 2.108080 g / cm^3
# Si number density = 21.128887 Si / 1000 Ang^3
#
#
#
# Elastic Constant Matrix: (Units=GPa)
#
#
# Indices 1 2 3 4 5 6 
#
# 1 115.1576 40.9225 20.2355 0.0000 -3.5371 0.0000
# 2 40.9225 133.6143 22.5318 0.0000 -12.5206 0.0000
# 3 20.2355 22.5318 55.9717 0.0000 3.4474 0.0000
# 4 0.0000 0.0000 0.0000 12.8672 0.0000 -4.2810
# 5 -3.5371 -12.5206 3.4474 0.0000 40.4673 0.0000
# 6 0.0000 0.0000 0.0000 -4.2810 0.0000 11.6188
#
#
#
# Elastic Compliance Matrix: (Units=1/GPa)
#
#
# Indices 1 2 3 4 5 6 
#
# 1 0.010082 -0.002621 -0.002608 0.000000 0.000293 0.000000
# 2 -0.002621 0.009033 -0.002862 0.000000 0.002809 0.000000
# 3 -0.002608 -0.002862 0.020135 0.000000 -0.002829 0.000000
# 4 0.000000 0.000000 0.000000 0.088575 0.000000 0.032636
# 5 0.000293 0.002809 -0.002829 0.000000 0.025847 0.000000
# 6 0.000000 0.000000 0.000000 0.032636 0.000000 0.098092
#
#
# Mechanical properties :
#
#
# Convention : Reuss Voigt Hill
#
# Bulk Modulus (GPa) = 43.34777 52.45813 47.90295
# Shear Modulus (GPa) = 18.13985 27.72756 22.93371
#
# Velocity S-wave (km/s) = 2.93325 3.62651 3.29814
# Velocity P-wave (km/s) = 5.65972 6.51283 6.10120
#
# Compressibility (1/GPa) = 0.02306924
#
# Stress axis : x y z
#
# Youngs Moduli (GPa) = 99.18329 110.70846 49.66389
#
# Poissons Ratio (x) = 0.29014 0.12953
# Poissons Ratio (y) = 0.25993 0.14213
# Poissons Ratio (z) = 0.25868 0.31682
#
# Static dielectric constant tensor:
#      x y z
#    x 1.904630 0.000000 0.018700 
#    y 0.000000 1.813100 0.000000 
#    z 0.018700 0.000000 1.745500 
# 
# From -- ./inp_files/37551.got.cif
#   From: 2010.05.17/outbox.cif.g08.bks.cpg/sg10_19_cif.got.tgz:37551.got - 2010.06.03 11:33:40.
