data_PCOD9148286
_publ_section_title
;
Structure prediction by ZEFSAII (Michael W. Deem and Ramdas Pophale) SiO2 
 PCOD9148286
Probable space group: P 2/M
;
_chemical_formula_sum "Si O2"
_cell_formula_units_Z 24
_cell_length_a 19.071087
_cell_length_b 9.251566
_cell_length_c 25.169947
_cell_angle_alpha 90.000000
_cell_angle_beta 19.080322
_cell_angle_gamma 90.000000
_cell_volume 1451.707343
_symmetry_space_group_name_H-M "P 2/M"
_symmetry_group_IT_number 10
_symmetry_cell_setting 'monoclinic'
loop_
_space_group_symop_operation_xyz
x,y,z
-x,y,-z
-x,-y,-z
x,-y,z
loop_
_atom_site_type_symbol
_atom_site_label
_atom_site_fract_x
_atom_site_fract_y
_atom_site_fract_z
Si Si1 0.593268 0.164701 0.493500
Si Si2 0.191782 0.825922 0.322791
Si Si3 0.753793 0.835319 0.832978
Si Si4 0.643505 0.671710 0.014071
Si Si5 0.986789 0.328293 0.170785
Si Si6 0.866538 0.174068 0.148041
O O1 0.500000 0.161788 0.500000
O O2 0.797762 0.266888 0.343926
O O3 0.386549 0.211531 0.675485
O O4 0.654668 0.000000 0.463437
O O5 0.138408 0.788477 0.299551
O O6 0.412896 0.748797 0.180270
O O7 0.000000 0.790145 0.500000
O O8 0.225354 0.000000 0.299570
O O9 0.817776 0.000000 0.800347
O O10 0.500000 0.838206 0.000000
O O11 0.768980 0.733091 0.872703
O O12 0.615784 0.500000 0.028581
O O13 0.787341 0.702079 0.962659
O O14 0.961698 0.500000 0.182672
O O15 0.959774 0.251207 0.133394
O O16 0.874351 0.000000 0.150577
O O17 0.000000 0.209901 0.000000
#
# Coordination Sequence:
#
# PCOD9148286 Si02
#       6
#     4   4   4   4   4   4
#     4   8  15  29  49  70  90 117 155 194 231 275
#     4   9  18  33  52  73  96 123 158 198 239 285
#     4   8  15  29  49  70  90 117 155 194 231 275
#     4  10  20  32  47  70  98 127 160 196 235 281
#     4  10  20  32  47  70  98 127 160 196 235 281
#     4   9  18  33  52  73  96 123 158 198 239 285
#
# _framework density 16.532259
#
# number of rings (size 3 to 8) (size 9 to 14) (size 15 to 20)
#    0.000    3.000    0.000    3.000    0.000    9.333 
#    0.000    1.667    0.000   10.000    0.000    0.000 
#    0.000    0.000    0.000    0.000    0.000    0.000 
#
# Total GULP energy -133647.607973 kJ/mol
# GULP energy per Si atom -5568.650332 kJ/mol
# Density = 1.649463 g / cm^3
# Si number density = 16.532259 Si / 1000 Ang^3
#
#
#
# Elastic Constant Matrix: (Units=GPa)
#
#
# Indices 1 2 3 4 5 6 
#
# 1 77.8107 47.1019 57.2021 0.0000 8.5709 0.0000
# 2 47.1019 50.9660 44.2434 0.0000 -2.5127 0.0000
# 3 57.2021 44.2434 113.7306 0.0000 23.0159 0.0000
# 4 0.0000 0.0000 0.0000 16.3834 0.0000 -10.8443
# 5 8.5709 -2.5127 23.0159 0.0000 27.8771 0.0000
# 6 0.0000 0.0000 0.0000 -10.8443 0.0000 28.7548
#
#
#
# Elastic Compliance Matrix: (Units=1/GPa)
#
#
# Indices 1 2 3 4 5 6 
#
# 1 0.034226 -0.028467 -0.004192 0.000000 -0.009628 0.000000
# 2 -0.028467 0.059274 -0.013919 0.000000 0.025587 0.000000
# 3 -0.004192 -0.013919 0.019580 0.000000 -0.016132 0.000000
# 4 0.000000 0.000000 0.000000 0.081342 0.000000 0.030677
# 5 -0.009628 0.025587 -0.016132 0.000000 0.054457 0.000000
# 6 0.000000 0.000000 0.000000 0.030677 0.000000 0.046346
#
#
# Mechanical properties :
#
#
# Convention : Reuss Voigt Hill
#
# Bulk Modulus (GPa) = 50.18806 59.95580 55.07193
# Shear Modulus (GPa) = 12.65753 20.86706 16.76229
#
# Velocity S-wave (km/s) = 2.77000 3.55660 3.18766
# Velocity P-wave (km/s) = 6.37605 7.29456 6.85072
#
# Compressibility (1/GPa) = 0.01992506
#
# Stress axis : x y z
#
# Youngs Moduli (GPa) = 29.21783 16.87083 51.07143
#
# Poissons Ratio (x) = 0.48026 0.21408
# Poissons Ratio (y) = 0.83173 0.71087
# Poissons Ratio (z) = 0.12247 0.23483
#
# Static dielectric constant tensor:
#      x y z
#    x 1.555810 0.000000 0.016630 
#    y 0.000000 1.552300 0.000000 
#    z 0.016630 0.000000 1.574620 
# 
# From -- ./inp_files/78596.got.cif
#   From: 2010.05.17/outbox.cif.g08.bks.cpg/sg10_40_cif.got.tgz:78596.got - 2010.06.03 11:33:40.
