data_PCOD9148666
_publ_section_title
;
Structure prediction by ZEFSAII (Michael W. Deem and Ramdas Pophale) SiO2 
 PCOD9148666
Probable space group: P 2/M
;
_chemical_formula_sum "Si O2"
_cell_formula_units_Z 28
_cell_length_a 20.038347
_cell_length_b 11.088081
_cell_length_c 17.079504
_cell_angle_alpha 90.000000
_cell_angle_beta 157.036763
_cell_angle_gamma 90.000000
_cell_volume 1480.520700
_symmetry_space_group_name_H-M "P 2/M"
_symmetry_group_IT_number 10
_symmetry_cell_setting 'monoclinic'
loop_
_space_group_symop_operation_xyz
x,y,z
-x,y,-z
-x,-y,-z
x,-y,z
loop_
_atom_site_type_symbol
_atom_site_label
_atom_site_fract_x
_atom_site_fract_y
_atom_site_fract_z
Si Si1 0.264612 0.645989 0.434852
Si Si2 0.180807 0.859952 0.781775
Si Si3 0.388051 0.289845 0.110695
Si Si4 0.303764 0.353896 0.297411
Si Si5 0.792844 0.146912 0.370520
Si Si6 0.427094 0.629825 0.833564
Si Si7 0.895958 0.643675 0.070580
O O1 0.290573 0.500000 0.470747
O O2 0.435979 0.707600 0.651484
O O3 0.241610 0.672289 0.317777
O O4 0.091187 0.685776 0.290675
O O5 0.237691 0.827621 0.755272
O O6 0.990690 0.814476 0.596737
O O7 0.151562 0.000000 0.744054
O O8 0.317887 0.831262 0.995683
O O9 0.426886 0.367664 0.074981
O O10 0.236662 0.333866 0.003268
O O11 0.500000 0.313240 0.500000
O O12 0.305982 0.500000 0.293691
O O13 0.187876 0.308773 0.100823
O O14 0.676242 0.244963 0.288395
O O15 0.766802 0.000000 0.356390
O O16 0.332478 0.500000 0.721015
O O17 0.500000 0.629364 0.000000
O O18 0.911955 0.500000 0.078400
#
# Coordination Sequence:
#
# PCOD9148666 Si02
#       7
#     4   4   4   4   4   4   4
#     4  10  20  33  51  78 112 152 192 227 275 347
#     4   9  20  39  62  83 104 136 193 258 300 342
#     4  12  22  35  53  79 116 149 188 233 291 350
#     4   9  15  29  51  75 107 146 192 235 271 325
#     4   9  19  41  66  83 102 147 208 254 294 350
#     4  11  23  37  51  80 122 159 194 237 293 359
#     4  10  20  33  51  76 112 156 190 228 279 335
#
# _framework density 18.912265999999999
#
# number of rings (size 3 to 8) (size 9 to 14) (size 15 to 20)
#    0.000    2.000    2.857    2.571    2.000    2.571 
#    0.000    2.857    0.000    0.000    0.000    2.000 
#    0.000    2.286    0.000    0.000    0.000    0.000 
#
# Total GULP energy -155889.610972 kJ/mol
# GULP energy per Si atom -5567.486106 kJ/mol
# Density = 1.886922 g / cm^3
# Si number density = 18.912266 Si / 1000 Ang^3
#
#
#
# Elastic Constant Matrix: (Units=GPa)
#
#
# Indices 1 2 3 4 5 6 
#
# 1 103.9025 17.7682 51.0680 0.0000 10.1991 0.0000
# 2 17.7682 36.9040 15.2040 0.0000 10.5079 0.0000
# 3 51.0680 15.2040 93.4548 0.0000 14.7497 0.0000
# 4 0.0000 0.0000 0.0000 22.7290 0.0000 2.3112
# 5 10.1991 10.5079 14.7497 0.0000 32.7808 0.0000
# 6 0.0000 0.0000 0.0000 2.3112 0.0000 16.2433
#
#
#
# Elastic Compliance Matrix: (Units=1/GPa)
#
#
# Indices 1 2 3 4 5 6 
#
# 1 0.013625 -0.003753 -0.006841 0.000000 0.000042 0.000000
# 2 -0.003753 0.032021 -0.001854 0.000000 -0.008262 0.000000
# 3 -0.006841 -0.001854 0.015405 0.000000 -0.004208 0.000000
# 4 0.000000 0.000000 0.000000 0.044643 0.000000 -0.006352
# 5 0.000042 -0.008262 -0.004208 0.000000 0.035034 0.000000
# 6 0.000000 0.000000 0.000000 -0.006352 0.000000 0.062468
#
#
# Mechanical properties :
#
#
# Convention : Reuss Voigt Hill
#
# Bulk Modulus (GPa) = 27.66083 44.70464 36.18274
# Shear Modulus (GPa) = 20.82091 24.36537 22.59314
#
# Velocity S-wave (km/s) = 3.32161 3.59324 3.46009
# Velocity P-wave (km/s) = 5.41926 6.39565 5.92760
#
# Compressibility (1/GPa) = 0.03615220
#
# Stress axis : x y z
#
# Youngs Moduli (GPa) = 73.39712 31.22952 64.91597
#
# Poissons Ratio (x) = 0.11722 0.44410
# Poissons Ratio (y) = 0.27549 0.12038
# Poissons Ratio (z) = 0.50212 0.05791
#
# Static dielectric constant tensor:
#      x y z
#    x 1.704020 0.000000 0.021990 
#    y 0.000000 1.660380 0.000000 
#    z 0.021990 0.000000 1.707190 
# 
# From -- ./inp_files/79582.got.cif
#   From: 2010.05.17/outbox.cif.g08.bks.cpg/sg10_40_cif.got.tgz:79582.got - 2010.06.03 11:33:40.
