data_PCOD9148843
_publ_section_title
;
Structure prediction by ZEFSAII (Michael W. Deem and Ramdas Pophale) SiO2 
 PCOD9148843
Probable space group: P 2/M
;
_chemical_formula_sum "Si O2"
_cell_formula_units_Z 28
_cell_length_a 7.978384
_cell_length_b 16.452021
_cell_length_c 18.332429
_cell_angle_alpha 90.000000
_cell_angle_beta 146.255910
_cell_angle_gamma 90.000000
_cell_volume 1336.675905
_symmetry_space_group_name_H-M "P 2/M"
_symmetry_group_IT_number 10
_symmetry_cell_setting 'monoclinic'
loop_
_space_group_symop_operation_xyz
x,y,z
-x,y,-z
-x,-y,-z
x,-y,z
loop_
_atom_site_type_symbol
_atom_site_label
_atom_site_fract_x
_atom_site_fract_y
_atom_site_fract_z
Si Si1 0.825621 0.868886 0.153983
Si Si2 0.346557 0.741162 0.604330
Si Si3 0.472537 0.087944 0.335621
Si Si4 0.505931 0.088447 0.174507
Si Si5 0.333514 0.735632 0.125289
Si Si6 0.371744 0.589528 0.372808
Si Si7 0.252397 0.320637 0.851107
O O1 0.793890 0.900680 0.225690
O O2 0.855245 0.770861 0.166367
O O3 0.111119 0.905190 0.215597
O O4 0.500000 0.888596 0.000000
O O5 0.399169 0.828560 0.584999
O O6 0.552074 0.739815 0.751159
O O7 0.441060 0.661737 0.595554
O O8 0.000000 0.737271 0.500000
O O9 0.559842 0.089295 0.281047
O O10 0.573470 0.000000 0.401361
O O11 0.322082 0.170944 0.091717
O O12 0.367670 0.000000 0.107776
O O13 0.575323 0.689525 0.163176
O O14 0.000000 0.700258 0.000000
O O15 0.500000 0.583396 0.500000
O O16 0.396810 0.500000 0.346815
O O17 0.026986 0.619353 0.250834
O O18 0.500000 0.345315 0.000000
#
# Coordination Sequence:
#
# PCOD9148843 Si02
#       7
#     4   4   4   4   4   4   4
#     4  10  20  33  54  85 121 167 216 260 309 369
#     4  11  23  42  64  88 125 167 207 261 321 373
#     4  10  21  37  58  85 122 169 215 258 309 371
#     4   9  20  31  47  79 120 158 205 261 307 351
#     4  10  21  36  60  90 121 164 210 254 309 374
#     4  11  24  43  69  97 122 157 207 258 318 387
#     4  10  20  38  64  92 129 166 204 256 316 379
#
# _framework density 20.947486000000001
#
# number of rings (size 3 to 8) (size 9 to 14) (size 15 to 20)
#    0.000    1.857    1.429    2.143   10.000    2.286 
#    0.000    0.714    0.000    2.143    0.000    0.000 
#    0.000    0.000    0.000    0.000    0.000    0.000 
#
# Total GULP energy -156339.106614 kJ/mol
# GULP energy per Si atom -5583.539522 kJ/mol
# Density = 2.089981 g / cm^3
# Si number density = 20.947486 Si / 1000 Ang^3
#
#
#
# Elastic Constant Matrix: (Units=GPa)
#
#
# Indices 1 2 3 4 5 6 
#
# 1 55.2358 50.5210 6.0881 0.0000 10.5054 0.0000
# 2 50.5210 163.5557 40.4455 0.0000 20.9171 0.0000
# 3 6.0881 40.4455 55.1314 0.0000 15.4387 0.0000
# 4 0.0000 0.0000 0.0000 8.8236 0.0000 -9.4945
# 5 10.5054 20.9171 15.4387 0.0000 27.8370 0.0000
# 6 0.0000 0.0000 0.0000 -9.4945 0.0000 13.8972
#
#
#
# Elastic Compliance Matrix: (Units=1/GPa)
#
#
# Indices 1 2 3 4 5 6 
#
# 1 0.026741 -0.008737 0.005261 0.000000 -0.006445 0.000000
# 2 -0.008737 0.010549 -0.006485 0.000000 -0.001033 0.000000
# 3 0.005261 -0.006485 0.025461 0.000000 -0.011234 0.000000
# 4 0.000000 0.000000 0.000000 0.427885 0.000000 0.292328
# 5 -0.006445 -0.001033 -0.011234 0.000000 0.045362 0.000000
# 6 0.000000 0.000000 0.000000 0.292328 0.000000 0.271673
#
#
# Mechanical properties :
#
#
# Convention : Reuss Voigt Hill
#
# Bulk Modulus (GPa) = 23.34818 52.00355 37.67587
# Shear Modulus (GPa) = 5.93918 21.90280 13.92099
#
# Velocity S-wave (km/s) = 1.68565 3.23709 2.58071
# Velocity P-wave (km/s) = 3.86766 6.23308 5.18701
#
# Compressibility (1/GPa) = 0.04282988
#
# Stress axis : x y z
#
# Youngs Moduli (GPa) = 37.39535 94.79969 39.27645
#
# Poissons Ratio (x) = 0.82827 -0.20665
# Poissons Ratio (y) = 0.32672 0.25469
# Poissons Ratio (z) = -0.19675 0.61474
#
# Static dielectric constant tensor:
#      x y z
#    x 1.787210 0.000000 -0.011750 
#    y 0.000000 1.804290 0.000000 
#    z -0.011750 0.000000 1.730240 
# 
# From -- ./inp_files/82940.got.cif
#   From: 2010.05.17/outbox.cif.g08.bks.cpg/sg10_42_cif.got.tgz:82940.got - 2010.06.03 11:33:40.
