data_PCOD9148874
_publ_section_title
;
Structure prediction by ZEFSAII (Michael W. Deem and Ramdas Pophale) SiO2 
 PCOD9148874
Probable space group: P 2/M
;
_chemical_formula_sum "Si O2"
_cell_formula_units_Z 28
_cell_length_a 19.531104
_cell_length_b 8.474897
_cell_length_c 14.195812
_cell_angle_alpha 90.000000
_cell_angle_beta 146.163977
_cell_angle_gamma 90.000000
_cell_volume 1308.382410
_symmetry_space_group_name_H-M "P 2/M"
_symmetry_group_IT_number 10
_symmetry_cell_setting 'monoclinic'
loop_
_space_group_symop_operation_xyz
x,y,z
-x,y,-z
-x,-y,-z
x,-y,z
loop_
_atom_site_type_symbol
_atom_site_label
_atom_site_fract_x
_atom_site_fract_y
_atom_site_fract_z
Si Si1 0.033740 0.681893 0.742446
Si Si2 0.204937 0.816703 0.488236
Si Si3 0.134386 0.500000 0.702170
Si Si4 0.465850 0.819003 0.350142
Si Si5 0.276498 0.313861 0.382910
Si Si6 0.212396 0.687789 0.101716
Si Si7 0.590482 0.500000 0.012424
Si Si8 0.519084 0.820865 0.133958
O O1 0.996141 0.500000 0.720924
O O2 0.909850 0.772817 0.578022
O O3 0.126881 0.652656 0.762634
O O4 0.104633 0.753013 0.912809
O O5 0.193181 0.722285 0.377068
O O6 0.337355 0.784685 0.684279
O O7 0.201197 0.000000 0.460428
O O8 0.263953 0.500000 0.797427
O O9 0.000000 0.500000 0.500000
O O10 0.500000 0.807249 0.500000
O O11 0.590668 0.763015 0.444063
O O12 0.342610 0.719443 0.200174
O O13 0.439486 0.000000 0.298297
O O14 0.295958 0.500000 0.394413
O O15 0.223692 0.253193 0.222425
O O16 0.193497 0.500000 0.084728
O O17 0.500000 0.500000 0.000000
O O18 0.557424 0.665365 0.922325
O O19 0.491763 0.000000 0.139932
O O20 0.500000 0.831622 0.000000
#
# Coordination Sequence:
#
# PCOD9148874 Si02
#       8
#     4   4   2   4   4   4   2   4
#     4   9  22  39  62  82 123 164 208 251 314 379
#     4  11  23  39  59  91 126 166 215 267 321 382
#     4  10  24  42  68  98 130 164 215 270 317 397
#     4   9  17  30  51  78 112 154 201 260 320 371
#     4  10  20  33  56  83 117 160 211 263 317 371
#     4   9  18  36  54  81 117 163 211 259 311 378
#     4  10  22  38  72 105 128 173 215 261 335 395
#     4   9  21  39  63  95 131 162 210 273 328 387
#
# _framework density 21.400469999999999
#
# number of rings (size 3 to 8) (size 9 to 14) (size 15 to 20)
#    0.429    2.000    0.000    1.286    6.000    4.571 
#    0.000    3.571    0.000    0.857    0.000    0.000 
#    0.000    0.000    0.000    0.000    0.000    0.000 
#
# Total GULP energy -156032.512667 kJ/mol
# GULP energy per Si atom -5572.589738 kJ/mol
# Density = 2.135176 g / cm^3
# Si number density = 21.400470 Si / 1000 Ang^3
#
#
#
# Elastic Constant Matrix: (Units=GPa)
#
#
# Indices 1 2 3 4 5 6 
#
# 1 72.2018 -7.4294 24.9222 0.0000 11.0458 0.0000
# 2 -7.4294 52.3586 18.3565 0.0000 7.8050 0.0000
# 3 24.9222 18.3565 113.4982 0.0000 4.6331 0.0000
# 4 0.0000 0.0000 0.0000 18.6027 0.0000 0.7759
# 5 11.0458 7.8050 4.6331 0.0000 25.7260 0.0000
# 6 0.0000 0.0000 0.0000 0.7759 0.0000 1.0141
#
#
#
# Elastic Compliance Matrix: (Units=1/GPa)
#
#
# Indices 1 2 3 4 5 6 
#
# 1 0.017088 0.005126 -0.004249 0.000000 -0.008127 0.000000
# 2 0.005126 0.022617 -0.004446 0.000000 -0.008262 0.000000
# 3 -0.004249 -0.004446 0.010410 0.000000 0.001299 0.000000
# 4 0.000000 0.000000 0.000000 0.055528 0.000000 -0.042485
# 5 -0.008127 -0.008262 0.001299 0.000000 0.044633 0.000000
# 6 0.000000 0.000000 0.000000 -0.042485 0.000000 1.018578
#
#
# Mechanical properties :
#
#
# Convention : Reuss Voigt Hill
#
# Bulk Modulus (GPa) = 23.26953 34.41747 28.84350
# Shear Modulus (GPa) = 4.20056 22.54919 13.37488
#
# Velocity S-wave (km/s) = 1.40253 3.24956 2.50267
# Velocity P-wave (km/s) = 3.67692 5.49518 4.67530
#
# Compressibility (1/GPa) = 0.04297466
#
# Stress axis : x y z
#
# Youngs Moduli (GPa) = 58.52216 44.21507 96.06252
#
# Poissons Ratio (x) = -0.22664 0.40821
# Poissons Ratio (y) = -0.29998 0.42711
# Poissons Ratio (z) = 0.24868 0.19659
#
# Static dielectric constant tensor:
#      x y z
#    x 1.840210 0.000000 -0.029600 
#    y 0.000000 1.783480 0.000000 
#    z -0.029600 0.000000 1.796620 
# 
# From -- ./inp_files/70353.got.cif
#   From: 2010.05.17/outbox.cif.g08.bks.cpg/sg10_36_cif.got.tgz:70353.got - 2010.06.03 11:33:40.
