data_PCOD9148821
_publ_section_title
;
Structure prediction by ZEFSAII (Michael W. Deem and Ramdas Pophale) SiO2 
 PCOD9148821
Probable space group: P 2/M
;
_chemical_formula_sum "Si O2"
_cell_formula_units_Z 32
_cell_length_a 13.559806
_cell_length_b 17.501539
_cell_length_c 11.204456
_cell_angle_alpha 90.000000
_cell_angle_beta 145.317353
_cell_angle_gamma 90.000000
_cell_volume 1513.059597
_symmetry_space_group_name_H-M "P 2/M"
_symmetry_group_IT_number 10
_symmetry_cell_setting 'monoclinic'
loop_
_space_group_symop_operation_xyz
x,y,z
-x,y,-z
-x,-y,-z
x,-y,z
loop_
_atom_site_type_symbol
_atom_site_label
_atom_site_fract_x
_atom_site_fract_y
_atom_site_fract_z
Si Si1 0.230662 0.727977 0.663030
Si Si2 0.603653 0.242206 0.928782
Si Si3 0.795898 0.086383 0.756319
Si Si4 0.304380 0.412455 0.354650
Si Si5 0.709497 0.910815 0.933642
Si Si6 0.848529 0.318383 0.999029
Si Si7 0.940663 0.825325 0.704453
Si Si8 0.116147 0.411887 0.409311
O O1 0.254645 0.744207 0.825852
O O2 0.125069 0.791559 0.484860
O O3 0.152436 0.646007 0.552541
O O4 0.421700 0.730792 0.796409
O O5 0.601193 0.152443 0.895642
O O6 0.670992 0.290077 0.883603
O O7 0.789100 0.142007 0.637596
O O8 0.753922 0.000000 0.677987
O O9 0.692539 0.103705 0.774144
O O10 0.000000 0.087521 0.000000
O O11 0.500000 0.406237 0.500000
O O12 0.247317 0.500000 0.271036
O O13 0.266419 0.402233 0.457204
O O14 0.192774 0.351182 0.171119
O O15 0.910251 0.889074 0.162841
O O16 0.676110 0.000000 0.923288
O O17 0.970220 0.244205 0.133896
O O18 0.942118 0.384156 0.169127
O O19 0.108235 0.500000 0.436172
#
# Coordination Sequence:
#
# PCOD9148821 Si02
#       8
#     4   4   4   4   4   4   4   4
#     4  10  22  40  56  75 106 145 187 229 273 327
#     4  10  22  40  56  74 107 147 185 227 276 327
#     4   8  14  28  50  78 109 135 164 208 263 318
#     4  10  20  34  53  80 114 146 176 214 265 326
#     4   9  18  34  56  81 110 142 177 221 274 328
#     4  10  20  33  54  81 108 141 180 224 274 321
#     4   9  18  31  54  81 106 140 181 223 269 321
#     4  10  21  37  58  83 111 140 177 226 275 324
#
# _framework density 21.1492
#
# number of rings (size 3 to 8) (size 9 to 14) (size 15 to 20)
#    0.000    2.500    0.000    2.625    0.000   14.500 
#    0.000   10.000    0.000    1.500    0.000    0.000 
#    0.000    0.500    0.000    0.000    0.000    0.000 
#
# Total GULP energy -178739.602414 kJ/mol
# GULP energy per Si atom -5585.612575 kJ/mol
# Density = 2.110106 g / cm^3
# Si number density = 21.149200 Si / 1000 Ang^3
#
#
#
# Elastic Constant Matrix: (Units=GPa)
#
#
# Indices 1 2 3 4 5 6 
#
# 1 48.8742 28.9815 2.4820 0.0000 3.6004 0.0000
# 2 28.9815 93.0080 17.3080 0.0000 -13.2396 0.0000
# 3 2.4820 17.3080 40.4858 0.0000 -2.5635 0.0000
# 4 0.0000 0.0000 0.0000 10.0621 0.0000 1.2700
# 5 3.6004 -13.2396 -2.5635 0.0000 23.3025 0.0000
# 6 0.0000 0.0000 0.0000 1.2700 0.0000 26.6201
#
#
#
# Elastic Compliance Matrix: (Units=1/GPa)
#
#
# Indices 1 2 3 4 5 6 
#
# 1 0.027148 -0.010242 0.002095 0.000000 -0.009783 0.000000
# 2 -0.010242 0.016484 -0.005766 0.000000 0.010314 0.000000
# 3 0.002095 -0.005766 0.026997 0.000000 -0.000630 0.000000
# 4 0.000000 0.000000 0.000000 0.099985 0.000000 -0.004770
# 5 -0.009783 0.010314 -0.000630 0.000000 0.050216 0.000000
# 6 0.000000 0.000000 0.000000 -0.004770 0.000000 0.037793
#
#
# Mechanical properties :
#
#
# Convention : Reuss Voigt Hill
#
# Bulk Modulus (GPa) = 23.36308 31.10121 27.23214
# Shear Modulus (GPa) = 16.62688 20.90338 18.76513
#
# Velocity S-wave (km/s) = 2.80692 3.14726 2.98195
# Velocity P-wave (km/s) = 4.64498 5.28626 4.97596
#
# Compressibility (1/GPa) = 0.04280258
#
# Stress axis : x y z
#
# Youngs Moduli (GPa) = 36.83476 60.66338 37.04136
#
# Poissons Ratio (x) = 0.62131 -0.07759
# Poissons Ratio (y) = 0.37726 0.21359
# Poissons Ratio (z) = -0.07716 0.34980
#
# Static dielectric constant tensor:
#      x y z
#    x 1.789600 0.000000 0.033220 
#    y 0.000000 1.737620 0.000000 
#    z 0.033220 0.000000 1.786250 
# 
# From -- ./inp_files/51974.got.cif
#   From: 2010.05.17/outbox.cif.g08.bks.cpg/sg10_26_cif.got.tgz:51974.got - 2010.06.03 11:33:40.
