data_PCOD9148083
_publ_section_title
;
Structure prediction by ZEFSAII (Michael W. Deem and Ramdas Pophale) SiO2 
 PCOD9148083
Probable space group: P 2/M
;
_chemical_formula_sum "Si O2"
_cell_formula_units_Z 30
_cell_length_a 19.586827
_cell_length_b 13.495254
_cell_length_c 6.520619
_cell_angle_alpha 90.000000
_cell_angle_beta 116.080805
_cell_angle_gamma 90.000000
_cell_volume 1548.085332
_symmetry_space_group_name_H-M "P 2/M"
_symmetry_group_IT_number 10
_symmetry_cell_setting 'monoclinic'
loop_
_space_group_symop_operation_xyz
x,y,z
-x,y,-z
-x,-y,-z
x,-y,z
loop_
_atom_site_type_symbol
_atom_site_label
_atom_site_fract_x
_atom_site_fract_y
_atom_site_fract_z
Si Si1 0.110848 0.112941 0.881424
Si Si2 0.166292 0.238009 0.327178
Si Si3 0.636337 0.739007 0.958417
Si Si4 0.776116 0.382287 0.945754
Si Si5 0.500000 0.313845 0.500000
Si Si6 0.919159 0.693090 0.396671
Si Si7 0.254212 0.889997 0.765698
Si Si8 0.420108 0.394296 0.773862
O O1 0.068329 0.202892 0.710741
O O2 0.188874 0.109385 0.853003
O O3 0.079446 0.000000 0.840985
O O4 0.129091 0.154972 0.130611
O O5 0.202848 0.322848 0.233823
O O6 0.105900 0.283572 0.405134
O O7 0.226897 0.183244 0.551627
O O8 0.700438 0.669614 0.936910
O O9 0.558165 0.741259 0.728073
O O10 0.671377 0.846553 0.031915
O O11 0.622589 0.691919 0.164518
O O12 0.766194 0.500000 0.906282
O O13 0.848060 0.360141 0.191277
O O14 0.444157 0.375740 0.573178
O O15 0.000000 0.638932 0.500000
O O16 0.263457 0.000000 0.696489
O O17 0.379668 0.500000 0.742189
O O18 0.500000 0.400709 0.000000
#
# Coordination Sequence:
#
# PCOD9148083 Si02
#       8
#     4   4   4   4   2   4   4   4
#     4   9  18  34  58  90 119 150 198 249 300 355
#     4  10  19  39  59  88 116 158 202 245 300 348
#     4  11  21  40  58  89 120 152 194 244 295 354
#     4  11  24  40  61  90 120 155 203 248 294 354
#     4  10  23  36  59  84 124 156 193 240 297 346
#     4  10  22  40  58  82 124 162 198 246 296 352
#     4  10  20  37  62  88 118 155 197 246 300 354
#     4   9  19  35  56  82 116 155 190 231 290 348
#
# _framework density 19.378776999999999
#
# number of rings (size 3 to 8) (size 9 to 14) (size 15 to 20)
#    0.000    2.000    4.000    1.000    1.867    5.333 
#    0.000    1.667    0.000    3.600    0.000    0.000 
#    0.000    0.000    0.000    0.000    0.000    0.000 
#
# Total GULP energy -167265.774393 kJ/mol
# GULP energy per Si atom -5575.525813 kJ/mol
# Density = 1.933467 g / cm^3
# Si number density = 19.378777 Si / 1000 Ang^3
#
#
#
# Elastic Constant Matrix: (Units=GPa)
#
#
# Indices 1 2 3 4 5 6 
#
# 1 72.2666 27.8839 36.5426 0.0000 4.3022 0.0000
# 2 27.8839 61.2931 5.3718 0.0000 -8.1079 0.0000
# 3 36.5426 5.3718 74.5564 0.0000 -15.5331 0.0000
# 4 0.0000 0.0000 0.0000 4.8029 0.0000 -7.6884
# 5 4.3022 -8.1079 -15.5331 0.0000 35.9594 0.0000
# 6 0.0000 0.0000 0.0000 -7.6884 0.0000 9.1357
#
#
#
# Elastic Compliance Matrix: (Units=1/GPa)
#
#
# Indices 1 2 3 4 5 6 
#
# 1 0.027017 -0.012640 -0.014943 0.000000 -0.012537 0.000000
# 2 -0.012640 0.022745 0.006527 0.000000 0.009460 0.000000
# 3 -0.014943 0.006527 0.023017 0.000000 0.013202 0.000000
# 4 0.000000 0.000000 0.000000 -0.599719 0.000000 -0.504710
# 5 -0.012537 0.009460 0.013202 0.000000 0.037145 0.000000
# 6 0.000000 0.000000 0.000000 -0.504710 0.000000 -0.315292
#
#
# Mechanical properties :
#
#
# Convention : Reuss Voigt Hill
#
# Bulk Modulus (GPa) = 32.60793 38.63476 35.62134
# Shear Modulus (GPa) = -6.64229 19.20079 6.27925
#
# Velocity S-wave (km/s) = -1.85339 3.15114 1.80203
# Velocity P-wave (km/s) = 3.50472 5.76363 4.76983
#
# Compressibility (1/GPa) = 0.03066739
#
# Stress axis : x y z
#
# Youngs Moduli (GPa) = 37.01314 43.96657 43.44572
#
# Poissons Ratio (x) = 0.55573 0.64923
# Poissons Ratio (y) = 0.46784 -0.28359
# Poissons Ratio (z) = 0.55311 -0.28698
#
# Static dielectric constant tensor:
#      x y z
#    x 1.679290 0.000000 0.009860 
#    y 0.000000 1.688970 0.000000 
#    z 0.009860 0.000000 1.698810 
# 
# From -- ./inp_files/11454.got.cif
#   From: 2010.05.17/outbox.cif.g08.bks.cpg/sg10_6_cif.got.tgz:11454.got - 2010.06.03 11:33:40.
