data_PCOD9148390
_publ_section_title
;
Structure prediction by ZEFSAII (Michael W. Deem and Ramdas Pophale) SiO2 
 PCOD9148390
Probable space group: P 2/M
;
_chemical_formula_sum "Si O2"
_cell_formula_units_Z 32
_cell_length_a 16.724687
_cell_length_b 7.609069
_cell_length_c 25.244184
_cell_angle_alpha 90.000000
_cell_angle_beta 153.337541
_cell_angle_gamma 90.000000
_cell_volume 1441.582169
_symmetry_space_group_name_H-M "P 2/M"
_symmetry_group_IT_number 10
_symmetry_cell_setting 'monoclinic'
loop_
_space_group_symop_operation_xyz
x,y,z
-x,y,-z
-x,-y,-z
x,-y,z
loop_
_atom_site_type_symbol
_atom_site_label
_atom_site_fract_x
_atom_site_fract_y
_atom_site_fract_z
Si Si1 0.808733 0.301280 0.824967
Si Si2 0.565784 0.712810 0.240395
Si Si3 0.916933 0.793519 0.396880
Si Si4 0.338479 0.201748 0.371773
Si Si5 0.077044 0.789048 0.382252
Si Si6 0.832969 0.293866 0.011996
Si Si7 0.963339 0.199482 0.204195
Si Si8 0.559462 0.711795 0.353917
O O1 0.836242 0.500000 0.861354
O O2 0.720230 0.305803 0.714324
O O3 0.643730 0.220116 0.759544
O O4 0.003098 0.219645 0.926805
O O5 0.564462 0.500000 0.237558
O O6 0.705636 0.776277 0.279919
O O7 0.625774 0.767198 0.335017
O O8 0.363851 0.777127 0.113844
O O9 0.000000 0.714968 0.500000
O O10 0.990028 0.719682 0.385097
O O11 0.963319 0.000000 0.423497
O O12 0.500000 0.278437 0.500000
O O13 0.170072 0.191555 0.310174
O O14 0.383397 0.000000 0.382062
O O15 0.290108 0.759035 0.514108
O O16 0.975945 0.719000 0.270181
O O17 0.055082 0.000000 0.366425
O O18 0.829595 0.500000 0.996551
O O19 0.874609 0.280834 0.099386
O O20 0.892512 0.000000 0.165600
O O21 0.545705 0.500000 0.346545
#
# Coordination Sequence:
#
# PCOD9148390 Si02
#       8
#     4   4   4   4   4   4   4   4
#     4   9  18  31  47  70 101 136 172 210 249 294
#     4  10  21  36  55  78 104 137 174 213 258 307
#     4  10  20  36  57  81 105 132 167 209 262 316
#     4   9  16  27  44  67  96 131 170 209 252 299
#     4  10  20  35  55  79 107 135 167 211 263 314
#     4   9  19  36  54  73 103 142 179 212 250 298
#     4   9  18  32  51  74 100 134 173 212 254 303
#     4  10  20  32  50  79 108 135 172 214 258 306
#
# _framework density 22.197831000000001
#
# number of rings (size 3 to 8) (size 9 to 14) (size 15 to 20)
#    0.000    2.500    1.250    0.750    0.000    4.000 
#    0.000    5.625    0.000    3.750    0.000    5.250 
#    0.000    0.000    0.000    0.000    0.000    0.000 
#
# Total GULP energy -178424.547391 kJ/mol
# GULP energy per Si atom -5575.767106 kJ/mol
# Density = 2.214731 g / cm^3
# Si number density = 22.197831 Si / 1000 Ang^3
#
#
#
# Elastic Constant Matrix: (Units=GPa)
#
#
# Indices 1 2 3 4 5 6 
#
# 1 107.2521 1.7201 22.5007 0.0000 5.4919 0.0000
# 2 1.7201 52.3464 -6.7153 0.0000 -1.5578 0.0000
# 3 22.5007 -6.7153 74.3955 0.0000 10.8764 0.0000
# 4 0.0000 0.0000 0.0000 16.6557 0.0000 9.3817
# 5 5.4919 -1.5578 10.8764 0.0000 32.5220 0.0000
# 6 0.0000 0.0000 0.0000 9.3817 0.0000 17.9478
#
#
#
# Elastic Compliance Matrix: (Units=1/GPa)
#
#
# Indices 1 2 3 4 5 6 
#
# 1 0.009999 -0.000733 -0.002984 0.000000 -0.000726 0.000000
# 2 -0.000733 0.019385 0.001911 0.000000 0.000413 0.000000
# 3 -0.002984 0.001911 0.015171 0.000000 -0.004478 0.000000
# 4 0.000000 0.000000 0.000000 0.085095 0.000000 -0.044481
# 5 -0.000726 0.000413 -0.004478 0.000000 0.032388 0.000000
# 6 0.000000 0.000000 0.000000 -0.044481 0.000000 0.078969
#
#
# Mechanical properties :
#
#
# Convention : Reuss Voigt Hill
#
# Bulk Modulus (GPa) = 24.42417 29.88946 27.15682
# Shear Modulus (GPa) = 19.35982 27.85767 23.60874
#
# Velocity S-wave (km/s) = 2.95642 3.54640 3.26477
# Velocity P-wave (km/s) = 4.76243 5.50123 5.14511
#
# Compressibility (1/GPa) = 0.04094306
#
# Stress axis : x y z
#
# Youngs Moduli (GPa) = 100.01201 51.58617 65.91328
#
# Poissons Ratio (x) = 0.03781 0.19670
# Poissons Ratio (y) = 0.07331 -0.12596
# Poissons Ratio (z) = 0.29846 -0.09858
#
# Static dielectric constant tensor:
#      x y z
#    x 1.864130 0.000000 0.001440 
#    y 0.000000 1.852550 0.000000 
#    z 0.001440 0.000000 1.824450 
# 
# From -- ./inp_files/89508.got.cif
#   From: 2010.05.17/outbox.cif.g08.bks.cpg/sg10_45_cif.got.tgz:89508.got - 2010.06.03 11:33:40.
