data_PCOD9148760
_publ_section_title
;
Structure prediction by ZEFSAII (Michael W. Deem and Ramdas Pophale) SiO2 
 PCOD9148760
Probable space group: P 2/M
;
_chemical_formula_sum "Si O2"
_cell_formula_units_Z 32
_cell_length_a 16.246887
_cell_length_b 7.780286
_cell_length_c 24.797806
_cell_angle_alpha 90.000000
_cell_angle_beta 151.977816
_cell_angle_gamma 90.000000
_cell_volume 1472.666374
_symmetry_space_group_name_H-M "P 2/M"
_symmetry_group_IT_number 10
_symmetry_cell_setting 'monoclinic'
loop_
_space_group_symop_operation_xyz
x,y,z
-x,y,-z
-x,-y,-z
x,-y,z
loop_
_atom_site_type_symbol
_atom_site_label
_atom_site_fract_x
_atom_site_fract_y
_atom_site_fract_z
Si Si1 0.039860 0.302482 0.290149
Si Si2 0.183846 0.200541 0.483299
Si Si3 0.320244 0.711007 0.367778
Si Si4 0.673331 0.796803 0.128148
Si Si5 0.823460 0.207772 0.326045
Si Si6 0.594129 0.702384 0.293510
Si Si7 0.835938 0.290595 0.832463
Si Si8 0.783323 0.290928 0.926417
O O1 0.001155 0.500000 0.255337
O O2 0.164865 0.293118 0.415328
O O3 0.153384 0.230780 0.306661
O O4 0.853456 0.222804 0.198741
O O5 0.352550 0.221749 0.617901
O O6 0.021023 0.261794 0.426280
O O7 0.156239 0.000000 0.455322
O O8 0.500000 0.767481 0.500000
O O9 0.321424 0.500000 0.369534
O O10 0.289520 0.766402 0.288358
O O11 0.711041 0.728126 0.209899
O O12 0.644357 0.000000 0.118324
O O13 0.500000 0.723342 0.000000
O O14 0.741256 0.265045 0.334165
O O15 0.824222 0.000000 0.327667
O O16 0.579152 0.500000 0.293801
O O17 0.406492 0.767126 0.163421
O O18 0.832392 0.500000 0.829780
O O19 0.790426 0.241363 0.867279
O O20 0.038424 0.233862 0.941694
O O21 0.789111 0.500000 0.932114
#
# Coordination Sequence:
#
# PCOD9148760 Si02
#       8
#     4   4   4   4   4   4   4   4
#     4  10  20  33  52  82 110 134 174 227 278 315
#     4  10  21  37  54  70 100 144 179 207 254 323
#     4   9  18  29  47  76 109 143 174 215 271 327
#     4   9  19  37  58  76 102 146 189 217 256 324
#     4   9  19  35  51  70  99 137 177 209 250 314
#     4  11  21  30  49  81 106 126 167 222 269 307
#     4   8  14  29  47  65 101 142 172 200 250 318
#     4   8  16  28  45  71 100 135 170 208 254 308
#
# _framework density 21.729292999999998
#
# number of rings (size 3 to 8) (size 9 to 14) (size 15 to 20)
#    0.000    2.750    0.000    3.000    1.750    5.250 
#    0.000    1.250    0.000    1.500    0.000    7.000 
#    0.000    0.000    0.000    0.000    0.000    0.000 
#
# Total GULP energy -178507.916937 kJ/mol
# GULP energy per Si atom -5578.372404 kJ/mol
# Density = 2.167984 g / cm^3
# Si number density = 21.729293 Si / 1000 Ang^3
#
#
#
# Elastic Constant Matrix: (Units=GPa)
#
#
# Indices 1 2 3 4 5 6 
#
# 1 41.3505 -6.3162 5.6538 0.0000 -12.4354 0.0000
# 2 -6.3162 25.0475 -0.5415 0.0000 -1.0714 0.0000
# 3 5.6538 -0.5415 105.4749 0.0000 -25.5276 0.0000
# 4 0.0000 0.0000 0.0000 13.0253 0.0000 1.0321
# 5 -12.4354 -1.0714 -25.5276 0.0000 19.3178 0.0000
# 6 0.0000 0.0000 0.0000 1.0321 0.0000 12.9073
#
#
#
# Elastic Compliance Matrix: (Units=1/GPa)
#
#
# Indices 1 2 3 4 5 6 
#
# 1 0.033797 0.009894 0.005348 0.000000 0.029372 0.000000
# 2 0.009894 0.043002 0.002660 0.000000 0.012269 0.000000
# 3 0.005348 0.002660 0.014815 0.000000 0.023168 0.000000
# 4 0.000000 0.000000 0.000000 0.077263 0.000000 -0.006178
# 5 0.029372 0.012269 0.023168 0.000000 0.101968 0.000000
# 6 0.000000 0.000000 0.000000 -0.006178 0.000000 0.077969
#
#
# Mechanical properties :
#
#
# Convention : Reuss Voigt Hill
#
# Bulk Modulus (GPa) = 7.84822 18.82945 13.33884
# Shear Modulus (GPa) = 14.06539 20.58854 17.32696
#
# Velocity S-wave (km/s) = 2.54697 3.08149 2.82689
# Velocity P-wave (km/s) = 3.50272 4.62007 4.09964
#
# Compressibility (1/GPa) = 0.12741738
#
# Stress axis : x y z
#
# Youngs Moduli (GPa) = 29.58871 23.25498 67.49889
#
# Poissons Ratio (x) = -0.23009 -0.36098
# Poissons Ratio (y) = -0.29276 -0.17953
# Poissons Ratio (z) = -0.15824 -0.06185
#
# Static dielectric constant tensor:
#      x y z
#    x 1.776380 0.000000 0.006310 
#    y 0.000000 1.796680 0.000000 
#    z 0.006310 0.000000 1.825720 
# 
# From -- ./inp_files/89638.got.cif
#   From: 2010.05.17/outbox.cif.g08.bks.cpg/sg10_45_cif.got.tgz:89638.got - 2010.06.03 11:33:40.
