data_PCOD9148505
_publ_section_title
;
Structure prediction by ZEFSAII (Michael W. Deem and Ramdas Pophale) SiO2 
 PCOD9148505
Probable space group: P 2/M
;
_chemical_formula_sum "Si O2"
_cell_formula_units_Z 30
_cell_length_a 26.058172
_cell_length_b 15.051247
_cell_length_c 20.804840
_cell_angle_alpha 90.000000
_cell_angle_beta 13.396554
_cell_angle_gamma 90.000000
_cell_volume 1890.544775
_symmetry_space_group_name_H-M "P 2/M"
_symmetry_group_IT_number 10
_symmetry_cell_setting 'monoclinic'
loop_
_space_group_symop_operation_xyz
x,y,z
-x,y,-z
-x,-y,-z
x,-y,z
loop_
_atom_site_type_symbol
_atom_site_label
_atom_site_fract_x
_atom_site_fract_y
_atom_site_fract_z
Si Si1 0.513585 0.196556 0.606817
Si Si2 0.197547 0.106947 0.214808
Si Si3 0.142140 0.103947 0.136547
Si Si4 0.694166 0.103515 0.612800
Si Si5 0.500000 0.327197 0.500000
Si Si6 0.965696 0.601711 0.966255
Si Si7 0.752553 0.901383 0.220715
Si Si8 0.152109 0.227316 0.690344
O O1 0.480379 0.264543 0.587914
O O2 0.686825 0.120006 0.373516
O O3 0.645134 0.233826 0.506791
O O4 0.283986 0.155571 0.910436
O O5 0.188313 0.137580 0.152067
O O6 0.000000 0.142073 0.500000
O O7 0.167859 0.000000 0.247395
O O8 0.444843 0.122375 0.939250
O O9 0.882945 0.109356 0.436496
O O10 0.207742 0.000000 0.052561
O O11 0.760999 0.173223 0.476559
O O12 0.696881 0.000000 0.585518
O O13 0.290547 0.387333 0.739291
O O14 0.040219 0.500000 0.870186
O O15 0.076799 0.670536 0.781433
O O16 0.000000 0.629625 0.000000
O O17 0.500000 0.898560 0.500000
O O18 0.839714 0.000000 0.102495
O O19 0.932117 0.828380 0.980775
#
# Coordination Sequence:
#
# PCOD9148505 Si02
#       8
#     4   4   4   4   2   4   4   4
#     4  12  21  33  50  67 100 134 170 209 253 291
#     4   9  18  33  51  72  99 131 169 207 245 295
#     4  10  20  33  48  70 100 137 174 208 247 291
#     4  10  20  33  52  74 100 134 168 206 253 298
#     4  12  21  38  51  72  94 132 167 218 255 300
#     4  11  22  37  54  71  92 126 171 214 257 300
#     4  11  21  31  44  65  95 130 169 209 244 287
#     4  12  21  35  50  70  96 131 170 211 252 294
#
# _framework density 15.868442
#
# number of rings (size 3 to 8) (size 9 to 14) (size 15 to 20)
#    0.000    1.200    4.667    3.000    0.000    4.800 
#    0.000    2.667    0.000    0.000    0.000    0.000 
#    0.000    0.533    0.000    3.733    0.000    0.133 
#
# Total GULP energy -167088.603037 kJ/mol
# GULP energy per Si atom -5569.620101 kJ/mol
# Density = 1.583232 g / cm^3
# Si number density = 15.868442 Si / 1000 Ang^3
#
#
#
# Elastic Constant Matrix: (Units=GPa)
#
#
# Indices 1 2 3 4 5 6 
#
# 1 25.9730 0.0653 13.4870 0.0000 -9.6928 0.0000
# 2 0.0653 62.1350 15.0035 0.0000 3.2588 0.0000
# 3 13.4870 15.0035 88.0002 0.0000 1.5194 0.0000
# 4 0.0000 0.0000 0.0000 9.4945 0.0000 -2.5065
# 5 -9.6928 3.2588 1.5194 0.0000 28.0124 0.0000
# 6 0.0000 0.0000 0.0000 -2.5065 0.0000 11.4777
#
#
#
# Elastic Compliance Matrix: (Units=1/GPa)
#
#
# Indices 1 2 3 4 5 6 
#
# 1 0.049110 0.000970 -0.007991 0.000000 0.017313 0.000000
# 2 0.000970 0.016895 -0.003004 0.000000 -0.001467 0.000000
# 3 -0.007991 -0.003004 0.013154 0.000000 -0.003129 0.000000
# 4 0.000000 0.000000 0.000000 0.111768 0.000000 0.024408
# 5 0.017313 -0.001467 -0.003129 0.000000 0.042030 0.000000
# 6 0.000000 0.000000 0.000000 0.024408 0.000000 0.092455
#
#
# Mechanical properties :
#
#
# Convention : Reuss Voigt Hill
#
# Bulk Modulus (GPa) = 16.91772 25.91332 21.41552
# Shear Modulus (GPa) = 13.69244 19.63375 16.66310
#
# Velocity S-wave (km/s) = 2.94066 3.52132 3.24401
# Velocity P-wave (km/s) = 4.71321 5.73572 5.24942
#
# Compressibility (1/GPa) = 0.05910961
#
# Stress axis : x y z
#
# Youngs Moduli (GPa) = 20.36263 59.18826 76.01979
#
# Poissons Ratio (x) = -0.05741 0.60746
# Poissons Ratio (y) = -0.01975 0.22835
# Poissons Ratio (z) = 0.16272 0.17779
#
# Static dielectric constant tensor:
#      x y z
#    x 1.613840 0.000000 -0.042640 
#    y 0.000000 1.548700 0.000000 
#    z -0.042640 0.000000 1.558010 
# 
# From -- ./inp_files/91501.got.cif
#   From: 2010.05.17/outbox.cif.g08.bks.cpg/sg10_46_cif.got.tgz:91501.got - 2010.06.03 11:33:40.
