data_PCOD9148370
_publ_section_title
;
Structure prediction by ZEFSAII (Michael W. Deem and Ramdas Pophale) SiO2 
 PCOD9148370
Probable space group: P 2/M
;
_chemical_formula_sum "Si O2"
_cell_formula_units_Z 32
_cell_length_a 24.503269
_cell_length_b 7.277096
_cell_length_c 25.802422
_cell_angle_alpha 90.000000
_cell_angle_beta 161.741003
_cell_angle_gamma 90.000000
_cell_volume 1441.520841
_symmetry_space_group_name_H-M "P 2/M"
_symmetry_group_IT_number 10
_symmetry_cell_setting 'monoclinic'
loop_
_space_group_symop_operation_xyz
x,y,z
-x,y,-z
-x,-y,-z
x,-y,z
loop_
_atom_site_type_symbol
_atom_site_label
_atom_site_fract_x
_atom_site_fract_y
_atom_site_fract_z
Si Si1 0.119305 0.782069 0.250000
Si Si2 0.009286 0.280698 0.750000
Si Si3 0.605549 0.275896 0.930577
Si Si4 0.244395 0.724104 0.569423
Si Si5 0.000707 0.276632 0.559912
Si Si6 0.380884 0.276632 0.940088
Si Si7 0.878522 0.223662 0.939162
Si Si8 0.499803 0.223662 0.439162
O O1 0.054856 0.753538 0.250000
O O2 0.316541 0.713306 0.419202
O O3 0.129698 0.000000 0.250000
O O4 0.978136 0.713306 0.080798
O O5 0.017373 0.500000 0.749999
O O6 0.872873 0.212380 0.584107
O O7 0.204660 0.212380 0.915893
O O8 0.608288 0.500000 0.932870
O O9 0.444661 0.218054 0.750000
O O10 0.569369 0.219695 0.957309
O O11 0.242549 0.500000 0.567131
O O12 0.154751 0.780304 0.542691
O O13 0.995091 0.500000 0.553125
O O14 0.000000 0.213599 0.500000
O O15 0.182275 0.224776 0.750000
O O16 0.388840 0.500000 0.946875
O O17 0.500000 0.213599 0.000000
O O18 0.679371 0.284383 0.750000
O O19 0.872913 0.000000 0.935080
O O20 0.000000 0.274654 0.000000
O O21 0.500000 0.274654 0.500000
O O22 0.497247 0.000000 0.435080
#
# Coordination Sequence:
#
# PCOD9148370 Si02
#       8
#     4   4   4   4   4   4   4   4
#     4  10  20  32  50  76 100 122 155 196 232 270
#     4  10  20  34  48  64  94 132 165 190 222 278
#     4   9  16  27  42  59  83 121 161 192 229 279
#     4   9  16  27  42  59  83 121 161 192 229 279
#     4   9  14  20  32  54  83 113 147 190 238 283
#     4   9  14  20  32  54  83 113 147 190 238 283
#     4   9  15  26  47  75 101 122 148 188 237 280
#     4   9  15  26  47  75 101 122 148 188 237 280
#
# _framework density 22.198778000000001
#
# number of rings (size 3 to 8) (size 9 to 14) (size 15 to 20)
#    0.000    2.750    2.500    0.750    0.000    4.000 
#    0.000    0.000    0.000    0.750    0.000    0.000 
#    0.000    1.000    0.000    0.000    0.000    0.000 
#
# Total GULP energy -178763.059248 kJ/mol
# GULP energy per Si atom -5586.345602 kJ/mol
# Density = 2.214825 g / cm^3
# Si number density = 22.198778 Si / 1000 Ang^3
#
#
#
# Elastic Constant Matrix: (Units=GPa)
#
#
# Indices 1 2 3 4 5 6 
#
# 1 171.5431 -2.9659 121.9670 0.0000 1.9546 0.0000
# 2 -2.9659 95.6886 9.6509 0.0000 1.1416 0.0000
# 3 121.9670 9.6509 254.4861 0.0000 5.5497 0.0000
# 4 0.0000 0.0000 0.0000 -22.4173 0.0000 -2.0510
# 5 1.9546 1.1416 5.5497 0.0000 35.9151 0.0000
# 6 0.0000 0.0000 0.0000 -2.0510 0.0000 0.2515
#
#
#
# Elastic Compliance Matrix: (Units=1/GPa)
#
#
# Indices 1 2 3 4 5 6 
#
# 1 0.008891 0.000707 -0.004291 0.000000 0.000157 0.000000
# 2 0.000707 0.010550 -0.000733 0.000000 -0.000261 0.000000
# 3 -0.004291 -0.000733 0.006029 0.000000 -0.000675 0.000000
# 4 0.000000 0.000000 0.000000 -0.025546 0.000000 -0.208346
# 5 0.000157 -0.000261 -0.000675 0.000000 0.027947 0.000000
# 6 0.000000 0.000000 0.000000 -0.208346 0.000000 2.277187
#
#
# Mechanical properties :
#
#
# Convention : Reuss Voigt Hill
#
# Bulk Modulus (GPa) = 59.40528 86.55798 72.98163
# Shear Modulus (GPa) = 2.15582 28.95426 15.55504
#
# Velocity S-wave (km/s) = 0.98654 3.61545 2.64998
# Velocity P-wave (km/s) = 5.30249 7.51702 6.50469
#
# Compressibility (1/GPa) = 0.01683352
#
# Stress axis : x y z
#
# Youngs Moduli (GPa) = 112.47263 94.79121 165.87234
#
# Poissons Ratio (x) = -0.06697 0.71183
# Poissons Ratio (y) = -0.07947 0.12159
# Poissons Ratio (z) = 0.48267 0.06948
#
# Static dielectric constant tensor:
#      x y z
#    x 1.754980 0.000000 0.003630 
#    y 0.000000 1.895770 0.000000 
#    z 0.003630 0.000000 1.795140 
# 
# From -- ./inp_files/86306.got.cif
#   From: 2010.05.17/outbox.cif.g08.bks.cpg/sg10_44_cif.got.tgz:86306.got - 2010.06.03 11:33:40.
