data_PCOD9148750
_publ_section_title
;
Structure prediction by ZEFSAII (Michael W. Deem and Ramdas Pophale) SiO2 
 PCOD9148750
Probable space group: P 2/M
;
_chemical_formula_sum "Si O2"
_cell_formula_units_Z 28
_cell_length_a 15.174746
_cell_length_b 21.337046
_cell_length_c 8.973097
_cell_angle_alpha 90.000000
_cell_angle_beta 30.475812
_cell_angle_gamma 90.000000
_cell_volume 1473.518382
_symmetry_space_group_name_H-M "P 2/M"
_symmetry_group_IT_number 10
_symmetry_cell_setting 'monoclinic'
loop_
_space_group_symop_operation_xyz
x,y,z
-x,y,-z
-x,-y,-z
x,-y,z
loop_
_atom_site_type_symbol
_atom_site_label
_atom_site_fract_x
_atom_site_fract_y
_atom_site_fract_z
Si Si1 0.529614 0.071059 0.795255
Si Si2 0.192690 0.426717 0.288295
Si Si3 0.176258 0.104937 0.178991
Si Si4 0.829187 0.074854 0.149035
Si Si5 0.305479 0.671371 0.350828
Si Si6 0.461650 0.661064 0.729528
Si Si7 0.808193 0.754108 0.731469
O O1 0.670353 0.099866 0.480046
O O2 0.595322 0.000000 0.729456
O O3 0.500000 0.101314 0.000000
O O4 0.348301 0.068928 0.974646
O O5 0.226418 0.500000 0.263332
O O6 0.204937 0.386714 0.423142
O O7 0.000000 0.420000 0.500000
O O8 0.342337 0.396651 0.964017
O O9 0.195891 0.172661 0.228090
O O10 0.000000 0.075952 0.500000
O O11 0.160100 0.108417 0.025032
O O12 0.803700 0.000000 0.154733
O O13 0.000000 0.081050 0.000000
O O14 0.353300 0.667047 0.453668
O O15 0.224033 0.733063 0.392651
O O16 0.500000 0.667885 0.000000
O O17 0.500000 0.657681 0.500000
O O18 0.340381 0.719938 0.954725
O O19 0.000000 0.731588 0.500000
#
# Coordination Sequence:
#
# PCOD9148750 Si02
#       7
#     4   4   4   4   4   4   4
#     4  10  21  36  55  79 106 140 178 217 264 320
#     4   9  17  32  54  76 103 144 183 213 257 320
#     4  11  22  35  55  81 106 138 180 226 274 324
#     4  10  21  38  57  79 111 145 178 220 272 330
#     4   8  16  32  54  73  99 137 176 212 254 313
#     4  10  20  33  52  80 107 134 174 223 272 310
#     4   9  19  37  54  72 100 137 176 213 257 317
#
# _framework density 19.002140000000001
#
# number of rings (size 3 to 8) (size 9 to 14) (size 15 to 20)
#    0.000    2.714    0.000    3.429    0.000    9.143 
#    0.000    5.714    0.000    1.714    0.000    0.000 
#    0.000    0.000    0.000    0.000    0.000    0.000 
#
# Total GULP energy -155977.113303 kJ/mol
# GULP energy per Si atom -5570.611189 kJ/mol
# Density = 1.895889 g / cm^3
# Si number density = 19.002140 Si / 1000 Ang^3
#
#
#
# Elastic Constant Matrix: (Units=GPa)
#
#
# Indices 1 2 3 4 5 6 
#
# 1 168.1331 28.1961 52.7823 0.0000 11.0282 0.0000
# 2 28.1961 77.9080 5.1825 0.0000 -2.2060 0.0000
# 3 52.7823 5.1825 96.9209 0.0000 4.7091 0.0000
# 4 0.0000 0.0000 0.0000 15.8728 0.0000 -2.5866
# 5 11.0282 -2.2060 4.7091 0.0000 38.1487 0.0000
# 6 0.0000 0.0000 0.0000 -2.5866 0.0000 -4.5897
#
#
#
# Elastic Compliance Matrix: (Units=1/GPa)
#
#
# Indices 1 2 3 4 5 6 
#
# 1 0.007762 -0.002597 -0.003996 0.000000 -0.001901 0.000000
# 2 -0.002597 0.013777 0.000606 0.000000 0.001473 0.000000
# 3 -0.003996 0.000606 0.012479 0.000000 -0.000350 0.000000
# 4 0.000000 0.000000 0.000000 0.057702 0.000000 -0.032519
# 5 -0.001901 0.001473 -0.000350 0.000000 0.026891 0.000000
# 6 0.000000 0.000000 0.000000 -0.032519 0.000000 -0.199554
#
#
# Mechanical properties :
#
#
# Convention : Reuss Voigt Hill
#
# Bulk Modulus (GPa) = 45.36461 57.25376 51.30919
# Shear Modulus (GPa) = -81.14109 27.00644 -27.06733
#
# Velocity S-wave (km/s) = -6.54169 3.77401 -3.77826
# Velocity P-wave (km/s) = 5.75613 7.01331 2.83314
#
# Compressibility (1/GPa) = 0.02204361
#
# Stress axis : x y z
#
# Youngs Moduli (GPa) = 128.82558 72.58450 80.13762
#
# Poissons Ratio (x) = 0.18853 0.32024
# Poissons Ratio (y) = 0.33460 -0.04858
# Poissons Ratio (z) = 0.51480 -0.04400
#
# Static dielectric constant tensor:
#      x y z
#    x 1.711110 0.000000 0.005040 
#    y 0.000000 1.695440 0.000000 
#    z 0.005040 0.000000 1.663600 
# 
# From -- ./inp_files/30415.got.cif
#   From: 2010.05.17/outbox.cif.g08.bks.cpg/sg10_16_cif.got.tgz:30415.got - 2010.06.03 11:33:40.
