data_PCOD9148129
_publ_section_title
;
Structure prediction by ZEFSAII (Michael W. Deem and Ramdas Pophale) SiO2 
 PCOD9148129
Probable space group: P 2/M
;
_chemical_formula_sum "Si O2"
_cell_formula_units_Z 32
_cell_length_a 18.307243
_cell_length_b 7.533378
_cell_length_c 10.791213
_cell_angle_alpha 90.000000
_cell_angle_beta 57.291082
_cell_angle_gamma 90.000000
_cell_volume 1252.273675
_symmetry_space_group_name_H-M "P 2/M"
_symmetry_group_IT_number 10
_symmetry_cell_setting 'monoclinic'
loop_
_space_group_symop_operation_xyz
x,y,z
-x,y,-z
-x,-y,-z
x,-y,z
loop_
_atom_site_type_symbol
_atom_site_label
_atom_site_fract_x
_atom_site_fract_y
_atom_site_fract_z
Si Si1 0.116776 0.698839 0.979627
Si Si2 0.278688 0.210748 0.688902
Si Si3 0.249264 0.217115 0.073890
Si Si4 0.555876 0.795653 0.320280
Si Si5 0.597168 0.216267 0.927841
Si Si6 0.382807 0.217298 0.359563
Si Si7 0.001608 0.291597 0.295716
Si Si8 0.131906 0.799801 0.394615
O O1 0.093438 0.500000 0.965838
O O2 0.189650 0.706929 0.021468
O O3 0.032819 0.776601 0.131256
O O4 0.177067 0.766187 0.812505
O O5 0.350241 0.279661 0.724039
O O6 0.313397 0.276894 0.525250
O O7 0.292393 0.000000 0.678922
O O8 0.349056 0.269192 0.000249
O O9 0.207998 0.278153 0.242122
O O10 0.242427 0.000000 0.069485
O O11 0.500000 0.803169 0.500000
O O12 0.480734 0.719402 0.301052
O O13 0.571404 0.000000 0.264933
O O14 0.640337 0.265517 0.757875
O O15 0.595493 0.000000 0.934170
O O16 0.500000 0.278895 0.000000
O O17 0.386422 0.000000 0.362027
O O18 0.023569 0.500000 0.275463
O O19 0.058826 0.201233 0.351337
O O20 0.906349 0.277153 0.443309
O O21 0.156678 0.000000 0.402826
#
# Coordination Sequence:
#
# PCOD9148129 Si02
#       8
#     4   4   4   4   4   4   4   4
#     4  10  20  30  42  64  94 121 146 181 223 269
#     4   9  16  26  44  66  88 114 145 184 225 266
#     4   9  18  30  44  67  93 119 151 184 219 260
#     4   7  11  20  36  60  83 102 133 178 218 250
#     4   9  17  27  43  69  95 117 148 189 223 252
#     4   8  14  25  41  65  90 112 145 187 225 258
#     4   9  16  26  40  60  85 114 145 175 213 264
#     4   9  15  24  40  61  88 115 141 176 216 260
#
# _framework density 25.553521
#
# number of rings (size 3 to 8) (size 9 to 14) (size 15 to 20)
#    0.000    3.250    0.000    3.375    1.750    2.000 
#    0.000    0.000    0.000    4.500    0.000    0.875 
#    0.000    7.000    0.000    0.000    0.000    0.000 
#
# Total GULP energy -178268.939597 kJ/mol
# GULP energy per Si atom -5570.904362 kJ/mol
# Density = 2.549536 g / cm^3
# Si number density = 25.553521 Si / 1000 Ang^3
#
#
#
# Elastic Constant Matrix: (Units=GPa)
#
#
# Indices 1 2 3 4 5 6 
#
# 1 50.7007 0.9905 -3.4626 0.0000 0.5344 0.0000
# 2 0.9905 60.8005 -0.4342 0.0000 -2.5441 0.0000
# 3 -3.4626 -0.4342 142.6685 0.0000 -12.8789 0.0000
# 4 0.0000 0.0000 0.0000 47.0991 0.0000 -7.9957
# 5 0.5344 -2.5441 -12.8789 0.0000 30.4383 0.0000
# 6 0.0000 0.0000 0.0000 -7.9957 0.0000 -1.0005
#
#
#
# Elastic Compliance Matrix: (Units=1/GPa)
#
#
# Indices 1 2 3 4 5 6 
#
# 1 0.019763 -0.000326 0.000463 0.000000 -0.000179 0.000000
# 2 -0.000326 0.016515 0.000174 0.000000 0.001460 0.000000
# 3 0.000463 0.000174 0.007300 0.000000 0.003095 0.000000
# 4 0.000000 0.000000 0.000000 0.009009 0.000000 -0.071997
# 5 -0.000179 0.001460 0.003095 0.000000 0.034288 0.000000
# 6 0.000000 0.000000 0.000000 -0.071997 0.000000 -0.424102
#
#
# Mechanical properties :
#
#
# Convention : Reuss Voigt Hill
#
# Bulk Modulus (GPa) = 22.62453 27.59523 25.10988
# Shear Modulus (GPa) = -15.47445 32.44577 8.48566
#
# Velocity S-wave (km/s) = -2.46350 3.56718 1.82427
# Velocity P-wave (km/s) = 0.88386 5.27151 3.77955
#
# Compressibility (1/GPa) = 0.04419982
#
# Stress axis : x y z
#
# Youngs Moduli (GPa) = 50.59850 60.55150 136.97818
#
# Poissons Ratio (x) = 0.01975 -0.06336
# Poissons Ratio (y) = 0.01650 -0.02385
# Poissons Ratio (z) = -0.02340 -0.01054
#
# Static dielectric constant tensor:
#      x y z
#    x 2.052420 0.000000 -0.060620 
#    y 0.000000 1.979160 0.000000 
#    z -0.060620 0.000000 2.144460 
# 
# From -- ./inp_files/56405.got.cif
#   From: 2010.05.17/outbox.cif.g08.bks.cpg/sg10_29_cif.got.tgz:56405.got - 2010.06.03 11:33:40.
