data_PCOD9148269
_publ_section_title
;
Structure prediction by ZEFSAII (Michael W. Deem and Ramdas Pophale) SiO2 
 PCOD9148269
Probable space group: P 2/M
;
_chemical_formula_sum "Si O2"
_cell_formula_units_Z 32
_cell_length_a 21.453209
_cell_length_b 7.867940
_cell_length_c 11.896525
_cell_angle_alpha 90.000000
_cell_angle_beta 60.891352
_cell_angle_gamma 90.000000
_cell_volume 1754.426456
_symmetry_space_group_name_H-M "P 2/M"
_symmetry_group_IT_number 10
_symmetry_cell_setting 'monoclinic'
loop_
_space_group_symop_operation_xyz
x,y,z
-x,y,-z
-x,-y,-z
x,-y,z
loop_
_atom_site_type_symbol
_atom_site_label
_atom_site_fract_x
_atom_site_fract_y
_atom_site_fract_z
Si Si1 0.845564 0.702102 0.871205
Si Si2 0.880160 0.205567 0.369334
Si Si3 0.442809 0.694521 0.710503
Si Si4 0.588303 0.800508 0.512683
Si Si5 0.288525 0.705252 0.877662
Si Si6 0.918640 0.703877 0.581126
Si Si7 0.743607 0.795625 0.351751
Si Si8 0.018195 0.205851 0.110517
O O1 0.835717 0.500000 0.865076
O O2 0.877150 0.771897 0.726655
O O3 0.906520 0.729654 0.910874
O O4 0.770810 0.770756 0.983808
O O5 0.879139 0.258479 0.499541
O O6 0.813055 0.269373 0.355582
O O7 0.954542 0.263336 0.248424
O O8 0.880052 0.000000 0.364892
O O9 0.448899 0.500000 0.740977
O O10 0.521191 0.774388 0.653252
O O11 0.426988 0.703486 0.590262
O O12 0.369537 0.770610 0.824276
O O13 0.668215 0.749809 0.477112
O O14 0.589709 0.000000 0.481812
O O15 0.292398 0.500000 0.882531
O O16 0.263026 0.743405 0.772709
O O17 0.923880 0.500000 0.589935
O O18 0.000000 0.770533 0.500000
O O19 0.748646 0.000000 0.347961
O O20 0.020573 0.000000 0.109842
O O21 0.000000 0.259348 0.000000
#
# Coordination Sequence:
#
# PCOD9148269 Si02
#       8
#     4   4   4   4   4   4   4   4
#     4  10  20  34  49  66  90 119 153 190 229 269
#     4  10  20  33  49  68  91 119 152 189 229 269
#     4   9  15  24  39  61  90 120 150 181 216 260
#     4   9  15  24  40  62  89 121 152 178 214 263
#     4   9  18  30  45  67  94 124 153 185 225 271
#     4  10  20  35  52  68  87 115 153 197 236 270
#     4   9  18  31  46  67  96 125 151 185 225 270
#     4  10  20  32  47  68  93 120 149 181 222 272
#
# _framework density 18.239578999999999
#
# number of rings (size 3 to 8) (size 9 to 14) (size 15 to 20)
#    0.000    2.500    1.250    2.250    0.000    4.000 
#    0.000    0.000    0.000    0.000    0.000    0.875 
#    0.000    7.000    0.000    0.000    0.000    0.000 
#
# Total GULP energy -178318.728341 kJ/mol
# GULP energy per Si atom -5572.460261 kJ/mol
# Density = 1.819807 g / cm^3
# Si number density = 18.239579 Si / 1000 Ang^3
#
#
#
# Elastic Constant Matrix: (Units=GPa)
#
#
# Indices 1 2 3 4 5 6 
#
# 1 37.0794 4.0552 44.4198 0.0000 -30.1723 0.0000
# 2 4.0552 17.3871 4.9098 0.0000 -6.4660 0.0000
# 3 44.4198 4.9098 128.2782 0.0000 -27.3874 0.0000
# 4 0.0000 0.0000 0.0000 5.5705 0.0000 -1.3888
# 5 -30.1723 -6.4660 -27.3874 0.0000 38.0592 0.0000
# 6 0.0000 0.0000 0.0000 -1.3888 0.0000 18.0045
#
#
#
# Elastic Compliance Matrix: (Units=1/GPa)
#
#
# Indices 1 2 3 4 5 6 
#
# 1 0.120011 0.008286 -0.025120 0.000000 0.078472 0.000000
# 2 0.008286 0.061967 -0.001880 0.000000 0.015744 0.000000
# 3 -0.025120 -0.001880 0.014469 0.000000 -0.009822 0.000000
# 4 0.000000 0.000000 0.000000 0.183038 0.000000 0.014119
# 5 0.078472 0.015744 -0.009822 0.000000 0.084092 0.000000
# 6 0.000000 0.000000 0.000000 0.014119 0.000000 0.056631
#
#
# Mechanical properties :
#
#
# Convention : Reuss Voigt Hill
#
# Bulk Modulus (GPa) = 6.28857 32.16826 19.22842
# Shear Modulus (GPa) = 8.18810 20.95083 14.56947
#
# Velocity S-wave (km/s) = 2.12107 3.39285 2.82934
# Velocity P-wave (km/s) = 3.07471 5.74659 4.60853
#
# Compressibility (1/GPa) = 0.15901876
#
# Stress axis : x y z
#
# Youngs Moduli (GPa) = 8.33260 16.13759 69.11292
#
# Poissons Ratio (x) = -0.13371 1.73614
# Poissons Ratio (y) = -0.06904 0.12991
# Poissons Ratio (z) = 0.20932 0.03033
#
# Static dielectric constant tensor:
#      x y z
#    x 1.630120 0.000000 -0.058950 
#    y 0.000000 1.655010 0.000000 
#    z -0.058950 0.000000 1.651110 
# 
# From -- ./inp_files/54789.got.cif
#   From: 2010.05.17/outbox.cif.g08.bks.cpg/sg10_28_cif.got.tgz:54789.got - 2010.06.03 11:33:40.
