data_PCOD9148671
_publ_section_title
;
Structure prediction by ZEFSAII (Michael W. Deem and Ramdas Pophale) SiO2 
 PCOD9148671
Probable space group: P 2/M
;
_chemical_formula_sum "Si O2"
_cell_formula_units_Z 24
_cell_length_a 11.055273
_cell_length_b 7.444782
_cell_length_c 21.617337
_cell_angle_alpha 90.000000
_cell_angle_beta 34.251608
_cell_angle_gamma 90.000000
_cell_volume 1001.381218
_symmetry_space_group_name_H-M "P 2/M"
_symmetry_group_IT_number 10
_symmetry_cell_setting 'monoclinic'
loop_
_space_group_symop_operation_xyz
x,y,z
-x,y,-z
-x,-y,-z
x,-y,z
loop_
_atom_site_type_symbol
_atom_site_label
_atom_site_fract_x
_atom_site_fract_y
_atom_site_fract_z
Si Si1 0.875099 0.296120 0.968673
Si Si2 0.212162 0.719131 0.374670
Si Si3 0.657743 0.282420 0.249092
Si Si4 0.305081 0.789316 0.621585
Si Si5 0.152737 0.788582 0.160849
Si Si6 0.413337 0.283295 0.167586
O O1 0.880881 0.500000 0.989897
O O2 0.838876 0.301311 0.909479
O O3 0.113983 0.217826 0.875864
O O4 0.650391 0.214210 0.085800
O O5 0.207036 0.500000 0.378332
O O6 0.435390 0.774839 0.312431
O O7 0.238451 0.774532 0.292152
O O8 0.000000 0.781811 0.500000
O O9 0.666548 0.500000 0.242210
O O10 0.653370 0.230169 0.322971
O O11 0.500000 0.709386 0.500000
O O12 0.064118 0.718325 0.714144
O O13 0.294341 0.000000 0.609961
O O14 0.344789 0.767524 0.127655
O O15 0.127836 0.000000 0.157948
O O16 0.424346 0.500000 0.164655
#
# Coordination Sequence:
#
# PCOD9148671 Si02
#       6
#     4   4   4   4   4   4
#     4   9  18  33  52  77 104 132 169 209 252 300
#     4   9  19  34  51  75 104 133 168 212 256 294
#     4   9  18  33  53  75 100 130 169 211 247 295
#     4   9  19  34  51  72 101 135 167 205 254 301
#     4  10  20  33  51  77 106 134 167 209 255 303
#     4  10  20  33  52  75 104 139 169 205 252 301
#
# _framework density 23.966895000000001
#
# number of rings (size 3 to 8) (size 9 to 14) (size 15 to 20)
#    0.000    2.667    0.000    1.000    2.333    4.333 
#    0.000    4.167    0.000    1.000    0.000    5.833 
#    0.000    0.000    0.000    0.000    0.000    0.000 
#
# Total GULP energy -134037.724495 kJ/mol
# GULP energy per Si atom -5584.905187 kJ/mol
# Density = 2.391234 g / cm^3
# Si number density = 23.966895 Si / 1000 Ang^3
#
#
#
# Elastic Constant Matrix: (Units=GPa)
#
#
# Indices 1 2 3 4 5 6 
#
# 1 104.7037 -11.5373 38.9527 0.0000 -20.9280 0.0000
# 2 -11.5373 79.0451 10.5667 0.0000 -3.6938 0.0000
# 3 38.9527 10.5667 158.8938 0.0000 -10.1736 0.0000
# 4 0.0000 0.0000 0.0000 1.8892 0.0000 1.9227
# 5 -20.9280 -3.6938 -10.1736 0.0000 31.7460 0.0000
# 6 0.0000 0.0000 0.0000 1.9227 0.0000 5.5526
#
#
#
# Elastic Compliance Matrix: (Units=1/GPa)
#
#
# Indices 1 2 3 4 5 6 
#
# 1 0.012349 0.002518 -0.002710 0.000000 0.007565 0.000000
# 2 0.002518 0.013326 -0.001325 0.000000 0.002786 0.000000
# 3 -0.002710 -0.001325 0.007067 0.000000 0.000324 0.000000
# 4 0.000000 0.000000 0.000000 0.817400 0.000000 -0.283039
# 5 0.007565 0.002786 0.000324 0.000000 0.036915 0.000000
# 6 0.000000 0.000000 0.000000 -0.283039 0.000000 0.278104
#
#
# Mechanical properties :
#
#
# Convention : Reuss Voigt Hill
#
# Bulk Modulus (GPa) = 33.66232 46.51185 40.08708
# Shear Modulus (GPa) = 4.24413 28.14825 16.19619
#
# Velocity S-wave (km/s) = 1.33217 3.43076 2.60238
# Velocity P-wave (km/s) = 4.05488 5.92810 5.07860
#
# Compressibility (1/GPa) = 0.02970681
#
# Stress axis : x y z
#
# Youngs Moduli (GPa) = 80.98037 75.04185 141.50659
#
# Poissons Ratio (x) = -0.18897 0.38353
# Poissons Ratio (y) = -0.20393 0.18752
# Poissons Ratio (z) = 0.21949 0.09944
#
# Static dielectric constant tensor:
#      x y z
#    x 1.871880 0.000000 -0.019460 
#    y 0.000000 1.947010 0.000000 
#    z -0.019460 0.000000 1.955500 
# 
# From -- ./inp_files/45155.got.cif
#   From: 2010.05.17/outbox.cif.g08.bks.cpg/sg10_23_cif.got.tgz:45155.got - 2010.06.03 11:33:40.
