data_PCOD9148251
_publ_section_title
;
Structure prediction by ZEFSAII (Michael W. Deem and Ramdas Pophale) SiO2 
 PCOD9148251
Probable space group: P 2/M
;
_chemical_formula_sum "Si O2"
_cell_formula_units_Z 32
_cell_length_a 15.346537
_cell_length_b 14.624452
_cell_length_c 10.132078
_cell_angle_alpha 90.000000
_cell_angle_beta 118.795471
_cell_angle_gamma 90.000000
_cell_volume 1992.799061
_symmetry_space_group_name_H-M "P 2/M"
_symmetry_group_IT_number 10
_symmetry_cell_setting 'monoclinic'
loop_
_space_group_symop_operation_xyz
x,y,z
-x,y,-z
-x,-y,-z
x,-y,z
loop_
_atom_site_type_symbol
_atom_site_label
_atom_site_fract_x
_atom_site_fract_y
_atom_site_fract_z
Si Si1 0.161104 0.101992 0.563163
Si Si2 0.890219 0.292039 0.147104
Si Si3 0.556408 0.393370 0.179324
Si Si4 0.909761 0.391316 0.626106
Si Si5 0.235545 0.708722 0.683795
Si Si6 0.802582 0.609260 0.829201
Si Si7 0.426232 0.388962 0.331377
Si Si8 0.033139 0.897899 0.741853
O O1 0.233734 0.187198 0.629841
O O2 0.096483 0.102720 0.651477
O O3 0.080606 0.116235 0.387938
O O4 0.204210 0.000000 0.581091
O O5 0.802956 0.292824 0.193088
O O6 0.926227 0.188084 0.148658
O O7 0.983053 0.344618 0.281209
O O8 0.857571 0.340602 0.989025
O O9 0.582239 0.500000 0.224773
O O10 0.657462 0.336854 0.252092
O O11 0.478426 0.363058 0.233259
O O12 0.500000 0.388565 0.000000
O O13 0.919190 0.500000 0.611018
O O14 0.844472 0.345925 0.463562
O O15 0.854521 0.376684 0.726117
O O16 0.804749 0.500000 0.857493
O O17 0.687702 0.640451 0.738950
O O18 0.500000 0.357355 0.500000
O O19 0.423169 0.500000 0.334980
O O20 0.042808 0.000000 0.806535
#
# Coordination Sequence:
#
# PCOD9148251 Si02
#       8
#     4   4   4   4   4   4   4   4
#     4   8  14  27  47  70  95 122 155 195 238 282
#     4  11  20  31  48  72 101 131 158 189 234 290
#     4  10  20  32  46  68  98 125 153 200 250 280
#     4  11  22  33  45  67 101 136 165 192 225 279
#     4  11  20  31  50  75  97 123 162 201 239 283
#     4  10  21  35  49  66  95 135 168 195 236 283
#     4   9  17  32  51  66  83 117 167 209 234 266
#     4   8  14  27  47  69  94 124 158 195 233 275
#
# _framework density 16.057815999999999
#
# number of rings (size 3 to 8) (size 9 to 14) (size 15 to 20)
#    0.000    2.250    1.250    3.750    0.000    6.500 
#    0.000    0.000    0.000    2.625    0.000    0.875 
#    0.000    2.000    0.000    0.000    0.000    0.000 
#
# Total GULP energy -178448.076770 kJ/mol
# GULP energy per Si atom -5576.502399 kJ/mol
# Density = 1.602127 g / cm^3
# Si number density = 16.057816 Si / 1000 Ang^3
#
#
#
# Elastic Constant Matrix: (Units=GPa)
#
#
# Indices 1 2 3 4 5 6 
#
# 1 39.8079 8.6328 2.2752 0.0000 5.9168 0.0000
# 2 8.6328 70.4023 18.9936 0.0000 2.9727 0.0000
# 3 2.2752 18.9936 43.8561 0.0000 -0.7402 0.0000
# 4 0.0000 0.0000 0.0000 20.8672 0.0000 3.1112
# 5 5.9168 2.9727 -0.7402 0.0000 25.0465 0.0000
# 6 0.0000 0.0000 0.0000 3.1112 0.0000 13.2479
#
#
#
# Elastic Compliance Matrix: (Units=1/GPa)
#
#
# Indices 1 2 3 4 5 6 
#
# 1 0.026659 -0.002964 -0.000200 0.000000 -0.005952 0.000000
# 2 -0.002964 0.016526 -0.007028 0.000000 -0.001469 0.000000
# 3 -0.000200 -0.007028 0.025884 0.000000 0.001646 0.000000
# 4 0.000000 0.000000 0.000000 0.049661 0.000000 -0.011663
# 5 -0.005952 -0.001469 0.001646 0.000000 0.041555 0.000000
# 6 0.000000 0.000000 0.000000 -0.011663 0.000000 0.078223
#
#
# Mechanical properties :
#
#
# Convention : Reuss Voigt Hill
#
# Bulk Modulus (GPa) = 20.54009 23.76329 22.15169
# Shear Modulus (GPa) = 18.17394 20.10997 19.14196
#
# Velocity S-wave (km/s) = 3.36785 3.54269 3.45637
# Velocity P-wave (km/s) = 5.28605 5.61827 5.45469
#
# Compressibility (1/GPa) = 0.04868529
#
# Stress axis : x y z
#
# Youngs Moduli (GPa) = 37.51012 60.51210 38.63421
#
# Poissons Ratio (x) = 0.17934 0.00772
# Poissons Ratio (y) = 0.11117 0.27153
# Poissons Ratio (z) = 0.00750 0.42529
#
# Static dielectric constant tensor:
#      x y z
#    x 1.522950 0.000000 -0.006070 
#    y 0.000000 1.548640 0.000000 
#    z -0.006070 0.000000 1.511740 
# 
# From -- ./inp_files/29522.got.cif
#   From: 2010.05.17/outbox.cif.g08.bks.cpg/sg10_15_cif.got.tgz:29522.got - 2010.06.03 11:33:40.
