data_PCOD9148453
_publ_section_title
;
Structure prediction by ZEFSAII (Michael W. Deem and Ramdas Pophale) SiO2 
 PCOD9148453
Probable space group: P 2/M
;
_chemical_formula_sum "Si O2"
_cell_formula_units_Z 30
_cell_length_a 28.420363
_cell_length_b 10.963402
_cell_length_c 15.394270
_cell_angle_alpha 90.000000
_cell_angle_beta 19.844078
_cell_angle_gamma 90.000000
_cell_volume 1628.263812
_symmetry_space_group_name_H-M "P 2/M"
_symmetry_group_IT_number 10
_symmetry_cell_setting 'monoclinic'
loop_
_space_group_symop_operation_xyz
x,y,z
-x,y,-z
-x,-y,-z
x,-y,z
loop_
_atom_site_type_symbol
_atom_site_label
_atom_site_fract_x
_atom_site_fract_y
_atom_site_fract_z
Si Si1 0.446390 0.360610 0.687643
Si Si2 0.500000 0.201041 0.000000
Si Si3 0.964599 0.640992 0.788813
Si Si4 0.291868 0.636234 0.635619
Si Si5 0.396249 0.870266 0.364883
Si Si6 0.673828 0.786846 0.963842
Si Si7 0.280922 0.360702 0.281674
Si Si8 0.017669 0.862964 0.572397
O O1 0.500000 0.323502 0.500000
O O2 0.393446 0.500000 0.772832
O O3 0.577026 0.361064 0.526420
O O4 0.338136 0.269361 0.919532
O O5 0.444699 0.133049 0.180997
O O6 0.370786 0.279317 0.189459
O O7 0.960331 0.500000 0.761337
O O8 0.115434 0.656239 0.571351
O O9 0.954278 0.749069 0.735769
O O10 0.843565 0.651022 0.069633
O O11 0.289187 0.500000 0.599880
O O12 0.311429 0.748719 0.536346
O O13 0.537064 0.861559 0.177345
O O14 0.325719 0.000000 0.505844
O O15 0.675165 0.675419 0.892588
O O16 0.816485 0.856155 0.700643
O O17 0.313925 0.500000 0.241249
O O18 0.000000 0.847281 0.500000
O O19 0.967705 0.000000 0.683218
#
# Coordination Sequence:
#
# PCOD9148453 Si02
#       8
#     4   2   4   4   4   4   4   4
#     4   9  17  28  47  74 102 133 172 218 260 299
#     4  10  20  32  54  82 105 130 167 216 261 312
#     4   9  19  36  55  76 104 138 176 212 255 310
#     4   9  19  35  53  75 105 139 173 211 259 310
#     4  10  20  35  56  78 103 135 172 213 260 311
#     4   9  18  32  50  71 103 137 173 212 260 305
#     4   9  17  31  52  79 105 133 167 211 262 313
#     4  10  21  34  50  74 105 139 177 219 261 304
#
# _framework density 18.424534000000001
#
# number of rings (size 3 to 8) (size 9 to 14) (size 15 to 20)
#    0.000    2.667    0.000    1.200    1.867    5.067 
#    0.000    1.333    0.000    5.200    0.000    0.000 
#    0.000    0.000    0.000    0.000    0.000    0.000 
#
# Total GULP energy -167146.157840 kJ/mol
# GULP energy per Si atom -5571.538595 kJ/mol
# Density = 1.838260 g / cm^3
# Si number density = 18.424534 Si / 1000 Ang^3
#
#
#
# Elastic Constant Matrix: (Units=GPa)
#
#
# Indices 1 2 3 4 5 6 
#
# 1 55.1391 42.1899 3.5328 0.0000 12.4607 0.0000
# 2 42.1899 152.7365 46.3701 0.0000 18.6324 0.0000
# 3 3.5328 46.3701 55.0521 0.0000 10.5956 0.0000
# 4 0.0000 0.0000 0.0000 -0.2383 0.0000 -24.4752
# 5 12.4607 18.6324 10.5956 0.0000 20.8777 0.0000
# 6 0.0000 0.0000 0.0000 -24.4752 0.0000 -92.7822
#
#
#
# Elastic Compliance Matrix: (Units=1/GPa)
#
#
# Indices 1 2 3 4 5 6 
#
# 1 0.026711 -0.008146 0.007554 0.000000 -0.012506 0.000000
# 2 -0.008146 0.011686 -0.009142 0.000000 -0.000928 0.000000
# 3 0.007554 -0.009142 0.027349 0.000000 -0.010230 0.000000
# 4 0.000000 0.000000 0.000000 0.160823 0.000000 -0.042424
# 5 -0.012506 -0.000928 -0.010230 0.000000 0.061382 0.000000
# 6 0.000000 0.000000 0.000000 -0.042424 0.000000 0.000413
#
#
# Mechanical properties :
#
#
# Convention : Reuss Voigt Hill
#
# Bulk Modulus (GPa) = 21.60806 49.67924 35.64365
# Shear Modulus (GPa) = 15.46754 -3.03959 6.21397
#
# Velocity S-wave (km/s) = 2.90057 -1.28582 1.83847
# Velocity P-wave (km/s) = 4.79281 4.98174 4.88819
#
# Compressibility (1/GPa) = 0.04627903
#
# Stress axis : x y z
#
# Youngs Moduli (GPa) = 37.43734 85.57261 36.56466
#
# Poissons Ratio (x) = 0.69709 -0.27623
# Poissons Ratio (y) = 0.30497 0.33426
# Poissons Ratio (z) = -0.28282 0.78228
#
# Static dielectric constant tensor:
#      x y z
#    x 1.613210 0.000000 -0.006200 
#    y 0.000000 1.668690 0.000000 
#    z -0.006200 0.000000 1.636360 
# 
# From -- ./inp_files/72395.got.cif
#   From: 2010.05.17/outbox.cif.g08.bks.cpg/sg10_37_cif.got.tgz:72395.got - 2010.06.03 11:33:40.
