data_PCOD9148504
_publ_section_title
;
Structure prediction by ZEFSAII (Michael W. Deem and Ramdas Pophale) SiO2 
 PCOD9148504
Probable space group: P 2/M
;
_chemical_formula_sum "Si O2"
_cell_formula_units_Z 24
_cell_length_a 22.807578
_cell_length_b 8.405307
_cell_length_c 9.978672
_cell_angle_alpha 90.000000
_cell_angle_beta 44.079838
_cell_angle_gamma 90.000000
_cell_volume 1330.768647
_symmetry_space_group_name_H-M "P 2/M"
_symmetry_group_IT_number 10
_symmetry_cell_setting 'monoclinic'
loop_
_space_group_symop_operation_xyz
x,y,z
-x,y,-z
-x,-y,-z
x,-y,z
loop_
_atom_site_type_symbol
_atom_site_label
_atom_site_fract_x
_atom_site_fract_y
_atom_site_fract_z
Si Si1 0.631884 0.691849 0.067249
Si Si2 0.530058 0.808340 0.803684
Si Si3 0.221943 0.308279 0.378215
Si Si4 0.240428 0.691887 0.917429
Si Si5 0.904441 0.305735 0.641024
Si Si6 0.279963 0.189779 0.561132
O O1 0.628524 0.500000 0.072714
O O2 0.539798 0.757157 0.188830
O O3 0.678287 0.742911 0.127785
O O4 0.694864 0.741235 0.842832
O O5 0.623816 0.749901 0.616627
O O6 0.532266 0.000000 0.804461
O O7 0.500000 0.750980 0.000000
O O8 0.222213 0.500000 0.381662
O O9 0.141819 0.257651 0.420789
O O10 0.227423 0.244525 0.518551
O O11 0.240527 0.500000 0.916590
O O12 0.244735 0.751529 0.759963
O O13 0.157614 0.742998 0.136289
O O14 0.905595 0.500000 0.639521
O O15 0.000000 0.250036 0.500000
O O16 0.282541 0.000000 0.558100
#
# Coordination Sequence:
#
# PCOD9148504 Si02
#       6
#     4   4   4   4   4   4
#     4   9  18  32  51  74  98 130 170 211 253 294
#     4  10  20  33  48  69  99 135 177 214 242 285
#     4   9  17  31  53  78 101 128 165 207 251 297
#     4   9  19  35  53  76 105 131 162 207 255 300
#     4   8  15  32  59  84 101 123 162 208 250 299
#     4  11  22  34  49  72 103 139 172 205 248 295
#
# _framework density 18.034690000000001
#
# number of rings (size 3 to 8) (size 9 to 14) (size 15 to 20)
#    0.000    2.667    1.667    2.500    0.000    3.000 
#    0.000    6.667    0.000    7.000    0.000    0.000 
#    0.000    0.000    0.000    0.000    0.000    0.000 
#
# Total GULP energy -133844.633372 kJ/mol
# GULP energy per Si atom -5576.859724 kJ/mol
# Density = 1.799364 g / cm^3
# Si number density = 18.034690 Si / 1000 Ang^3
#
#
#
# Elastic Constant Matrix: (Units=GPa)
#
#
# Indices 1 2 3 4 5 6 
#
# 1 166.6925 18.5199 102.3382 0.0000 4.0516 0.0000
# 2 18.5199 6.6827 19.1311 0.0000 2.5611 0.0000
# 3 102.3382 19.1311 112.1679 0.0000 15.0247 0.0000
# 4 0.0000 0.0000 0.0000 -1.7699 0.0000 -54.5408
# 5 4.0516 2.5611 15.0247 0.0000 36.9506 0.0000
# 6 0.0000 0.0000 0.0000 -54.5408 0.0000 -195.7242
#
#
#
# Elastic Compliance Matrix: (Units=1/GPa)
#
#
# Indices 1 2 3 4 5 6 
#
# 1 0.014220 -0.004429 -0.012745 0.000000 0.003930 0.000000
# 2 -0.004429 0.293799 -0.045907 0.000000 -0.001212 0.000000
# 3 -0.012745 -0.045907 0.029359 0.000000 -0.007358 0.000000
# 4 0.000000 0.000000 0.000000 0.074468 0.000000 -0.020751
# 5 0.003930 -0.001212 -0.007358 0.000000 0.029708 0.000000
# 6 0.000000 0.000000 0.000000 -0.020751 0.000000 0.000673
#
#
# Mechanical properties :
#
#
# Convention : Reuss Voigt Hill
#
# Bulk Modulus (GPa) = 4.73446 62.83572 33.78509
# Shear Modulus (GPa) = 7.82723 -22.40511 -7.28894
#
# Velocity S-wave (km/s) = 2.08555 -3.52850 -2.01256
# Velocity P-wave (km/s) = 2.90349 4.27981 3.65698
#
# Compressibility (1/GPa) = 0.21121734
#
# Stress axis : x y z
#
# Youngs Moduli (GPa) = 70.32200 3.40368 34.06122
#
# Poissons Ratio (x) = 0.01507 0.43412
# Poissons Ratio (y) = 0.31143 1.56364
# Poissons Ratio (z) = 0.89627 0.15625
#
# Static dielectric constant tensor:
#      x y z
#    x 1.615380 0.000000 -0.003040 
#    y 0.000000 1.620330 0.000000 
#    z -0.003040 0.000000 1.606190 
# 
# From -- ./inp_files/27981.got.cif
#   From: 2010.05.17/outbox.cif.g08.bks.cpg/sg10_14_cif.got.tgz:27981.got - 2010.06.03 11:33:40.
