data_PCOD9148326
_publ_section_title
;
Structure prediction by ZEFSAII (Michael W. Deem and Ramdas Pophale) SiO2 
 PCOD9148326
Probable space group: P 2/M
;
_chemical_formula_sum "Si O2"
_cell_formula_units_Z 32
_cell_length_a 23.516697
_cell_length_b 9.310372
_cell_length_c 20.745202
_cell_angle_alpha 90.000000
_cell_angle_beta 156.693641
_cell_angle_gamma 90.000000
_cell_volume 1797.088144
_symmetry_space_group_name_H-M "P 2/M"
_symmetry_group_IT_number 10
_symmetry_cell_setting 'monoclinic'
loop_
_space_group_symop_operation_xyz
x,y,z
-x,y,-z
-x,-y,-z
x,-y,z
loop_
_atom_site_type_symbol
_atom_site_label
_atom_site_fract_x
_atom_site_fract_y
_atom_site_fract_z
Si Si1 0.330114 0.828701 0.322319
Si Si2 0.282028 0.166733 0.814968
Si Si3 0.111861 0.665368 0.176865
Si Si4 0.061386 0.333729 0.666346
Si Si5 0.157913 0.673045 0.029682
Si Si6 0.496940 0.167129 0.160741
Si Si7 0.721779 0.669159 0.318401
Si Si8 0.270187 0.331270 0.004688
O O1 0.500000 0.798286 0.500000
O O2 0.244789 0.763457 0.294768
O O3 0.257514 0.754259 0.184690
O O4 0.309400 0.000000 0.298383
O O5 0.323798 0.258233 0.796317
O O6 0.135232 0.230647 0.691422
O O7 0.268630 0.000000 0.782976
O O8 0.396153 0.178072 0.991873
O O9 0.158591 0.500000 0.233700
O O10 0.000000 0.668660 0.000000
O O11 0.008916 0.709598 0.128770
O O12 0.083107 0.500000 0.668066
O O13 0.893183 0.310266 0.500730
O O14 0.146776 0.313875 0.822121
O O15 0.169577 0.500000 0.052063
O O16 0.208430 0.706116 0.010288
O O17 0.638747 0.254317 0.289929
O O18 0.525716 0.000000 0.202528
O O19 0.405004 0.237661 0.122156
O O20 0.690097 0.500000 0.284937
O O21 0.310208 0.500000 0.046600
#
# Coordination Sequence:
#
# PCOD9148326 Si02
#       8
#     4   4   4   4   4   4   4   4
#     4  10  20  32  48  75 110 140 164 196 241 288
#     4  10  20  33  50  72  97 127 164 204 250 303
#     4   8  15  29  49  74 101 127 161 202 240 280
#     4   9  19  34  51  72  98 126 159 203 250 297
#     4   9  18  33  55  78  97 126 168 207 242 286
#     4  10  21  35  50  71 100 131 164 204 248 295
#     4  11  21  32  49  73  99 128 163 204 253 302
#     4   9  18  36  57  73  94 127 166 204 244 292
#
# _framework density 17.806581999999999
#
# number of rings (size 3 to 8) (size 9 to 14) (size 15 to 20)
#    0.000    2.500    0.000    3.000    0.000    9.250 
#    0.000    1.250    0.000    3.000    0.000    0.000 
#    0.000    0.000    0.000    0.000    0.000    0.000 
#
# Total GULP energy -178526.385690 kJ/mol
# GULP energy per Si atom -5578.949553 kJ/mol
# Density = 1.776605 g / cm^3
# Si number density = 17.806582 Si / 1000 Ang^3
#
#
#
# Elastic Constant Matrix: (Units=GPa)
#
#
# Indices 1 2 3 4 5 6 
#
# 1 114.7870 57.2375 33.0214 0.0000 36.9013 0.0000
# 2 57.2375 85.8457 53.1937 0.0000 28.9963 0.0000
# 3 33.0214 53.1937 65.0619 0.0000 28.6442 0.0000
# 4 0.0000 0.0000 0.0000 14.6824 0.0000 -9.1882
# 5 36.9013 28.9963 28.6442 0.0000 28.3381 0.0000
# 6 0.0000 0.0000 0.0000 -9.1882 0.0000 -4.0524
#
#
#
# Elastic Compliance Matrix: (Units=1/GPa)
#
#
# Indices 1 2 3 4 5 6 
#
# 1 0.018552 -0.010250 0.008979 0.000000 -0.022746 0.000000
# 2 -0.010250 0.030430 -0.021343 0.000000 0.003785 0.000000
# 3 0.008979 -0.021343 0.042876 0.000000 -0.033192 0.000000
# 4 0.000000 0.000000 0.000000 0.028157 0.000000 -0.063842
# 5 -0.022746 0.003785 -0.033192 0.000000 0.094585 0.000000
# 6 0.000000 0.000000 0.000000 -0.063842 0.000000 -0.102017
#
#
# Mechanical properties :
#
#
# Convention : Reuss Voigt Hill
#
# Bulk Modulus (GPa) = 21.44597 61.39997 41.42297
# Shear Modulus (GPa) = 28.84249 15.94309 22.39279
#
# Velocity S-wave (km/s) = 4.02900 2.99548 3.55005
# Velocity P-wave (km/s) = 5.80635 6.82058 6.33380
#
# Compressibility (1/GPa) = 0.04662881
#
# Stress axis : x y z
#
# Youngs Moduli (GPa) = 53.90168 32.86263 23.32321
#
# Poissons Ratio (x) = 0.33686 -0.20941
# Poissons Ratio (y) = 0.55252 0.49778
# Poissons Ratio (z) = -0.48396 0.70138
#
# Static dielectric constant tensor:
#      x y z
#    x 1.610920 0.000000 0.011370 
#    y 0.000000 1.597270 0.000000 
#    z 0.011370 0.000000 1.607800 
# 
# From -- ./inp_files/90637.got.cif
#   From: 2010.05.17/outbox.cif.g08.bks.cpg/sg10_46_cif.got.tgz:90637.got - 2010.06.03 11:33:40.
