data_PCOD9148521
_publ_section_title
;
Structure prediction by ZEFSAII (Michael W. Deem and Ramdas Pophale) SiO2 
 PCOD9148521
Probable space group: P 2/M
;
_chemical_formula_sum "Si O2"
_cell_formula_units_Z 32
_cell_length_a 14.573812
_cell_length_b 7.526771
_cell_length_c 17.700317
_cell_angle_alpha 90.000000
_cell_angle_beta 53.099277
_cell_angle_gamma 90.000000
_cell_volume 1552.664273
_symmetry_space_group_name_H-M "P 2/M"
_symmetry_group_IT_number 10
_symmetry_cell_setting 'monoclinic'
loop_
_space_group_symop_operation_xyz
x,y,z
-x,y,-z
-x,-y,-z
x,-y,z
loop_
_atom_site_type_symbol
_atom_site_label
_atom_site_fract_x
_atom_site_fract_y
_atom_site_fract_z
Si Si1 0.083189 0.796026 0.884889
Si Si2 0.875919 0.212520 0.897757
Si Si3 0.465626 0.785012 0.279549
Si Si4 0.172293 0.714884 0.560052
Si Si5 0.717411 0.781793 0.112491
Si Si6 0.577181 0.790101 0.529337
Si Si7 0.214898 0.290907 0.368612
Si Si8 0.918331 0.286764 0.711369
O O1 0.202061 0.720193 0.857542
O O2 0.001119 0.714808 0.861733
O O3 0.108303 0.000000 0.850477
O O4 0.000000 0.799791 0.000000
O O5 0.855008 0.246859 0.820757
O O6 0.882372 0.000000 0.905172
O O7 0.779682 0.275274 0.004335
O O8 0.586581 0.725765 0.186028
O O9 0.451947 0.718888 0.372730
O O10 0.351302 0.729725 0.292040
O O11 0.465708 0.000000 0.280724
O O12 0.172745 0.500000 0.558933
O O13 0.286323 0.769033 0.548428
O O14 0.185079 0.780303 0.466798
O O15 0.049768 0.777339 0.650745
O O16 0.719502 0.000000 0.112889
O O17 0.500000 0.715539 0.500000
O O18 0.552544 0.000000 0.545323
O O19 0.187738 0.500000 0.385850
O O20 0.144484 0.217407 0.332661
O O21 0.922710 0.500000 0.702671
#
# Coordination Sequence:
#
# PCOD9148521 Si02
#       8
#     4   4   4   4   4   4   4   4
#     4   7  11  22  42  66  89 115 149 184 215 255
#     4   9  17  29  47  71  95 120 155 194 227 267
#     4   9  17  30  49  70  93 123 157 191 226 268
#     4   9  18  33  52  70  89 120 160 192 223 275
#     4   8  14  27  47  69  93 124 159 189 220 266
#     4   9  18  31  47  73 106 129 147 182 232 276
#     4   9  18  34  52  67  87 118 156 194 232 279
#     4  10  20  33  49  69  93 120 150 192 244 283
#
# _framework density 20.609736000000002
#
# number of rings (size 3 to 8) (size 9 to 14) (size 15 to 20)
#    0.000    3.250    0.000    1.875    0.000    3.750 
#    0.000    3.750    0.000   11.625    0.000    0.000 
#    0.000    0.000    0.000    0.000    0.000    0.000 
#
# Total GULP energy -178368.026475 kJ/mol
# GULP energy per Si atom -5574.000827 kJ/mol
# Density = 2.056283 g / cm^3
# Si number density = 20.609736 Si / 1000 Ang^3
#
#
#
# Elastic Constant Matrix: (Units=GPa)
#
#
# Indices 1 2 3 4 5 6 
#
# 1 113.9325 -8.6352 53.4837 0.0000 7.1872 0.0000
# 2 -8.6352 48.0324 -2.8434 0.0000 4.5042 0.0000
# 3 53.4837 -2.8434 60.2307 0.0000 -5.6404 0.0000
# 4 0.0000 0.0000 0.0000 17.5722 0.0000 0.0048
# 5 7.1872 4.5042 -5.6404 0.0000 31.4129 0.0000
# 6 0.0000 0.0000 0.0000 0.0048 0.0000 16.2404
#
#
#
# Elastic Compliance Matrix: (Units=1/GPa)
#
#
# Indices 1 2 3 4 5 6 
#
# 1 0.016572 0.002726 -0.015234 0.000000 -0.006918 0.000000
# 2 0.002726 0.021583 -0.001780 0.000000 -0.004038 0.000000
# 3 -0.015234 -0.001780 0.030917 0.000000 0.009292 0.000000
# 4 0.000000 0.000000 0.000000 0.056908 0.000000 -0.000017
# 5 -0.006918 -0.004038 0.009292 0.000000 0.035664 0.000000
# 6 0.000000 0.000000 0.000000 -0.000017 0.000000 0.061575
#
#
# Mechanical properties :
#
#
# Convention : Reuss Voigt Hill
#
# Bulk Modulus (GPa) = 24.69469 34.02287 29.35878
# Shear Modulus (GPa) = 18.84707 25.05781 21.95244
#
# Velocity S-wave (km/s) = 3.02731 3.49065 3.26720
# Velocity P-wave (km/s) = 4.92215 5.72627 5.33937
#
# Compressibility (1/GPa) = 0.04049453
#
# Stress axis : x y z
#
# Youngs Moduli (GPa) = 60.34383 46.33346 32.34481
#
# Poissons Ratio (x) = -0.12631 0.49276
# Poissons Ratio (y) = -0.16450 0.05757
# Poissons Ratio (z) = 0.91931 0.08247
#
# Static dielectric constant tensor:
#      x y z
#    x 1.746450 0.000000 0.011390 
#    y 0.000000 1.801870 0.000000 
#    z 0.011390 0.000000 1.727850 
# 
# From -- ./inp_files/66528.got.cif
#   From: 2010.05.17/outbox.cif.g08.bks.cpg/sg10_34_cif.got.tgz:66528.got - 2010.06.03 11:33:40.
