data_PCOD9148176
_publ_section_title
;
Structure prediction by ZEFSAII (Michael W. Deem and Ramdas Pophale) SiO2 
 PCOD9148176
Probable space group: P 2/M
;
_chemical_formula_sum "Si O2"
_cell_formula_units_Z 24
_cell_length_a 12.341438
_cell_length_b 24.648346
_cell_length_c 12.454675
_cell_angle_alpha 90.000000
_cell_angle_beta 156.235976
_cell_angle_gamma 90.000000
_cell_volume 1526.720129
_symmetry_space_group_name_H-M "P 2/M"
_symmetry_group_IT_number 10
_symmetry_cell_setting 'monoclinic'
loop_
_space_group_symop_operation_xyz
x,y,z
-x,y,-z
-x,-y,-z
x,-y,z
loop_
_atom_site_type_symbol
_atom_site_label
_atom_site_fract_x
_atom_site_fract_y
_atom_site_fract_z
Si Si1 0.293814 0.500000 0.216044
Si Si2 0.796506 0.000000 0.716489
Si Si3 0.093235 0.710687 0.959377
Si Si4 0.402966 0.773162 0.536386
Si Si5 0.286863 0.596973 0.043021
Si Si6 0.843409 0.435401 0.467507
Si Si7 0.207779 0.882170 0.288304
O O1 0.500000 0.500000 0.500000
O O2 0.328211 0.552833 0.173873
O O3 0.000000 0.500000 0.000000
O O4 0.500000 0.000000 0.500000
O O5 0.846991 0.058818 0.708787
O O6 0.000000 0.000000 0.000000
O O7 0.824386 0.728003 0.653543
O O8 0.323404 0.756961 0.155975
O O9 0.213276 0.654457 0.027818
O O10 0.000000 0.706690 0.000000
O O11 0.500000 0.771284 0.500000
O O12 0.252614 0.831172 0.407535
O O13 0.564038 0.596108 0.227891
O O14 0.042323 0.577606 0.746075
O O15 0.782860 0.500000 0.411540
O O16 0.000000 0.422430 0.500000
O O17 0.500000 0.887949 0.500000
O O18 0.000000 0.871456 0.000000
#
# Coordination Sequence:
#
# PCOD9148176 Si02
#       7
#     2   2   4   4   4   4   4
#     4  12  24  36  49  70  97 124 146 172 216 268
#     4   8  14  20  30  48  70  96 134 186 237 258
#     4  10  20  31  45  64  89 120 149 179 212 259
#     4   9  16  27  40  56  79 113 151 182 214 249
#     4  12  22  38  53  73  95 119 147 184 226 274
#     4  11  22  39  59  76  90 110 143 186 233 279
#     4   9  14  22  34  50  72 102 141 188 228 256
#
# _framework density 15.719973
#
# number of rings (size 3 to 8) (size 9 to 14) (size 15 to 20)
#    0.000    1.833    1.667    5.500    0.000    3.333 
#    0.000    0.000    0.000    0.000    0.000    0.000 
#    0.000    0.000    0.000    0.000    0.000    0.000 
#
# Total GULP energy -133647.684734 kJ/mol
# GULP energy per Si atom -5568.653531 kJ/mol
# Density = 1.568419 g / cm^3
# Si number density = 15.719973 Si / 1000 Ang^3
#
#
#
# Elastic Constant Matrix: (Units=GPa)
#
#
# Indices 1 2 3 4 5 6 
#
# 1 33.6867 26.0084 9.7332 0.0000 13.0637 0.0000
# 2 26.0084 113.2500 16.2108 0.0000 10.7772 0.0000
# 3 9.7332 16.2108 81.3420 0.0000 18.7141 0.0000
# 4 0.0000 0.0000 0.0000 21.6867 0.0000 0.0667
# 5 13.0637 10.7772 18.7141 0.0000 23.1339 0.0000
# 6 0.0000 0.0000 0.0000 0.0667 0.0000 1.2175
#
#
#
# Elastic Compliance Matrix: (Units=1/GPa)
#
#
# Indices 1 2 3 4 5 6 
#
# 1 0.044311 -0.008260 0.001494 0.000000 -0.022383 0.000000
# 2 -0.008260 0.010852 -0.001332 0.000000 0.000687 0.000000
# 3 0.001494 -0.001332 0.015275 0.000000 -0.012579 0.000000
# 4 0.000000 0.000000 0.000000 0.046119 0.000000 -0.002525
# 5 -0.022383 0.000687 -0.012579 0.000000 0.065722 0.000000
# 6 0.000000 0.000000 0.000000 -0.002525 0.000000 0.821521
#
#
# Mechanical properties :
#
#
# Convention : Reuss Voigt Hill
#
# Bulk Modulus (GPa) = 18.43648 36.90928 27.67288
# Shear Modulus (GPa) = 4.81659 20.96270 12.88965
#
# Velocity S-wave (km/s) = 1.75233 3.65568 2.86659
# Velocity P-wave (km/s) = 3.98092 6.43031 5.34774
#
# Compressibility (1/GPa) = 0.05424029
#
# Stress axis : x y z
#
# Youngs Moduli (GPa) = 22.56771 92.14582 65.46814
#
# Poissons Ratio (x) = 0.76113 -0.09778
# Poissons Ratio (y) = 0.18641 0.08723
# Poissons Ratio (z) = -0.03371 0.12277
#
# Static dielectric constant tensor:
#      x y z
#    x 1.498260 0.000000 0.011260 
#    y 0.000000 1.607550 0.000000 
#    z 0.011260 0.000000 1.542890 
# 
# From -- ./inp_files/48214.got.cif
#   From: 2010.05.17/outbox.cif.g08.bks.cpg/sg10_25_cif.got.tgz:48214.got - 2010.06.03 11:33:40.
