data_PCOD9148061
_publ_section_title
;
Structure prediction by ZEFSAII (Michael W. Deem and Ramdas Pophale) SiO2 
 PCOD9148061
Probable space group: P 2/M
;
_chemical_formula_sum "Si O2"
_cell_formula_units_Z 9
_cell_length_a 6.670074
_cell_length_b 7.599339
_cell_length_c 7.073117
_cell_angle_alpha 90.000000
_cell_angle_beta 61.604079
_cell_angle_gamma 90.000000
_cell_volume 315.386596
_symmetry_space_group_name_H-M "P 2/M"
_symmetry_group_IT_number 10
_symmetry_cell_setting 'monoclinic'
loop_
_space_group_symop_operation_xyz
x,y,z
-x,y,-z
-x,-y,-z
x,-y,z
loop_
_atom_site_type_symbol
_atom_site_label
_atom_site_fract_x
_atom_site_fract_y
_atom_site_fract_z
Si Si1 0.298698 0.695899 0.817920
Si Si2 0.500000 0.000000 0.500000
Si Si3 0.204059 0.211418 0.272678
O O1 0.242856 0.500000 0.777442
O O2 0.562181 0.696812 0.773901
O O3 0.319654 0.847553 0.654571
O O4 0.164947 0.748516 0.069740
O O5 0.000000 0.263471 0.500000
O O6 0.251675 0.000000 0.277717
#
# Coordination Sequence:
#
# PCOD9148061 Si02
#       3
#     4   1   4
#     4  11  22  38  62  86 114 153 191 236 287 336
#     4  12  22  42  54  82 128 152 190 228 282 356
#     4  10  19  38  65  87 113 148 191 244 287 328
#
# _framework density 28.536405999999999
#
# number of rings (size 3 to 8) (size 9 to 14) (size 15 to 20)
#    0.000    1.333    4.444    4.667    0.000    3.556 
#    0.000    4.444    0.000    5.333    0.000    0.000 
#    0.000    0.000    0.000    0.000    0.000    0.000 
#
# Total GULP energy -50322.013290 kJ/mol
# GULP energy per Si atom -5591.334810 kJ/mol
# Density = 2.847146 g / cm^3
# Si number density = 28.536406 Si / 1000 Ang^3
#
#
#
# Elastic Constant Matrix: (Units=GPa)
#
#
# Indices 1 2 3 4 5 6 
#
# 1 78.6600 8.3992 23.6780 0.0000 4.3293 0.0000
# 2 8.3992 278.5550 101.3131 0.0000 2.9144 0.0000
# 3 23.6780 101.3131 294.9313 0.0000 -14.7207 0.0000
# 4 0.0000 0.0000 0.0000 -41.8376 0.0000 -39.5375
# 5 4.3293 2.9144 -14.7207 0.0000 41.0842 0.0000
# 6 0.0000 0.0000 0.0000 -39.5375 0.0000 39.0539
#
#
#
# Elastic Compliance Matrix: (Units=1/GPa)
#
#
# Indices 1 2 3 4 5 6 
#
# 1 0.013157 0.000045 -0.001162 0.000000 -0.001806 0.000000
# 2 0.000045 0.004129 -0.001463 0.000000 -0.000822 0.000000
# 3 -0.001162 -0.001463 0.004071 0.000000 0.001685 0.000000
# 4 0.000000 0.000000 0.000000 -0.012215 0.000000 -0.012367
# 5 -0.001806 -0.000822 0.001685 0.000000 0.025193 0.000000
# 6 0.000000 0.000000 0.000000 -0.012367 0.000000 0.013086
#
#
# Mechanical properties :
#
#
# Convention : Reuss Voigt Hill
#
# Bulk Modulus (GPa) = 61.74042 102.10300 81.92171
# Shear Modulus (GPa) = 86.23700 42.24382 64.24041
#
# Velocity S-wave (km/s) = 5.50324 3.85170 4.74980
# Velocity P-wave (km/s) = 7.87803 7.45912 7.67144
#
# Compressibility (1/GPa) = 0.01619685
#
# Stress axis : x y z
#
# Youngs Moduli (GPa) = 76.00351 242.16882 245.66532
#
# Poissons Ratio (x) = -0.01083 0.28542
# Poissons Ratio (y) = -0.00340 0.35943
# Poissons Ratio (z) = 0.08830 0.35432
#
# Static dielectric constant tensor:
#      x y z
#    x 6.962090 0.000000 1.459950 
#    y 0.000000 2.029220 0.000000 
#    z 1.459950 0.000000 2.652540 
# 
# From -- ./inp_files/2503.got.cif
#   From: 2010.05.17/outbox.cif.g08.bks.cpg/sg10_2_cif.got.tgz:2503.got - 2010.06.03 11:33:40.
