data_PCOD9148185
_publ_section_title
;
Structure prediction by ZEFSAII (Michael W. Deem and Ramdas Pophale) SiO2 
 PCOD9148185
Probable space group: P 2/M
;
_chemical_formula_sum "Si O2"
_cell_formula_units_Z 24
_cell_length_a 15.019835
_cell_length_b 7.718959
_cell_length_c 7.858597
_cell_angle_alpha 90.000000
_cell_angle_beta 106.528923
_cell_angle_gamma 90.000000
_cell_volume 873.455690
_symmetry_space_group_name_H-M "P 2/M"
_symmetry_group_IT_number 10
_symmetry_cell_setting 'monoclinic'
loop_
_space_group_symop_operation_xyz
x,y,z
-x,y,-z
-x,-y,-z
x,-y,z
loop_
_atom_site_type_symbol
_atom_site_label
_atom_site_fract_x
_atom_site_fract_y
_atom_site_fract_z
Si Si1 0.481400 0.794122 0.211012
Si Si2 0.143418 0.701756 0.608880
Si Si3 0.357402 0.790402 0.482010
Si Si4 0.013392 0.802257 0.236507
Si Si5 0.308029 0.703782 0.906009
Si Si6 0.808205 0.790885 0.820284
O O1 0.418736 0.756764 0.344806
O O2 0.581671 0.720484 0.326565
O O3 0.413222 0.750940 0.016644
O O4 0.493358 0.000000 0.207498
O O5 0.148897 0.500000 0.563424
O O6 0.085906 0.803144 0.435883
O O7 0.075960 0.707781 0.738446
O O8 0.243116 0.778825 0.720023
O O9 0.256670 0.724146 0.370275
O O10 0.352691 0.000000 0.493623
O O11 0.085419 0.731145 0.134534
O O12 0.985595 0.000000 0.183842
O O13 0.306098 0.500000 0.880979
O O14 0.247370 0.746675 0.040726
O O15 0.811253 0.000000 0.811206
#
# Coordination Sequence:
#
# PCOD9148185 Si02
#       6
#     4   4   4   4   4   4
#     4   8  13  24  44  66  91 124 156 189 229 271
#     4  10  21  36  51  67  94 130 159 188 233 286
#     4   7  11  23  43  66  92 122 152 183 229 281
#     4  10  20  34  54  75  91 116 159 202 235 276
#     4  10  20  31  46  71  99 127 159 192 229 276
#     4   9  18  32  50  73  99 123 151 194 241 278
#
# _framework density 27.477067999999999
#
# number of rings (size 3 to 8) (size 9 to 14) (size 15 to 20)
#    0.000    3.000    0.000    4.500    0.000    4.667 
#    0.000   10.000    0.000    1.000    0.000    7.000 
#    0.000    0.000    0.000    0.000    0.000    0.000 
#
# Total GULP energy -134203.945754 kJ/mol
# GULP energy per Si atom -5591.831073 kJ/mol
# Density = 2.741453 g / cm^3
# Si number density = 27.477068 Si / 1000 Ang^3
#
#
#
# Elastic Constant Matrix: (Units=GPa)
#
#
# Indices 1 2 3 4 5 6 
#
# 1 133.4599 8.4890 19.9328 0.0000 48.1800 0.0000
# 2 8.4890 73.6425 3.0980 0.0000 6.7396 0.0000
# 3 19.9328 3.0980 204.2212 0.0000 34.4273 0.0000
# 4 0.0000 0.0000 0.0000 61.0224 0.0000 6.8017
# 5 48.1800 6.7396 34.4273 0.0000 65.5059 0.0000
# 6 0.0000 0.0000 0.0000 6.8017 0.0000 -4.0020
#
#
#
# Elastic Compliance Matrix: (Units=1/GPa)
#
#
# Indices 1 2 3 4 5 6 
#
# 1 0.010236 -0.000494 0.000295 0.000000 -0.007633 0.000000
# 2 -0.000494 0.013732 0.000018 0.000000 -0.001059 0.000000
# 3 0.000295 0.000018 0.005381 0.000000 -0.003047 0.000000
# 4 0.000000 0.000000 0.000000 0.013777 0.000000 0.023416
# 5 -0.007633 -0.001059 -0.003047 0.000000 0.022590 0.000000
# 6 0.000000 0.000000 0.000000 0.023416 0.000000 -0.210076
#
#
# Mechanical properties :
#
#
# Convention : Reuss Voigt Hill
#
# Bulk Modulus (GPa) = 34.49603 52.70700 43.60151
# Shear Modulus (GPa) = -37.22011 49.82552 6.30270
#
# Velocity S-wave (km/s) = -3.68447 4.26296 1.51617
# Velocity P-wave (km/s) = 2.34918 6.59199 4.35521
#
# Compressibility (1/GPa) = 0.02898884
#
# Stress axis : x y z
#
# Youngs Moduli (GPa) = 97.69740 72.82145 185.83042
#
# Poissons Ratio (x) = 0.03596 -0.05485
# Poissons Ratio (y) = 0.04824 -0.00343
# Poissons Ratio (z) = -0.02884 -0.00134
#
# Static dielectric constant tensor:
#      x y z
#    x 2.296810 0.000000 -0.057400 
#    y 0.000000 2.001060 0.000000 
#    z -0.057400 0.000000 2.303900 
# 
# From -- ./inp_files/52882.got.cif
#   From: 2010.05.17/outbox.cif.g08.bks.cpg/sg10_27_cif.got.tgz:52882.got - 2010.06.03 11:33:40.
