data_PCOD9148774
_publ_section_title
;
Structure prediction by ZEFSAII (Michael W. Deem and Ramdas Pophale) SiO2 
 PCOD9148774
Probable space group: P 2/M
;
_chemical_formula_sum "Si O2"
_cell_formula_units_Z 32
_cell_length_a 23.160520
_cell_length_b 9.120211
_cell_length_c 12.403941
_cell_angle_alpha 90.000000
_cell_angle_beta 134.111789
_cell_angle_gamma 90.000000
_cell_volume 1881.165918
_symmetry_space_group_name_H-M "P 2/M"
_symmetry_group_IT_number 10
_symmetry_cell_setting 'monoclinic'
loop_
_space_group_symop_operation_xyz
x,y,z
-x,y,-z
-x,-y,-z
x,-y,z
loop_
_atom_site_type_symbol
_atom_site_label
_atom_site_fract_x
_atom_site_fract_y
_atom_site_fract_z
Si Si1 0.668368 0.324620 0.118682
Si Si2 0.510976 0.331243 0.181026
Si Si3 0.285184 0.175473 0.043356
Si Si4 0.180939 0.175919 0.309593
Si Si5 0.140435 0.824072 0.012179
Si Si6 0.560018 0.670915 0.671915
Si Si7 0.324237 0.174851 0.651968
Si Si8 0.021007 0.668164 0.155161
O O1 0.677702 0.500000 0.127732
O O2 0.700883 0.254310 0.270151
O O3 0.571890 0.294181 0.988027
O O4 0.706434 0.253469 0.061367
O O5 0.532891 0.500000 0.182716
O O6 0.486300 0.324569 0.274448
O O7 0.585888 0.228106 0.256928
O O8 0.360749 0.232243 0.211646
O O9 0.289628 0.000000 0.036401
O O10 0.204017 0.213056 0.002091
O O11 0.263645 0.215238 0.476399
O O12 0.105552 0.248817 0.272175
O O13 0.172149 0.000000 0.302961
O O14 0.175851 0.217563 0.176485
O O15 0.054209 0.747945 0.887454
O O16 0.129616 0.000000 0.999018
O O17 0.500000 0.718782 0.500000
O O18 0.582477 0.500000 0.681855
O O19 0.322176 0.000000 0.663372
O O20 0.027867 0.500000 0.198722
O O21 0.000000 0.670135 0.000000
#
# Coordination Sequence:
#
# PCOD9148774 Si02
#       8
#     4   4   4   4   4   4   4   4
#     4  10  21  38  55  70  99 138 176 215 262 308
#     4   9  19  34  50  70  97 135 177 213 256 304
#     4  10  20  33  53  78 101 131 175 216 251 299
#     4   9  19  34  50  74 108 139 163 198 256 311
#     4   9  18  33  53  76 106 139 166 199 251 311
#     4   9  19  34  49  69 103 143 174 206 255 306
#     4  11  22  33  52  78 103 131 172 219 257 301
#     4   9  17  30  50  77 104 132 169 207 243 294
#
# _framework density 17.010728
#
# number of rings (size 3 to 8) (size 9 to 14) (size 15 to 20)
#    0.000    2.500    0.000    2.625    1.750    7.750 
#    0.000    0.000    0.000    0.750    0.000    5.250 
#    0.000    0.000    0.000    0.000    0.000    0.000 
#
# Total GULP energy -178491.721995 kJ/mol
# GULP energy per Si atom -5577.866312 kJ/mol
# Density = 1.697201 g / cm^3
# Si number density = 17.010728 Si / 1000 Ang^3
#
#
#
# Elastic Constant Matrix: (Units=GPa)
#
#
# Indices 1 2 3 4 5 6 
#
# 1 96.8719 45.3722 20.9312 0.0000 18.9869 0.0000
# 2 45.3722 48.7826 21.5944 0.0000 10.7281 0.0000
# 3 20.9312 21.5944 41.0738 0.0000 1.4989 0.0000
# 4 0.0000 0.0000 0.0000 41.1686 0.0000 48.5697
# 5 18.9869 10.7281 1.4989 0.0000 11.5376 0.0000
# 6 0.0000 0.0000 0.0000 48.5697 0.0000 157.2014
#
#
#
# Elastic Compliance Matrix: (Units=1/GPa)
#
#
# Indices 1 2 3 4 5 6 
#
# 1 0.022079 -0.014241 -0.002935 0.000000 -0.022710 0.000000
# 2 -0.014241 0.043878 -0.015250 0.000000 -0.015382 0.000000
# 3 -0.002935 -0.015250 0.033324 0.000000 0.014681 0.000000
# 4 0.000000 0.000000 0.000000 0.038223 0.000000 -0.011810
# 5 -0.022710 -0.015382 0.014681 0.000000 0.136442 0.000000
# 6 0.000000 0.000000 0.000000 -0.011810 0.000000 0.010010
#
#
# Mechanical properties :
#
#
# Convention : Reuss Voigt Hill
#
# Bulk Modulus (GPa) = 29.04635 40.28044 34.66340
# Shear Modulus (GPa) = 13.87789 48.57023 31.22406
#
# Velocity S-wave (km/s) = 2.85938 5.34927 4.28898
# Velocity P-wave (km/s) = 5.29280 7.86662 6.70438
#
# Compressibility (1/GPa) = 0.03442773
#
# Stress axis : x y z
#
# Youngs Moduli (GPa) = 45.29275 22.79024 30.00835
#
# Poissons Ratio (x) = 0.32457 0.08808
# Poissons Ratio (y) = 0.64504 0.45763
# Poissons Ratio (z) = 0.13294 0.34755
#
# Static dielectric constant tensor:
#      x y z
#    x 1.564350 0.000000 -0.012800 
#    y 0.000000 1.570250 0.000000 
#    z -0.012800 0.000000 1.566690 
# 
# From -- ./inp_files/55351.got.cif
#   From: 2010.05.17/outbox.cif.g08.bks.cpg/sg10_28_cif.got.tgz:55351.got - 2010.06.03 11:33:40.
