data_PCOD9148483
_publ_section_title
;
Structure prediction by ZEFSAII (Michael W. Deem and Ramdas Pophale) SiO2 
 PCOD9148483
Probable space group: P 2/M
;
_chemical_formula_sum "Si O2"
_cell_formula_units_Z 32
_cell_length_a 13.380662
_cell_length_b 7.732687
_cell_length_c 16.477588
_cell_angle_alpha 90.000000
_cell_angle_beta 107.957779
_cell_angle_gamma 90.000000
_cell_volume 1621.854352
_symmetry_space_group_name_H-M "P 2/M"
_symmetry_group_IT_number 10
_symmetry_cell_setting 'monoclinic'
loop_
_space_group_symop_operation_xyz
x,y,z
-x,y,-z
-x,-y,-z
x,-y,z
loop_
_atom_site_type_symbol
_atom_site_label
_atom_site_fract_x
_atom_site_fract_y
_atom_site_fract_z
Si Si1 0.135881 0.705214 0.766789
Si Si2 0.094747 0.700256 0.577788
Si Si3 0.193546 0.798682 0.451006
Si Si4 0.907720 0.792056 0.736831
Si Si5 0.583354 0.211648 0.905195
Si Si6 0.584187 0.202578 0.581935
Si Si7 0.305914 0.212417 0.231240
Si Si8 0.642187 0.205948 0.099284
O O1 0.142849 0.500000 0.762652
O O2 0.121785 0.778746 0.671584
O O3 0.244448 0.761288 0.834357
O O4 0.027688 0.747935 0.786725
O O5 0.067322 0.500000 0.585246
O O6 0.188327 0.709050 0.536268
O O7 0.000000 0.777836 0.500000
O O8 0.116845 0.726933 0.361181
O O9 0.306708 0.792042 0.438757
O O10 0.168696 0.000000 0.458176
O O11 0.812281 0.733746 0.771390
O O12 0.899497 0.000000 0.731000
O O13 0.651209 0.269188 0.845078
O O14 0.460565 0.266990 0.876217
O O15 0.585429 0.000000 0.903314
O O16 0.630838 0.268882 0.003612
O O17 0.500000 0.282986 0.500000
O O18 0.613242 0.271259 0.678093
O O19 0.553725 0.000000 0.586834
O O20 0.305081 0.000000 0.232566
O O21 0.629834 0.000000 0.091580
#
# Coordination Sequence:
#
# PCOD9148483 Si02
#       8
#     4   4   4   4   4   4   4   4
#     4  11  22  34  49  70  99 133 168 202 247 299
#     4  10  20  33  46  63  91 130 166 194 233 287
#     4   9  17  28  45  69  93 121 160 202 239 275
#     4   9  17  30  48  71  98 127 163 204 240 283
#     4   8  15  31  54  77 101 128 160 198 247 301
#     4   8  14  24  39  66 102 129 151 188 238 285
#     4   8  14  26  47  72  97 129 164 197 238 290
#     4   9  18  33  54  79 102 125 158 204 250 292
#
# _framework density 19.730502999999999
#
# number of rings (size 3 to 8) (size 9 to 14) (size 15 to 20)
#    0.000    3.000    1.250    2.625    0.000    2.250 
#    0.000    4.375    0.000    5.625    0.000    0.000 
#    0.000    0.000    0.000    0.000    0.000    0.000 
#
# Total GULP energy -178199.107891 kJ/mol
# GULP energy per Si atom -5568.722122 kJ/mol
# Density = 1.968560 g / cm^3
# Si number density = 19.730503 Si / 1000 Ang^3
#
#
#
# Elastic Constant Matrix: (Units=GPa)
#
#
# Indices 1 2 3 4 5 6 
#
# 1 124.6753 9.2663 99.3993 0.0000 -4.1219 0.0000
# 2 9.2663 26.5314 7.2609 0.0000 -1.3180 0.0000
# 3 99.3993 7.2609 127.9782 0.0000 0.7123 0.0000
# 4 0.0000 0.0000 0.0000 5.7817 0.0000 1.7724
# 5 -4.1219 -1.3180 0.7123 0.0000 38.3788 0.0000
# 6 0.0000 0.0000 0.0000 1.7724 0.0000 -33.1457
#
#
#
# Elastic Compliance Matrix: (Units=1/GPa)
#
#
# Indices 1 2 3 4 5 6 
#
# 1 0.021531 -0.002859 -0.016575 0.000000 0.002522 0.000000
# 2 -0.002859 0.038736 0.000017 0.000000 0.001023 0.000000
# 3 -0.016575 0.000017 0.020699 0.000000 -0.002164 0.000000
# 4 0.000000 0.000000 0.000000 0.170170 0.000000 0.009099
# 5 0.002522 0.001023 -0.002164 0.000000 0.026402 0.000000
# 6 0.000000 0.000000 0.000000 0.009099 0.000000 -0.029683
#
#
# Mechanical properties :
#
#
# Convention : Reuss Voigt Hill
#
# Bulk Modulus (GPa) = 23.73483 56.78199 40.25841
# Shear Modulus (GPa) = 16.62608 13.08685 14.85647
#
# Velocity S-wave (km/s) = 2.90601 2.57822 2.74701
# Velocity P-wave (km/s) = 4.82861 6.14037 5.52357
#
# Compressibility (1/GPa) = 0.04213218
#
# Stress axis : x y z
#
# Youngs Moduli (GPa) = 46.44378 25.81591 48.31247
#
# Poissons Ratio (x) = 0.07380 0.80078
# Poissons Ratio (y) = 0.13276 -0.00081
# Poissons Ratio (z) = 0.76981 -0.00044
#
# Static dielectric constant tensor:
#      x y z
#    x 1.736840 0.000000 0.000760 
#    y 0.000000 1.731470 0.000000 
#    z 0.000760 0.000000 1.716580 
# 
# From -- ./inp_files/66593.got.cif
#   From: 2010.05.17/outbox.cif.g08.bks.cpg/sg10_34_cif.got.tgz:66593.got - 2010.06.03 11:33:40.
