data_PCOD9148128
_publ_section_title
;
Structure prediction by ZEFSAII (Michael W. Deem and Ramdas Pophale) SiO2 
 PCOD9148128
Probable space group: P 2/M
;
_chemical_formula_sum "Si O2"
_cell_formula_units_Z 24
_cell_length_a 16.213418
_cell_length_b 16.245509
_cell_length_c 5.273353
_cell_angle_alpha 90.000000
_cell_angle_beta 107.436888
_cell_angle_gamma 90.000000
_cell_volume 1325.149239
_symmetry_space_group_name_H-M "P 2/M"
_symmetry_group_IT_number 10
_symmetry_cell_setting 'monoclinic'
loop_
_space_group_symop_operation_xyz
x,y,z
-x,y,-z
-x,-y,-z
x,-y,z
loop_
_atom_site_type_symbol
_atom_site_label
_atom_site_fract_x
_atom_site_fract_y
_atom_site_fract_z
Si Si1 0.649810 0.911553 0.535745
Si Si2 0.414351 0.849876 0.022857
Si Si3 0.444098 0.401885 0.203917
Si Si4 0.793802 0.769975 0.620734
Si Si5 0.723629 0.705909 0.053904
Si Si6 0.940863 0.906358 0.694979
O O1 0.604797 0.911697 0.222369
O O2 0.717315 0.837398 0.579792
O O3 0.691473 0.000000 0.625201
O O4 0.585177 0.892644 0.705925
O O5 0.337205 0.785827 0.974172
O O6 0.500000 0.805476 0.000000
O O7 0.500000 0.370405 0.500000
O O8 0.433787 0.500000 0.228937
O O9 0.500000 0.388821 0.000000
O O10 0.348744 0.362676 0.079755
O O11 0.773331 0.708102 0.368796
O O12 0.875183 0.829654 0.646333
O O13 0.789200 0.720571 0.881311
O O14 0.000000 0.899043 0.500000
O O15 0.098373 0.000000 0.349952
O O16 0.000000 0.903467 0.000000
#
# Coordination Sequence:
#
# PCOD9148128 Si02
#       6
#     4   4   4   4   4   4
#     4  10  20  31  43  59  83 119 158 199 241 277
#     4  10  20  30  42  60  83 118 160 200 238 274
#     4  10  20  34  54  79 107 138 172 213 257 302
#     4  10  20  34  50  71  99 129 164 203 249 308
#     4  10  20  33  50  71  99 132 165 203 249 303
#     4  10  20  34  54  78 104 134 168 212 263 313
#
# _framework density 18.111169
#
# number of rings (size 3 to 8) (size 9 to 14) (size 15 to 20)
#    0.000    2.000    0.000    4.000    0.000    4.667 
#    0.000    5.000    0.000    0.000    0.000    0.000 
#    0.000   13.333    0.000    0.000    0.000    0.000 
#
# Total GULP energy -133621.377524 kJ/mol
# GULP energy per Si atom -5567.557397 kJ/mol
# Density = 1.806995 g / cm^3
# Si number density = 18.111169 Si / 1000 Ang^3
#
#
#
# Elastic Constant Matrix: (Units=GPa)
#
#
# Indices 1 2 3 4 5 6 
#
# 1 85.4947 17.2817 48.9140 0.0000 -19.8350 0.0000
# 2 17.2817 52.6996 26.2903 0.0000 -7.7403 0.0000
# 3 48.9140 26.2903 123.3418 0.0000 -29.8476 0.0000
# 4 0.0000 0.0000 0.0000 47.0289 0.0000 11.4144
# 5 -19.8350 -7.7403 -29.8476 0.0000 25.6442 0.0000
# 6 0.0000 0.0000 0.0000 11.4144 0.0000 23.2359
#
#
#
# Elastic Compliance Matrix: (Units=1/GPa)
#
#
# Indices 1 2 3 4 5 6 
#
# 1 0.016184 -0.002155 -0.004297 0.000000 0.006865 0.000000
# 2 -0.002155 0.021567 -0.003578 0.000000 0.000678 0.000000
# 3 -0.004297 -0.003578 0.013237 0.000000 0.011003 0.000000
# 4 0.000000 0.000000 0.000000 0.024142 0.000000 -0.011860
# 5 0.006865 0.000678 0.011003 0.000000 0.057317 0.000000
# 6 0.000000 0.000000 0.000000 -0.011860 0.000000 0.048863
#
#
# Mechanical properties :
#
#
# Convention : Reuss Voigt Hill
#
# Bulk Modulus (GPa) = 32.33475 49.61201 40.97338
# Shear Modulus (GPa) = 23.62070 30.45179 27.03625
#
# Velocity S-wave (km/s) = 3.61530 4.10491 3.86786
# Velocity P-wave (km/s) = 5.94301 7.06538 6.52836
#
# Compressibility (1/GPa) = 0.03092648
#
# Stress axis : x y z
#
# Youngs Moduli (GPa) = 61.79078 46.36755 75.54543
#
# Poissons Ratio (x) = 0.09992 0.32464
# Poissons Ratio (y) = 0.13315 0.27032
# Poissons Ratio (z) = 0.26553 0.16592
#
# Static dielectric constant tensor:
#      x y z
#    x 1.622490 0.000000 0.009710 
#    y 0.000000 1.624080 0.000000 
#    z 0.009710 0.000000 1.680160 
# 
# From -- ./inp_files/9551.got.cif
#   From: 2010.05.17/outbox.cif.g08.bks.cpg/sg10_5_cif.got.tgz:9551.got - 2010.06.03 11:33:40.
