data_PCOD9148762
_publ_section_title
;
Structure prediction by ZEFSAII (Michael W. Deem and Ramdas Pophale) SiO2 
 PCOD9148762
Probable space group: P 2/M
;
_chemical_formula_sum "Si O2"
_cell_formula_units_Z 32
_cell_length_a 13.161381
_cell_length_b 7.492290
_cell_length_c 20.472377
_cell_angle_alpha 90.000000
_cell_angle_beta 138.324708
_cell_angle_gamma 90.000000
_cell_volume 1342.289137
_symmetry_space_group_name_H-M "P 2/M"
_symmetry_group_IT_number 10
_symmetry_cell_setting 'monoclinic'
loop_
_space_group_symop_operation_xyz
x,y,z
-x,y,-z
-x,-y,-z
x,-y,z
loop_
_atom_site_type_symbol
_atom_site_label
_atom_site_fract_x
_atom_site_fract_y
_atom_site_fract_z
Si Si1 0.822818 0.283792 0.416503
Si Si2 0.994070 0.786448 0.845184
Si Si3 0.835583 0.714351 0.629234
Si Si4 0.274398 0.788684 0.193429
Si Si5 0.307694 0.784172 0.060405
Si Si6 0.411026 0.284103 0.584362
Si Si7 0.869306 0.282827 0.298805
Si Si8 0.582327 0.711241 0.100573
O O1 0.825647 0.500000 0.425078
O O2 0.704517 0.221475 0.413616
O O3 0.783158 0.233498 0.323833
O O4 0.000000 0.226741 0.500000
O O5 0.912048 0.754100 0.735814
O O6 0.875387 0.716402 0.842537
O O7 0.002049 0.000000 0.854385
O O8 0.164502 0.721890 0.946296
O O9 0.828489 0.500000 0.623663
O O10 0.669635 0.775390 0.522576
O O11 0.960680 0.776616 0.635525
O O12 0.297328 0.719852 0.130689
O O13 0.420007 0.767247 0.311432
O O14 0.250851 0.000000 0.174673
O O15 0.467844 0.729436 0.105808
O O16 0.304876 0.000000 0.059835
O O17 0.412671 0.500000 0.584203
O O18 0.879184 0.500000 0.305407
O O19 0.753007 0.218264 0.188737
O O20 0.603440 0.500000 0.099855
O O21 0.500000 0.794750 0.000000
#
# Coordination Sequence:
#
# PCOD9148762 Si02
#       8
#     4   4   4   4   4   4   4   4
#     4   9  14  25  47  75 103 135 174 209 247 302
#     4  10  22  40  60  79 102 141 189 233 281 336
#     4  10  20  35  56  83 114 147 183 225 270 321
#     4  10  22  40  60  80 106 142 185 234 285 332
#     4  10  21  39  61  82 106 140 187 237 280 325
#     4  10  20  34  56  86 116 145 182 225 269 323
#     4   9  16  28  48  75 108 143 177 212 256 315
#     4  10  20  33  52  82 116 146 176 215 267 327
#
# _framework density 23.839872
#
# number of rings (size 3 to 8) (size 9 to 14) (size 15 to 20)
#    0.000    2.250    1.250    1.875    0.000    6.250 
#    0.000    3.125    0.000    3.375    0.000    0.000 
#    0.000    0.000    0.000    0.000    0.000    0.000 
#
# Total GULP energy -178478.985063 kJ/mol
# GULP energy per Si atom -5577.468283 kJ/mol
# Density = 2.378561 g / cm^3
# Si number density = 23.839872 Si / 1000 Ang^3
#
#
#
# Elastic Constant Matrix: (Units=GPa)
#
#
# Indices 1 2 3 4 5 6 
#
# 1 32.3765 -16.9399 -1.9268 0.0000 5.2419 0.0000
# 2 -16.9399 63.8443 -10.8776 0.0000 -0.4723 0.0000
# 3 -1.9268 -10.8776 105.7993 0.0000 4.1800 0.0000
# 4 0.0000 0.0000 0.0000 18.2480 0.0000 0.5593
# 5 5.2419 -0.4723 4.1800 0.0000 34.2912 0.0000
# 6 0.0000 0.0000 0.0000 0.5593 0.0000 16.4701
#
#
#
# Elastic Compliance Matrix: (Units=1/GPa)
#
#
# Indices 1 2 3 4 5 6 
#
# 1 0.037266 0.010178 0.001954 0.000000 -0.005795 0.000000
# 2 0.010178 0.018722 0.002172 0.000000 -0.001563 0.000000
# 3 0.001954 0.002172 0.009768 0.000000 -0.001460 0.000000
# 4 0.000000 0.000000 0.000000 0.054858 0.000000 -0.001863
# 5 -0.005795 -0.001563 -0.001460 0.000000 0.030204 0.000000
# 6 0.000000 0.000000 0.000000 -0.001863 0.000000 0.060779
#
#
# Mechanical properties :
#
#
# Convention : Reuss Voigt Hill
#
# Bulk Modulus (GPa) = 10.59713 15.83683 13.21698
# Shear Modulus (GPa) = 23.31600 29.25282 26.28441
#
# Velocity S-wave (km/s) = 3.13073 3.50673 3.32405
# Velocity P-wave (km/s) = 4.18610 4.80142 4.50428
#
# Compressibility (1/GPa) = 0.09436514
#
# Stress axis : x y z
#
# Youngs Moduli (GPa) = 26.83385 53.41261 102.37075
#
# Poissons Ratio (x) = -0.54364 -0.20004
# Poissons Ratio (y) = -0.27312 -0.22235
# Poissons Ratio (z) = -0.05244 -0.11601
#
# Static dielectric constant tensor:
#      x y z
#    x 1.885570 0.000000 -0.062090 
#    y 0.000000 1.916220 0.000000 
#    z -0.062090 0.000000 2.025700 
# 
# From -- ./inp_files/76552.got.cif
#   From: 2010.05.17/outbox.cif.g08.bks.cpg/sg10_39_cif.got.tgz:76552.got - 2010.06.03 11:33:40.
