data_PCOD9148966
_publ_section_title
;
Structure prediction by ZEFSAII (Michael W. Deem and Ramdas Pophale) SiO2 
 PCOD9148966
Probable space group: P 2/M
;
_chemical_formula_sum "Si O2"
_cell_formula_units_Z 22
_cell_length_a 11.296824
_cell_length_b 14.443214
_cell_length_c 11.768959
_cell_angle_alpha 90.000000
_cell_angle_beta 140.723386
_cell_angle_gamma 90.000000
_cell_volume 1215.644360
_symmetry_space_group_name_H-M "P 2/M"
_symmetry_group_IT_number 10
_symmetry_cell_setting 'monoclinic'
loop_
_space_group_symop_operation_xyz
x,y,z
-x,y,-z
-x,-y,-z
x,-y,z
loop_
_atom_site_type_symbol
_atom_site_label
_atom_site_fract_x
_atom_site_fract_y
_atom_site_fract_z
Si Si1 0.696220 0.265991 0.192867
Si Si2 0.802249 0.894766 0.421530
Si Si3 0.249231 0.608040 0.560296
Si Si4 0.000000 0.278569 0.000000
Si Si5 0.033738 0.763887 0.276485
Si Si6 0.616787 0.391206 0.697709
O O1 0.672954 0.173257 0.251706
O O2 0.780374 0.341901 0.341329
O O3 0.837460 0.243018 0.196538
O O4 0.500000 0.298666 0.000000
O O5 0.846711 0.843899 0.572946
O O6 0.000000 0.895428 0.500000
O O7 0.737253 0.000000 0.384319
O O8 0.200072 0.500000 0.523560
O O9 0.135213 0.666616 0.382201
O O10 0.468320 0.616827 0.689940
O O11 0.010805 0.223487 0.126057
O O12 0.190292 0.338875 0.138132
O O13 0.500000 0.358253 0.500000
O O14 0.657195 0.500000 0.709305
#
# Coordination Sequence:
#
# PCOD9148966 Si02
#       6
#     4   4   4   2   4   4
#     4  10  20  34  52  81 109 134 179 225 267 327
#     4   8  16  34  57  77 102 134 170 221 273 318
#     4  10  20  36  54  74 107 144 181 227 270 310
#     4  12  21  34  55  78 108 148 180 224 270 312
#     4  10  21  34  53  80 105 141 184 217 268 323
#     4  10  20  34  51  75 105 143 189 226 258 308
#
# _framework density 18.097397999999998
#
# number of rings (size 3 to 8) (size 9 to 14) (size 15 to 20)
#    0.000    2.182    1.818    3.000    0.000    2.909 
#    0.000    0.455    0.000    0.000    0.000   11.455 
#    0.000    0.000    0.000    0.000    0.000    0.000 
#
# Total GULP energy -122695.120533 kJ/mol
# GULP energy per Si atom -5577.050933 kJ/mol
# Density = 1.805621 g / cm^3
# Si number density = 18.097398 Si / 1000 Ang^3
#
#
#
# Elastic Constant Matrix: (Units=GPa)
#
#
# Indices 1 2 3 4 5 6 
#
# 1 68.6648 18.4882 32.5860 0.0000 -23.0918 0.0000
# 2 18.4882 97.3453 22.1245 0.0000 -15.2926 0.0000
# 3 32.5860 22.1245 83.6948 0.0000 -16.5102 0.0000
# 4 0.0000 0.0000 0.0000 6.6025 0.0000 2.6828
# 5 -23.0918 -15.2926 -16.5102 0.0000 39.3769 0.0000
# 6 0.0000 0.0000 0.0000 2.6828 0.0000 13.0895
#
#
#
# Elastic Compliance Matrix: (Units=1/GPa)
#
#
# Indices 1 2 3 4 5 6 
#
# 1 0.020822 -0.001141 -0.005979 0.000000 0.009261 0.000000
# 2 -0.001141 0.011402 -0.001993 0.000000 0.002923 0.000000
# 3 -0.005979 -0.001993 0.015217 0.000000 0.002100 0.000000
# 4 0.000000 0.000000 0.000000 0.165217 0.000000 -0.033863
# 5 0.009261 0.002923 0.002100 0.000000 0.032842 0.000000
# 6 0.000000 0.000000 0.000000 -0.033863 0.000000 0.083338
#
#
# Mechanical properties :
#
#
# Convention : Reuss Voigt Hill
#
# Bulk Modulus (GPa) = 34.22803 44.01136 39.11969
# Shear Modulus (GPa) = 14.01336 23.58085 18.79711
#
# Velocity S-wave (km/s) = 2.78570 3.61362 3.22633
# Velocity P-wave (km/s) = 5.41305 6.46397 5.96171
#
# Compressibility (1/GPa) = 0.02921582
#
# Stress axis : x y z
#
# Youngs Moduli (GPa) = 48.02517 87.70679 65.71569
#
# Poissons Ratio (x) = 0.10007 0.39288
# Poissons Ratio (y) = 0.05480 0.13098
# Poissons Ratio (z) = 0.28712 0.17481
#
# Static dielectric constant tensor:
#      x y z
#    x 1.661340 0.000000 -0.013010 
#    y 0.000000 1.605960 0.000000 
#    z -0.013010 0.000000 1.610700 
# 
# From -- ./inp_files/47491.got.cif
#   From: 2010.05.17/outbox.cif.g08.bks.cpg/sg10_24_cif.got.tgz:47491.got - 2010.06.03 11:33:40.
