data_PCOD9148477
_publ_section_title
;
Structure prediction by ZEFSAII (Michael W. Deem and Ramdas Pophale) SiO2 
 PCOD9148477
Probable space group: P 2/M
;
_chemical_formula_sum "Si O2"
_cell_formula_units_Z 30
_cell_length_a 15.164131
_cell_length_b 8.044653
_cell_length_c 13.066050
_cell_angle_alpha 90.000000
_cell_angle_beta 74.353288
_cell_angle_gamma 90.000000
_cell_volume 1534.863437
_symmetry_space_group_name_H-M "P 2/M"
_symmetry_group_IT_number 10
_symmetry_cell_setting 'monoclinic'
loop_
_space_group_symop_operation_xyz
x,y,z
-x,y,-z
-x,-y,-z
x,-y,z
loop_
_atom_site_type_symbol
_atom_site_label
_atom_site_fract_x
_atom_site_fract_y
_atom_site_fract_z
Si Si1 0.506860 0.701397 0.117258
Si Si2 0.817295 0.303644 0.894013
Si Si3 0.202041 0.196860 0.694639
Si Si4 0.688357 0.804068 0.750454
Si Si5 0.707115 0.299875 0.123780
Si Si6 0.195198 0.308531 0.475060
Si Si7 0.005697 0.804961 0.276530
Si Si8 0.000000 0.250057 0.500000
O O1 0.503051 0.500000 0.122633
O O2 0.418925 0.769880 0.203491
O O3 0.604074 0.757930 0.131909
O O4 0.500000 0.749581 0.000000
O O5 0.834006 0.500000 0.898513
O O6 0.741174 0.275158 0.830337
O O7 0.910902 0.222704 0.825961
O O8 0.775906 0.238500 0.013483
O O9 0.257334 0.253902 0.775854
O O10 0.230092 0.280657 0.578904
O O11 0.093192 0.231850 0.740668
O O12 0.212601 0.000000 0.679547
O O13 0.730716 0.729341 0.633992
O O14 0.706552 0.000000 0.745902
O O15 0.705400 0.500000 0.115541
O O16 0.162748 0.500000 0.474925
O O17 0.105406 0.193135 0.486858
O O18 0.016593 0.695299 0.376114
O O19 0.007171 0.000000 0.309279
#
# Coordination Sequence:
#
# PCOD9148477 Si02
#       8
#     4   4   4   4   4   4   4   2
#     4  10  20  40  65  89 119 154 196 247 299 354
#     4  11  22  37  59  88 121 157 200 248 296 349
#     4  10  23  41  60  85 122 162 200 244 296 353
#     4  12  24  37  58  92 127 155 192 244 304 359
#     4  10  22  41  64  87 116 157 201 246 295 351
#     4  11  22  38  61  88 120 157 202 245 292 351
#     4  10  21  36  55  84 122 162 199 241 297 354
#     4  10  20  32  58  88 118 154 198 248 292 348
#
# _framework density 19.545715000000001
#
# number of rings (size 3 to 8) (size 9 to 14) (size 15 to 20)
#    0.000    1.467    2.667    2.800    0.000    6.133 
#    0.000    3.333    0.000    4.000    0.000    0.000 
#    0.000    0.000    0.000    0.000    0.000    0.000 
#
# Total GULP energy -167335.001771 kJ/mol
# GULP energy per Si atom -5577.833392 kJ/mol
# Density = 1.950123 g / cm^3
# Si number density = 19.545715 Si / 1000 Ang^3
#
#
#
# Elastic Constant Matrix: (Units=GPa)
#
#
# Indices 1 2 3 4 5 6 
#
# 1 103.2689 7.6581 73.7734 0.0000 11.0461 0.0000
# 2 7.6581 47.4794 12.1563 0.0000 -5.1049 0.0000
# 3 73.7734 12.1563 151.3655 0.0000 -2.1256 0.0000
# 4 0.0000 0.0000 0.0000 10.3348 0.0000 -6.5446
# 5 11.0461 -5.1049 -2.1256 0.0000 37.6315 0.0000
# 6 0.0000 0.0000 0.0000 -6.5446 0.0000 18.7785
#
#
#
# Elastic Compliance Matrix: (Units=1/GPa)
#
#
# Indices 1 2 3 4 5 6 
#
# 1 0.015825 -0.001145 -0.007695 0.000000 -0.005235 0.000000
# 2 -0.001145 0.021890 -0.001154 0.000000 0.003241 0.000000
# 3 -0.007695 -0.001154 0.010487 0.000000 0.002694 0.000000
# 4 0.000000 0.000000 0.000000 0.124164 0.000000 0.043273
# 5 -0.005235 0.003241 0.002694 0.000000 0.028702 0.000000
# 6 0.000000 0.000000 0.000000 0.043273 0.000000 0.068334
#
#
# Mechanical properties :
#
#
# Convention : Reuss Voigt Hill
#
# Bulk Modulus (GPa) = 35.44268 54.36552 44.90410
# Shear Modulus (GPa) = 16.73384 27.25070 21.99227
#
# Velocity S-wave (km/s) = 2.92916 3.73795 3.35800
# Velocity P-wave (km/s) = 5.44174 6.81943 6.16917
#
# Compressibility (1/GPa) = 0.02821457
#
# Stress axis : x y z
#
# Youngs Moduli (GPa) = 63.19039 45.68204 95.35372
#
# Poissons Ratio (x) = 0.05232 0.73370
# Poissons Ratio (y) = 0.07237 0.11007
# Poissons Ratio (z) = 0.48622 0.05273
#
# Static dielectric constant tensor:
#      x y z
#    x 1.658290 0.000000 -0.003350 
#    y 0.000000 1.766370 0.000000 
#    z -0.003350 0.000000 1.667810 
# 
# From -- ./inp_files/49760.got.cif
#   From: 2010.05.17/outbox.cif.g08.bks.cpg/sg10_25_cif.got.tgz:49760.got - 2010.06.03 11:33:40.
