data_PCOD9148543
_publ_section_title
;
Structure prediction by ZEFSAII (Michael W. Deem and Ramdas Pophale) SiO2 
 PCOD9148543
Probable space group: P 2/M
;
_chemical_formula_sum "Si O2"
_cell_formula_units_Z 32
_cell_length_a 12.044648
_cell_length_b 7.919987
_cell_length_c 18.167414
_cell_angle_alpha 90.000000
_cell_angle_beta 62.896453
_cell_angle_gamma 90.000000
_cell_volume 1542.736561
_symmetry_space_group_name_H-M "P 2/M"
_symmetry_group_IT_number 10
_symmetry_cell_setting 'monoclinic'
loop_
_space_group_symop_operation_xyz
x,y,z
-x,y,-z
-x,-y,-z
x,-y,z
loop_
_atom_site_type_symbol
_atom_site_label
_atom_site_fract_x
_atom_site_fract_y
_atom_site_fract_z
Si Si1 0.297377 0.295077 0.745249
Si Si2 0.640635 0.800238 0.108820
Si Si3 0.471449 0.293383 0.425125
Si Si4 0.034271 0.301424 0.765796
Si Si5 0.032526 0.705930 0.373832
Si Si6 0.591641 0.310159 0.901457
Si Si7 0.201165 0.294315 0.452297
Si Si8 0.190587 0.807168 0.074941
O O1 0.295625 0.500000 0.745588
O O2 0.312466 0.238372 0.824448
O O3 0.416169 0.240293 0.661726
O O4 0.168331 0.231762 0.748954
O O5 0.500994 0.732592 0.136764
O O6 0.633317 0.000000 0.098093
O O7 0.736749 0.732200 0.017645
O O8 0.500000 0.240552 0.500000
O O9 0.469038 0.500000 0.426015
O O10 0.337137 0.235348 0.435915
O O11 0.054136 0.500000 0.746471
O O12 0.979593 0.231328 0.705770
O O13 0.933616 0.281712 0.860469
O O14 0.039711 0.500000 0.370608
O O15 0.149197 0.762642 0.388493
O O16 0.906073 0.749832 0.456244
O O17 0.639459 0.500000 0.878297
O O18 0.709102 0.199529 0.888663
O O19 0.500000 0.301667 0.000000
O O20 0.205544 0.500000 0.449578
O O21 0.158131 0.000000 0.068169
#
# Coordination Sequence:
#
# PCOD9148543 Si02
#       8
#     4   4   4   4   4   4   4   4
#     4  10  21  34  50  75 104 136 178 226 271 313
#     4  10  21  37  55  75 104 139 174 215 261 314
#     4   9  16  27  45  70 101 135 170 213 267 322
#     4  10  20  33  49  72 103 137 176 225 273 311
#     4   8  14  25  42  68 101 131 164 212 265 313
#     4   9  17  32  56  82 105 130 164 209 260 310
#     4   8  13  23  42  68  98 132 166 203 256 318
#     4  10  21  36  54  76 102 137 178 215 260 318
#
# _framework density 20.742362
#
# number of rings (size 3 to 8) (size 9 to 14) (size 15 to 20)
#    0.000    2.750    0.000    2.625    0.000    8.000 
#    0.000    5.000    0.000    0.375    0.000    2.625 
#    0.000    0.000    0.000    0.000    0.000    0.000 
#
# Total GULP energy -178505.467316 kJ/mol
# GULP energy per Si atom -5578.295854 kJ/mol
# Density = 2.069515 g / cm^3
# Si number density = 20.742362 Si / 1000 Ang^3
#
#
#
# Elastic Constant Matrix: (Units=GPa)
#
#
# Indices 1 2 3 4 5 6 
#
# 1 171.5403 -2.2129 82.3558 0.0000 2.7392 0.0000
# 2 -2.2129 16.7423 -6.9325 0.0000 -0.2877 0.0000
# 3 82.3558 -6.9325 99.1954 0.0000 10.0881 0.0000
# 4 0.0000 0.0000 0.0000 -12.0371 0.0000 4.6079
# 5 2.7392 -0.2877 10.0881 0.0000 30.0058 0.0000
# 6 0.0000 0.0000 0.0000 4.6079 0.0000 1.4238
#
#
#
# Elastic Compliance Matrix: (Units=1/GPa)
#
#
# Indices 1 2 3 4 5 6 
#
# 1 0.009875 -0.002202 -0.008551 0.000000 0.001952 0.000000
# 2 -0.002202 0.062023 0.006297 0.000000 -0.001322 0.000000
# 3 -0.008551 0.006297 0.018156 0.000000 -0.005263 0.000000
# 4 0.000000 0.000000 0.000000 -0.037106 0.000000 0.120087
# 5 0.001952 -0.001322 -0.005263 0.000000 0.034906 0.000000
# 6 0.000000 0.000000 0.000000 0.120087 0.000000 0.313699
#
#
# Mechanical properties :
#
#
# Convention : Reuss Voigt Hill
#
# Bulk Modulus (GPa) = 12.32410 48.21098 30.26754
# Shear Modulus (GPa) = 11.42824 18.16300 14.79562
#
# Velocity S-wave (km/s) = 2.34980 2.96234 2.67367
# Velocity P-wave (km/s) = 3.64918 5.91556 4.91479
#
# Compressibility (1/GPa) = 0.08114184
#
# Stress axis : x y z
#
# Youngs Moduli (GPa) = 101.26101 16.12313 55.07751
#
# Poissons Ratio (x) = 0.03550 0.47099
# Poissons Ratio (y) = 0.22299 -0.34684
# Poissons Ratio (z) = 0.86593 -0.10153
#
# Static dielectric constant tensor:
#      x y z
#    x 1.731460 0.000000 0.007760 
#    y 0.000000 1.743400 0.000000 
#    z 0.007760 0.000000 1.725960 
# 
# From -- ./inp_files/76176.got.cif
#   From: 2010.05.17/outbox.cif.g08.bks.cpg/sg10_39_cif.got.tgz:76176.got - 2010.06.03 11:33:40.
