data_PCOD9148837
_publ_section_title
;
Structure prediction by ZEFSAII (Michael W. Deem and Ramdas Pophale) SiO2 
 PCOD9148837
Probable space group: P 2/M
;
_chemical_formula_sum "Si O2"
_cell_formula_units_Z 28
_cell_length_a 8.955692
_cell_length_b 10.781567
_cell_length_c 16.885288
_cell_angle_alpha 90.000000
_cell_angle_beta 56.691236
_cell_angle_gamma 90.000000
_cell_volume 1362.548770
_symmetry_space_group_name_H-M "P 2/M"
_symmetry_group_IT_number 10
_symmetry_cell_setting 'monoclinic'
loop_
_space_group_symop_operation_xyz
x,y,z
-x,y,-z
-x,-y,-z
x,-y,z
loop_
_atom_site_type_symbol
_atom_site_label
_atom_site_fract_x
_atom_site_fract_y
_atom_site_fract_z
Si Si1 0.937525 0.219493 0.835735
Si Si2 0.451636 0.742290 0.336471
Si Si3 0.332664 0.856736 0.207830
Si Si4 0.796433 0.363165 0.153080
Si Si5 0.741891 0.138710 0.049623
Si Si6 0.294495 0.635775 0.528712
Si Si7 0.742517 0.865253 0.354018
O O1 0.803576 0.226955 0.801441
O O2 0.033047 0.343077 0.840084
O O3 0.106127 0.139634 0.757234
O O4 0.829811 0.157824 0.938939
O O5 0.363906 0.810375 0.287826
O O6 0.613678 0.656951 0.256017
O O7 0.313973 0.667153 0.430561
O O8 0.555093 0.837333 0.364835
O O9 0.527252 0.853064 0.110009
O O10 0.270342 0.000000 0.224611
O O11 0.796874 0.500000 0.117046
O O12 0.801920 0.249832 0.089562
O O13 0.784781 0.000000 0.067866
O O14 0.500000 0.629520 0.500000
O O15 0.213542 0.500000 0.566680
O O16 0.215926 0.751883 0.599137
O O17 0.739430 0.000000 0.393450
#
# Coordination Sequence:
#
# PCOD9148837 Si02
#       7
#     4   4   4   4   4   4   4
#     4  11  22  35  55  81 116 151 183 225 278 332
#     4   9  19  35  59  82 109 144 184 228 276 329
#     4  10  20  35  56  84 115 148 186 229 277 330
#     4  10  22  39  59  84 113 146 187 233 280 329
#     4  10  21  37  59  84 110 146 191 233 275 327
#     4   9  18  34  57  81 105 139 182 226 274 327
#     4  10  20  33  54  84 111 139 180 229 277 324
#
# _framework density 20.549721999999999
#
# number of rings (size 3 to 8) (size 9 to 14) (size 15 to 20)
#    0.000    2.143    0.000    3.000    0.000   14.000 
#    0.000    4.286    0.000    6.857    0.000    0.000 
#    0.000    0.000    0.000    0.000    0.000    0.000 
#
# Total GULP energy -156284.287044 kJ/mol
# GULP energy per Si atom -5581.581680 kJ/mol
# Density = 2.050295 g / cm^3
# Si number density = 20.549722 Si / 1000 Ang^3
#
#
#
# Elastic Constant Matrix: (Units=GPa)
#
#
# Indices 1 2 3 4 5 6 
#
# 1 70.7186 26.1399 10.0241 0.0000 15.7836 0.0000
# 2 26.1399 154.8558 53.0601 0.0000 9.8887 0.0000
# 3 10.0241 53.0601 91.9344 0.0000 18.9370 0.0000
# 4 0.0000 0.0000 0.0000 -27.0691 0.0000 11.8920
# 5 15.7836 9.8887 18.9370 0.0000 14.4488 0.0000
# 6 0.0000 0.0000 0.0000 11.8920 0.0000 9.8979
#
#
#
# Elastic Compliance Matrix: (Units=1/GPa)
#
#
# Indices 1 2 3 4 5 6 
#
# 1 0.020839 -0.003644 0.005488 0.000000 -0.027463 0.000000
# 2 -0.003644 0.008693 -0.005773 0.000000 0.005598 0.000000
# 3 0.005488 -0.005773 0.019221 0.000000 -0.027236 0.000000
# 4 0.000000 0.000000 0.000000 -0.024180 0.000000 0.029051
# 5 -0.027463 0.005598 -0.027236 0.000000 0.131075 0.000000
# 6 0.000000 0.000000 0.000000 0.029051 0.000000 0.066128
#
#
# Mechanical properties :
#
#
# Convention : Reuss Voigt Hill
#
# Bulk Modulus (GPa) = 24.45301 55.10634 39.77968
# Shear Modulus (GPa) = 20.55360 14.67450 17.61405
#
# Velocity S-wave (km/s) = 3.16601 2.67516 2.93088
# Velocity P-wave (km/s) = 5.02892 6.03459 5.55456
#
# Compressibility (1/GPa) = 0.04089475
#
# Stress axis : x y z
#
# Youngs Moduli (GPa) = 47.98656 115.02901 52.02650
#
# Poissons Ratio (x) = 0.41921 -0.28553
# Poissons Ratio (y) = 0.17488 0.30036
# Poissons Ratio (z) = -0.26336 0.66408
#
# Static dielectric constant tensor:
#      x y z
#    x 1.734420 0.000000 -0.000910 
#    y 0.000000 1.758170 0.000000 
#    z -0.000910 0.000000 1.757810 
# 
# From -- ./inp_files/61118.got.cif
#   From: 2010.05.17/outbox.cif.g08.bks.cpg/sg10_31_cif.got.tgz:61118.got - 2010.06.03 11:33:40.
