data_PCOD9148946
_publ_section_title
;
Structure prediction by ZEFSAII (Michael W. Deem and Ramdas Pophale) SiO2 
 PCOD9148946
Probable space group: P 2/M
;
_chemical_formula_sum "Si O2"
_cell_formula_units_Z 28
_cell_length_a 9.623561
_cell_length_b 7.743681
_cell_length_c 26.069118
_cell_angle_alpha 90.000000
_cell_angle_beta 41.086421
_cell_angle_gamma 90.000000
_cell_volume 1276.747234
_symmetry_space_group_name_H-M "P 2/M"
_symmetry_group_IT_number 10
_symmetry_cell_setting 'monoclinic'
loop_
_space_group_symop_operation_xyz
x,y,z
-x,y,-z
-x,-y,-z
x,-y,z
loop_
_atom_site_type_symbol
_atom_site_label
_atom_site_fract_x
_atom_site_fract_y
_atom_site_fract_z
Si Si1 0.576845 0.202816 0.752690
Si Si2 0.081433 0.708409 0.421290
Si Si3 0.284636 0.203067 0.082916
Si Si4 0.647290 0.711464 0.505021
Si Si5 0.682254 0.703331 0.324851
Si Si6 0.876912 0.210207 0.760862
Si Si7 0.150065 0.702908 0.828898
O O1 0.700702 0.233978 0.664738
O O2 0.727246 0.271267 0.756332
O O3 0.338995 0.273632 0.816392
O O4 0.557373 0.000000 0.766088
O O5 0.092674 0.500000 0.420311
O O6 0.000000 0.765110 0.500000
O O7 0.889832 0.764643 0.437256
O O8 0.216234 0.270288 0.158086
O O9 0.084029 0.221633 0.100833
O O10 0.321183 0.000000 0.081080
O O11 0.500000 0.278408 0.000000
O O12 0.500000 0.770594 0.500000
O O13 0.646395 0.500000 0.505017
O O14 0.528504 0.769891 0.589809
O O15 0.645129 0.500000 0.326381
O O16 0.756414 0.780472 0.250366
O O17 0.882023 0.723953 0.307262
O O18 0.885949 0.000000 0.757578
O O19 0.115597 0.500000 0.831541
#
# Coordination Sequence:
#
# PCOD9148946 Si02
#       7
#     4   4   4   4   4   4   4
#     4  11  22  35  51  74 107 142 176 214 258 312
#     4  10  20  34  51  70  97 135 178 223 265 304
#     4   9  18  36  61  84 106 134 169 210 258 312
#     4   9  16  26  43  67  92 120 159 207 255 299
#     4   9  17  31  51  73  96 128 172 216 258 306
#     4   9  19  34  52  77 106 136 171 212 259 311
#     4  10  20  34  54  78 104 136 174 213 254 306
#
# _framework density 21.930731999999999
#
# number of rings (size 3 to 8) (size 9 to 14) (size 15 to 20)
#    0.000    2.429    0.000    2.571    0.000    5.714 
#    0.000    1.429    0.000    6.857    0.000    0.000 
#    0.000    0.000    0.000    0.000    0.000    0.000 
#
# Total GULP energy -156269.739746 kJ/mol
# GULP energy per Si atom -5581.062134 kJ/mol
# Density = 2.188082 g / cm^3
# Si number density = 21.930732 Si / 1000 Ang^3
#
#
#
# Elastic Constant Matrix: (Units=GPa)
#
#
# Indices 1 2 3 4 5 6 
#
# 1 85.2103 -16.3701 18.7171 0.0000 -21.6397 0.0000
# 2 -16.3701 28.2473 -4.6518 0.0000 5.5785 0.0000
# 3 18.7171 -4.6518 99.6312 0.0000 -32.4851 0.0000
# 4 0.0000 0.0000 0.0000 13.8468 0.0000 -6.2142
# 5 -21.6397 5.5785 -32.4851 0.0000 31.9187 0.0000
# 6 0.0000 0.0000 0.0000 -6.2142 0.0000 18.7303
#
#
#
# Elastic Compliance Matrix: (Units=1/GPa)
#
#
# Indices 1 2 3 4 5 6 
#
# 1 0.015478 0.007119 0.000659 0.000000 0.009920 0.000000
# 2 0.007119 0.039963 -0.000262 0.000000 -0.002425 0.000000
# 3 0.000659 -0.000262 0.015059 0.000000 0.015818 0.000000
# 4 0.000000 0.000000 0.000000 0.084853 0.000000 0.028152
# 5 0.009920 -0.002425 0.015818 0.000000 0.054578 0.000000
# 6 0.000000 0.000000 0.000000 0.028152 0.000000 0.062730
#
#
# Mechanical properties :
#
#
# Convention : Reuss Voigt Hill
#
# Bulk Modulus (GPa) = 11.69149 23.16434 17.42792
# Shear Modulus (GPa) = 17.47408 27.25874 22.36641
#
# Velocity S-wave (km/s) = 2.82580 3.52937 3.19700
# Velocity P-wave (km/s) = 3.99869 5.21479 4.64670
#
# Compressibility (1/GPa) = 0.08553226
#
# Stress axis : x y z
#
# Youngs Moduli (GPa) = 64.60842 25.02303 66.40720
#
# Poissons Ratio (x) = -0.17815 -0.04377
# Poissons Ratio (y) = -0.45997 0.01741
# Poissons Ratio (z) = -0.04258 0.00656
#
# Static dielectric constant tensor:
#      x y z
#    x 1.865470 0.000000 0.016530 
#    y 0.000000 1.807590 0.000000 
#    z 0.016530 0.000000 1.798950 
# 
# From -- ./inp_files/37945.got.cif
#   From: 2010.05.17/outbox.cif.g08.bks.cpg/sg10_19_cif.got.tgz:37945.got - 2010.06.03 11:33:40.
