data_PCOD9148518
_publ_section_title
;
Structure prediction by ZEFSAII (Michael W. Deem and Ramdas Pophale) SiO2 
 PCOD9148518
Probable space group: P 2/M
;
_chemical_formula_sum "Si O2"
_cell_formula_units_Z 32
_cell_length_a 13.276929
_cell_length_b 18.099217
_cell_length_c 25.482612
_cell_angle_alpha 90.000000
_cell_angle_beta 161.165218
_cell_angle_gamma 90.000000
_cell_volume 1976.920095
_symmetry_space_group_name_H-M "P 2/M"
_symmetry_group_IT_number 10
_symmetry_cell_setting 'monoclinic'
loop_
_space_group_symop_operation_xyz
x,y,z
-x,y,-z
-x,-y,-z
x,-y,z
loop_
_atom_site_type_symbol
_atom_site_label
_atom_site_fract_x
_atom_site_fract_y
_atom_site_fract_z
Si Si1 0.179798 0.911610 0.035309
Si Si2 0.137432 0.082323 0.808549
Si Si3 0.781672 0.824399 0.347941
Si Si4 0.299290 0.198414 0.454279
Si Si5 0.803037 0.295579 0.504909
Si Si6 0.637138 0.694945 0.808814
Si Si7 0.778096 0.583651 0.339285
Si Si8 0.248489 0.915729 0.273400
O O1 0.525247 0.879142 0.198695
O O2 0.203646 0.000000 0.048504
O O3 0.000000 0.888369 0.000000
O O4 0.963535 0.891482 0.879620
O O5 0.008515 0.151681 0.712625
O O6 0.953280 0.082398 0.772839
O O7 0.080009 0.000000 0.756186
O O8 0.500000 0.088634 0.000000
O O9 0.568794 0.762059 0.270530
O O10 0.000000 0.860746 0.500000
O O11 0.009212 0.777162 0.423125
O O12 0.500000 0.207439 0.500000
O O13 0.262705 0.274562 0.467573
O O14 0.484593 0.142705 0.583920
O O15 0.496538 0.309772 0.317033
O O16 0.036990 0.363996 0.610091
O O17 0.527402 0.624169 0.788855
O O18 0.000000 0.706851 0.000000
O O19 0.726146 0.500000 0.295554
O O20 0.000000 0.581858 0.500000
O O21 0.359357 0.000000 0.318369
#
# Coordination Sequence:
#
# PCOD9148518 Si02
#       8
#     4   4   4   4   4   4   4   4
#     4  10  21  33  45  65  93 127 165 200 239 289
#     4   9  18  33  51  69  88 115 160 214 259 292
#     4   9  19  31  45  64  92 128 162 196 235 286
#     4  10  20  33  49  68  93 124 160 207 247 291
#     4   9  19  32  48  74  97 127 162 189 242 291
#     4   9  17  29  48  76 101 127 157 192 233 280
#     4   8  15  31  51  73 104 132 156 187 227 282
#     4   9  19  33  47  65  88 122 162 201 250 293
#
# _framework density 16.186795
#
# number of rings (size 3 to 8) (size 9 to 14) (size 15 to 20)
#    0.000    2.875    0.000    2.250    7.000    2.000 
#    0.000    0.625    0.000    0.375    0.000    0.000 
#    0.000    1.500    0.000    0.000    0.000    0.000 
#
# Total GULP energy -178139.136808 kJ/mol
# GULP energy per Si atom -5566.848025 kJ/mol
# Density = 1.614995 g / cm^3
# Si number density = 16.186795 Si / 1000 Ang^3
#
#
#
# Elastic Constant Matrix: (Units=GPa)
#
#
# Indices 1 2 3 4 5 6 
#
# 1 46.2694 37.5232 30.7771 0.0000 -9.0171 0.0000
# 2 37.5232 61.8740 27.9673 0.0000 -6.6708 0.0000
# 3 30.7771 27.9673 82.2028 0.0000 -2.1205 0.0000
# 4 0.0000 0.0000 0.0000 10.0372 0.0000 -7.2873
# 5 -9.0171 -6.6708 -2.1205 0.0000 19.4766 0.0000
# 6 0.0000 0.0000 0.0000 -7.2873 0.0000 9.1459
#
#
#
# Elastic Compliance Matrix: (Units=1/GPa)
#
#
# Indices 1 2 3 4 5 6 
#
# 1 0.051666 -0.025082 -0.010445 0.000000 0.014192 0.000000
# 2 -0.025082 0.031964 -0.001505 0.000000 -0.000828 0.000000
# 3 -0.010445 -0.001505 0.016496 0.000000 -0.003555 0.000000
# 4 0.000000 0.000000 0.000000 0.236361 0.000000 0.188328
# 5 0.014192 -0.000828 -0.003555 0.000000 0.057244 0.000000
# 6 0.000000 0.000000 0.000000 0.188328 0.000000 0.259393
#
#
# Mechanical properties :
#
#
# Convention : Reuss Voigt Hill
#
# Bulk Modulus (GPa) = 38.36925 42.54238 40.45581
# Shear Modulus (GPa) = 6.79462 14.00385 10.39924
#
# Velocity S-wave (km/s) = 2.05104 2.94452 2.53741
# Velocity P-wave (km/s) = 5.41890 6.15625 5.79931
#
# Compressibility (1/GPa) = 0.02606254
#
# Stress axis : x y z
#
# Youngs Moduli (GPa) = 19.35491 31.28544 60.62067
#
# Poissons Ratio (x) = 0.78469 0.63316
# Poissons Ratio (y) = 0.48546 0.09126
# Poissons Ratio (z) = 0.20216 0.04710
#
# Static dielectric constant tensor:
#      x y z
#    x 1.576080 0.000000 0.004000 
#    y 0.000000 1.561300 0.000000 
#    z 0.004000 0.000000 1.557370 
# 
# From -- ./inp_files/29913.got.cif
#   From: 2010.05.17/outbox.cif.g08.bks.cpg/sg10_15_cif.got.tgz:29913.got - 2010.06.03 11:33:40.
