data_PCOD9148788
_publ_section_title
;
Structure prediction by ZEFSAII (Michael W. Deem and Ramdas Pophale) SiO2 
 PCOD9148788
Probable space group: P 2/M
;
_chemical_formula_sum "Si O2"
_cell_formula_units_Z 28
_cell_length_a 21.377462
_cell_length_b 7.728341
_cell_length_c 14.549742
_cell_angle_alpha 90.000000
_cell_angle_beta 30.907969
_cell_angle_gamma 90.000000
_cell_volume 1234.735569
_symmetry_space_group_name_H-M "P 2/M"
_symmetry_group_IT_number 10
_symmetry_cell_setting 'monoclinic'
loop_
_space_group_symop_operation_xyz
x,y,z
-x,y,-z
-x,-y,-z
x,-y,z
loop_
_atom_site_type_symbol
_atom_site_label
_atom_site_fract_x
_atom_site_fract_y
_atom_site_fract_z
Si Si1 0.836560 0.299221 0.921750
Si Si2 0.272813 0.705644 0.120622
Si Si3 0.929784 0.710409 0.271578
Si Si4 0.719609 0.290824 0.681910
Si Si5 0.547748 0.200717 0.741439
Si Si6 0.632955 0.198296 0.309726
Si Si7 0.246014 0.300404 0.659166
O O1 0.871224 0.500000 0.864945
O O2 0.708897 0.291126 0.135513
O O3 0.815769 0.222129 0.846792
O O4 0.939866 0.224534 0.858544
O O5 0.249086 0.500000 0.156197
O O6 0.264256 0.774613 0.234968
O O7 0.411430 0.730523 0.913114
O O8 0.933104 0.500000 0.257790
O O9 0.834959 0.751257 0.472586
O O10 0.869143 0.771064 0.252836
O O11 0.707771 0.500000 0.699263
O O12 0.603134 0.221810 0.773726
O O13 0.641191 0.294227 0.554853
O O14 0.547632 0.000000 0.715448
O O15 0.500000 0.272792 0.500000
O O16 0.712004 0.205008 0.302763
O O17 0.615179 0.000000 0.302169
O O18 0.222067 0.500000 0.715427
#
# Coordination Sequence:
#
# PCOD9148788 Si02
#       7
#     4   4   4   4   4   4   4
#     4  10  21  37  57  81 109 142 181 223 268 321
#     4  10  20  33  53  80 109 145 186 226 268 316
#     4   8  17  35  57  82 109 138 177 224 270 315
#     4   9  18  34  55  79 109 144 183 226 269 316
#     4  11  21  33  52  80 113 145 180 224 273 324
#     4  11  24  40  57  81 112 143 176 218 269 322
#     4  10  20  37  61  83 107 141 179 222 270 320
#
# _framework density 22.676921
#
# number of rings (size 3 to 8) (size 9 to 14) (size 15 to 20)
#    0.000    2.143    0.000    4.286    0.000    7.429 
#    0.000    9.286    0.000    0.000    0.000    6.000 
#    0.000    0.000    0.000    0.000    0.000    0.000 
#
# Total GULP energy -156440.360438 kJ/mol
# GULP energy per Si atom -5587.155730 kJ/mol
# Density = 2.262531 g / cm^3
# Si number density = 22.676921 Si / 1000 Ang^3
#
#
#
# Elastic Constant Matrix: (Units=GPa)
#
#
# Indices 1 2 3 4 5 6 
#
# 1 151.6669 -0.9805 27.0684 0.0000 -1.8177 0.0000
# 2 -0.9805 41.2905 -9.4023 0.0000 2.6933 0.0000
# 3 27.0684 -9.4023 30.3547 0.0000 -8.5312 0.0000
# 4 0.0000 0.0000 0.0000 -171.3982 0.0000 -62.6749
# 5 -1.8177 2.6933 -8.5312 0.0000 21.5573 0.0000
# 6 0.0000 0.0000 0.0000 -62.6749 0.0000 127.7892
#
#
#
# Elastic Compliance Matrix: (Units=1/GPa)
#
#
# Indices 1 2 3 4 5 6 
#
# 1 0.008041 -0.001548 -0.008332 0.000000 -0.002426 0.000000
# 2 -0.001548 0.026355 0.009656 0.000000 0.000398 0.000000
# 3 -0.008332 0.009656 0.048188 0.000000 0.017161 0.000000
# 4 0.000000 0.000000 0.000000 -0.004947 0.000000 -0.002426
# 5 -0.002426 0.000398 0.017161 0.000000 0.052925 0.000000
# 6 0.000000 0.000000 0.000000 -0.002426 0.000000 0.006635
#
#
# Mechanical properties :
#
#
# Convention : Reuss Voigt Hill
#
# Bulk Modulus (GPa) = 12.17513 28.52037 20.34775
# Shear Modulus (GPa) = 30.29849 9.36478 19.83163
#
# Velocity S-wave (km/s) = 3.65923 2.03436 2.96045
# Velocity P-wave (km/s) = 4.82015 4.25703 4.54731
#
# Compressibility (1/GPa) = 0.08213467
#
# Stress axis : x y z
#
# Youngs Moduli (GPa) = 124.35686 37.94404 20.75209
#
# Poissons Ratio (x) = 0.05874 0.17291
# Poissons Ratio (y) = 0.19252 -0.20037
# Poissons Ratio (z) = 1.03616 -0.36637
#
# Static dielectric constant tensor:
#      x y z
#    x 1.886320 0.000000 -0.003200 
#    y 0.000000 1.812810 0.000000 
#    z -0.003200 0.000000 1.816140 
# 
# From -- ./inp_files/50105.got.cif
#   From: 2010.05.17/outbox.cif.g08.bks.cpg/sg10_26_cif.got.tgz:50105.got - 2010.06.03 11:33:40.
