data_PCOD9148438
_publ_section_title
;
Structure prediction by ZEFSAII (Michael W. Deem and Ramdas Pophale) SiO2 
 PCOD9148438
Probable space group: P 2/M
;
_chemical_formula_sum "Si O2"
_cell_formula_units_Z 28
_cell_length_a 11.372952
_cell_length_b 13.421248
_cell_length_c 12.144139
_cell_angle_alpha 90.000000
_cell_angle_beta 49.187749
_cell_angle_gamma 90.000000
_cell_volume 1402.961351
_symmetry_space_group_name_H-M "P 2/M"
_symmetry_group_IT_number 10
_symmetry_cell_setting 'monoclinic'
loop_
_space_group_symop_operation_xyz
x,y,z
-x,y,-z
-x,-y,-z
x,-y,z
loop_
_atom_site_type_symbol
_atom_site_label
_atom_site_fract_x
_atom_site_fract_y
_atom_site_fract_z
Si Si1 0.104842 0.678589 0.536542
Si Si2 0.372867 0.620481 0.229901
Si Si3 0.049290 0.613305 0.812571
Si Si4 0.517927 0.882231 0.365081
Si Si5 0.156953 0.812571 0.836269
Si Si6 0.286514 0.620691 0.037250
Si Si7 0.161505 0.886978 0.581554
O O1 0.279094 0.664978 0.387406
O O2 0.071412 0.794368 0.583386
O O3 0.000000 0.641526 0.500000
O O4 0.083471 0.618507 0.661538
O O5 0.365425 0.500000 0.239131
O O6 0.297042 0.651589 0.159045
O O7 0.552466 0.650403 0.116461
O O8 0.066810 0.500000 0.840622
O O9 0.870606 0.650416 0.926332
O O10 0.150006 0.695205 0.811946
O O11 0.500000 0.838896 0.500000
O O12 0.673961 0.837581 0.216564
O O13 0.341204 0.876694 0.430772
O O14 0.551573 0.000000 0.354265
O O15 0.154632 0.868205 0.718119
O O16 0.000000 0.838423 0.000000
O O17 0.282941 0.500000 0.041361
O O18 0.110052 0.000000 0.589878
#
# Coordination Sequence:
#
# PCOD9148438 Si02
#       7
#     4   4   4   4   4   4   4
#     4  11  20  30  51  79 103 133 170 208 245 288
#     4   9  16  27  46  71  98 133 173 205 231 272
#     4  10  20  33  48  72 108 140 167 202 244 293
#     4   8  15  32  55  73  93 123 159 206 255 302
#     4  10  20  32  53  80  98 123 168 212 256 297
#     4   8  15  28  45  67  97 134 171 201 232 276
#     4   9  20  37  54  74 100 130 166 206 255 310
#
# _framework density 19.957784
#
# number of rings (size 3 to 8) (size 9 to 14) (size 15 to 20)
#    0.000    2.714    1.429    2.571    0.000    3.429 
#    0.000    0.000    0.000   11.571    0.000    2.000 
#    0.000    0.000    0.000    0.000    0.000    0.000 
#
# Total GULP energy -156056.449697 kJ/mol
# GULP energy per Si atom -5573.444632 kJ/mol
# Density = 1.991236 g / cm^3
# Si number density = 19.957784 Si / 1000 Ang^3
#
#
#
# Elastic Constant Matrix: (Units=GPa)
#
#
# Indices 1 2 3 4 5 6 
#
# 1 20.5315 14.9161 19.0269 0.0000 0.7059 0.0000
# 2 14.9161 84.3164 17.9670 0.0000 -4.7292 0.0000
# 3 19.0269 17.9670 121.7462 0.0000 -8.1289 0.0000
# 4 0.0000 0.0000 0.0000 17.8045 0.0000 -10.6977
# 5 0.7059 -4.7292 -8.1289 0.0000 24.5738 0.0000
# 6 0.0000 0.0000 0.0000 -10.6977 0.0000 15.6471
#
#
#
# Elastic Compliance Matrix: (Units=1/GPa)
#
#
# Indices 1 2 3 4 5 6 
#
# 1 0.064512 -0.009857 -0.009078 0.000000 -0.006753 0.000000
# 2 -0.009857 0.013829 -0.000311 0.000000 0.002842 0.000000
# 3 -0.009078 -0.000311 0.009911 0.000000 0.003479 0.000000
# 4 0.000000 0.000000 0.000000 0.095323 0.000000 0.065172
# 5 -0.006753 0.002842 0.003479 0.000000 0.042586 0.000000
# 6 0.000000 0.000000 0.000000 0.065172 0.000000 0.108467
#
#
# Mechanical properties :
#
#
# Convention : Reuss Voigt Hill
#
# Bulk Modulus (GPa) = 20.09639 36.71269 28.40454
# Shear Modulus (GPa) = 12.83018 23.25070 18.04044
#
# Velocity S-wave (km/s) = 2.53823 3.41690 3.00980
# Velocity P-wave (km/s) = 4.32221 5.83113 5.13242
#
# Compressibility (1/GPa) = 0.04976019
#
# Stress axis : x y z
#
# Youngs Moduli (GPa) = 15.50105 72.30965 100.90024
#
# Poissons Ratio (x) = 0.71274 0.91601
# Poissons Ratio (y) = 0.15279 0.03135
# Poissons Ratio (z) = 0.14072 0.02247
#
# Static dielectric constant tensor:
#      x y z
#    x 1.746110 0.000000 -0.010310 
#    y 0.000000 1.689430 0.000000 
#    z -0.010310 0.000000 1.748120 
# 
# From -- ./inp_files/67092.got.cif
#   From: 2010.05.17/outbox.cif.g08.bks.cpg/sg10_34_cif.got.tgz:67092.got - 2010.06.03 11:33:40.
