data_PCOD9148392
_publ_section_title
;
Structure prediction by ZEFSAII (Michael W. Deem and Ramdas Pophale) SiO2 
 PCOD9148392
Probable space group: P 2/M
;
_chemical_formula_sum "Si O2"
_cell_formula_units_Z 32
_cell_length_a 17.154063
_cell_length_b 14.179241
_cell_length_c 10.954538
_cell_angle_alpha 90.000000
_cell_angle_beta 145.905980
_cell_angle_gamma 90.000000
_cell_volume 1493.586558
_symmetry_space_group_name_H-M "P 2/M"
_symmetry_group_IT_number 10
_symmetry_cell_setting 'monoclinic'
loop_
_space_group_symop_operation_xyz
x,y,z
-x,y,-z
-x,-y,-z
x,-y,z
loop_
_atom_site_type_symbol
_atom_site_label
_atom_site_fract_x
_atom_site_fract_y
_atom_site_fract_z
Si Si1 0.447096 0.611662 0.299643
Si Si2 0.132493 0.334305 0.905995
Si Si3 0.401420 0.888313 0.489999
Si Si4 0.856499 0.799865 0.272810
Si Si5 0.150724 0.253261 0.182209
Si Si6 0.561372 0.113299 0.949193
Si Si7 0.695970 0.389912 0.449398
Si Si8 0.149018 0.604774 0.585538
O O1 0.500000 0.651164 0.500000
O O2 0.458963 0.500000 0.324820
O O3 0.549112 0.637304 0.320437
O O4 0.286284 0.632131 0.068606
O O5 0.127236 0.227246 0.847613
O O6 0.996684 0.387564 0.679235
O O7 0.136655 0.329612 0.056258
O O8 0.500000 0.874431 0.500000
O O9 0.267314 0.823034 0.304648
O O10 0.475632 0.862600 0.715020
O O11 0.367955 0.000000 0.451370
O O12 0.851180 0.695934 0.329410
O O13 0.000000 0.847186 0.500000
O O14 0.717826 0.852078 0.129788
O O15 0.197058 0.314071 0.358350
O O16 0.000000 0.208074 0.000000
O O17 0.561768 0.000000 0.956112
O O18 0.500000 0.148320 0.000000
O O19 0.724970 0.500000 0.521867
O O20 0.720533 0.387321 0.336887
O O21 0.154309 0.500000 0.649393
#
# Coordination Sequence:
#
# PCOD9148392 Si02
#       8
#     4   4   4   4   4   4   4   4
#     4  10  20  32  50  79 113 150 200 252 300 347
#     4  11  22  36  56  89 118 162 208 254 302 366
#     4  10  24  45  69  96 129 167 205 254 325 390
#     4  10  24  39  61  90 122 159 210 256 311 363
#     4  12  24  37  63  94 126 163 208 254 313 366
#     4  10  23  43  69  96 122 162 210 257 317 382
#     4  10  22  37  55  84 122 161 203 250 303 362
#     4  10  22  41  59  81 124 171 211 251 305 371
#
# _framework density 21.424938999999998
#
# number of rings (size 3 to 8) (size 9 to 14) (size 15 to 20)
#    0.000    1.625    2.500    1.125    5.250    4.000 
#    0.000    0.000    0.000    7.875    0.000    0.000 
#    0.000    0.000    0.000    0.000    0.000    0.000 
#
# Total GULP energy -178655.237647 kJ/mol
# GULP energy per Si atom -5582.976176 kJ/mol
# Density = 2.137618 g / cm^3
# Si number density = 21.424939 Si / 1000 Ang^3
#
#
#
# Elastic Constant Matrix: (Units=GPa)
#
#
# Indices 1 2 3 4 5 6 
#
# 1 91.2837 5.0327 20.5758 0.0000 13.7605 0.0000
# 2 5.0327 61.1967 20.1567 0.0000 6.4401 0.0000
# 3 20.5758 20.1567 68.7252 0.0000 15.1631 0.0000
# 4 0.0000 0.0000 0.0000 16.2728 0.0000 10.3929
# 5 13.7605 6.4401 15.1631 0.0000 40.6048 0.0000
# 6 0.0000 0.0000 0.0000 10.3929 0.0000 16.9625
#
#
#
# Elastic Compliance Matrix: (Units=1/GPa)
#
#
# Indices 1 2 3 4 5 6 
#
# 1 0.012077 0.000327 -0.003049 0.000000 -0.003006 0.000000
# 2 0.000327 0.018132 -0.005184 0.000000 -0.001051 0.000000
# 3 -0.003049 -0.005184 0.018063 0.000000 -0.004890 0.000000
# 4 0.000000 0.000000 0.000000 0.100958 0.000000 -0.061857
# 5 -0.003006 -0.001051 -0.004890 0.000000 0.027639 0.000000
# 6 0.000000 0.000000 0.000000 -0.061857 0.000000 0.096853
#
#
# Mechanical properties :
#
#
# Convention : Reuss Voigt Hill
#
# Bulk Modulus (GPa) = 30.80607 34.74844 32.77725
# Shear Modulus (GPa) = 16.64707 26.46404 21.55556
#
# Velocity S-wave (km/s) = 2.79049 3.51835 3.17534
# Velocity P-wave (km/s) = 4.97918 5.72354 5.36429
#
# Compressibility (1/GPa) = 0.03246114
#
# Stress axis : x y z
#
# Youngs Moduli (GPa) = 82.80097 55.15124 55.36259
#
# Poissons Ratio (x) = -0.01805 0.16877
# Poissons Ratio (y) = -0.02710 0.28701
# Poissons Ratio (z) = 0.25242 0.28591
#
# Static dielectric constant tensor:
#      x y z
#    x 1.838850 0.000000 -0.039180 
#    y 0.000000 1.748330 0.000000 
#    z -0.039180 0.000000 1.838290 
# 
# From -- ./inp_files/54042.got.cif
#   From: 2010.05.17/outbox.cif.g08.bks.cpg/sg10_28_cif.got.tgz:54042.got - 2010.06.03 11:33:40.
