data_PCOD9148469
_publ_section_title
;
Structure prediction by ZEFSAII (Michael W. Deem and Ramdas Pophale) SiO2 
 PCOD9148469
Probable space group: P 2/M
;
_chemical_formula_sum "Si O2"
_cell_formula_units_Z 18
_cell_length_a 13.471271
_cell_length_b 8.449501
_cell_length_c 12.087158
_cell_angle_alpha 90.000000
_cell_angle_beta 147.693467
_cell_angle_gamma 90.000000
_cell_volume 735.308995
_symmetry_space_group_name_H-M "P 2/M"
_symmetry_group_IT_number 10
_symmetry_cell_setting 'monoclinic'
loop_
_space_group_symop_operation_xyz
x,y,z
-x,y,-z
-x,-y,-z
x,-y,z
loop_
_atom_site_type_symbol
_atom_site_label
_atom_site_fract_x
_atom_site_fract_y
_atom_site_fract_z
Si Si1 0.393573 0.832547 0.659696
Si Si2 0.344739 0.500000 0.517501
Si Si3 0.500000 0.750810 0.000000
Si Si4 0.894959 0.322436 0.290633
Si Si5 0.774249 0.500000 0.845778
Si Si6 0.826798 0.173749 0.001887
O O1 0.304861 0.665155 0.542100
O O2 0.602293 0.831069 0.805828
O O3 0.306549 0.000000 0.541027
O O4 0.417884 0.835560 0.814794
O O5 0.567901 0.500000 0.706050
O O6 0.253398 0.500000 0.311250
O O7 0.677627 0.664746 0.116599
O O8 0.958453 0.500000 0.320646
O O9 0.000000 0.270716 0.500000
O O10 0.907130 0.203896 0.200204
O O11 0.864220 0.334932 0.970197
O O12 0.882341 0.000000 0.011297
#
# Coordination Sequence:
#
# PCOD9148469 Si02
#       6
#     4   2   2   4   2   4
#     4   9  18  30  46  73 104 137 180 219 262 323
#     4   9  18  27  46  71 100 140 178 224 273 315
#     4  10  20  32  56  77 111 152 175 217 274 319
#     4  10  20  33  52  81 112 143 182 221 263 324
#     4   9  16  30  45  69 103 136 179 226 271 319
#     4   9  17  30  49  71 101 140 177 219 269 319
#
# _framework density 24.479503000000001
#
# number of rings (size 3 to 8) (size 9 to 14) (size 15 to 20)
#    0.000    2.667    1.111    0.667    6.222    2.222 
#    0.000    4.444    0.000    0.000    0.000    3.111 
#    0.000    3.556    0.000    0.444    0.000    0.000 
#
# Total GULP energy -100531.286513 kJ/mol
# GULP energy per Si atom -5585.071473 kJ/mol
# Density = 2.442379 g / cm^3
# Si number density = 24.479503 Si / 1000 Ang^3
#
#
#
# Elastic Constant Matrix: (Units=GPa)
#
#
# Indices 1 2 3 4 5 6 
#
# 1 74.5857 49.2329 16.6824 0.0000 11.5751 0.0000
# 2 49.2329 275.2608 87.8636 0.0000 -36.5195 0.0000
# 3 16.6824 87.8636 88.6457 0.0000 -13.9774 0.0000
# 4 0.0000 0.0000 0.0000 -5.0014 0.0000 29.6597
# 5 11.5751 -36.5195 -13.9774 0.0000 44.2597 0.0000
# 6 0.0000 0.0000 0.0000 29.6597 0.0000 -2.8412
#
#
#
# Elastic Compliance Matrix: (Units=1/GPa)
#
#
# Indices 1 2 3 4 5 6 
#
# 1 0.017424 -0.003996 -0.000586 0.000000 -0.008039 0.000000
# 2 -0.003996 0.006600 -0.005016 0.000000 0.004907 0.000000
# 3 -0.000586 -0.005016 0.016559 0.000000 0.001244 0.000000
# 4 0.000000 0.000000 0.000000 0.003283 0.000000 0.034269
# 5 -0.008039 0.004907 0.001244 0.000000 0.029138 0.000000
# 6 0.000000 0.000000 0.000000 0.034269 0.000000 0.005779
#
#
# Mechanical properties :
#
#
# Convention : Reuss Voigt Hill
#
# Bulk Modulus (GPa) = 46.75750 82.89444 64.82597
# Shear Modulus (GPa) = 47.57147 26.26432 36.91789
#
# Velocity S-wave (km/s) = 4.41309 3.27908 3.88766
# Velocity P-wave (km/s) = 6.71635 6.94787 6.83309
#
# Compressibility (1/GPa) = 0.02138695
#
# Stress axis : x y z
#
# Youngs Moduli (GPa) = 57.39335 151.52405 60.39106
#
# Poissons Ratio (x) = 0.60547 0.03538
# Poissons Ratio (y) = 0.22934 0.30291
# Poissons Ratio (z) = 0.03363 0.76001
#
# Static dielectric constant tensor:
#      x y z
#    x 1.934410 0.000000 0.044710 
#    y 0.000000 1.956550 0.000000 
#    z 0.044710 0.000000 1.907660 
# 
# From -- ./inp_files/53163.got.cif
#   From: 2010.05.17/outbox.cif.g08.bks.cpg/sg10_27_cif.got.tgz:53163.got - 2010.06.03 11:33:40.
