data_PCOD9148703
_publ_section_title
;
Structure prediction by ZEFSAII (Michael W. Deem and Ramdas Pophale) SiO2 
 PCOD9148703
Probable space group: P 2/M
;
_chemical_formula_sum "Si O2"
_cell_formula_units_Z 32
_cell_length_a 16.749173
_cell_length_b 7.716250
_cell_length_c 24.033836
_cell_angle_alpha 90.000000
_cell_angle_beta 30.526093
_cell_angle_gamma 90.000000
_cell_volume 1577.710144
_symmetry_space_group_name_H-M "P 2/M"
_symmetry_group_IT_number 10
_symmetry_cell_setting 'monoclinic'
loop_
_space_group_symop_operation_xyz
x,y,z
-x,y,-z
-x,-y,-z
x,-y,z
loop_
_atom_site_type_symbol
_atom_site_label
_atom_site_fract_x
_atom_site_fract_y
_atom_site_fract_z
Si Si1 0.500961 0.790584 0.365869
Si Si2 0.511572 0.787806 0.752844
Si Si3 0.358847 0.301498 0.159244
Si Si4 0.835656 0.789764 0.829219
Si Si5 0.665378 0.197263 0.035575
Si Si6 0.822797 0.799487 0.385329
Si Si7 0.830123 0.209966 0.622764
Si Si8 0.335134 0.704962 0.625574
O O1 0.519477 0.732266 0.291385
O O2 0.333040 0.724857 0.491502
O O3 0.640547 0.739405 0.324028
O O4 0.495248 0.000000 0.369735
O O5 0.387432 0.724720 0.873778
O O6 0.686153 0.737982 0.668815
O O7 0.508127 0.000000 0.756148
O O8 0.410313 0.500000 0.129386
O O9 0.297346 0.254852 0.135528
O O10 0.503418 0.193845 0.097113
O O11 0.216714 0.274511 0.288078
O O12 0.005437 0.723660 0.707164
O O13 0.843201 0.000000 0.827746
O O14 0.789572 0.723230 0.918206
O O15 0.716052 0.000000 0.016458
O O16 0.794606 0.790432 0.335628
O O17 0.828386 0.000000 0.399681
O O18 0.000000 0.269036 0.500000
O O19 0.832280 0.000000 0.623344
O O20 0.500000 0.768800 0.500000
O O21 0.322588 0.500000 0.624306
#
# Coordination Sequence:
#
# PCOD9148703 Si02
#       8
#     4   4   4   4   4   4   4   4
#     4   9  16  28  49  73  97 121 153 194 234 290
#     4   8  15  28  48  73  93 119 158 199 241 282
#     4  11  22  33  47  70 100 132 167 205 247 294
#     4  10  20  33  52  73  95 125 165 212 249 289
#     4   9  18  35  53  69  93 127 170 211 246 285
#     4   9  18  30  48  74  98 120 153 197 247 291
#     4   9  18  32  52  71  96 132 167 203 244 289
#     4   9  17  30  47  68  98 129 154 183 231 291
#
# _framework density 20.282561000000001
#
# number of rings (size 3 to 8) (size 9 to 14) (size 15 to 20)
#    0.000    2.750    0.000    2.625    1.750    4.250 
#    0.000    2.500    0.000    0.750    0.000    5.250 
#    0.000    0.000    0.000    0.000    0.000    0.000 
#
# Total GULP energy -178383.299314 kJ/mol
# GULP energy per Si atom -5574.478104 kJ/mol
# Density = 2.023640 g / cm^3
# Si number density = 20.282561 Si / 1000 Ang^3
#
#
#
# Elastic Constant Matrix: (Units=GPa)
#
#
# Indices 1 2 3 4 5 6 
#
# 1 70.5994 -8.9095 7.5777 0.0000 29.6316 0.0000
# 2 -8.9095 41.4181 -3.5838 0.0000 -0.2390 0.0000
# 3 7.5777 -3.5838 46.4935 0.0000 19.9718 0.0000
# 4 0.0000 0.0000 0.0000 -6.5836 0.0000 -20.2320
# 5 29.6316 -0.2390 19.9718 0.0000 31.0448 0.0000
# 6 0.0000 0.0000 0.0000 -20.2320 0.0000 -81.8343
#
#
#
# Elastic Compliance Matrix: (Units=1/GPa)
#
#
# Indices 1 2 3 4 5 6 
#
# 1 0.027753 0.006658 0.010152 0.000000 -0.032969 0.000000
# 2 0.006658 0.025948 0.004918 0.000000 -0.009319 0.000000
# 3 0.010152 0.004918 0.033689 0.000000 -0.031325 0.000000
# 4 0.000000 0.000000 0.000000 -0.632280 0.000000 0.156319
# 5 -0.032969 -0.009319 -0.031325 0.000000 0.083760 0.000000
# 6 0.000000 0.000000 0.000000 0.156319 0.000000 -0.050867
#
#
# Mechanical properties :
#
#
# Convention : Reuss Voigt Hill
#
# Bulk Modulus (GPa) = 7.64253 16.51997 12.08125
# Shear Modulus (GPa) = -9.76871 -0.57951 -5.17411
#
# Velocity S-wave (km/s) = -2.19699 -0.53510 -1.59892
# Velocity P-wave (km/s) = 1.63079 2.78941 1.60021
#
# Compressibility (1/GPa) = 0.13084670
#
# Stress axis : x y z
#
# Youngs Moduli (GPa) = 36.03254 38.53854 29.68341
#
# Poissons Ratio (x) = -0.25659 -0.30136
# Poissons Ratio (y) = -0.23991 -0.14599
# Poissons Ratio (z) = -0.36581 -0.18954
#
# Static dielectric constant tensor:
#      x y z
#    x 1.716480 0.000000 0.015040 
#    y 0.000000 1.743130 0.000000 
#    z 0.015040 0.000000 1.747730 
# 
# From -- ./inp_files/89942.got.cif
#   From: 2010.05.17/outbox.cif.g08.bks.cpg/sg10_45_cif.got.tgz:89942.got - 2010.06.03 11:33:40.
