data_PCOD9148620
_publ_section_title
;
Structure prediction by ZEFSAII (Michael W. Deem and Ramdas Pophale) SiO2 
 PCOD9148620
Probable space group: P 2/M
;
_chemical_formula_sum "Si O2"
_cell_formula_units_Z 28
_cell_length_a 23.802177
_cell_length_b 11.419011
_cell_length_c 20.127908
_cell_angle_alpha 90.000000
_cell_angle_beta 15.508678
_cell_angle_gamma 90.000000
_cell_volume 1462.782490
_symmetry_space_group_name_H-M "P 2/M"
_symmetry_group_IT_number 10
_symmetry_cell_setting 'monoclinic'
loop_
_space_group_symop_operation_xyz
x,y,z
-x,y,-z
-x,-y,-z
x,-y,z
loop_
_atom_site_type_symbol
_atom_site_label
_atom_site_fract_x
_atom_site_fract_y
_atom_site_fract_z
Si Si1 0.395031 0.130876 0.898436
Si Si2 0.438275 0.307860 0.642469
Si Si3 0.533799 0.374408 0.677986
Si Si4 0.808963 0.136084 0.513418
Si Si5 0.045543 0.743476 0.778970
Si Si6 0.959939 0.865719 0.473790
Si Si7 0.798082 0.862898 0.270027
O O1 0.422167 0.252364 0.827115
O O2 0.581877 0.136848 0.738962
O O3 0.412027 0.000000 0.845518
O O4 0.179245 0.132172 0.184491
O O5 0.500000 0.356190 0.500000
O O6 0.507411 0.377983 0.628795
O O7 0.584081 0.192799 0.486716
O O8 0.188990 0.286720 0.931490
O O9 0.456126 0.500000 0.793688
O O10 0.779710 0.358562 0.416666
O O11 0.953962 0.204035 0.295662
O O12 0.808903 0.184078 0.588534
O O13 0.877329 0.000000 0.438318
O O14 0.149369 0.834888 0.713050
O O15 0.000000 0.810058 0.500000
O O16 0.886662 0.000000 0.570626
O O17 0.788065 0.000000 0.271403
O O18 0.000000 0.814137 0.000000
#
# Coordination Sequence:
#
# PCOD9148620 Si02
#       7
#     4   4   4   4   4   4   4
#     4   9  18  35  57  80 110 145 181 222 272 328
#     4  11  22  36  54  76 106 143 188 236 290 343
#     4  10  23  39  58  82 109 142 187 240 287 336
#     4   9  17  29  48  74 104 143 182 219 265 321
#     4  10  20  36  54  73 106 143 189 235 284 338
#     4   9  17  29  49  82 118 146 177 220 267 320
#     4  10  20  33  50  77 112 146 184 231 282 337
#
# _framework density 19.141601000000001
#
# number of rings (size 3 to 8) (size 9 to 14) (size 15 to 20)
#    0.000    2.286    1.429    1.286    0.000    6.286 
#    0.000    3.571    0.000    0.429    0.000    4.000 
#    0.000    0.000    0.000    0.000    0.000    0.000 
#
# Total GULP energy -155874.810079 kJ/mol
# GULP energy per Si atom -5566.957503 kJ/mol
# Density = 1.909803 g / cm^3
# Si number density = 19.141601 Si / 1000 Ang^3
#
#
#
# Elastic Constant Matrix: (Units=GPa)
#
#
# Indices 1 2 3 4 5 6 
#
# 1 127.0336 28.5258 -5.1671 0.0000 6.0004 0.0000
# 2 28.5258 99.5405 13.8099 0.0000 2.4535 0.0000
# 3 -5.1671 13.8099 25.4232 0.0000 -17.7634 0.0000
# 4 0.0000 0.0000 0.0000 -38.7433 0.0000 44.3526
# 5 6.0004 2.4535 -17.7634 0.0000 20.8231 0.0000
# 6 0.0000 0.0000 0.0000 44.3526 0.0000 -43.3602
#
#
#
# Elastic Compliance Matrix: (Units=1/GPa)
#
#
# Indices 1 2 3 4 5 6 
#
# 1 0.008705 -0.003254 0.005079 0.000000 0.002208 0.000000
# 2 -0.003254 0.014616 -0.022649 0.000000 -0.020105 0.000000
# 3 0.005079 -0.022649 0.132467 0.000000 0.114207 0.000000
# 4 0.000000 0.000000 0.000000 0.150954 0.000000 0.154409
# 5 0.002208 -0.020105 0.114207 0.000000 0.147182 0.000000
# 6 0.000000 0.000000 0.000000 0.154409 0.000000 0.134881
#
#
# Mechanical properties :
#
#
# Convention : Reuss Voigt Hill
#
# Bulk Modulus (GPa) = 8.76101 36.25938 22.51020
# Shear Modulus (GPa) = 7.47946 2.06585 4.77266
#
# Velocity S-wave (km/s) = 1.97887 1.03999 1.58075
# Velocity P-wave (km/s) = 3.13179 4.51951 3.88806
#
# Compressibility (1/GPa) = 0.11414203
#
# Stress axis : x y z
#
# Youngs Moduli (GPa) = 114.87805 68.41650 7.54907
#
# Poissons Ratio (x) = 0.22261 -0.03835
# Poissons Ratio (y) = 0.37378 0.17098
# Poissons Ratio (z) = -0.58352 1.54954
#
# Static dielectric constant tensor:
#      x y z
#    x 1.719510 0.000000 -0.009260 
#    y 0.000000 1.696390 0.000000 
#    z -0.009260 0.000000 1.707880 
# 
# From -- ./inp_files/79502.got.cif
#   From: 2010.05.17/outbox.cif.g08.bks.cpg/sg10_40_cif.got.tgz:79502.got - 2010.06.03 11:33:40.
