data_PCOD9148343
_publ_section_title
;
Structure prediction by ZEFSAII (Michael W. Deem and Ramdas Pophale) SiO2 
 PCOD9148343
Probable space group: P 2/M
;
_chemical_formula_sum "Si O2"
_cell_formula_units_Z 32
_cell_length_a 17.958417
_cell_length_b 7.742665
_cell_length_c 23.588627
_cell_angle_alpha 90.000000
_cell_angle_beta 29.280420
_cell_angle_gamma 90.000000
_cell_volume 1604.150091
_symmetry_space_group_name_H-M "P 2/M"
_symmetry_group_IT_number 10
_symmetry_cell_setting 'monoclinic'
loop_
_space_group_symop_operation_xyz
x,y,z
-x,y,-z
-x,-y,-z
x,-y,z
loop_
_atom_site_type_symbol
_atom_site_label
_atom_site_fract_x
_atom_site_fract_y
_atom_site_fract_z
Si Si1 0.057517 0.202783 0.698687
Si Si2 0.564392 0.210474 0.869079
Si Si3 0.346980 0.296442 0.435955
Si Si4 0.106703 0.209469 0.792715
Si Si5 0.201050 0.797086 0.944486
Si Si6 0.675858 0.296177 0.254411
Si Si7 0.531811 0.790370 0.764070
Si Si8 0.738655 0.788814 0.862822
O O1 0.197543 0.218701 0.562975
O O2 0.101269 0.272291 0.731641
O O3 0.901198 0.275172 0.776546
O O4 0.026867 0.000000 0.728253
O O5 0.582816 0.268314 0.792320
O O6 0.687989 0.267205 0.833503
O O7 0.567236 0.000000 0.866613
O O8 0.398538 0.259506 0.003739
O O9 0.339613 0.500000 0.451868
O O10 0.504851 0.227053 0.358462
O O11 0.364757 0.266200 0.357103
O O12 0.252270 0.263823 0.732412
O O13 0.107475 0.000000 0.792829
O O14 0.954079 0.273362 0.926197
O O15 0.216731 0.778271 0.866493
O O16 0.359274 0.727709 0.865422
O O17 0.200140 0.000000 0.958753
O O18 0.669776 0.500000 0.247976
O O19 0.529183 0.000000 0.765387
O O20 0.741346 0.000000 0.859826
#
# Coordination Sequence:
#
# PCOD9148343 Si02
#       8
#     4   4   4   4   4   4   4   4
#     4  10  20  34  52  73  97 127 164 201 237 283
#     4   8  13  24  48  81 109 128 150 188 239 288
#     4  10  22  38  51  65  92 130 168 206 245 281
#     4  10  20  32  49  74 100 125 155 196 246 294
#     4   9  17  30  49  74 103 128 152 191 242 291
#     4  10  21  35  50  69  94 126 164 203 241 284
#     4   9  16  29  52  77  98 126 164 198 232 281
#     4   8  14  26  47  78 110 130 149 189 241 286
#
# _framework density 19.948259
#
# number of rings (size 3 to 8) (size 9 to 14) (size 15 to 20)
#    0.000    2.750    0.000    2.625    0.000    7.500 
#    0.000    3.125    0.000    6.750    0.000    1.750 
#    0.000    0.000    0.000    0.000    0.000    0.000 
#
# Total GULP energy -178522.993374 kJ/mol
# GULP energy per Si atom -5578.843543 kJ/mol
# Density = 1.990286 g / cm^3
# Si number density = 19.948259 Si / 1000 Ang^3
#
#
#
# Elastic Constant Matrix: (Units=GPa)
#
#
# Indices 1 2 3 4 5 6 
#
# 1 158.5704 -15.0411 68.1923 0.0000 12.6298 0.0000
# 2 -15.0411 22.3551 -13.4048 0.0000 -3.5976 0.0000
# 3 68.1923 -13.4048 83.9222 0.0000 0.1717 0.0000
# 4 0.0000 0.0000 0.0000 -122.5952 0.0000 -56.9439
# 5 12.6298 -3.5976 0.1717 0.0000 10.4743 0.0000
# 6 0.0000 0.0000 0.0000 -56.9439 0.0000 -26.6438
#
#
#
# Elastic Compliance Matrix: (Units=1/GPa)
#
#
# Indices 1 2 3 4 5 6 
#
# 1 0.011330 -0.000065 -0.009189 0.000000 -0.013533 0.000000
# 2 -0.000065 0.052640 0.008424 0.000000 0.018020 0.000000
# 3 -0.009189 0.008424 0.020700 0.000000 0.013634 0.000000
# 4 0.000000 0.000000 0.000000 -1.119648 0.000000 2.392940
# 5 -0.013533 0.018020 0.013634 0.000000 0.117755 0.000000
# 6 0.000000 0.000000 0.000000 2.392940 0.000000 -5.151788
#
#
# Mechanical properties :
#
#
# Convention : Reuss Voigt Hill
#
# Bulk Modulus (GPa) = 12.04665 38.26003 25.15334
# Shear Modulus (GPa) = -0.82786 -12.74619 -6.78703
#
# Velocity S-wave (km/s) = -0.64491 -2.53051 -1.84654
# Velocity P-wave (km/s) = 2.34468 3.26853 2.84436
#
# Compressibility (1/GPa) = 0.08301060
#
# Stress axis : x y z
#
# Youngs Moduli (GPa) = 88.26425 18.99688 48.30944
#
# Poissons Ratio (x) = 0.00123 0.44390
# Poissons Ratio (y) = 0.00571 -0.40695
# Poissons Ratio (z) = 0.81104 -0.16003
#
# Static dielectric constant tensor:
#      x y z
#    x 1.711900 0.000000 -0.012770 
#    y 0.000000 1.735580 0.000000 
#    z -0.012770 0.000000 1.670460 
# 
# From -- ./inp_files/89948.got.cif
#   From: 2010.05.17/outbox.cif.g08.bks.cpg/sg10_45_cif.got.tgz:89948.got - 2010.06.03 11:33:40.
