data_PCOD9148234
_publ_section_title
;
Structure prediction by ZEFSAII (Michael W. Deem and Ramdas Pophale) SiO2 
 PCOD9148234
Probable space group: P 2/M
;
_chemical_formula_sum "Si O2"
_cell_formula_units_Z 32
_cell_length_a 15.159322
_cell_length_b 7.732898
_cell_length_c 26.685968
_cell_angle_alpha 90.000000
_cell_angle_beta 147.468313
_cell_angle_gamma 90.000000
_cell_volume 1682.280175
_symmetry_space_group_name_H-M "P 2/M"
_symmetry_group_IT_number 10
_symmetry_cell_setting 'monoclinic'
loop_
_space_group_symop_operation_xyz
x,y,z
-x,y,-z
-x,-y,-z
x,-y,z
loop_
_atom_site_type_symbol
_atom_site_label
_atom_site_fract_x
_atom_site_fract_y
_atom_site_fract_z
Si Si1 0.871112 0.288402 0.728391
Si Si2 0.759424 0.290347 0.564320
Si Si3 0.928757 0.201639 0.545273
Si Si4 0.433622 0.704777 0.893367
Si Si5 0.241025 0.711811 0.897539
Si Si6 0.708209 0.800511 0.280392
Si Si7 0.428763 0.288710 0.350218
Si Si8 0.400660 0.300640 0.666676
O O1 0.870390 0.500000 0.728686
O O2 0.802985 0.236715 0.641186
O O3 0.743934 0.231489 0.710082
O O4 0.058457 0.229491 0.823093
O O5 0.769107 0.500000 0.566819
O O6 0.883987 0.219054 0.582404
O O7 0.577221 0.240598 0.458832
O O8 0.781058 0.290135 0.444662
O O9 0.109918 0.276601 0.623797
O O10 0.923457 0.000000 0.527355
O O11 0.440894 0.500000 0.905067
O O12 0.300364 0.767657 0.870390
O O13 0.381231 0.731851 0.811490
O O14 0.613715 0.769842 0.995625
O O15 0.234627 0.500000 0.895026
O O16 0.606661 0.784678 0.282710
O O17 0.739889 0.000000 0.284548
O O18 0.429211 0.500000 0.348679
O O19 0.480138 0.227809 0.319421
O O20 0.443465 0.500000 0.695281
#
# Coordination Sequence:
#
# PCOD9148234 Si02
#       8
#     4   4   4   4   4   4   4   4
#     4   9  14  23  44  71  96 121 151 189 231 269
#     4   9  16  26  44  70  96 124 156 186 220 266
#     4  10  20  32  45  65  96 126 151 185 226 270
#     4   9  17  31  49  71  97 120 149 187 226 272
#     4   8  15  27  46  72  98 122 147 183 230 273
#     4  11  22  33  47  68  92 121 155 188 229 276
#     4   8  15  26  41  66  96 121 151 191 228 264
#     4  10  20  33  49  68  90 120 157 193 227 264
#
# _framework density 19.021801
#
# number of rings (size 3 to 8) (size 9 to 14) (size 15 to 20)
#    0.000    2.750    0.000    4.125    0.000    6.000 
#    0.000    1.250    0.000    8.250    0.000    5.250 
#    0.000    0.000    0.000    0.000    0.000    0.000 
#
# Total GULP energy -178484.247594 kJ/mol
# GULP energy per Si atom -5577.632737 kJ/mol
# Density = 1.897851 g / cm^3
# Si number density = 19.021801 Si / 1000 Ang^3
#
#
#
# Elastic Constant Matrix: (Units=GPa)
#
#
# Indices 1 2 3 4 5 6 
#
# 1 145.7506 -4.9029 79.5556 0.0000 12.7572 0.0000
# 2 -4.9029 24.0461 -1.5282 0.0000 4.0084 0.0000
# 3 79.5556 -1.5282 72.5346 0.0000 14.1552 0.0000
# 4 0.0000 0.0000 0.0000 79.0488 0.0000 40.3785
# 5 12.7572 4.0084 14.1552 0.0000 30.6679 0.0000
# 6 0.0000 0.0000 0.0000 40.3785 0.0000 -82.4128
#
#
#
# Elastic Compliance Matrix: (Units=1/GPa)
#
#
# Indices 1 2 3 4 5 6 
#
# 1 0.017276 0.002071 -0.019177 0.000000 0.001394 0.000000
# 2 0.002071 0.043076 -0.000107 0.000000 -0.006443 0.000000
# 3 -0.019177 -0.000107 0.036550 0.000000 -0.008879 0.000000
# 4 0.000000 0.000000 0.000000 0.010118 0.000000 0.004957
# 5 0.001394 -0.006443 -0.008879 0.000000 0.036968 0.000000
# 6 0.000000 0.000000 0.000000 0.004957 0.000000 -0.009705
#
#
# Mechanical properties :
#
#
# Convention : Reuss Voigt Hill
#
# Bulk Modulus (GPa) = 16.00576 43.17561 29.59069
# Shear Modulus (GPa) = 26.38064 16.74123 21.56094
#
# Velocity S-wave (km/s) = 3.72810 2.96988 3.37038
# Velocity P-wave (km/s) = 5.19272 5.87431 5.54400
#
# Compressibility (1/GPa) = 0.06247749
#
# Stress axis : x y z
#
# Youngs Moduli (GPa) = 57.88416 23.21463 27.36001
#
# Poissons Ratio (x) = -0.04809 0.52467
# Poissons Ratio (y) = -0.11990 0.00293
# Poissons Ratio (z) = 1.11002 0.00248
#
# Static dielectric constant tensor:
#      x y z
#    x 1.661690 0.000000 0.018510 
#    y 0.000000 1.684800 0.000000 
#    z 0.018510 0.000000 1.655230 
# 
# From -- ./inp_files/72191.got.cif
#   From: 2010.05.17/outbox.cif.g08.bks.cpg/sg10_37_cif.got.tgz:72191.got - 2010.06.03 11:33:40.
