data_PCOD9148031
_publ_section_title
;
Structure prediction by ZEFSAII (Michael W. Deem and Ramdas Pophale) SiO2 
 PCOD9148031
Probable space group: P 2/M
;
_chemical_formula_sum "Si O2"
_cell_formula_units_Z 28
_cell_length_a 14.635605
_cell_length_b 23.205679
_cell_length_c 9.415848
_cell_angle_alpha 90.000000
_cell_angle_beta 151.129059
_cell_angle_gamma 90.000000
_cell_volume 1544.066917
_symmetry_space_group_name_H-M "P 2/M"
_symmetry_group_IT_number 10
_symmetry_cell_setting 'monoclinic'
loop_
_space_group_symop_operation_xyz
x,y,z
-x,y,-z
-x,-y,-z
x,-y,z
loop_
_atom_site_type_symbol
_atom_site_label
_atom_site_fract_x
_atom_site_fract_y
_atom_site_fract_z
Si Si1 0.321103 0.221961 0.350507
Si Si2 0.970273 0.125266 0.122534
Si Si3 0.628875 0.066223 0.817382
Si Si4 0.793101 0.348902 0.761440
Si Si5 0.606016 0.146839 0.286734
Si Si6 0.547057 0.431911 0.227622
Si Si7 0.296612 0.562835 0.140887
O O1 0.500000 0.203331 0.500000
O O2 0.313280 0.290646 0.343223
O O3 0.356525 0.199883 0.557272
O O4 0.135418 0.187455 0.042448
O O5 0.183807 0.125731 0.468403
O O6 0.000000 0.102473 0.000000
O O7 0.828845 0.091053 0.033170
O O8 0.500000 0.067620 0.500000
O O9 0.519162 0.102337 0.789398
O O10 0.649338 0.000000 0.890882
O O11 0.692139 0.388208 0.502855
O O12 0.813889 0.388357 0.929083
O O13 0.000000 0.330090 0.000000
O O14 0.500000 0.162564 0.000000
O O15 0.606660 0.500000 0.322150
O O16 0.354937 0.426810 0.058886
O O17 0.500000 0.419988 0.000000
O O18 0.500000 0.561591 0.500000
O O19 0.207584 0.500000 0.035782
#
# Coordination Sequence:
#
# PCOD9148031 Si02
#       7
#     4   4   4   4   4   4   4
#     4  11  20  40  61  78 109 149 196 237 284 339
#     4  10  19  38  61  85 114 151 195 236 280 344
#     4  11  21  38  63  91 117 154 199 235 276 341
#     4  11  21  32  54  83 107 139 185 237 279 330
#     4  11  23  39  59  87 121 152 186 238 295 339
#     4   9  18  34  54  76 108 147 182 224 282 342
#     4   8  15  30  50  75 103 138 181 220 269 327
#
# _framework density 18.133928999999998
#
# number of rings (size 3 to 8) (size 9 to 14) (size 15 to 20)
#    0.000    1.857    4.286    3.857    0.000    3.429 
#    0.000    1.429    0.000    2.571    0.000    0.000 
#    0.000    0.000    0.000    0.000    0.000    0.000 
#
# Total GULP energy -155963.912457 kJ/mol
# GULP energy per Si atom -5570.139731 kJ/mol
# Density = 1.809266 g / cm^3
# Si number density = 18.133929 Si / 1000 Ang^3
#
#
#
# Elastic Constant Matrix: (Units=GPa)
#
#
# Indices 1 2 3 4 5 6 
#
# 1 97.4985 32.0962 27.5243 0.0000 10.6906 0.0000
# 2 32.0962 86.6447 8.8870 0.0000 -0.3183 0.0000
# 3 27.5243 8.8870 56.4384 0.0000 8.2794 0.0000
# 4 0.0000 0.0000 0.0000 5.8264 0.0000 0.4394
# 5 10.6906 -0.3183 8.2794 0.0000 35.2834 0.0000
# 6 0.0000 0.0000 0.0000 0.4394 0.0000 16.7697
#
#
#
# Elastic Compliance Matrix: (Units=1/GPa)
#
#
# Indices 1 2 3 4 5 6 
#
# 1 0.013602 -0.004484 -0.005506 0.000000 -0.002870 0.000000
# 2 -0.004484 0.013220 -0.000115 0.000000 0.001505 0.000000
# 3 -0.005506 -0.000115 0.020897 0.000000 -0.003236 0.000000
# 4 0.000000 0.000000 0.000000 0.171973 0.000000 -0.004506
# 5 -0.002870 0.001505 -0.003236 0.000000 0.029984 0.000000
# 6 0.000000 0.000000 0.000000 -0.004506 0.000000 0.059750
#
#
# Mechanical properties :
#
#
# Convention : Reuss Voigt Hill
#
# Bulk Modulus (GPa) = 36.35554 41.95517 39.15536
# Shear Modulus (GPa) = 14.75766 23.04749 18.90257
#
# Velocity S-wave (km/s) = 2.85584 3.56892 3.23210
# Velocity P-wave (km/s) = 5.56474 6.33794 5.96388
#
# Compressibility (1/GPa) = 0.02750612
#
# Stress axis : x y z
#
# Youngs Moduli (GPa) = 73.51889 75.64329 47.85432
#
# Poissons Ratio (x) = 0.33921 0.26350
# Poissons Ratio (y) = 0.32969 0.00553
# Poissons Ratio (z) = 0.40482 0.00873
#
# Static dielectric constant tensor:
#      x y z
#    x 1.645670 0.000000 0.029350 
#    y 0.000000 1.635020 0.000000 
#    z 0.029350 0.000000 1.627430 
# 
# From -- ./inp_files/30482.got.cif
#   From: 2010.05.17/outbox.cif.g08.bks.cpg/sg10_16_cif.got.tgz:30482.got - 2010.06.03 11:33:40.
