data_PCOD9148165
_publ_section_title
;
Structure prediction by ZEFSAII (Michael W. Deem and Ramdas Pophale) SiO2 
 PCOD9148165
Probable space group: P 2/M
;
_chemical_formula_sum "Si O2"
_cell_formula_units_Z 32
_cell_length_a 24.528264
_cell_length_b 8.751503
_cell_length_c 17.183627
_cell_angle_alpha 90.000000
_cell_angle_beta 29.103611
_cell_angle_gamma 90.000000
_cell_volume 1794.111096
_symmetry_space_group_name_H-M "P 2/M"
_symmetry_group_IT_number 10
_symmetry_cell_setting 'monoclinic'
loop_
_space_group_symop_operation_xyz
x,y,z
-x,y,-z
-x,-y,-z
x,-y,z
loop_
_atom_site_type_symbol
_atom_site_label
_atom_site_fract_x
_atom_site_fract_y
_atom_site_fract_z
Si Si1 0.239541 0.183933 0.020605
Si Si2 0.112581 0.816449 0.596064
Si Si3 0.112499 0.814661 0.027355
Si Si4 0.982386 0.813757 0.609722
Si Si5 0.475012 0.675987 0.758865
Si Si6 0.189059 0.174373 0.770232
Si Si7 0.447276 0.167817 0.481988
Si Si8 0.717756 0.317672 0.502004
O O1 0.208228 0.234102 0.970689
O O2 0.135717 0.232330 0.204634
O O3 0.240821 0.000000 0.016843
O O4 0.355943 0.241455 0.910502
O O5 0.220106 0.738541 0.498782
O O6 0.005057 0.779519 0.784561
O O7 0.078499 0.769436 0.551381
O O8 0.125765 0.000000 0.581532
O O9 0.121244 0.000000 0.010752
O O10 0.118423 0.758730 0.930606
O O11 0.000000 0.759605 0.500000
O O12 0.981943 0.000000 0.609046
O O13 0.460700 0.500000 0.798167
O O14 0.510343 0.697691 0.624921
O O15 0.588216 0.738463 0.658890
O O16 0.313752 0.168670 0.651591
O O17 0.210890 0.257623 0.661415
O O18 0.151715 0.000000 0.799522
O O19 0.500000 0.177655 0.500000
O O20 0.480151 0.000000 0.407031
O O21 0.714341 0.500000 0.501861
#
# Coordination Sequence:
#
# PCOD9148165 Si02
#       8
#     4   4   4   4   4   4   4   4
#     4   9  16  29  51  75  98 123 152 188 234 287
#     4   9  17  31  52  73  93 121 155 187 226 283
#     4   8  15  28  46  69  93 118 153 198 241 277
#     4   8  15  30  55  85 107 118 136 180 240 290
#     4  10  20  31  43  62  92 128 162 198 236 273
#     4   9  16  27  43  61  85 120 162 201 234 272
#     4   9  16  26  42  62  84 116 160 205 243 280
#     4  10  21  34  44  60  92 130 166 201 234 265
#
# _framework density 17.836130000000001
#
# number of rings (size 3 to 8) (size 9 to 14) (size 15 to 20)
#    0.000    3.000    0.000    3.000    0.000    4.250 
#    0.000    8.750    0.000    2.250    0.000    5.250 
#    0.000    0.000    0.000    0.000    0.000    0.000 
#
# Total GULP energy -178159.334315 kJ/mol
# GULP energy per Si atom -5567.479197 kJ/mol
# Density = 1.779553 g / cm^3
# Si number density = 17.836130 Si / 1000 Ang^3
#
#
#
# Elastic Constant Matrix: (Units=GPa)
#
#
# Indices 1 2 3 4 5 6 
#
# 1 112.4643 18.0092 37.0944 0.0000 -17.3803 0.0000
# 2 18.0092 13.0733 9.0017 0.0000 -6.7419 0.0000
# 3 37.0944 9.0017 40.8786 0.0000 -11.1960 0.0000
# 4 0.0000 0.0000 0.0000 3.3762 0.0000 -7.8325
# 5 -17.3803 -6.7419 -11.1960 0.0000 22.6542 0.0000
# 6 0.0000 0.0000 0.0000 -7.8325 0.0000 7.7571
#
#
#
# Elastic Compliance Matrix: (Units=1/GPa)
#
#
# Indices 1 2 3 4 5 6 
#
# 1 0.014406 -0.011721 -0.009737 0.000000 0.002751 0.000000
# 2 -0.011721 0.107986 -0.007870 0.000000 0.019256 0.000000
# 3 -0.009737 -0.007870 0.037408 0.000000 0.008675 0.000000
# 4 0.000000 0.000000 0.000000 -0.220628 0.000000 -0.222774
# 5 0.002751 0.019256 0.008675 0.000000 0.056271 0.000000
# 6 0.000000 0.000000 0.000000 -0.222774 0.000000 -0.096026
#
#
# Mechanical properties :
#
#
# Convention : Reuss Voigt Hill
#
# Bulk Modulus (GPa) = 9.88693 32.73633 21.31163
# Shear Modulus (GPa) = -608.73939 13.57821 -297.58059
#
# Velocity S-wave (km/s) = -18.49423 2.76212 -12.93073
# Velocity P-wave (km/s) = 21.22483 5.34473 14.52459
#
# Compressibility (1/GPa) = 0.10114363
#
# Stress axis : x y z
#
# Youngs Moduli (GPa) = 69.41793 9.26042 26.73255
#
# Poissons Ratio (x) = 0.10854 0.26031
# Poissons Ratio (y) = 0.81362 0.21038
# Poissons Ratio (z) = 0.67595 0.07288
#
# Static dielectric constant tensor:
#      x y z
#    x 1.629960 0.000000 -0.014360 
#    y 0.000000 1.624290 0.000000 
#    z -0.014360 0.000000 1.637710 
# 
# From -- ./inp_files/79954.got.cif
#   From: 2010.05.17/outbox.cif.g08.bks.cpg/sg10_40_cif.got.tgz:79954.got - 2010.06.03 11:33:40.
