data_PCOD9148871
_publ_section_title
;
Structure prediction by ZEFSAII (Michael W. Deem and Ramdas Pophale) SiO2 
 PCOD9148871
Probable space group: P 2/M
;
_chemical_formula_sum "Si O2"
_cell_formula_units_Z 32
_cell_length_a 5.495335
_cell_length_b 17.228612
_cell_length_c 19.622206
_cell_angle_alpha 90.000000
_cell_angle_beta 56.642823
_cell_angle_gamma 90.000000
_cell_volume 1551.720470
_symmetry_space_group_name_H-M "P 2/M"
_symmetry_group_IT_number 10
_symmetry_cell_setting 'monoclinic'
loop_
_space_group_symop_operation_xyz
x,y,z
-x,y,-z
-x,-y,-z
x,-y,z
loop_
_atom_site_type_symbol
_atom_site_label
_atom_site_fract_x
_atom_site_fract_y
_atom_site_fract_z
Si Si1 0.825397 0.828930 0.717921
Si Si2 0.093095 0.411811 0.349695
Si Si3 0.316234 0.586996 0.927106
Si Si4 0.266624 0.585304 0.772373
Si Si5 0.154637 0.263536 0.548282
Si Si6 0.165872 0.094727 0.042964
Si Si7 0.774772 0.092782 0.233203
Si Si8 0.189946 0.318833 0.194513
O O1 0.544354 0.872154 0.731318
O O2 0.727020 0.762163 0.786478
O O3 0.993150 0.786070 0.631195
O O4 0.056057 0.880142 0.725005
O O5 0.988708 0.500000 0.366542
O O6 0.435856 0.412038 0.316145
O O7 0.115297 0.376692 0.269926
O O8 0.909746 0.353305 0.423071
O O9 0.365408 0.500000 0.947777
O O10 0.314595 0.579472 0.845776
O O11 0.584013 0.645322 0.894084
O O12 0.000000 0.613646 0.000000
O O13 0.123037 0.500000 0.778940
O O14 0.123748 0.670744 0.790614
O O15 0.500000 0.249207 0.500000
O O16 0.000000 0.246739 0.500000
O O17 0.978408 0.115876 0.137890
O O18 0.175111 0.000000 0.038608
O O19 0.500000 0.121319 0.000000
O O20 0.000000 0.120878 0.000000
O O21 0.750700 0.000000 0.237315
#
# Coordination Sequence:
#
# PCOD9148871 Si02
#       8
#     4   4   4   4   4   4   4   4
#     4  11  25  41  70  93 125 165 205 259 316 391
#     4   9  20  35  57  87 119 158 206 254 298 360
#     4   9  18  32  50  77 115 163 219 271 310 347
#     4   9  17  31  55  80 111 157 208 258 306 358
#     4  11  25  43  65  93 130 168 203 252 320 387
#     4   9  17  32  59  93 129 162 193 239 296 353
#     4  11  23  43  70 100 126 163 215 261 307 373
#     4  10  20  33  56  79 117 160 208 253 313 371
#
# _framework density 20.622274000000001
#
# number of rings (size 3 to 8) (size 9 to 14) (size 15 to 20)
#    0.000    2.125    0.000    3.750    8.750    3.000 
#    0.000    3.750    2.750    7.500    0.000    0.000 
#    0.000    0.000    0.000    0.000    0.000    0.000 
#
# Total GULP energy -178317.990295 kJ/mol
# GULP energy per Si atom -5572.437197 kJ/mol
# Density = 2.057534 g / cm^3
# Si number density = 20.622274 Si / 1000 Ang^3
#
#
#
# Elastic Constant Matrix: (Units=GPa)
#
#
# Indices 1 2 3 4 5 6 
#
# 1 123.9162 41.0690 48.6342 0.0000 -11.7434 0.0000
# 2 41.0690 67.9026 26.2845 0.0000 -9.9835 0.0000
# 3 48.6342 26.2845 84.0953 0.0000 -12.7861 0.0000
# 4 0.0000 0.0000 0.0000 4.9011 0.0000 7.7695
# 5 -11.7434 -9.9835 -12.7861 0.0000 31.1822 0.0000
# 6 0.0000 0.0000 0.0000 7.7695 0.0000 20.8775
#
#
#
# Elastic Compliance Matrix: (Units=1/GPa)
#
#
# Indices 1 2 3 4 5 6 
#
# 1 0.011838 -0.005058 -0.005155 0.000000 0.000725 0.000000
# 2 -0.005058 0.019266 -0.002611 0.000000 0.003193 0.000000
# 3 -0.005155 -0.002611 0.016282 0.000000 0.003899 0.000000
# 4 0.000000 0.000000 0.000000 0.497597 0.000000 -0.185180
# 5 0.000725 0.003193 0.003899 0.000000 0.034963 0.000000
# 6 0.000000 0.000000 0.000000 -0.185180 0.000000 0.116812
#
#
# Mechanical properties :
#
#
# Convention : Reuss Voigt Hill
#
# Bulk Modulus (GPa) = 46.00357 56.43217 51.21787
# Shear Modulus (GPa) = 6.85256 22.05394 14.45325
#
# Velocity S-wave (km/s) = 1.82486 3.27375 2.65024
# Velocity P-wave (km/s) = 5.17651 6.45864 5.85279
#
# Compressibility (1/GPa) = 0.02173745
#
# Stress axis : x y z
#
# Youngs Moduli (GPa) = 84.47148 51.90400 61.41909
#
# Poissons Ratio (x) = 0.26253 0.31663
# Poissons Ratio (y) = 0.42725 0.16038
# Poissons Ratio (z) = 0.43547 0.13553
#
# Static dielectric constant tensor:
#      x y z
#    x 1.933590 0.000000 -0.008390 
#    y 0.000000 1.796350 0.000000 
#    z -0.008390 0.000000 1.693410 
# 
# From -- ./inp_files/81475.got.cif
#   From: 2010.05.17/outbox.cif.g08.bks.cpg/sg10_41_cif.got.tgz:81475.got - 2010.06.03 11:33:40.
