data_PCOD9148544
_publ_section_title
;
Structure prediction by ZEFSAII (Michael W. Deem and Ramdas Pophale) SiO2 
 PCOD9148544
Probable space group: P 2/M
;
_chemical_formula_sum "Si O2"
_cell_formula_units_Z 28
_cell_length_a 14.739813
_cell_length_b 7.530406
_cell_length_c 17.936909
_cell_angle_alpha 90.000000
_cell_angle_beta 140.626521
_cell_angle_gamma 90.000000
_cell_volume 1262.997522
_symmetry_space_group_name_H-M "P 2/M"
_symmetry_group_IT_number 10
_symmetry_cell_setting 'monoclinic'
loop_
_space_group_symop_operation_xyz
x,y,z
-x,y,-z
-x,-y,-z
x,-y,z
loop_
_atom_site_type_symbol
_atom_site_label
_atom_site_fract_x
_atom_site_fract_y
_atom_site_fract_z
Si Si1 0.946558 0.785974 0.260001
Si Si2 0.856786 0.217308 0.363754
Si Si3 0.704279 0.785191 0.848278
Si Si4 0.721790 0.216565 0.533989
Si Si5 0.972749 0.300188 0.114635
Si Si6 0.407666 0.216485 0.705126
Si Si7 0.708222 0.800144 0.686527
O O1 0.868174 0.725504 0.285049
O O2 0.898183 0.725576 0.147713
O O3 0.112825 0.731084 0.370986
O O4 0.942363 0.000000 0.257126
O O5 0.712772 0.276977 0.313588
O O6 0.000000 0.270355 0.500000
O O7 0.857199 0.000000 0.364801
O O8 0.572588 0.729313 0.817177
O O9 0.677674 0.717782 0.747368
O O10 0.703831 0.000000 0.844104
O O11 0.857378 0.734224 0.977841
O O12 0.639433 0.270241 0.407966
O O13 0.668633 0.279678 0.581104
O O14 0.719400 0.000000 0.535332
O O15 0.025236 0.500000 0.141882
O O16 0.117771 0.187961 0.204946
O O17 0.404179 0.000000 0.705103
O O18 0.646963 0.000000 0.649530
#
# Coordination Sequence:
#
# PCOD9148544 Si02
#       7
#     4   4   4   4   4   4   4
#     4   9  16  29  52  79 104 128 159 204 251 291
#     4   9  14  24  48  82 110 129 155 197 248 295
#     4  10  20  33  49  72 104 136 166 203 246 294
#     4   8  13  24  44  74 105 127 153 194 243 291
#     4  11  22  35  52  71  94 129 175 216 249 290
#     4   9  16  26  45  77 110 134 159 195 243 300
#     4   9  18  32  52  76 100 129 164 205 252 296
#
# _framework density 22.169481000000001
#
# number of rings (size 3 to 8) (size 9 to 14) (size 15 to 20)
#    0.000    2.714    1.429    2.571    0.000    2.857 
#    0.000    3.571    0.000    9.000    0.000    5.000 
#    0.000    0.000    0.000    0.000    0.000    0.000 
#
# Total GULP energy -156283.208969 kJ/mol
# GULP energy per Si atom -5581.543177 kJ/mol
# Density = 2.211902 g / cm^3
# Si number density = 22.169481 Si / 1000 Ang^3
#
#
#
# Elastic Constant Matrix: (Units=GPa)
#
#
# Indices 1 2 3 4 5 6 
#
# 1 147.7886 2.8121 26.1192 0.0000 -5.5032 0.0000
# 2 2.8121 64.9648 -2.2719 0.0000 0.4695 0.0000
# 3 26.1192 -2.2719 26.9578 0.0000 -2.0780 0.0000
# 4 0.0000 0.0000 0.0000 116.5745 0.0000 -60.7687
# 5 -5.5032 0.4695 -2.0780 0.0000 28.2704 0.0000
# 6 0.0000 0.0000 0.0000 -60.7687 0.0000 16.7506
#
#
#
# Elastic Compliance Matrix: (Units=1/GPa)
#
#
# Indices 1 2 3 4 5 6 
#
# 1 0.008220 -0.000641 -0.007939 0.000000 0.001027 0.000000
# 2 -0.000641 0.015489 0.001908 0.000000 -0.000242 0.000000
# 3 -0.007939 0.001908 0.045082 0.000000 0.001737 0.000000
# 4 0.000000 0.000000 0.000000 -0.009626 0.000000 -0.034922
# 5 0.001027 -0.000242 0.001737 0.000000 0.035704 0.000000
# 6 0.000000 0.000000 0.000000 -0.034922 0.000000 -0.066992
#
#
# Mechanical properties :
#
#
# Convention : Reuss Voigt Hill
#
# Bulk Modulus (GPa) = 18.03544 32.55886 25.29715
# Shear Modulus (GPa) = 83.74597 46.52256 65.13427
#
# Velocity S-wave (km/s) = 6.15283 4.58590 5.42623
# Velocity P-wave (km/s) = 7.65698 6.53903 7.11998
#
# Compressibility (1/GPa) = 0.05544639
#
# Stress axis : x y z
#
# Youngs Moduli (GPa) = 121.65488 64.56126 22.18189
#
# Poissons Ratio (x) = 0.04138 0.17610
# Poissons Ratio (y) = 0.07797 -0.04232
# Poissons Ratio (z) = 0.96583 -0.12316
#
# Static dielectric constant tensor:
#      x y z
#    x 1.830660 0.000000 -0.012160 
#    y 0.000000 1.856240 0.000000 
#    z -0.012160 0.000000 1.773950 
# 
# From -- ./inp_files/68595.got.cif
#   From: 2010.05.17/outbox.cif.g08.bks.cpg/sg10_35_cif.got.tgz:68595.got - 2010.06.03 11:33:40.
