data_PCOD9148082
_publ_section_title
;
Structure prediction by ZEFSAII (Michael W. Deem and Ramdas Pophale) SiO2 
 PCOD9148082
Probable space group: P 2/M
;
_chemical_formula_sum "Si O2"
_cell_formula_units_Z 20
_cell_length_a 6.304295
_cell_length_b 12.867781
_cell_length_c 12.798246
_cell_angle_alpha 90.000000
_cell_angle_beta 74.574631
_cell_angle_gamma 90.000000
_cell_volume 1000.823840
_symmetry_space_group_name_H-M "P 2/M"
_symmetry_group_IT_number 10
_symmetry_cell_setting 'monoclinic'
loop_
_space_group_symop_operation_xyz
x,y,z
-x,y,-z
-x,-y,-z
x,-y,z
loop_
_atom_site_type_symbol
_atom_site_label
_atom_site_fract_x
_atom_site_fract_y
_atom_site_fract_z
Si Si1 0.084598 0.116265 0.212226
Si Si2 0.656396 0.699656 0.700110
Si Si3 0.000000 0.693948 0.500000
Si Si4 0.360190 0.386684 0.912649
Si Si5 0.675102 0.171762 0.398931
Si Si6 0.000000 0.213587 0.000000
O O1 0.225912 0.205169 0.252663
O O2 0.842264 0.115931 0.297866
O O3 0.178660 0.000000 0.212252
O O4 0.067381 0.146784 0.092461
O O5 0.840054 0.642194 0.605555
O O6 0.532552 0.627716 0.797266
O O7 0.471726 0.750152 0.650238
O O8 0.837252 0.765969 0.454340
O O9 0.250592 0.500000 0.918022
O O10 0.193033 0.290996 0.937184
O O11 0.500000 0.383576 0.000000
O O12 0.500000 0.116601 0.500000
#
# Coordination Sequence:
#
# PCOD9148082 Si02
#       6
#     4   4   2   4   4   2
#     4  11  23  36  57  88 120 159 199 233 286 347
#     4  10  19  39  59  87 121 155 191 244 286 344
#     4   8  18  34  62  88 116 156 188 238 298 342
#     4  11  23  40  64  89 114 151 197 243 297 347
#     4   9  18  36  60  82 118 158 194 242 290 334
#     4  12  22  42  58  86 122 154 192 252 284 338
#
# _framework density 19.983535
#
# number of rings (size 3 to 8) (size 9 to 14) (size 15 to 20)
#    0.000    1.800    4.000    0.600    0.000    1.200 
#    0.000   18.500    0.000    5.400    0.000    0.000 
#    0.000    0.000    0.000    0.000    0.000    0.000 
#
# Total GULP energy -111466.286248 kJ/mol
# GULP energy per Si atom -5573.314312 kJ/mol
# Density = 1.993805 g / cm^3
# Si number density = 19.983535 Si / 1000 Ang^3
#
#
#
# Elastic Constant Matrix: (Units=GPa)
#
#
# Indices 1 2 3 4 5 6 
#
# 1 78.3495 9.2365 35.2018 0.0000 0.8394 0.0000
# 2 9.2365 55.9955 19.9590 0.0000 -5.1426 0.0000
# 3 35.2018 19.9590 138.9031 0.0000 -12.7688 0.0000
# 4 0.0000 0.0000 0.0000 -190.7744 0.0000 146.4814
# 5 0.8394 -5.1426 -12.7688 0.0000 44.9801 0.0000
# 6 0.0000 0.0000 0.0000 146.4814 0.0000 -102.0015
#
#
#
# Elastic Compliance Matrix: (Units=1/GPa)
#
#
# Indices 1 2 3 4 5 6 
#
# 1 0.014563 -0.001235 -0.003646 0.000000 -0.001448 0.000000
# 2 -0.001235 0.019016 -0.002277 0.000000 0.001551 0.000000
# 3 -0.003646 -0.002277 0.008659 0.000000 0.002266 0.000000
# 4 0.000000 0.000000 0.000000 0.051064 0.000000 0.073332
# 5 -0.001448 0.001551 0.002266 0.000000 0.023080 0.000000
# 6 0.000000 0.000000 0.000000 0.073332 0.000000 0.095506
#
#
# Mechanical properties :
#
#
# Convention : Reuss Voigt Hill
#
# Bulk Modulus (GPa) = 35.81547 44.67140 40.24343
# Shear Modulus (GPa) = 21.23044 -35.63580 -7.20268
#
# Velocity S-wave (km/s) = 3.26298 -4.22745 -1.90056
# Velocity P-wave (km/s) = 5.67075 1.19405 3.91993
#
# Compressibility (1/GPa) = 0.02792090
#
# Stress axis : x y z
#
# Youngs Moduli (GPa) = 68.66867 52.58630 115.49028
#
# Poissons Ratio (x) = 0.06497 0.42110
# Poissons Ratio (y) = 0.08484 0.26295
# Poissons Ratio (z) = 0.25038 0.11973
#
# Static dielectric constant tensor:
#      x y z
#    x 1.700950 0.000000 -0.045830 
#    y 0.000000 1.661640 0.000000 
#    z -0.045830 0.000000 1.735880 
# 
# From -- ./inp_files/39040.got.cif
#   From: 2010.05.17/outbox.cif.g08.bks.cpg/sg10_20_cif.got.tgz:39040.got - 2010.06.03 11:33:40.
