data_PCOD9148607
_publ_section_title
;
Structure prediction by ZEFSAII (Michael W. Deem and Ramdas Pophale) SiO2 
 PCOD9148607
Probable space group: P 2/M
;
_chemical_formula_sum "Si O2"
_cell_formula_units_Z 32
_cell_length_a 24.096583
_cell_length_b 13.713126
_cell_length_c 12.305582
_cell_angle_alpha 90.000000
_cell_angle_beta 28.074711
_cell_angle_gamma 90.000000
_cell_volume 1913.668730
_symmetry_space_group_name_H-M "P 2/M"
_symmetry_group_IT_number 10
_symmetry_cell_setting 'monoclinic'
loop_
_space_group_symop_operation_xyz
x,y,z
-x,y,-z
-x,-y,-z
x,-y,z
loop_
_atom_site_type_symbol
_atom_site_label
_atom_site_fract_x
_atom_site_fract_y
_atom_site_fract_z
Si Si1 0.511807 0.260759 0.854428
Si Si2 0.907806 0.612837 0.297955
Si Si3 0.282804 0.385660 0.181462
Si Si4 0.142388 0.616763 0.004936
Si Si5 0.736839 0.616763 0.416553
Si Si6 0.690144 0.884971 0.136547
Si Si7 0.860066 0.278340 0.764036
Si Si8 0.451745 0.115675 0.407456
O O1 0.621407 0.334545 0.662424
O O2 0.540759 0.177429 0.715695
O O3 0.500000 0.226133 0.000000
O O4 0.397340 0.321499 0.012373
O O5 0.939645 0.500000 0.220206
O O6 0.802351 0.613840 0.566887
O O7 0.851798 0.652808 0.284356
O O8 0.022146 0.656356 0.157660
O O9 0.310675 0.500000 0.108280
O O10 0.208231 0.334398 0.214423
O O11 0.131992 0.500000 0.033098
O O12 0.157017 0.659542 0.097439
O O13 0.245333 0.637324 0.741173
O O14 0.731280 0.500000 0.440422
O O15 0.649546 0.856409 0.329416
O O16 0.574755 0.871127 0.260181
O O17 0.716657 0.000000 0.092698
O O18 0.795479 0.823042 0.903424
O O19 0.000000 0.269384 0.500000
O O20 0.438795 0.000000 0.407800
#
# Coordination Sequence:
#
# PCOD9148607 Si02
#       8
#     4   4   4   4   4   4   4   4
#     4  12  22  34  55  80 109 139 177 220 268 316
#     4   9  17  32  51  70 100 142 184 218 250 296
#     4  11  22  35  50  75 113 149 179 215 260 311
#     4  10  20  33  50  75 106 142 183 222 258 304
#     4  10  20  33  50  75 106 142 183 222 258 304
#     4   9  19  38  61  80 102 134 172 217 268 323
#     4  12  22  34  55  80 109 139 177 220 268 316
#     4   9  19  38  61  80 102 134 172 217 268 323
#
# _framework density 16.721806999999998
#
# number of rings (size 3 to 8) (size 9 to 14) (size 15 to 20)
#    0.000    1.750    3.750    2.625    0.000    3.000 
#    0.000    0.000    0.000    3.000    0.000    0.000 
#    0.000    6.000    0.000    0.000    0.000    0.000 
#
# Total GULP energy -178378.684567 kJ/mol
# GULP energy per Si atom -5574.333893 kJ/mol
# Density = 1.668375 g / cm^3
# Si number density = 16.721807 Si / 1000 Ang^3
#
#
#
# Elastic Constant Matrix: (Units=GPa)
#
#
# Indices 1 2 3 4 5 6 
#
# 1 104.1695 36.0299 29.3136 0.0000 17.5775 0.0000
# 2 36.0299 57.9268 21.7209 0.0000 14.5934 0.0000
# 3 29.3136 21.7209 36.7098 0.0000 17.8830 0.0000
# 4 0.0000 0.0000 0.0000 26.1993 0.0000 4.9378
# 5 17.5775 14.5934 17.8830 0.0000 31.6966 0.0000
# 6 0.0000 0.0000 0.0000 4.9378 0.0000 18.6101
#
#
#
# Elastic Compliance Matrix: (Units=1/GPa)
#
#
# Indices 1 2 3 4 5 6 
#
# 1 0.013718 -0.005598 -0.007159 0.000000 -0.000991 0.000000
# 2 -0.005598 0.024820 -0.008496 0.000000 -0.003529 0.000000
# 3 -0.007159 -0.008496 0.047086 0.000000 -0.018684 0.000000
# 4 0.000000 0.000000 0.000000 0.040178 0.000000 -0.010661
# 5 -0.000991 -0.003529 -0.018684 0.000000 0.044265 0.000000
# 6 0.000000 0.000000 0.000000 -0.010661 0.000000 0.056563
#
#
# Mechanical properties :
#
#
# Convention : Reuss Voigt Hill
#
# Bulk Modulus (GPa) = 23.19254 41.43721 32.31488
# Shear Modulus (GPa) = 17.63611 22.75063 20.19337
#
# Velocity S-wave (km/s) = 3.25110 3.69255 3.47883
# Velocity P-wave (km/s) = 5.29081 6.55851 5.95847
#
# Compressibility (1/GPa) = 0.04311731
#
# Stress axis : x y z
#
# Youngs Moduli (GPa) = 72.89798 40.28959 21.23777
#
# Poissons Ratio (x) = 0.22556 0.15204
# Poissons Ratio (y) = 0.40811 0.18044
# Poissons Ratio (z) = 0.52186 0.34231
#
# Static dielectric constant tensor:
#      x y z
#    x 1.579620 0.000000 0.000380 
#    y 0.000000 1.549860 0.000000 
#    z 0.000380 0.000000 1.574850 
# 
# From -- ./inp_files/46971.got.cif
#   From: 2010.05.17/outbox.cif.g08.bks.cpg/sg10_24_cif.got.tgz:46971.got - 2010.06.03 11:33:40.
