data_PCOD9148277
_publ_section_title
;
Structure prediction by ZEFSAII (Michael W. Deem and Ramdas Pophale) SiO2 
 PCOD9148277
Probable space group: P 2/M
;
_chemical_formula_sum "Si O2"
_cell_formula_units_Z 32
_cell_length_a 25.695472
_cell_length_b 9.673514
_cell_length_c 22.251846
_cell_angle_alpha 90.000000
_cell_angle_beta 15.795386
_cell_angle_gamma 90.000000
_cell_volume 1505.564733
_symmetry_space_group_name_H-M "P 2/M"
_symmetry_group_IT_number 10
_symmetry_cell_setting 'monoclinic'
loop_
_space_group_symop_operation_xyz
x,y,z
-x,y,-z
-x,-y,-z
x,-y,z
loop_
_atom_site_type_symbol
_atom_site_label
_atom_site_fract_x
_atom_site_fract_y
_atom_site_fract_z
Si Si1 0.520943 0.844417 0.170961
Si Si2 0.411701 0.658684 0.397350
Si Si3 0.852756 0.158330 0.075040
Si Si4 0.855229 0.656100 0.572558
Si Si5 0.710832 0.343903 0.861391
Si Si6 0.291658 0.841669 0.636142
Si Si7 0.095300 0.844418 0.596597
Si Si8 0.970240 0.341312 0.838806
O O1 0.535512 0.746986 0.212773
O O2 0.295668 0.856380 0.408685
O O3 0.595968 0.000000 0.095429
O O4 0.607237 0.767345 0.017449
O O5 0.473041 0.500000 0.332943
O O6 0.404199 0.736014 0.469396
O O7 0.191379 0.657497 0.617260
O O8 0.072274 0.159179 0.855459
O O9 0.848643 0.263986 0.024946
O O10 0.812964 0.000000 0.100511
O O11 0.723609 0.192194 0.276388
O O12 0.810621 0.500000 0.600286
O O13 0.721694 0.686895 0.778312
O O14 0.856545 0.767339 0.518775
O O15 0.070745 0.652653 0.358491
O O16 0.632466 0.500000 0.956641
O O17 0.360096 0.000000 0.553382
O O18 0.967971 0.746980 0.780305
O O19 0.021289 0.000000 0.670097
O O20 0.915040 0.500000 0.890939
#
# Coordination Sequence:
#
# PCOD9148277 Si02
#       8
#     4   4   4   4   4   4   4   4
#     4  10  20  32  47  69  97 127 158 193 233 278
#     4   9  16  25  38  57  83 116 153 192 232 273
#     4   8  13  21  33  50  76 112 150 186 227 275
#     4   9  19  36  55  73  94 121 153 190 233 280
#     4   9  19  36  55  73  94 121 153 190 233 280
#     4   8  13  21  33  50  76 112 150 186 227 275
#     4  10  20  32  47  69  97 127 158 193 233 278
#     4   9  16  25  38  57  83 116 153 192 232 273
#
# _framework density 21.254481999999999
#
# number of rings (size 3 to 8) (size 9 to 14) (size 15 to 20)
#    0.000    3.000    0.000    3.000    0.000    6.500 
#    0.000    6.250    0.000    0.000    0.000    0.000 
#    0.000    1.000    0.000   10.500    0.000   14.500 
#
# Total GULP energy -178663.325356 kJ/mol
# GULP energy per Si atom -5583.228917 kJ/mol
# Density = 2.120611 g / cm^3
# Si number density = 21.254482 Si / 1000 Ang^3
#
#
#
# Elastic Constant Matrix: (Units=GPa)
#
#
# Indices 1 2 3 4 5 6 
#
# 1 130.2679 78.3217 -14.8387 0.0000 26.9868 0.0000
# 2 78.3217 231.4432 87.8387 0.0000 75.6207 0.0000
# 3 -14.8387 87.8387 136.7573 0.0000 25.1944 0.0000
# 4 0.0000 0.0000 0.0000 19.7664 0.0000 25.5876
# 5 26.9868 75.6207 25.1944 0.0000 59.8798 0.0000
# 6 0.0000 0.0000 0.0000 25.5876 0.0000 16.5284
#
#
#
# Elastic Compliance Matrix: (Units=1/GPa)
#
#
# Indices 1 2 3 4 5 6 
#
# 1 0.011826 -0.005949 0.005097 0.000000 0.000039 0.000000
# 2 -0.005949 0.011996 -0.006562 0.000000 -0.009708 0.000000
# 3 0.005097 -0.006562 0.011899 0.000000 0.000984 0.000000
# 4 0.000000 0.000000 0.000000 -0.050389 0.000000 0.078007
# 5 0.000039 -0.009708 0.000984 0.000000 0.028528 0.000000
# 6 0.000000 0.000000 0.000000 0.078007 0.000000 -0.060260
#
#
# Mechanical properties :
#
#
# Convention : Reuss Voigt Hill
#
# Bulk Modulus (GPa) = 47.86354 89.01243 68.43798
# Shear Modulus (GPa) = -203.19235 42.37804 -80.40716
#
# Velocity S-wave (km/s) = -9.78812 4.47009 -6.15734
# Velocity P-wave (km/s) = 10.25548 8.28327 4.27565
#
# Compressibility (1/GPa) = 0.02089273
#
# Stress axis : x y z
#
# Youngs Moduli (GPa) = 84.56045 83.35946 84.04093
#
# Poissons Ratio (x) = 0.49591 -0.42836
# Poissons Ratio (y) = 0.50305 0.55150
# Poissons Ratio (z) = -0.43101 0.54702
#
# Static dielectric constant tensor:
#      x y z
#    x 1.785700 0.000000 -0.051540 
#    y 0.000000 1.730170 0.000000 
#    z -0.051540 0.000000 1.779190 
# 
# From -- ./inp_files/82482.got.cif
#   From: 2010.05.17/outbox.cif.g08.bks.cpg/sg10_42_cif.got.tgz:82482.got - 2010.06.03 11:33:40.
