data_PCOD9148266
_publ_section_title
;
Structure prediction by ZEFSAII (Michael W. Deem and Ramdas Pophale) SiO2 
 PCOD9148266
Probable space group: P 2/M
;
_chemical_formula_sum "Si O2"
_cell_formula_units_Z 32
_cell_length_a 27.511434
_cell_length_b 13.654573
_cell_length_c 12.692531
_cell_angle_alpha 90.000000
_cell_angle_beta 159.977533
_cell_angle_gamma 90.000000
_cell_volume 1632.521354
_symmetry_space_group_name_H-M "P 2/M"
_symmetry_group_IT_number 10
_symmetry_cell_setting 'monoclinic'
loop_
_space_group_symop_operation_xyz
x,y,z
-x,y,-z
-x,-y,-z
x,-y,z
loop_
_atom_site_type_symbol
_atom_site_label
_atom_site_fract_x
_atom_site_fract_y
_atom_site_fract_z
Si Si1 0.540472 0.684279 0.228722
Si Si2 0.002605 0.737250 0.387824
Si Si3 0.317172 0.188279 0.044993
Si Si4 0.269564 0.385830 0.552562
Si Si5 0.752637 0.108315 0.882167
Si Si6 0.511765 0.109406 0.804769
Si Si7 0.890474 0.388606 0.576005
Si Si8 0.409450 0.611067 0.162684
O O1 0.688120 0.667857 0.469180
O O2 0.489285 0.797008 0.121268
O O3 0.532196 0.646212 0.331862
O O4 0.416442 0.623289 0.918075
O O5 0.148960 0.798445 0.684267
O O6 0.008743 0.668250 0.298655
O O7 0.000000 0.688520 0.500000
O O8 0.870543 0.809360 0.112545
O O9 0.334384 0.130844 0.188414
O O10 0.383553 0.135829 0.078786
O O11 0.380282 0.298523 0.180867
O O12 0.241930 0.500000 0.475247
O O13 0.148561 0.348506 0.387010
O O14 0.816513 0.000000 0.020874
O O15 0.643938 0.109984 0.564632
O O16 0.541581 0.000000 0.906520
O O17 0.938879 0.500000 0.687971
O O18 0.738677 0.390741 0.205281
O O19 0.433562 0.500000 0.249433
#
# Coordination Sequence:
#
# PCOD9148266 Si02
#       8
#     4   4   4   4   4   4   4   4
#     4   9  15  25  44  68  93 121 153 189 226 270
#     4   9  18  30  46  71  95 119 156 196 231 268
#     4   9  17  29  49  72  92 120 160 200 232 267
#     4   9  15  26  48  75  97 120 153 188 228 279
#     4  10  20  33  47  63  89 127 163 195 234 280
#     4  10  20  32  47  67  94 126 157 191 237 285
#     4   8  14  25  43  67  93 118 145 180 223 273
#     4   8  13  23  41  67  97 122 145 179 227 279
#
# _framework density 19.601582000000001
#
# number of rings (size 3 to 8) (size 9 to 14) (size 15 to 20)
#    0.000    3.000    0.000    3.750    0.000    4.000 
#    0.000    3.125    0.000   13.500    0.000    3.500 
#    0.000    0.000    0.000    0.000    0.000    0.000 
#
# Total GULP energy -178228.768655 kJ/mol
# GULP energy per Si atom -5569.649020 kJ/mol
# Density = 1.955697 g / cm^3
# Si number density = 19.601582 Si / 1000 Ang^3
#
#
#
# Elastic Constant Matrix: (Units=GPa)
#
#
# Indices 1 2 3 4 5 6 
#
# 1 84.5557 29.1889 22.9040 0.0000 39.7778 0.0000
# 2 29.1889 87.2635 5.2167 0.0000 22.0912 0.0000
# 3 22.9040 5.2167 33.0066 0.0000 11.0878 0.0000
# 4 0.0000 0.0000 0.0000 7.9739 0.0000 7.8336
# 5 39.7778 22.0912 11.0878 0.0000 27.0003 0.0000
# 6 0.0000 0.0000 0.0000 7.8336 0.0000 14.7164
#
#
#
# Elastic Compliance Matrix: (Units=1/GPa)
#
#
# Indices 1 2 3 4 5 6 
#
# 1 0.041070 0.001475 -0.009282 0.000000 -0.057901 0.000000
# 2 0.001475 0.014616 0.001640 0.000000 -0.014806 0.000000
# 3 -0.009282 0.001640 0.037510 0.000000 -0.003071 0.000000
# 4 0.000000 0.000000 0.000000 0.262878 0.000000 -0.139931
# 5 -0.057901 -0.014806 -0.003071 0.000000 0.135714 0.000000
# 6 0.000000 0.000000 0.000000 -0.139931 0.000000 0.142437
#
#
# Mechanical properties :
#
#
# Convention : Reuss Voigt Hill
#
# Bulk Modulus (GPa) = 12.36661 35.49388 23.93025
# Shear Modulus (GPa) = 7.42375 19.77253 13.59814
#
# Velocity S-wave (km/s) = 1.94822 3.17948 2.63673
# Velocity P-wave (km/s) = 3.37393 5.62368 4.63730
#
# Compressibility (1/GPa) = 0.08086290
#
# Stress axis : x y z
#
# Youngs Moduli (GPa) = 24.34854 68.41749 26.65926
#
# Poissons Ratio (x) = -0.10094 0.24745
# Poissons Ratio (y) = -0.03592 -0.04372
# Poissons Ratio (z) = 0.22600 -0.11219
#
# Static dielectric constant tensor:
#      x y z
#    x 1.758880 0.000000 -0.013190 
#    y 0.000000 1.718950 0.000000 
#    z -0.013190 0.000000 1.722160 
# 
# From -- ./inp_files/72700.got.cif
#   From: 2010.05.17/outbox.cif.g08.bks.cpg/sg10_37_cif.got.tgz:72700.got - 2010.06.03 11:33:40.
