data_PCOD9148104
_publ_section_title
;
Structure prediction by ZEFSAII (Michael W. Deem and Ramdas Pophale) SiO2 
 PCOD9148104
Probable space group: P 2/M
;
_chemical_formula_sum "Si O2"
_cell_formula_units_Z 20
_cell_length_a 13.252003
_cell_length_b 11.329573
_cell_length_c 11.092266
_cell_angle_alpha 90.000000
_cell_angle_beta 145.794940
_cell_angle_gamma 90.000000
_cell_volume 936.208364
_symmetry_space_group_name_H-M "P 2/M"
_symmetry_group_IT_number 10
_symmetry_cell_setting 'monoclinic'
loop_
_space_group_symop_operation_xyz
x,y,z
-x,y,-z
-x,-y,-z
x,-y,z
loop_
_atom_site_type_symbol
_atom_site_label
_atom_site_fract_x
_atom_site_fract_y
_atom_site_fract_z
Si Si1 0.866584 0.370237 0.617641
Si Si2 0.743475 0.633730 0.093260
Si Si3 0.352924 0.125904 0.607186
Si Si4 0.000000 0.291883 0.000000
Si Si5 0.500000 0.197650 0.000000
Si Si6 0.372664 0.748933 0.270658
O O1 0.782164 0.500000 0.510338
O O2 0.754455 0.249635 0.500924
O O3 0.939799 0.368644 0.826807
O O4 0.041879 0.357790 0.707068
O O5 0.695722 0.500000 0.074871
O O6 0.659749 0.719893 0.108457
O O7 0.663930 0.667984 0.882729
O O8 0.511974 0.143220 0.667629
O O9 0.258098 0.000000 0.491847
O O10 0.435600 0.125473 0.821959
O O11 0.821952 0.222180 0.866056
O O12 0.500000 0.693294 0.500000
#
# Coordination Sequence:
#
# PCOD9148104 Si02
#       6
#     4   4   4   2   2   4
#     4  10  21  39  63  95 130 166 209 260 319 380
#     4   9  20  37  62  95 128 162 211 265 316 381
#     4  11  24  43  64  91 125 168 220 265 317 381
#     4  10  19  40  61  96 133 170 203 258 315 386
#     4  10  22  42  62  84 121 170 219 270 323 370
#     4  10  20  38  61  92 129 168 209 256 319 379
#
# _framework density 21.362766000000001
#
# number of rings (size 3 to 8) (size 9 to 14) (size 15 to 20)
#    0.000    2.000    2.000    0.900    0.000    6.400 
#    0.000   14.000    0.000    0.000    0.000    0.000 
#    0.000    0.000    0.000    0.000    0.000    0.000 
#
# Total GULP energy -111537.851179 kJ/mol
# GULP energy per Si atom -5576.892559 kJ/mol
# Density = 2.131414 g / cm^3
# Si number density = 21.362766 Si / 1000 Ang^3
#
#
#
# Elastic Constant Matrix: (Units=GPa)
#
#
# Indices 1 2 3 4 5 6 
#
# 1 124.8391 43.0915 23.0364 0.0000 13.5742 0.0000
# 2 43.0915 166.3198 35.4494 0.0000 24.1830 0.0000
# 3 23.0364 35.4494 58.7556 0.0000 13.5844 0.0000
# 4 0.0000 0.0000 0.0000 37.5255 0.0000 43.6993
# 5 13.5742 24.1830 13.5844 0.0000 28.6922 0.0000
# 6 0.0000 0.0000 0.0000 43.6993 0.0000 30.6304
#
#
#
# Elastic Compliance Matrix: (Units=1/GPa)
#
#
# Indices 1 2 3 4 5 6 
#
# 1 0.009186 -0.001636 -0.002165 0.000000 -0.001942 0.000000
# 2 -0.001636 0.007703 -0.003014 0.000000 -0.004291 0.000000
# 3 -0.002165 -0.003014 0.021181 0.000000 -0.006464 0.000000
# 4 0.000000 0.000000 0.000000 -0.040292 0.000000 0.057484
# 5 -0.001942 -0.004291 -0.006464 0.000000 0.042448 0.000000
# 6 0.000000 0.000000 0.000000 0.057484 0.000000 -0.049362
#
#
# Mechanical properties :
#
#
# Convention : Reuss Voigt Hill
#
# Bulk Modulus (GPa) = 40.91762 61.45211 51.18486
# Shear Modulus (GPa) = 395.55361 35.92544 215.73952
#
# Velocity S-wave (km/s) = 13.62212 4.10528 10.06021
# Velocity P-wave (km/s) = 16.32825 7.16237 12.60776
#
# Compressibility (1/GPa) = 0.02443935
#
# Stress axis : x y z
#
# Youngs Moduli (GPa) = 108.86428 129.82470 47.21119
#
# Poissons Ratio (x) = 0.21240 0.10223
# Poissons Ratio (y) = 0.17811 0.14228
# Poissons Ratio (z) = 0.23574 0.39125
#
# Static dielectric constant tensor:
#      x y z
#    x 1.777270 0.000000 0.005610 
#    y 0.000000 1.796400 0.000000 
#    z 0.005610 0.000000 1.815330 
# 
# From -- ./inp_files/51151.got.cif
#   From: 2010.05.17/outbox.cif.g08.bks.cpg/sg10_26_cif.got.tgz:51151.got - 2010.06.03 11:33:40.
