data_PCOD9148193
_publ_section_title
;
Structure prediction by ZEFSAII (Michael W. Deem and Ramdas Pophale) SiO2 
 PCOD9148193
Probable space group: P 2/M
;
_chemical_formula_sum "Si O2"
_cell_formula_units_Z 32
_cell_length_a 23.633474
_cell_length_b 8.985071
_cell_length_c 12.482480
_cell_angle_alpha 90.000000
_cell_angle_beta 134.826023
_cell_angle_gamma 90.000000
_cell_volume 1879.964664
_symmetry_space_group_name_H-M "P 2/M"
_symmetry_group_IT_number 10
_symmetry_cell_setting 'monoclinic'
loop_
_space_group_symop_operation_xyz
x,y,z
-x,y,-z
-x,-y,-z
x,-y,z
loop_
_atom_site_type_symbol
_atom_site_label
_atom_site_fract_x
_atom_site_fract_y
_atom_site_fract_z
Si Si1 0.357542 0.819737 0.983349
Si Si2 0.822879 0.679228 0.645427
Si Si3 0.219818 0.821008 0.957408
Si Si4 0.315497 0.677679 0.700007
Si Si5 0.470485 0.829418 0.836739
Si Si6 0.165860 0.177830 0.119975
Si Si7 0.939400 0.325378 0.329361
Si Si8 0.004118 0.325705 0.838280
O O1 0.300743 0.776044 0.005613
O O2 0.323966 0.752760 0.827729
O O3 0.357258 0.000000 0.972907
O O4 0.450512 0.776107 0.119790
O O5 0.820575 0.500000 0.650987
O O6 0.764001 0.721778 0.470395
O O7 0.798729 0.750591 0.725958
O O8 0.914505 0.722239 0.744534
O O9 0.144181 0.758367 0.791650
O O10 0.215974 0.000000 0.951215
O O11 0.208833 0.773690 0.066539
O O12 0.316477 0.500000 0.714355
O O13 0.392070 0.729679 0.732946
O O14 0.451219 0.000000 0.780799
O O15 0.500000 0.832279 0.000000
O O16 0.168276 0.000000 0.129741
O O17 0.074312 0.233028 0.986981
O O18 0.923743 0.500000 0.330791
O O19 0.000000 0.268188 0.500000
O O20 0.980942 0.314849 0.268930
O O21 0.013428 0.500000 0.881146
#
# Coordination Sequence:
#
# PCOD9148193 Si02
#       8
#     4   4   4   4   4   4   4   4
#     4   9  18  33  52  73  99 131 160 190 236 295
#     4  10  21  34  49  69  97 130 161 198 241 287
#     4   9  19  34  50  70  96 125 160 201 241 281
#     4  10  20  31  48  76 104 126 156 198 241 284
#     4   8  15  30  50  70  97 130 159 188 233 292
#     4  10  20  34  51  71  94 122 164 210 243 276
#     4   9  18  30  47  68  95 129 162 196 234 283
#     4   9  18  33  49  66  92 129 165 197 239 284
#
# _framework density 17.021597
#
# number of rings (size 3 to 8) (size 9 to 14) (size 15 to 20)
#    0.000    2.750    0.000    1.875    1.750    6.500 
#    0.000    0.000    0.000    0.750    0.000    5.250 
#    0.000    0.000    0.000    0.000    0.000    0.000 
#
# Total GULP energy -178362.304449 kJ/mol
# GULP energy per Si atom -5573.822014 kJ/mol
# Density = 1.698285 g / cm^3
# Si number density = 17.021597 Si / 1000 Ang^3
#
#
#
# Elastic Constant Matrix: (Units=GPa)
#
#
# Indices 1 2 3 4 5 6 
#
# 1 111.5716 18.0677 18.7370 0.0000 14.2827 0.0000
# 2 18.0677 13.1000 12.9248 0.0000 0.5677 0.0000
# 3 18.7370 12.9248 36.4737 0.0000 -1.4899 0.0000
# 4 0.0000 0.0000 0.0000 36.3842 0.0000 0.8159
# 5 14.2827 0.5677 -1.4899 0.0000 10.7047 0.0000
# 6 0.0000 0.0000 0.0000 0.8159 0.0000 20.0602
#
#
#
# Elastic Compliance Matrix: (Units=1/GPa)
#
#
# Indices 1 2 3 4 5 6 
#
# 1 0.014480 -0.017015 -0.002174 0.000000 -0.018720 0.000000
# 2 -0.017015 0.138939 -0.040095 0.000000 0.009753 0.000000
# 3 -0.002174 -0.040095 0.043193 0.000000 0.011038 0.000000
# 4 0.000000 0.000000 0.000000 0.027510 0.000000 -0.001119
# 5 -0.018720 0.009753 0.011038 0.000000 0.119413 0.000000
# 6 0.000000 0.000000 0.000000 -0.001119 0.000000 0.049895
#
#
# Mechanical properties :
#
#
# Convention : Reuss Voigt Hill
#
# Bulk Modulus (GPa) = 12.81332 28.95606 20.88469
# Shear Modulus (GPa) = 9.29349 20.85755 15.07552
#
# Velocity S-wave (km/s) = 2.33916 3.50431 2.97925
# Velocity P-wave (km/s) = 3.85222 5.78117 4.91230
#
# Compressibility (1/GPa) = 0.07804378
#
# Stress axis : x y z
#
# Youngs Moduli (GPa) = 69.06277 7.19741 23.15200
#
# Poissons Ratio (x) = 0.12246 0.05033
# Poissons Ratio (y) = 1.17508 0.92829
# Poissons Ratio (z) = 0.15012 0.28858
#
# Static dielectric constant tensor:
#      x y z
#    x 1.603700 0.000000 -0.001420 
#    y 0.000000 1.573430 0.000000 
#    z -0.001420 0.000000 1.555050 
# 
# From -- ./inp_files/56479.got.cif
#   From: 2010.05.17/outbox.cif.g08.bks.cpg/sg10_29_cif.got.tgz:56479.got - 2010.06.03 11:33:40.
