data_PCOD9148115
_publ_section_title
;
Structure prediction by ZEFSAII (Michael W. Deem and Ramdas Pophale) SiO2 
 PCOD9148115
Probable space group: P 2/M
;
_chemical_formula_sum "Si O2"
_cell_formula_units_Z 28
_cell_length_a 14.201568
_cell_length_b 8.400047
_cell_length_c 11.867481
_cell_angle_alpha 90.000000
_cell_angle_beta 128.325253
_cell_angle_gamma 90.000000
_cell_volume 1110.634700
_symmetry_space_group_name_H-M "P 2/M"
_symmetry_group_IT_number 10
_symmetry_cell_setting 'monoclinic'
loop_
_space_group_symop_operation_xyz
x,y,z
-x,y,-z
-x,-y,-z
x,-y,z
loop_
_atom_site_type_symbol
_atom_site_label
_atom_site_fract_x
_atom_site_fract_y
_atom_site_fract_z
Si Si1 0.354379 0.812846 0.688932
Si Si2 0.909533 0.680262 0.142903
Si Si3 0.870118 0.000000 0.964548
Si Si4 0.346846 0.000000 0.381082
Si Si5 0.410483 0.675953 0.182199
Si Si6 0.076725 0.809695 0.444138
Si Si7 0.355478 0.667014 0.393838
Si Si8 0.700435 0.180815 0.105985
O O1 0.449079 0.705666 0.693576
O O2 0.215336 0.776648 0.569761
O O3 0.372958 0.784540 0.836598
O O4 0.376465 0.000000 0.682131
O O5 0.908304 0.500000 0.094211
O O6 0.878476 0.832767 0.040758
O O7 0.807830 0.697982 0.163789
O O8 0.030494 0.717671 0.300132
O O9 0.000000 0.000000 0.000000
O O10 0.746498 0.000000 0.796879
O O11 0.500000 0.000000 0.500000
O O12 0.313967 0.166395 0.412901
O O13 0.393591 0.500000 0.121393
O O14 0.338395 0.681099 0.245127
O O15 0.374093 0.805674 0.064072
O O16 0.000000 0.772765 0.500000
O O17 0.062535 0.000000 0.413337
O O18 0.500000 0.658919 0.500000
O O19 0.304549 0.500000 0.396048
O O20 0.747557 0.000000 0.155313
#
# Coordination Sequence:
#
# PCOD9148115 Si02
#       8
#     4   4   2   2   4   4   4   4
#     4  10  22  37  60  90 129 179 219 274 342 407
#     4  12  25  44  74 104 135 186 238 281 348 428
#     4  12  28  52  75 104 148 184 227 304 362 416
#     4  10  22  44  76 102 122 172 230 276 348 420
#     4  11  23  36  55  90 132 172 218 277 345 408
#     4  10  19  41  68  95 134 181 234 287 342 413
#     4   9  20  40  62  92 130 168 218 279 333 400
#     4  11  21  39  64  91 129 174 225 275 336 411
#
# _framework density 25.210808
#
# number of rings (size 3 to 8) (size 9 to 14) (size 15 to 20)
#    0.000    1.429    2.857    2.143    2.000    5.714 
#    5.143    0.000    0.000    0.000    0.000    0.000 
#    0.000    0.000    0.000    0.000    0.000    0.000 
#
# Total GULP energy -156389.651318 kJ/mol
# GULP energy per Si atom -5585.344690 kJ/mol
# Density = 2.515343 g / cm^3
# Si number density = 25.210808 Si / 1000 Ang^3
#
#
#
# Elastic Constant Matrix: (Units=GPa)
#
#
# Indices 1 2 3 4 5 6 
#
# 1 80.3774 25.0901 9.2822 0.0000 -1.9963 0.0000
# 2 25.0901 177.6192 38.1472 0.0000 -7.5186 0.0000
# 3 9.2822 38.1472 134.1079 0.0000 4.3856 0.0000
# 4 0.0000 0.0000 0.0000 23.6522 0.0000 1.1337
# 5 -1.9963 -7.5186 4.3856 0.0000 33.4242 0.0000
# 6 0.0000 0.0000 0.0000 1.1337 0.0000 19.3160
#
#
#
# Elastic Compliance Matrix: (Units=1/GPa)
#
#
# Indices 1 2 3 4 5 6 
#
# 1 0.013042 -0.001732 -0.000425 0.000000 0.000445 0.000000
# 2 -0.001732 0.006311 -0.001726 0.000000 0.001542 0.000000
# 3 -0.000425 -0.001726 0.008025 0.000000 -0.001466 0.000000
# 4 0.000000 0.000000 0.000000 0.042399 0.000000 -0.002488
# 5 0.000445 0.001542 -0.001466 0.000000 0.030484 0.000000
# 6 0.000000 0.000000 0.000000 -0.002488 0.000000 0.051917
#
#
# Mechanical properties :
#
#
# Convention : Reuss Voigt Hill
#
# Bulk Modulus (GPa) = 50.98712 59.68263 55.33488
# Shear Modulus (GPa) = 30.03370 36.58415 33.30893
#
# Velocity S-wave (km/s) = 3.45527 3.81350 3.63880
# Velocity P-wave (km/s) = 6.01554 6.56622 6.29690
#
# Compressibility (1/GPa) = 0.01961280
#
# Stress axis : x y z
#
# Youngs Moduli (GPa) = 76.67466 158.46289 124.61254
#
# Poissons Ratio (x) = 0.27451 0.05290
# Poissons Ratio (y) = 0.13282 0.21503
# Poissons Ratio (z) = 0.03255 0.27345
#
# Static dielectric constant tensor:
#      x y z
#    x 1.978170 0.000000 -0.019580 
#    y 0.000000 1.957150 0.000000 
#    z -0.019580 0.000000 2.159660 
# 
# From -- ./inp_files/68742.got.cif
#   From: 2010.05.17/outbox.cif.g08.bks.cpg/sg10_35_cif.got.tgz:68742.got - 2010.06.03 11:33:40.
