data_PCOD9148864
_publ_section_title
;
Structure prediction by ZEFSAII (Michael W. Deem and Ramdas Pophale) SiO2 
 PCOD9148864
Probable space group: P 2/M
;
_chemical_formula_sum "Si O2"
_cell_formula_units_Z 30
_cell_length_a 18.719517
_cell_length_b 13.621088
_cell_length_c 12.783822
_cell_angle_alpha 90.000000
_cell_angle_beta 152.948637
_cell_angle_gamma 90.000000
_cell_volume 1482.440136
_symmetry_space_group_name_H-M "P 2/M"
_symmetry_group_IT_number 10
_symmetry_cell_setting 'monoclinic'
loop_
_space_group_symop_operation_xyz
x,y,z
-x,y,-z
-x,-y,-z
x,-y,z
loop_
_atom_site_type_symbol
_atom_site_label
_atom_site_fract_x
_atom_site_fract_y
_atom_site_fract_z
Si Si1 0.500000 0.232448 0.000000
Si Si2 0.605796 0.692688 0.430522
Si Si3 0.750289 0.612977 0.824908
Si Si4 0.046418 0.892720 0.182462
Si Si5 0.423157 0.109822 0.692783
Si Si6 0.217563 0.382334 0.675237
Si Si7 0.720312 0.386320 0.018337
Si Si8 0.931521 0.318439 0.724883
O O1 0.473878 0.161008 0.867266
O O2 0.354640 0.306443 0.822661
O O3 0.651305 0.664316 0.606509
O O4 0.543206 0.804353 0.345842
O O5 0.465724 0.626978 0.201353
O O6 0.763964 0.680762 0.566774
O O7 0.699656 0.500000 0.760618
O O8 0.736790 0.657272 0.923987
O O9 0.935162 0.621070 0.041826
O O10 0.234377 0.899032 0.440296
O O11 0.007243 0.794144 0.193687
O O12 0.981045 0.000000 0.128627
O O13 0.000000 0.877469 0.000000
O O14 0.488407 0.000000 0.764985
O O15 0.255659 0.500000 0.722471
O O16 0.089907 0.362065 0.419057
O O17 0.187419 0.355086 0.757417
O O18 0.761124 0.500000 0.058913
#
# Coordination Sequence:
#
# PCOD9148864 Si02
#       8
#     2   4   4   4   4   4   4   4
#     4  12  18  36  54  86 116 148 184 238 292 330
#     4  11  20  36  59  84 115 145 187 235 290 334
#     4  11  24  38  55  82 115 157 196 230 277 339
#     4   9  17  32  54  79 111 147 183 225 278 340
#     4  10  20  33  55  87 115 143 185 237 291 338
#     4  11  21  34  55  81 114 151 188 232 281 338
#     4  10  22  39  57  78 111 158 201 227 269 344
#     4  11  21  36  56  87 118 145 185 241 293 329
#
# _framework density 20.236905
#
# number of rings (size 3 to 8) (size 9 to 14) (size 15 to 20)
#    0.000    1.467    4.000    3.600    0.000    5.333 
#    0.000    2.000    0.000    2.400    0.000    0.933 
#    0.000    0.000    0.000    0.000    0.000    0.000 
#
# Total GULP energy -167199.083522 kJ/mol
# GULP energy per Si atom -5573.302784 kJ/mol
# Density = 2.019084 g / cm^3
# Si number density = 20.236905 Si / 1000 Ang^3
#
#
#
# Elastic Constant Matrix: (Units=GPa)
#
#
# Indices 1 2 3 4 5 6 
#
# 1 64.5392 39.3203 23.3714 0.0000 -23.0322 0.0000
# 2 39.3203 95.5357 29.6114 0.0000 -29.2791 0.0000
# 3 23.3714 29.6114 111.0289 0.0000 -29.6198 0.0000
# 4 0.0000 0.0000 0.0000 25.8088 0.0000 -22.2061
# 5 -23.0322 -29.2791 -29.6198 0.0000 38.1088 0.0000
# 6 0.0000 0.0000 0.0000 -22.2061 0.0000 28.1987
#
#
#
# Elastic Compliance Matrix: (Units=1/GPa)
#
#
# Indices 1 2 3 4 5 6 
#
# 1 0.022685 -0.006632 -0.000893 0.000000 0.007921 0.000000
# 2 -0.006632 0.015731 -0.000813 0.000000 0.007446 0.000000
# 3 -0.000893 -0.000813 0.011482 0.000000 0.007759 0.000000
# 4 0.000000 0.000000 0.000000 0.120166 0.000000 0.094629
# 5 0.007921 0.007446 0.007759 0.000000 0.042779 0.000000
# 6 0.000000 0.000000 0.000000 0.094629 0.000000 0.109981
#
#
# Mechanical properties :
#
#
# Convention : Reuss Voigt Hill
#
# Bulk Modulus (GPa) = 30.10208 50.63444 40.36826
# Shear Modulus (GPa) = 14.26227 30.34330 22.30279
#
# Velocity S-wave (km/s) = 2.65762 3.87642 3.32337
# Velocity P-wave (km/s) = 4.93198 6.71644 5.89216
#
# Compressibility (1/GPa) = 0.03322030
#
# Stress axis : x y z
#
# Youngs Moduli (GPa) = 44.08118 63.56879 87.09619
#
# Poissons Ratio (x) = 0.42162 0.07781
# Poissons Ratio (y) = 0.29237 0.07081
# Poissons Ratio (z) = 0.03938 0.05168
#
# Static dielectric constant tensor:
#      x y z
#    x 1.787800 0.000000 0.021560 
#    y 0.000000 1.748090 0.000000 
#    z 0.021560 0.000000 1.737430 
# 
# From -- ./inp_files/53928.got.cif
#   From: 2010.05.17/outbox.cif.g08.bks.cpg/sg10_27_cif.got.tgz:53928.got - 2010.06.03 11:33:40.
