data_PCOD9148282
_publ_section_title
;
Structure prediction by ZEFSAII (Michael W. Deem and Ramdas Pophale) SiO2 
 PCOD9148282
Probable space group: P 2/M
;
_chemical_formula_sum "Si O2"
_cell_formula_units_Z 28
_cell_length_a 19.432952
_cell_length_b 8.786537
_cell_length_c 15.324317
_cell_angle_alpha 90.000000
_cell_angle_beta 37.956857
_cell_angle_gamma 90.000000
_cell_volume 1609.387918
_symmetry_space_group_name_H-M "P 2/M"
_symmetry_group_IT_number 10
_symmetry_cell_setting 'monoclinic'
loop_
_space_group_symop_operation_xyz
x,y,z
-x,y,-z
-x,-y,-z
x,-y,z
loop_
_atom_site_type_symbol
_atom_site_label
_atom_site_fract_x
_atom_site_fract_y
_atom_site_fract_z
Si Si1 0.901154 0.819317 0.778807
Si Si2 0.553517 0.674692 0.068603
Si Si3 0.627825 0.315269 0.621679
Si Si4 0.145200 0.317063 0.523640
Si Si5 0.525271 0.817748 0.375206
Si Si6 0.241543 0.315423 0.237276
Si Si7 0.717229 0.674918 0.074688
O O1 0.842794 0.747776 0.751251
O O2 0.028161 0.763508 0.656376
O O3 0.894856 0.000000 0.779429
O O4 0.828299 0.760876 0.933519
O O5 0.526639 0.500000 0.072108
O O6 0.441441 0.740781 0.223318
O O7 0.637533 0.674227 0.068134
O O8 0.632047 0.738772 0.913296
O O9 0.616110 0.500000 0.631284
O O10 0.757492 0.279074 0.504804
O O11 0.568712 0.247612 0.596125
O O12 0.128359 0.500000 0.541173
O O13 0.195472 0.276933 0.378300
O O14 0.500000 0.774313 0.500000
O O15 0.643414 0.752997 0.222904
O O16 0.526574 0.000000 0.367202
O O17 0.244008 0.500000 0.227704
O O18 0.741265 0.500000 0.072294
#
# Coordination Sequence:
#
# PCOD9148282 Si02
#       7
#     4   4   4   4   4   4   4
#     4  11  21  32  48  70  99 135 174 214 255 296
#     4   7  12  25  45  68  92 120 157 202 246 284
#     4   9  18  32  50  73 101 134 171 207 247 297
#     4  10  20  32  47  69  99 137 178 216 251 290
#     4  10  20  34  55  83 110 131 153 189 242 302
#     4   9  17  30  48  69  96 132 175 219 255 290
#     4   9  17  32  54  76  98 127 165 206 246 290
#
# _framework density 17.397918000000001
#
# number of rings (size 3 to 8) (size 9 to 14) (size 15 to 20)
#    0.000    2.714    0.000    4.286    0.000    4.571 
#    0.000    2.857    0.000    0.857    0.000   13.000 
#    0.000    0.000    0.000    0.000    0.000    0.000 
#
# Total GULP energy -156097.779196 kJ/mol
# GULP energy per Si atom -5574.920686 kJ/mol
# Density = 1.735832 g / cm^3
# Si number density = 17.397918 Si / 1000 Ang^3
#
#
#
# Elastic Constant Matrix: (Units=GPa)
#
#
# Indices 1 2 3 4 5 6 
#
# 1 75.1077 29.6924 68.3021 0.0000 -1.1484 0.0000
# 2 29.6924 41.8212 45.1866 0.0000 0.7063 0.0000
# 3 68.3021 45.1866 129.0660 0.0000 4.6978 0.0000
# 4 0.0000 0.0000 0.0000 18.8114 0.0000 2.2947
# 5 -1.1484 0.7063 4.6978 0.0000 28.6249 0.0000
# 6 0.0000 0.0000 0.0000 2.2947 0.0000 3.2114
#
#
#
# Elastic Compliance Matrix: (Units=1/GPa)
#
#
# Indices 1 2 3 4 5 6 
#
# 1 0.026835 -0.005848 -0.012272 0.000000 0.003235 0.000000
# 2 -0.005848 0.039780 -0.010853 0.000000 0.000565 0.000000
# 3 -0.012272 -0.010853 0.018158 0.000000 -0.003205 0.000000
# 4 0.000000 0.000000 0.000000 0.058235 0.000000 -0.041613
# 5 0.003235 0.000565 -0.003205 0.000000 0.035576 0.000000
# 6 0.000000 0.000000 0.000000 -0.041613 0.000000 0.341128
#
#
# Mechanical properties :
#
#
# Convention : Reuss Voigt Hill
#
# Bulk Modulus (GPa) = 37.27376 59.15079 48.21228
# Shear Modulus (GPa) = 8.52366 16.98379 12.75373
#
# Velocity S-wave (km/s) = 2.21582 3.12780 2.71045
# Velocity P-wave (km/s) = 5.29314 6.86417 6.12920
#
# Compressibility (1/GPa) = 0.02682853
#
# Stress axis : x y z
#
# Youngs Moduli (GPa) = 37.26434 25.13817 55.07081
#
# Poissons Ratio (x) = 0.14701 0.67581
# Poissons Ratio (y) = 0.21793 0.59768
# Poissons Ratio (z) = 0.45729 0.27282
#
# Static dielectric constant tensor:
#      x y z
#    x 1.584900 0.000000 -0.006150 
#    y 0.000000 1.585960 0.000000 
#    z -0.006150 0.000000 1.612150 
# 
# From -- ./inp_files/54977.got.cif
#   From: 2010.05.17/outbox.cif.g08.bks.cpg/sg10_28_cif.got.tgz:54977.got - 2010.06.03 11:33:40.
