data_PCOD9148866
_publ_section_title
;
Structure prediction by ZEFSAII (Michael W. Deem and Ramdas Pophale) SiO2 
 PCOD9148866
Probable space group: P 2/M
;
_chemical_formula_sum "Si O2"
_cell_formula_units_Z 26
_cell_length_a 16.809507
_cell_length_b 7.831567
_cell_length_c 16.079445
_cell_angle_alpha 90.000000
_cell_angle_beta 36.342839
_cell_angle_gamma 90.000000
_cell_volume 1254.433870
_symmetry_space_group_name_H-M "P 2/M"
_symmetry_group_IT_number 10
_symmetry_cell_setting 'monoclinic'
loop_
_space_group_symop_operation_xyz
x,y,z
-x,y,-z
-x,-y,-z
x,-y,z
loop_
_atom_site_type_symbol
_atom_site_label
_atom_site_fract_x
_atom_site_fract_y
_atom_site_fract_z
Si Si1 0.279941 0.691652 0.457362
Si Si2 0.371046 0.206461 0.554459
Si Si3 0.730803 0.694714 0.050071
Si Si4 0.970398 0.693483 0.718523
Si Si5 0.845192 0.792954 0.130427
Si Si6 0.392618 0.000000 0.942290
Si Si7 0.147161 0.000000 0.278494
Si Si8 0.689482 0.000000 0.695162
O O1 0.298469 0.500000 0.409397
O O2 0.369059 0.719854 0.463918
O O3 0.124167 0.711274 0.616036
O O4 0.301167 0.834451 0.370789
O O5 0.500000 0.256433 0.500000
O O6 0.238397 0.257489 0.717698
O O7 0.371619 0.000000 0.546581
O O8 0.684499 0.500000 0.077514
O O9 0.868788 0.717829 0.880965
O O10 0.767468 0.728551 0.114537
O O11 0.631044 0.834561 0.096059
O O12 0.950825 0.500000 0.703849
O O13 0.935284 0.833071 0.678993
O O14 0.845099 0.000000 0.126780
O O15 0.000000 0.735395 0.000000
O O16 0.539325 0.000000 0.857602
O O17 0.278824 0.000000 0.108440
O O18 0.197653 0.000000 0.329678
#
# Coordination Sequence:
#
# PCOD9148866 Si02
#       8
#     4   4   4   4   4   2   2   2
#     4  11  24  41  63  91 124 165 202 248 308 364
#     4  10  22  38  58  83 124 168 208 255 302 354
#     4  10  20  36  62  89 117 161 206 250 304 358
#     4   9  20  39  63  94 127 153 198 255 304 367
#     4  10  20  33  55  87 121 160 208 259 304 352
#     4  10  23  42  62  86 124 153 198 255 300 359
#     4  10  22  42  69  92 115 161 198 243 325 368
#     4  12  26  42  63  91 124 157 205 254 297 378
#
# _framework density 20.726481
#
# number of rings (size 3 to 8) (size 9 to 14) (size 15 to 20)
#    0.000    1.846    1.538    1.615    2.154    3.692 
#    0.000    1.538    0.000    4.615    0.000    0.000 
#    0.000    0.000    0.000    0.000    0.000    0.000 
#
# Total GULP energy -145388.412228 kJ/mol
# GULP energy per Si atom -5591.862009 kJ/mol
# Density = 2.067931 g / cm^3
# Si number density = 20.726481 Si / 1000 Ang^3
#
#
#
# Elastic Constant Matrix: (Units=GPa)
#
#
# Indices 1 2 3 4 5 6 
#
# 1 113.3344 42.0103 8.3555 0.0000 17.2605 0.0000
# 2 42.0103 88.0519 19.5600 0.0000 13.7448 0.0000
# 3 8.3555 19.5600 39.1125 0.0000 1.4361 0.0000
# 4 0.0000 0.0000 0.0000 -1.1390 0.0000 -10.6155
# 5 17.2605 13.7448 1.4361 0.0000 29.5179 0.0000
# 6 0.0000 0.0000 0.0000 -10.6155 0.0000 -11.2792
#
#
#
# Elastic Compliance Matrix: (Units=1/GPa)
#
#
# Indices 1 2 3 4 5 6 
#
# 1 0.011223 -0.004695 0.000111 0.000000 -0.004382 0.000000
# 2 -0.004695 0.015755 -0.006720 0.000000 -0.004264 0.000000
# 3 0.000111 -0.006720 0.028843 0.000000 0.001660 0.000000
# 4 0.000000 0.000000 0.000000 0.112972 0.000000 -0.106324
# 5 -0.004382 -0.004264 0.001660 0.000000 0.038345 0.000000
# 6 0.000000 0.000000 0.000000 -0.106324 0.000000 0.011408
#
#
# Mechanical properties :
#
#
# Convention : Reuss Voigt Hill
#
# Bulk Modulus (GPa) = 30.10744 42.26118 36.18431
# Shear Modulus (GPa) = 19.82361 14.79145 17.30753
#
# Velocity S-wave (km/s) = 3.09599 2.67432 2.89285
# Velocity P-wave (km/s) = 5.22856 5.47450 5.35294
#
# Compressibility (1/GPa) = 0.03321438
#
# Stress axis : x y z
#
# Youngs Moduli (GPa) = 89.10270 63.47018 34.67050
#
# Poissons Ratio (x) = 0.29802 -0.00387
# Poissons Ratio (y) = 0.41837 0.23297
# Poissons Ratio (z) = -0.00993 0.42650
#
# Static dielectric constant tensor:
#      x y z
#    x 1.680540 0.000000 -0.021620 
#    y 0.000000 1.732320 0.000000 
#    z -0.021620 0.000000 1.761710 
# 
# From -- ./inp_files/66832.got.cif
#   From: 2010.05.17/outbox.cif.g08.bks.cpg/sg10_34_cif.got.tgz:66832.got - 2010.06.03 11:33:40.
