data_PCOD9148058
_publ_section_title
;
Structure prediction by ZEFSAII (Michael W. Deem and Ramdas Pophale) SiO2 
 PCOD9148058
Probable space group: P 2/M
;
_chemical_formula_sum "Si O2"
_cell_formula_units_Z 28
_cell_length_a 16.061896
_cell_length_b 11.805175
_cell_length_c 9.997388
_cell_angle_alpha 90.000000
_cell_angle_beta 126.229509
_cell_angle_gamma 90.000000
_cell_volume 1529.129155
_symmetry_space_group_name_H-M "P 2/M"
_symmetry_group_IT_number 10
_symmetry_cell_setting 'monoclinic'
loop_
_space_group_symop_operation_xyz
x,y,z
-x,y,-z
-x,-y,-z
x,-y,z
loop_
_atom_site_type_symbol
_atom_site_label
_atom_site_fract_x
_atom_site_fract_y
_atom_site_fract_z
Si Si1 0.767553 0.242737 0.774633
Si Si2 0.418051 0.626492 0.539723
Si Si3 0.472749 0.000000 0.696857
Si Si4 0.773007 0.367209 0.334412
Si Si5 0.327975 0.000000 0.296644
Si Si6 0.435695 0.238058 0.804801
Si Si7 0.159594 0.367155 0.903411
Si Si8 0.918290 0.368618 0.730509
O O1 0.675077 0.296323 0.599428
O O2 0.742499 0.111268 0.766836
O O3 0.868928 0.282783 0.790090
O O4 0.774177 0.297209 0.927698
O O5 0.500000 0.622820 0.500000
O O6 0.378918 0.500000 0.529959
O O7 0.471336 0.679110 0.719828
O O8 0.398388 0.000000 0.497014
O O9 0.589616 0.000000 0.748048
O O10 0.448645 0.111641 0.760306
O O11 0.738521 0.500000 0.299616
O O12 0.680245 0.281568 0.277757
O O13 0.817557 0.341781 0.229802
O O14 0.857455 0.358206 0.532191
O O15 0.500000 0.251161 0.000000
O O16 0.181535 0.500000 0.945515
O O17 0.038795 0.348964 0.819722
O O18 0.904947 0.500000 0.764785
#
# Coordination Sequence:
#
# PCOD9148058 Si02
#       8
#     4   4   2   4   2   4   4   4
#     4  12  22  39  61  90 117 156 205 252 302 354
#     4  11  23  38  60  89 125 161 193 243 310 373
#     4  11  23  46  62  85 112 165 219 252 289 362
#     4  10  21  38  60  90 128 163 195 241 304 365
#     4  11  24  40  69  83 115 162 208 258 303 351
#     4  12  25  40  62  90 123 160 207 254 301 357
#     4  10  22  37  61  93 125 160 198 247 302 364
#     4  10  19  38  64  90 123 161 201 244 299 366
#
# _framework density 18.311077000000001
#
# number of rings (size 3 to 8) (size 9 to 14) (size 15 to 20)
#    0.000    1.143    2.857    3.643    4.000    4.000 
#    0.000    1.429    0.000    0.000    0.000    4.000 
#    0.000    0.000    0.000    0.000    0.000    0.000 
#
# Total GULP energy -156453.183823 kJ/mol
# GULP energy per Si atom -5587.613708 kJ/mol
# Density = 1.826940 g / cm^3
# Si number density = 18.311077 Si / 1000 Ang^3
#
#
#
# Elastic Constant Matrix: (Units=GPa)
#
#
# Indices 1 2 3 4 5 6 
#
# 1 97.4261 59.4845 30.4036 0.0000 -21.9032 0.0000
# 2 59.4845 138.2005 53.2013 0.0000 -10.8747 0.0000
# 3 30.4036 53.2013 110.4261 0.0000 -15.5371 0.0000
# 4 0.0000 0.0000 0.0000 41.7414 0.0000 17.9896
# 5 -21.9032 -10.8747 -15.5371 0.0000 25.0258 0.0000
# 6 0.0000 0.0000 0.0000 17.9896 0.0000 48.6357
#
#
#
# Elastic Compliance Matrix: (Units=1/GPa)
#
#
# Indices 1 2 3 4 5 6 
#
# 1 0.016794 -0.006327 0.000116 0.000000 0.012021 0.000000
# 2 -0.006327 0.011307 -0.004156 0.000000 -0.003205 0.000000
# 3 0.000116 -0.004156 0.011819 0.000000 0.005633 0.000000
# 4 0.000000 0.000000 0.000000 0.028500 0.000000 -0.010542
# 5 0.012021 -0.003205 0.005633 0.000000 0.052584 0.000000
# 6 0.000000 0.000000 0.000000 -0.010542 0.000000 0.024460
#
#
# Mechanical properties :
#
#
# Convention : Reuss Voigt Hill
#
# Bulk Modulus (GPa) = 52.12589 70.24795 61.18692
# Shear Modulus (GPa) = 28.96965 36.61147 32.79056
#
# Velocity S-wave (km/s) = 3.98186 4.47633 4.23632
# Velocity P-wave (km/s) = 7.04762 8.07240 7.57735
#
# Compressibility (1/GPa) = 0.01918432
#
# Stress axis : x y z
#
# Youngs Moduli (GPa) = 59.54667 88.44070 84.60960
#
# Poissons Ratio (x) = 0.55956 -0.00980
# Poissons Ratio (y) = 0.37675 0.35167
# Poissons Ratio (z) = -0.00690 0.36760
#
# Static dielectric constant tensor:
#      x y z
#    x 1.645630 0.000000 -0.014870 
#    y 0.000000 1.612270 0.000000 
#    z -0.014870 0.000000 1.620230 
# 
# From -- ./inp_files/28717.got.cif
#   From: 2010.05.17/outbox.cif.g08.bks.cpg/sg10_15_cif.got.tgz:28717.got - 2010.06.03 11:33:40.
