data_PCOD9148938
_publ_section_title
;
Structure prediction by ZEFSAII (Michael W. Deem and Ramdas Pophale) SiO2 
 PCOD9148938
Probable space group: P 2/M
;
_chemical_formula_sum "Si O2"
_cell_formula_units_Z 32
_cell_length_a 10.556802
_cell_length_b 7.788709
_cell_length_c 24.308069
_cell_angle_alpha 90.000000
_cell_angle_beta 123.582748
_cell_angle_gamma 90.000000
_cell_volume 1665.095341
_symmetry_space_group_name_H-M "P 2/M"
_symmetry_group_IT_number 10
_symmetry_cell_setting 'monoclinic'
loop_
_space_group_symop_operation_xyz
x,y,z
-x,y,-z
-x,-y,-z
x,-y,z
loop_
_atom_site_type_symbol
_atom_site_label
_atom_site_fract_x
_atom_site_fract_y
_atom_site_fract_z
Si Si1 0.328695 0.207192 0.465940
Si Si2 0.032163 0.795267 0.922314
Si Si3 0.885394 0.703914 0.181611
Si Si4 0.754569 0.789632 0.928225
Si Si5 0.587175 0.792947 0.174126
Si Si6 0.176250 0.789484 0.542495
Si Si7 0.249068 0.799141 0.677984
Si Si8 0.954339 0.704548 0.670493
O O1 0.500000 0.270194 0.500000
O O2 0.257555 0.267911 0.506473
O O3 0.214703 0.255728 0.389630
O O4 0.332591 0.000000 0.468902
O O5 0.067622 0.760052 0.867704
O O6 0.869463 0.734715 0.907012
O O7 0.029193 0.000000 0.928208
O O8 0.164012 0.733249 0.995626
O O9 0.893990 0.500000 0.184128
O O10 0.715051 0.752988 0.159376
O O11 0.996655 0.768253 0.257188
O O12 0.581815 0.729981 0.879843
O O13 0.749500 0.000000 0.927153
O O14 0.650209 0.725313 0.248022
O O15 0.581160 0.000000 0.176387
O O16 0.254742 0.728008 0.617770
O O17 0.000000 0.737325 0.500000
O O18 0.177924 0.000000 0.543665
O O19 0.074999 0.784965 0.656929
O O20 0.288785 0.000000 0.683611
O O21 0.977051 0.500000 0.674048
#
# Coordination Sequence:
#
# PCOD9148938 Si02
#       8
#     4   4   4   4   4   4   4   4
#     4  10  20  34  51  74 101 128 162 204 247 294
#     4   9  17  33  55  75 101 136 169 204 250 305
#     4  10  21  35  50  73 103 134 171 210 248 296
#     4   8  16  32  53  78 104 129 164 211 256 297
#     4   9  17  31  52  76 100 129 167 209 253 300
#     4   9  15  27  49  72  96 123 154 198 244 284
#     4   9  16  29  51  73  95 126 164 203 248 294
#     4  10  20  34  51  69  98 134 165 202 247 291
#
# _framework density 19.218119999999999
#
# number of rings (size 3 to 8) (size 9 to 14) (size 15 to 20)
#    0.000    2.750    1.250    1.500    0.000    2.250 
#    2.250    6.250    0.000    0.000    0.000    0.000 
#    0.000    0.000    0.000    0.000    0.000    0.000 
#
# Total GULP energy -178417.009119 kJ/mol
# GULP energy per Si atom -5575.531535 kJ/mol
# Density = 1.917438 g / cm^3
# Si number density = 19.218120 Si / 1000 Ang^3
#
#
#
# Elastic Constant Matrix: (Units=GPa)
#
#
# Indices 1 2 3 4 5 6 
#
# 1 142.3106 -2.9999 108.0137 0.0000 -4.0629 0.0000
# 2 -2.9999 19.2561 -1.9608 0.0000 -4.5172 0.0000
# 3 108.0137 -1.9608 142.9804 0.0000 -4.7218 0.0000
# 4 0.0000 0.0000 0.0000 4.8201 0.0000 10.3349
# 5 -4.0629 -4.5172 -4.7218 0.0000 32.7652 0.0000
# 6 0.0000 0.0000 0.0000 10.3349 0.0000 -43.2019
#
#
#
# Elastic Compliance Matrix: (Units=1/GPa)
#
#
# Indices 1 2 3 4 5 6 
#
# 1 0.016510 0.001411 -0.012438 0.000000 0.000449 0.000000
# 2 0.001411 0.053926 -0.000075 0.000000 0.007599 0.000000
# 3 -0.012438 -0.000075 0.016416 0.000000 0.000813 0.000000
# 4 0.000000 0.000000 0.000000 0.137128 0.000000 0.032804
# 5 0.000449 0.007599 0.000813 0.000000 0.031741 0.000000
# 6 0.000000 0.000000 0.000000 0.032804 0.000000 -0.015300
#
#
# Mechanical properties :
#
#
# Convention : Reuss Voigt Hill
#
# Bulk Modulus (GPa) = 15.46859 56.73923 36.10391
# Shear Modulus (GPa) = 17.59472 12.30962 14.95217
#
# Velocity S-wave (km/s) = 3.02905 2.53360 2.79234
# Velocity P-wave (km/s) = 4.50555 6.17630 5.40586
#
# Compressibility (1/GPa) = 0.06464714
#
# Stress axis : x y z
#
# Youngs Moduli (GPa) = 60.56903 18.54382 60.91549
#
# Poissons Ratio (x) = -0.02616 0.75768
# Poissons Ratio (y) = -0.08546 0.00459
# Poissons Ratio (z) = 0.75337 0.00140
#
# Static dielectric constant tensor:
#      x y z
#    x 1.655640 0.000000 -0.013460 
#    y 0.000000 1.698000 0.000000 
#    z -0.013460 0.000000 1.699950 
# 
# From -- ./inp_files/52753.got.cif
#   From: 2010.05.17/outbox.cif.g08.bks.cpg/sg10_27_cif.got.tgz:52753.got - 2010.06.03 11:33:40.
