data_PCOD9148686
_publ_section_title
;
Structure prediction by ZEFSAII (Michael W. Deem and Ramdas Pophale) SiO2 
 PCOD9148686
Probable space group: P 2/M
;
_chemical_formula_sum "Si O2"
_cell_formula_units_Z 32
_cell_length_a 14.951068
_cell_length_b 8.958368
_cell_length_c 23.988276
_cell_angle_alpha 90.000000
_cell_angle_beta 31.531482
_cell_angle_gamma 90.000000
_cell_volume 1680.252005
_symmetry_space_group_name_H-M "P 2/M"
_symmetry_group_IT_number 10
_symmetry_cell_setting 'monoclinic'
loop_
_space_group_symop_operation_xyz
x,y,z
-x,y,-z
-x,-y,-z
x,-y,z
loop_
_atom_site_type_symbol
_atom_site_label
_atom_site_fract_x
_atom_site_fract_y
_atom_site_fract_z
Si Si1 0.419625 0.819032 0.102147
Si Si2 0.800682 0.180057 0.096231
Si Si3 0.935805 0.835388 0.674952
Si Si4 0.300389 0.328362 0.625467
Si Si5 0.612120 0.822923 0.311048
Si Si6 0.188196 0.168143 0.382829
Si Si7 0.478268 0.679104 0.832838
Si Si8 0.744595 0.676415 0.470782
O O1 0.216969 0.783708 0.204501
O O2 0.495358 0.741207 0.117750
O O3 0.434788 0.000000 0.101066
O O4 0.500000 0.777771 0.000000
O O5 0.703027 0.218503 0.205468
O O6 0.696621 0.259053 0.101773
O O7 0.791341 0.000000 0.092895
O O8 0.000000 0.218989 0.000000
O O9 0.838437 0.850525 0.668643
O O10 0.089846 0.723548 0.583887
O O11 0.001798 0.000000 0.655870
O O12 0.500000 0.326928 0.500000
O O13 0.253932 0.500000 0.661548
O O14 0.285575 0.234084 0.688989
O O15 0.212763 0.273469 0.615453
O O16 0.424358 0.752536 0.416247
O O17 0.597264 0.000000 0.321453
O O18 0.363593 0.261630 0.290766
O O19 0.000000 0.228132 0.500000
O O20 0.208518 0.000000 0.397479
O O21 0.481384 0.500000 0.832040
O O22 0.716318 0.500000 0.484183
#
# Coordination Sequence:
#
# PCOD9148686 Si02
#       8
#     4   4   4   4   4   4   4   4
#     4   9  19  40  66  87 113 154 198 239 286 341
#     4  10  23  44  64  82 111 153 203 251 295 349
#     4   9  18  32  52  83 113 142 186 234 273 322
#     4   8  16  32  50  71 105 146 178 211 270 341
#     4  10  20  34  57  82 103 138 189 243 288 330
#     4   9  19  36  58  83 116 156 195 234 280 340
#     4  11  23  38  60  91 123 154 190 241 302 355
#     4  10  20  33  51  78 116 154 179 216 283 352
#
# _framework density 19.044763
#
# number of rings (size 3 to 8) (size 9 to 14) (size 15 to 20)
#    0.000    2.500    0.000    3.375    1.750    6.500 
#    2.250    0.000    0.000    0.000    0.000    0.000 
#    0.000    0.000    0.000    0.000    0.000    0.000 
#
# Total GULP energy -178203.325229 kJ/mol
# GULP energy per Si atom -5568.853913 kJ/mol
# Density = 1.900142 g / cm^3
# Si number density = 19.044763 Si / 1000 Ang^3
#
#
#
# Elastic Constant Matrix: (Units=GPa)
#
#
# Indices 1 2 3 4 5 6 
#
# 1 83.9717 44.5621 42.9868 0.0000 -5.6623 0.0000
# 2 44.5621 60.6265 40.8055 0.0000 -1.7413 0.0000
# 3 42.9868 40.8055 112.6446 0.0000 1.9125 0.0000
# 4 0.0000 0.0000 0.0000 -0.9337 0.0000 1.9945
# 5 -5.6623 -1.7413 1.9125 0.0000 26.8555 0.0000
# 6 0.0000 0.0000 0.0000 1.9945 0.0000 10.8573
#
#
#
# Elastic Compliance Matrix: (Units=1/GPa)
#
#
# Indices 1 2 3 4 5 6 
#
# 1 0.020681 -0.012878 -0.003291 0.000000 0.003760 0.000000
# 2 -0.012878 0.029938 -0.005924 0.000000 -0.000352 0.000000
# 3 -0.003291 -0.005924 0.012313 0.000000 -0.001955 0.000000
# 4 0.000000 0.000000 0.000000 -0.769187 0.000000 0.141300
# 5 0.003760 -0.000352 -0.001955 0.000000 0.038145 0.000000
# 6 0.000000 0.000000 0.000000 0.141300 0.000000 0.066147
#
#
# Mechanical properties :
#
#
# Convention : Reuss Voigt Hill
#
# Bulk Modulus (GPa) = 53.34941 57.10573 55.22757
# Shear Modulus (GPa) = -9.06572 15.94839 3.44133
#
# Velocity S-wave (km/s) = -2.18416 2.89695 1.34569
# Velocity P-wave (km/s) = 4.65969 6.42183 5.61037
#
# Compressibility (1/GPa) = 0.01874435
#
# Stress axis : x y z
#
# Youngs Moduli (GPa) = 48.35307 33.40277 81.21722
#
# Poissons Ratio (x) = 0.43017 0.26728
# Poissons Ratio (y) = 0.62270 0.48116
# Poissons Ratio (z) = 0.15913 0.19789
#
# Static dielectric constant tensor:
#      x y z
#    x 1.724900 0.000000 -0.000130 
#    y 0.000000 1.667660 0.000000 
#    z -0.000130 0.000000 1.694270 
# 
# From -- ./inp_files/89491.got.cif
#   From: 2010.05.17/outbox.cif.g08.bks.cpg/sg10_45_cif.got.tgz:89491.got - 2010.06.03 11:33:40.
