data_PCOD9148611
_publ_section_title
;
Structure prediction by ZEFSAII (Michael W. Deem and Ramdas Pophale) SiO2 
 PCOD9148611
Probable space group: P 2/M
;
_chemical_formula_sum "Si O2"
_cell_formula_units_Z 32
_cell_length_a 15.914341
_cell_length_b 7.687738
_cell_length_c 23.560278
_cell_angle_alpha 90.000000
_cell_angle_beta 149.124517
_cell_angle_gamma 90.000000
_cell_volume 1479.218468
_symmetry_space_group_name_H-M "P 2/M"
_symmetry_group_IT_number 10
_symmetry_cell_setting 'monoclinic'
loop_
_space_group_symop_operation_xyz
x,y,z
-x,y,-z
-x,-y,-z
x,-y,z
loop_
_atom_site_type_symbol
_atom_site_label
_atom_site_fract_x
_atom_site_fract_y
_atom_site_fract_z
Si Si1 0.627527 0.710283 0.622395
Si Si2 0.001880 0.793824 0.814964
Si Si3 0.031825 0.204803 0.330675
Si Si4 0.617561 0.710739 0.428112
Si Si5 0.631146 0.704514 0.309362
Si Si6 0.801662 0.705136 0.295765
Si Si7 0.695602 0.788931 0.945495
Si Si8 0.512106 0.803090 0.947763
O O1 0.500000 0.768715 0.500000
O O2 0.629833 0.500000 0.622144
O O3 0.547507 0.766355 0.635697
O O4 0.811819 0.768415 0.718666
O O5 0.033231 0.725388 0.768263
O O6 0.033441 0.000000 0.829097
O O7 0.116430 0.734224 0.934385
O O8 0.225632 0.236806 0.444178
O O9 0.963200 0.277493 0.350921
O O10 0.998365 0.000000 0.312605
O O11 0.614579 0.500000 0.424466
O O12 0.640335 0.780660 0.377627
O O13 0.665407 0.500000 0.334818
O O14 0.762354 0.767046 0.337580
O O15 0.443000 0.724978 0.178571
O O16 0.761594 0.500000 0.272950
O O17 0.668168 0.806149 0.181783
O O18 0.622157 0.726806 0.963027
O O19 0.687721 0.000000 0.936028
O O20 0.575139 0.000000 0.993651
O O21 0.500000 0.709551 0.000000
#
# Coordination Sequence:
#
# PCOD9148611 Si02
#       8
#     4   4   4   4   4   4   4   4
#     4  10  20  36  59  85 109 136 175 221 274 327
#     4  10  21  36  56  83 114 143 175 219 273 326
#     4  11  22  35  54  82 112 143 182 222 271 326
#     4  10  21  39  59  79 108 142 178 224 275 323
#     4   9  20  38  57  77 106 147 187 221 263 317
#     4  10  20  33  50  75 107 143 184 224 264 312
#     4   9  18  33  53  77 106 142 180 221 265 313
#     4   9  16  29  49  71 102 141 180 222 270 318
#
# _framework density 21.633046
#
# number of rings (size 3 to 8) (size 9 to 14) (size 15 to 20)
#    0.000    2.250    1.250    1.500    0.000    5.500 
#    0.000    5.625    0.000    3.750    0.000    0.000 
#    0.000    0.000    0.000    0.000    0.000    0.000 
#
# Total GULP energy -178217.275016 kJ/mol
# GULP energy per Si atom -5569.289844 kJ/mol
# Density = 2.158381 g / cm^3
# Si number density = 21.633046 Si / 1000 Ang^3
#
#
#
# Elastic Constant Matrix: (Units=GPa)
#
#
# Indices 1 2 3 4 5 6 
#
# 1 91.1420 8.9718 10.2138 0.0000 3.4478 0.0000
# 2 8.9718 40.8598 -17.1785 0.0000 -2.2040 0.0000
# 3 10.2138 -17.1785 43.9608 0.0000 15.2700 0.0000
# 4 0.0000 0.0000 0.0000 20.8297 0.0000 7.8710
# 5 3.4478 -2.2040 15.2700 0.0000 34.1006 0.0000
# 6 0.0000 0.0000 0.0000 7.8710 0.0000 35.7166
#
#
#
# Elastic Compliance Matrix: (Units=1/GPa)
#
#
# Indices 1 2 3 4 5 6 
#
# 1 0.011938 -0.004603 -0.004796 0.000000 0.000643 0.000000
# 2 -0.004603 0.031488 0.014809 0.000000 -0.004131 0.000000
# 3 -0.004796 0.014809 0.034516 0.000000 -0.014014 0.000000
# 4 0.000000 0.000000 0.000000 0.052369 0.000000 -0.011541
# 5 0.000643 -0.004131 -0.014014 0.000000 0.035268 0.000000
# 6 0.000000 0.000000 0.000000 -0.011541 0.000000 0.030542
#
#
# Mechanical properties :
#
#
# Convention : Reuss Voigt Hill
#
# Bulk Modulus (GPa) = 11.26599 19.99740 15.63170
# Shear Modulus (GPa) = 23.26785 29.72640 26.49713
#
# Velocity S-wave (km/s) = 3.28315 3.71093 3.50358
# Velocity P-wave (km/s) = 4.42619 5.25598 4.85883
#
# Compressibility (1/GPa) = 0.08876270
#
# Stress axis : x y z
#
# Youngs Moduli (GPa) = 83.76555 31.75838 28.97168
#
# Poissons Ratio (x) = 0.14618 0.13894
# Poissons Ratio (y) = 0.38556 -0.42903
# Poissons Ratio (z) = 0.40171 -0.47030
#
# Static dielectric constant tensor:
#      x y z
#    x 1.875540 0.000000 0.054440 
#    y 0.000000 1.839110 0.000000 
#    z 0.054440 0.000000 1.881510 
# 
# From -- ./inp_files/71562.got.cif
#   From: 2010.05.17/outbox.cif.g08.bks.cpg/sg10_36_cif.got.tgz:71562.got - 2010.06.03 11:33:40.
