data_PCOD9148749
_publ_section_title
;
Structure prediction by ZEFSAII (Michael W. Deem and Ramdas Pophale) SiO2 
 PCOD9148749
Probable space group: P 2/M
;
_chemical_formula_sum "Si O2"
_cell_formula_units_Z 28
_cell_length_a 19.033869
_cell_length_b 9.062822
_cell_length_c 14.621428
_cell_angle_alpha 90.000000
_cell_angle_beta 139.763298
_cell_angle_gamma 90.000000
_cell_volume 1629.210053
_symmetry_space_group_name_H-M "P 2/M"
_symmetry_group_IT_number 10
_symmetry_cell_setting 'monoclinic'
loop_
_space_group_symop_operation_xyz
x,y,z
-x,y,-z
-x,-y,-z
x,-y,z
loop_
_atom_site_type_symbol
_atom_site_label
_atom_site_fract_x
_atom_site_fract_y
_atom_site_fract_z
Si Si1 0.130713 0.335608 0.121947
Si Si2 0.506192 0.676782 0.399054
Si Si3 0.485767 0.825598 0.091341
Si Si4 0.324242 0.325047 0.068786
Si Si5 0.670733 0.826306 0.422338
Si Si6 0.120966 0.323789 0.318134
Si Si7 0.885990 0.825652 0.077381
O O1 0.173514 0.500000 0.140484
O O2 0.163585 0.294323 0.256632
O O3 0.149338 0.220247 0.060843
O O4 0.000000 0.348207 0.000000
O O5 0.500000 0.718437 0.500000
O O6 0.526091 0.500000 0.414859
O O7 0.395448 0.706214 0.231666
O O8 0.600201 0.758628 0.435669
O O9 0.396235 0.731930 0.056145
O O10 0.596802 0.807397 0.258918
O O11 0.456851 0.000000 0.067003
O O12 0.500000 0.784263 0.000000
O O13 0.307576 0.500000 0.047955
O O14 0.209753 0.242030 0.957249
O O15 0.785281 0.743901 0.526710
O O16 0.688299 0.000000 0.455382
O O17 0.110273 0.500000 0.316344
O O18 0.003076 0.249547 0.211356
O O19 0.894859 0.000000 0.095184
#
# Coordination Sequence:
#
# PCOD9148749 Si02
#       7
#     4   4   4   4   4   4   4
#     4   8  16  30  45  63  92 137 183 215 248 295
#     4   9  19  34  50  70 100 143 181 211 255 310
#     4   9  19  38  61  82 106 135 168 213 270 325
#     4  10  20  34  53  78 107 138 178 218 259 314
#     4  10  20  33  52  80 107 133 173 219 263 311
#     4  10  20  34  51  71 103 144 182 217 259 310
#     4  11  21  32  49  74 106 140 179 222 263 305
#
# _framework density 17.186243999999999
#
# number of rings (size 3 to 8) (size 9 to 14) (size 15 to 20)
#    0.000    2.429    0.000    3.429    2.000    4.857 
#    0.000    0.000    0.000    0.857    0.000    6.000 
#    0.000    0.000    0.000    0.000    0.000    0.000 
#
# Total GULP energy -156168.894944 kJ/mol
# GULP energy per Si atom -5577.460534 kJ/mol
# Density = 1.714713 g / cm^3
# Si number density = 17.186244 Si / 1000 Ang^3
#
#
#
# Elastic Constant Matrix: (Units=GPa)
#
#
# Indices 1 2 3 4 5 6 
#
# 1 90.1588 60.3897 59.8646 0.0000 0.4014 0.0000
# 2 60.3897 90.5339 58.7868 0.0000 16.7130 0.0000
# 3 59.8646 58.7868 78.9992 0.0000 12.1281 0.0000
# 4 0.0000 0.0000 0.0000 30.5665 0.0000 7.5852
# 5 0.4014 16.7130 12.1281 0.0000 31.0171 0.0000
# 6 0.0000 0.0000 0.0000 7.5852 0.0000 27.4730
#
#
#
# Elastic Compliance Matrix: (Units=1/GPa)
#
#
# Indices 1 2 3 4 5 6 
#
# 1 0.028754 -0.011666 -0.014912 0.000000 0.011744 0.000000
# 2 -0.011666 0.027074 -0.009671 0.000000 -0.010656 0.000000
# 3 -0.014912 -0.009671 0.032262 0.000000 -0.007211 0.000000
# 4 0.000000 0.000000 0.000000 0.035122 0.000000 -0.009697
# 5 0.011744 -0.010656 -0.007211 0.000000 0.040650 0.000000
# 6 0.000000 0.000000 0.000000 -0.009697 0.000000 0.039077
#
#
# Mechanical properties :
#
#
# Convention : Reuss Voigt Hill
#
# Bulk Modulus (GPa) = 64.12945 68.64158 66.38551
# Shear Modulus (GPa) = 17.81692 23.18805 20.50248
#
# Velocity S-wave (km/s) = 3.22327 3.67716 3.45767
# Velocity P-wave (km/s) = 7.15877 7.61940 7.39267
#
# Compressibility (1/GPa) = 0.01559346
#
# Stress axis : x y z
#
# Youngs Moduli (GPa) = 34.77733 36.93628 30.99642
#
# Poissons Ratio (x) = 0.43088 0.46221
# Poissons Ratio (y) = 0.40570 0.29976
# Poissons Ratio (z) = 0.51859 0.35720
#
# Static dielectric constant tensor:
#      x y z
#    x 1.570830 0.000000 0.005140 
#    y 0.000000 1.574270 0.000000 
#    z 0.005140 0.000000 1.606590 
# 
# From -- ./inp_files/68682.got.cif
#   From: 2010.05.17/outbox.cif.g08.bks.cpg/sg10_35_cif.got.tgz:68682.got - 2010.06.03 11:33:40.
