data_PCOD9148352
_publ_section_title
;
Structure prediction by ZEFSAII (Michael W. Deem and Ramdas Pophale) SiO2 
 PCOD9148352
Probable space group: P 2/M
;
_chemical_formula_sum "Si O2"
_cell_formula_units_Z 32
_cell_length_a 23.246847
_cell_length_b 7.703773
_cell_length_c 28.502001
_cell_angle_alpha 90.000000
_cell_angle_beta 162.276646
_cell_angle_gamma 90.000000
_cell_volume 1553.881819
_symmetry_space_group_name_H-M "P 2/M"
_symmetry_group_IT_number 10
_symmetry_cell_setting 'monoclinic'
loop_
_space_group_symop_operation_xyz
x,y,z
-x,y,-z
-x,-y,-z
x,-y,z
loop_
_atom_site_type_symbol
_atom_site_label
_atom_site_fract_x
_atom_site_fract_y
_atom_site_fract_z
Si Si1 0.208647 0.710217 0.150843
Si Si2 0.510802 0.291013 0.708298
Si Si3 0.179745 0.297290 0.382978
Si Si4 0.541677 0.795069 0.480615
Si Si5 0.236361 0.203668 0.915550
Si Si6 0.288563 0.787537 0.850352
Si Si7 0.451695 0.208240 0.769950
Si Si8 0.034180 0.787543 0.472912
O O1 0.201879 0.500000 0.144903
O O2 0.303078 0.768312 0.175295
O O3 0.356503 0.763484 0.305518
O O4 0.000000 0.775357 0.000000
O O5 0.506347 0.500000 0.701371
O O6 0.327455 0.226010 0.536709
O O7 0.505900 0.243890 0.758520
O O8 0.154386 0.500000 0.372893
O O9 0.283674 0.278464 0.413687
O O10 0.973442 0.217467 0.226612
O O11 0.500000 0.723453 0.500000
O O12 0.576807 0.000000 0.512104
O O13 0.243913 0.273935 0.868419
O O14 0.280962 0.000000 0.945341
O O15 0.393264 0.277459 0.072873
O O16 0.131042 0.730125 0.690643
O O17 0.283453 0.000000 0.845944
O O18 0.500000 0.736352 0.000000
O O19 0.240356 0.272074 0.616306
O O20 0.445826 0.000000 0.770601
O O21 0.000000 0.734660 0.500000
O O22 0.033180 0.000000 0.471491
#
# Coordination Sequence:
#
# PCOD9148352 Si02
#       8
#     4   4   4   4   4   4   4   4
#     4   9  19  36  56  78 105 139 179 217 255 306
#     4   9  19  35  53  74 100 132 172 215 255 301
#     4  10  21  37  56  76 100 136 179 216 258 314
#     4  10  21  36  55  81 110 137 170 215 265 314
#     4  10  20  33  50  76 108 137 172 218 263 310
#     4   9  16  27  46  72 103 139 175 214 261 309
#     4  10  20  32  49  75 104 135 170 210 258 310
#     4   9  16  27  45  70 100 133 171 213 255 302
#
# _framework density 20.593586999999999
#
# number of rings (size 3 to 8) (size 9 to 14) (size 15 to 20)
#    0.000    2.500    0.000    3.000    0.000    9.250 
#    0.000    2.500    0.000    0.750    0.000    0.000 
#    0.000    0.000    0.000    0.000    0.000    0.000 
#
# Total GULP energy -178635.990361 kJ/mol
# GULP energy per Si atom -5582.374699 kJ/mol
# Density = 2.054671 g / cm^3
# Si number density = 20.593587 Si / 1000 Ang^3
#
#
#
# Elastic Constant Matrix: (Units=GPa)
#
#
# Indices 1 2 3 4 5 6 
#
# 1 174.9030 -2.8492 89.5477 0.0000 -24.6024 0.0000
# 2 -2.8492 29.4275 2.5013 0.0000 -2.0532 0.0000
# 3 89.5477 2.5013 155.0905 0.0000 -10.5420 0.0000
# 4 0.0000 0.0000 0.0000 -181.6174 0.0000 -293.1307
# 5 -24.6024 -2.0532 -10.5420 0.0000 18.4432 0.0000
# 6 0.0000 0.0000 0.0000 -293.1307 0.0000 -402.0220
#
#
#
# Elastic Compliance Matrix: (Units=1/GPa)
#
#
# Indices 1 2 3 4 5 6 
#
# 1 0.009755 0.002092 -0.004958 0.000000 0.010411 0.000000
# 2 0.002092 0.034710 -0.001369 0.000000 0.005873 0.000000
# 3 -0.004958 -0.001369 0.009231 0.000000 -0.001490 0.000000
# 4 0.000000 0.000000 0.000000 0.031137 0.000000 -0.022703
# 5 0.010411 0.005873 -0.001490 0.000000 0.067911 0.000000
# 6 0.000000 0.000000 0.000000 -0.022703 0.000000 0.014066
#
#
# Mechanical properties :
#
#
# Convention : Reuss Voigt Hill
#
# Bulk Modulus (GPa) = 22.11059 59.75785 40.93422
# Shear Modulus (GPa) = 26.26668 -95.02448 -34.37890
#
# Velocity S-wave (km/s) = 3.57526 -6.80022 -4.09026
# Velocity P-wave (km/s) = 5.27288 5.70759 1.54488
#
# Compressibility (1/GPa) = 0.04522719
#
# Stress axis : x y z
#
# Youngs Moduli (GPa) = 102.51663 28.80978 108.32486
#
# Poissons Ratio (x) = -0.06028 0.53710
# Poissons Ratio (y) = -0.21449 0.14826
# Poissons Ratio (z) = 0.50830 0.03943
#
# Static dielectric constant tensor:
#      x y z
#    x 1.717910 0.000000 0.001260 
#    y 0.000000 1.764240 0.000000 
#    z 0.001260 0.000000 1.706150 
# 
# From -- ./inp_files/93712.got.cif
#   From: 2010.05.17/outbox.cif.g08.bks.cpg/sg10_47_cif.got.tgz:93712.got - 2010.06.03 11:33:40.
