data_PCOD9148640
_publ_section_title
;
Structure prediction by ZEFSAII (Michael W. Deem and Ramdas Pophale) SiO2 
 PCOD9148640
Probable space group: P 2/M
;
_chemical_formula_sum "Si O2"
_cell_formula_units_Z 32
_cell_length_a 23.256268
_cell_length_b 7.322056
_cell_length_c 8.215982
_cell_angle_alpha 90.000000
_cell_angle_beta 98.585046
_cell_angle_gamma 90.000000
_cell_volume 1383.371982
_symmetry_space_group_name_H-M "P 2/M"
_symmetry_group_IT_number 10
_symmetry_cell_setting 'monoclinic'
loop_
_space_group_symop_operation_xyz
x,y,z
-x,y,-z
-x,-y,-z
x,-y,z
loop_
_atom_site_type_symbol
_atom_site_label
_atom_site_fract_x
_atom_site_fract_y
_atom_site_fract_z
Si Si1 0.564514 0.277764 0.589773
Si Si2 0.159321 0.222176 0.367910
Si Si3 0.055609 0.794187 0.948048
Si Si4 0.030086 0.206655 0.368985
Si Si5 0.564487 0.722090 0.965247
Si Si6 0.637699 0.718589 0.308824
Si Si7 0.229325 0.784253 0.707715
Si Si8 0.187201 0.222175 0.032561
O O1 0.500000 0.227740 0.500000
O O2 0.566441 0.500000 0.595183
O O3 0.574680 0.217686 0.781870
O O4 0.608384 0.216450 0.465232
O O5 0.091049 0.277048 0.323070
O O6 0.185412 0.286452 0.550444
O O7 0.162902 0.000000 0.366933
O O8 0.195534 0.282460 0.223113
O O9 0.120125 0.724931 0.970188
O O10 0.027206 0.815581 0.762977
O O11 0.060031 0.000000 0.028483
O O12 0.000000 0.694238 0.000000
O O13 0.000000 0.313159 0.500000
O O14 0.047541 0.000000 0.427765
O O15 0.566877 0.500000 0.961763
O O16 0.500000 0.771551 0.000000
O O17 0.607703 0.783955 0.127667
O O18 0.629604 0.500000 0.305715
O O19 0.705626 0.758976 0.328085
O O20 0.222685 0.713011 0.890066
O O21 0.216987 0.000000 0.713651
O O22 0.191483 0.000000 0.036207
#
# Coordination Sequence:
#
# PCOD9148640 Si02
#       8
#     4   4   4   4   4   4   4   4
#     4   9  15  26  48  78 104 122 145 186 238 280
#     4   9  16  27  41  58  85 124 162 193 231 283
#     4   9  13  19  33  55  82 110 142 186 240 288
#     4   9  14  19  31  53  81 112 146 187 238 289
#     4   9  15  26  48  78 104 122 147 189 239 282
#     4  10  20  33  51  75 100 125 157 196 232 271
#     4  10  21  34  47  65  94 132 169 194 221 275
#     4   9  16  27  42  60  88 126 160 192 238 288
#
# _framework density 23.131882999999998
#
# number of rings (size 3 to 8) (size 9 to 14) (size 15 to 20)
#    0.000    2.750    2.500    0.750    0.000    4.000 
#    0.000    0.000    0.000    0.750    0.000    0.000 
#    0.000    5.000    0.000    0.125    0.000    0.000 
#
# Total GULP energy -178151.195149 kJ/mol
# GULP energy per Si atom -5567.224848 kJ/mol
# Density = 2.307923 g / cm^3
# Si number density = 23.131883 Si / 1000 Ang^3
#
#
#
# Elastic Constant Matrix: (Units=GPa)
#
#
# Indices 1 2 3 4 5 6 
#
# 1 54.0797 -13.3502 16.6399 0.0000 -27.0536 0.0000
# 2 -13.3502 91.9792 6.6841 0.0000 -4.2700 0.0000
# 3 16.6399 6.6841 151.7908 0.0000 -33.8208 0.0000
# 4 0.0000 0.0000 0.0000 -30.4481 0.0000 -0.9102
# 5 -27.0536 -4.2700 -33.8208 0.0000 48.7646 0.0000
# 6 0.0000 0.0000 0.0000 -0.9102 0.0000 1.6106
#
#
#
# Elastic Compliance Matrix: (Units=1/GPa)
#
#
# Indices 1 2 3 4 5 6 
#
# 1 0.027505 0.004707 0.000319 0.000000 0.015893 0.000000
# 2 0.004707 0.011735 -0.000263 0.000000 0.003457 0.000000
# 3 0.000319 -0.000263 0.007805 0.000000 0.005567 0.000000
# 4 0.000000 0.000000 0.000000 -0.032297 0.000000 -0.018251
# 5 0.015893 0.003457 0.005567 0.000000 0.033487 0.000000
# 6 0.000000 0.000000 0.000000 -0.018251 0.000000 0.610566
#
#
# Mechanical properties :
#
#
# Convention : Reuss Voigt Hill
#
# Bulk Modulus (GPa) = 17.67692 35.31083 26.49388
# Shear Modulus (GPa) = 7.48354 23.17714 15.33034
#
# Velocity S-wave (km/s) = 1.80061 3.16880 2.57716
# Velocity P-wave (km/s) = 3.46140 5.35598 4.50932
#
# Compressibility (1/GPa) = 0.05657094
#
# Stress axis : x y z
#
# Youngs Moduli (GPa) = 36.35645 85.21704 128.12245
#
# Poissons Ratio (x) = -0.40111 -0.04081
# Poissons Ratio (y) = -0.17113 0.03363
# Poissons Ratio (z) = -0.01158 0.02237
#
# Static dielectric constant tensor:
#      x y z
#    x 1.834140 0.000000 -0.104650 
#    y 0.000000 1.946380 0.000000 
#    z -0.104650 0.000000 2.286730 
# 
# From -- ./inp_files/34432.got.cif
#   From: 2010.05.17/outbox.cif.g08.bks.cpg/sg10_18_cif.got.tgz:34432.got - 2010.06.03 11:33:40.
