data_PCOD9148534
_publ_section_title
;
Structure prediction by ZEFSAII (Michael W. Deem and Ramdas Pophale) SiO2 
 PCOD9148534
Probable space group: P 2/M
;
_chemical_formula_sum "Si O2"
_cell_formula_units_Z 24
_cell_length_a 24.870532
_cell_length_b 7.535013
_cell_length_c 18.730938
_cell_angle_alpha 90.000000
_cell_angle_beta 19.146710
_cell_angle_gamma 90.000000
_cell_volume 1151.295389
_symmetry_space_group_name_H-M "P 2/M"
_symmetry_group_IT_number 10
_symmetry_cell_setting 'monoclinic'
loop_
_space_group_symop_operation_xyz
x,y,z
-x,y,-z
-x,-y,-z
x,-y,z
loop_
_atom_site_type_symbol
_atom_site_label
_atom_site_fract_x
_atom_site_fract_y
_atom_site_fract_z
Si Si1 0.158749 0.286022 0.520751
Si Si2 0.501874 0.788140 0.656232
Si Si3 0.818082 0.788133 0.023796
Si Si4 0.482195 0.713984 0.197321
Si Si5 0.327588 0.705070 0.172404
Si Si6 0.162830 0.782459 0.837178
O O1 0.171803 0.500000 0.500961
O O2 0.305011 0.224182 0.389957
O O3 0.198921 0.217719 0.390418
O O4 0.982204 0.242995 0.772982
O O5 0.492648 0.756999 0.752142
O O6 0.672712 0.722126 0.409159
O O7 0.503668 0.000000 0.643498
O O8 0.342855 0.717333 0.814299
O O9 0.798008 0.000000 0.054806
O O10 0.836485 0.722134 0.081621
O O11 0.482614 0.500000 0.190167
O O12 0.622360 0.782279 0.967000
O O13 0.278982 0.500000 0.221007
O O14 0.500000 0.703976 0.000000
O O15 0.161744 0.000000 0.838266
O O16 0.000000 0.725303 0.000000
#
# Coordination Sequence:
#
# PCOD9148534 Si02
#       6
#     4   4   4   4   4   4
#     4   9  17  31  52  75  97 124 161 203 243 283
#     4  10  20  33  49  71 100 131 160 193 237 288
#     4  10  20  33  49  71 100 131 160 193 237 288
#     4   9  17  31  52  75  97 124 161 203 243 283
#     4   7  12  26  48  71  94 122 158 199 240 281
#     4   9  17  31  52  73  92 121 162 202 238 281
#
# _framework density 20.846084000000001
#
# number of rings (size 3 to 8) (size 9 to 14) (size 15 to 20)
#    0.000    3.000    0.000    3.500    0.000    4.667 
#    0.000    2.500    0.000   13.000    0.000    0.000 
#    0.000    0.000    0.000    0.000    0.000    0.000 
#
# Total GULP energy -133864.656492 kJ/mol
# GULP energy per Si atom -5577.694021 kJ/mol
# Density = 2.079864 g / cm^3
# Si number density = 20.846084 Si / 1000 Ang^3
#
#
#
# Elastic Constant Matrix: (Units=GPa)
#
#
# Indices 1 2 3 4 5 6 
#
# 1 145.9250 4.7640 185.6662 0.0000 9.1313 0.0000
# 2 4.7640 51.5350 3.7694 0.0000 -2.7752 0.0000
# 3 185.6662 3.7694 160.0633 0.0000 28.3999 0.0000
# 4 0.0000 0.0000 0.0000 -30.1687 0.0000 64.9204
# 5 9.1313 -2.7752 28.3999 0.0000 34.4173 0.0000
# 6 0.0000 0.0000 0.0000 64.9204 0.0000 -54.1873
#
#
#
# Elastic Compliance Matrix: (Units=1/GPa)
#
#
# Indices 1 2 3 4 5 6 
#
# 1 -0.011255 -0.000529 0.014697 0.000000 -0.009184 0.000000
# 2 -0.000529 0.019567 -0.000178 0.000000 0.001865 0.000000
# 3 0.014697 -0.000178 -0.011834 0.000000 0.005852 0.000000
# 4 0.000000 0.000000 0.000000 0.021004 0.000000 0.025164
# 5 -0.009184 0.001865 0.005852 0.000000 0.026814 0.000000
# 6 0.000000 0.000000 0.000000 0.025164 0.000000 0.011694
#
#
# Mechanical properties :
#
#
# Convention : Reuss Voigt Hill
#
# Bulk Modulus (GPa) = 40.88740 82.88027 61.88384
# Shear Modulus (GPa) = 138.26983 0.90050 69.58517
#
# Velocity S-wave (km/s) = 8.15309 0.65796 5.78385
# Velocity P-wave (km/s) = 10.40611 6.35781 8.62290
#
# Compressibility (1/GPa) = 0.02445741
#
# Stress axis : x y z
#
# Youngs Moduli (GPa) = -88.85151 51.10741 -84.49976
#
# Poissons Ratio (x) = 0.02704 1.24189
# Poissons Ratio (y) = -0.04701 -0.01503
# Poissons Ratio (z) = 1.30585 0.00909
#
# Static dielectric constant tensor:
#      x y z
#    x 1.726440 0.000000 0.022480 
#    y 0.000000 1.814220 0.000000 
#    z 0.022480 0.000000 1.734710 
# 
# From -- ./inp_files/32251.got.cif
#   From: 2010.05.17/outbox.cif.g08.bks.cpg/sg10_17_cif.got.tgz:32251.got - 2010.06.03 11:33:40.
