data_PCOD9148281
_publ_section_title
;
Structure prediction by ZEFSAII (Michael W. Deem and Ramdas Pophale) SiO2 
 PCOD9148281
Probable space group: P 2/M
;
_chemical_formula_sum "Si O2"
_cell_formula_units_Z 28
_cell_length_a 15.068860
_cell_length_b 9.074615
_cell_length_c 19.288771
_cell_angle_alpha 90.000000
_cell_angle_beta 38.102402
_cell_angle_gamma 90.000000
_cell_volume 1627.596690
_symmetry_space_group_name_H-M "P 2/M"
_symmetry_group_IT_number 10
_symmetry_cell_setting 'monoclinic'
loop_
_space_group_symop_operation_xyz
x,y,z
-x,y,-z
-x,-y,-z
x,-y,z
loop_
_atom_site_type_symbol
_atom_site_label
_atom_site_fract_x
_atom_site_fract_y
_atom_site_fract_z
Si Si1 0.404048 0.323192 0.403435
Si Si2 0.186518 0.169629 0.937017
Si Si3 0.163977 0.322248 0.664080
Si Si4 0.478113 0.170096 0.221196
Si Si5 0.727878 0.323703 0.250040
Si Si6 0.123020 0.822312 0.126710
Si Si7 0.573993 0.674444 0.028673
O O1 0.403435 0.500000 0.393814
O O2 0.278551 0.284851 0.534216
O O3 0.391979 0.244168 0.336878
O O4 0.560356 0.284622 0.339591
O O5 0.354719 0.173790 0.856666
O O6 0.179404 0.255709 0.869526
O O7 0.147459 0.000000 0.949330
O O8 0.107995 0.224971 0.054645
O O9 0.144998 0.500000 0.675490
O O10 0.226228 0.278845 0.701248
O O11 0.012249 0.241767 0.749479
O O12 0.477719 0.259213 0.149889
O O13 0.438473 0.000000 0.235173
O O14 0.738857 0.500000 0.238974
O O15 0.128703 0.000000 0.124405
O O16 0.272618 0.756179 0.061793
O O17 0.595185 0.500000 0.027206
O O18 0.500000 0.696304 0.000000
#
# Coordination Sequence:
#
# PCOD9148281 Si02
#       7
#     4   4   4   4   4   4   4
#     4   9  17  31  50  70  97 135 176 214 248 285
#     4   8  16  30  45  64  93 128 164 203 247 293
#     4  10  20  32  47  69  99 135 174 214 252 290
#     4   9  17  30  50  76 103 130 161 198 242 291
#     4   9  17  29  47  70  94 127 174 219 252 284
#     4  10  21  35  50  71 101 134 165 199 247 303
#     4  10  20  35  58  84 104 123 152 193 242 297
#
# _framework density 17.203278999999998
#
# number of rings (size 3 to 8) (size 9 to 14) (size 15 to 20)
#    0.000    2.714    0.000    2.571    0.000    8.571 
#    0.000    2.857    0.000    5.143    0.000    6.000 
#    0.000    0.000    0.000    0.000    0.000    0.000 
#
# Total GULP energy -156152.053011 kJ/mol
# GULP energy per Si atom -5576.859036 kJ/mol
# Density = 1.716412 g / cm^3
# Si number density = 17.203279 Si / 1000 Ang^3
#
#
#
# Elastic Constant Matrix: (Units=GPa)
#
#
# Indices 1 2 3 4 5 6 
#
# 1 72.7018 45.2829 50.2060 0.0000 15.6279 0.0000
# 2 45.2829 52.9339 49.3731 0.0000 9.5276 0.0000
# 3 50.2060 49.3731 119.3833 0.0000 7.8484 0.0000
# 4 0.0000 0.0000 0.0000 21.5241 0.0000 -4.4812
# 5 15.6279 9.5276 7.8484 0.0000 21.1598 0.0000
# 6 0.0000 0.0000 0.0000 -4.4812 0.0000 -29.7578
#
#
#
# Elastic Compliance Matrix: (Units=1/GPa)
#
#
# Indices 1 2 3 4 5 6 
#
# 1 0.033186 -0.022521 -0.003790 0.000000 -0.012964 0.000000
# 2 -0.022521 0.047960 -0.010288 0.000000 -0.001146 0.000000
# 3 -0.003790 -0.010288 0.014080 0.000000 0.002209 0.000000
# 4 0.000000 0.000000 0.000000 0.045047 0.000000 -0.006784
# 5 -0.012964 -0.001146 0.002209 0.000000 0.056530 0.000000
# 6 0.000000 0.000000 0.000000 -0.006784 0.000000 -0.032583
#
#
# Mechanical properties :
#
#
# Convention : Reuss Voigt Hill
#
# Bulk Modulus (GPa) = 45.39831 59.41588 52.40709
# Shear Modulus (GPa) = 20.42810 9.26237 14.84523
#
# Velocity S-wave (km/s) = 3.44968 2.32288 2.94075
# Velocity P-wave (km/s) = 6.50490 6.46582 6.48539
#
# Compressibility (1/GPa) = 0.02202725
#
# Stress axis : x y z
#
# Youngs Moduli (GPa) = 30.13302 20.85091 71.02338
#
# Poissons Ratio (x) = 0.46958 0.26918
# Poissons Ratio (y) = 0.67863 0.73070
# Poissons Ratio (z) = 0.11421 0.21452
#
# Static dielectric constant tensor:
#      x y z
#    x 1.574620 0.000000 -0.000350 
#    y 0.000000 1.576030 0.000000 
#    z -0.000350 0.000000 1.581740 
# 
# From -- ./inp_files/54972.got.cif
#   From: 2010.05.17/outbox.cif.g08.bks.cpg/sg10_28_cif.got.tgz:54972.got - 2010.06.03 11:33:40.
