data_PCOD9148442
_publ_section_title
;
Structure prediction by ZEFSAII (Michael W. Deem and Ramdas Pophale) SiO2 
 PCOD9148442
Probable space group: P 2/M
;
_chemical_formula_sum "Si O2"
_cell_formula_units_Z 32
_cell_length_a 21.939886
_cell_length_b 14.028515
_cell_length_c 9.859360
_cell_angle_alpha 90.000000
_cell_angle_beta 36.618036
_cell_angle_gamma 90.000000
_cell_volume 1810.043047
_symmetry_space_group_name_H-M "P 2/M"
_symmetry_group_IT_number 10
_symmetry_cell_setting 'monoclinic'
loop_
_space_group_symop_operation_xyz
x,y,z
-x,y,-z
-x,-y,-z
x,-y,z
loop_
_atom_site_type_symbol
_atom_site_label
_atom_site_fract_x
_atom_site_fract_y
_atom_site_fract_z
Si Si1 0.254565 0.111578 0.556493
Si Si2 0.864866 0.781027 0.458006
Si Si3 0.415060 0.271791 0.262711
Si Si4 0.202514 0.607735 0.908137
Si Si5 0.447810 0.608705 0.453192
Si Si6 0.922068 0.111058 0.904654
Si Si7 0.210716 0.613279 0.581354
Si Si8 0.881688 0.236514 0.736411
O O1 0.208262 0.149831 0.497856
O O2 0.351119 0.177993 0.415891
O O3 0.278461 0.000000 0.508380
O O4 0.166286 0.126348 0.826837
O O5 0.853249 0.677822 0.408032
O O6 0.835986 0.775223 0.668262
O O7 0.978998 0.823887 0.243819
O O8 0.469459 0.319810 0.293568
O O9 0.327405 0.346810 0.369445
O O10 0.500000 0.251669 0.000000
O O11 0.167675 0.500000 0.000479
O O12 0.325576 0.608423 0.689261
O O13 0.173988 0.630297 0.802590
O O14 0.164865 0.682447 0.085068
O O15 0.500000 0.635993 0.500000
O O16 0.479240 0.500000 0.363513
O O17 0.881670 0.141463 0.828501
O O18 0.951712 0.000000 0.855540
O O19 0.207692 0.500000 0.561877
O O20 0.000000 0.261436 0.500000
#
# Coordination Sequence:
#
# PCOD9148442 Si02
#       8
#     4   4   4   4   4   4   4   4
#     4  10  21  37  57  77 100 136 178 216 258 312
#     4  10  20  32  53  83 109 132 168 218 264 302
#     4  10  20  34  54  78 105 135 167 213 265 307
#     4   9  18  35  54  70 100 142 174 206 248 302
#     4   9  18  32  53  78 100 129 170 211 252 302
#     4  10  20  36  57  76  99 136 177 216 258 309
#     4   9  19  36  56  78 106 142 180 212 249 303
#     4  10  21  33  49  75 106 136 166 210 261 305
#
# _framework density 17.679137000000001
#
# number of rings (size 3 to 8) (size 9 to 14) (size 15 to 20)
#    0.000    2.375    0.000    4.125    0.000    8.750 
#    0.000    3.125    0.000   16.125    0.000    0.000 
#    0.000    0.000    0.000    0.000    0.000    0.000 
#
# Total GULP energy -178485.213353 kJ/mol
# GULP energy per Si atom -5577.662917 kJ/mol
# Density = 1.763890 g / cm^3
# Si number density = 17.679137 Si / 1000 Ang^3
#
#
#
# Elastic Constant Matrix: (Units=GPa)
#
#
# Indices 1 2 3 4 5 6 
#
# 1 96.4061 38.1665 10.9650 0.0000 23.5295 0.0000
# 2 38.1665 112.0953 22.4396 0.0000 3.6547 0.0000
# 3 10.9650 22.4396 37.0191 0.0000 4.0206 0.0000
# 4 0.0000 0.0000 0.0000 -19.8405 0.0000 1.6369
# 5 23.5295 3.6547 4.0206 0.0000 12.4328 0.0000
# 6 0.0000 0.0000 0.0000 1.6369 0.0000 21.9434
#
#
#
# Elastic Compliance Matrix: (Units=1/GPa)
#
#
# Indices 1 2 3 4 5 6 
#
# 1 0.023331 -0.006938 0.001937 0.000000 -0.042742 0.000000
# 2 -0.006938 0.012229 -0.006626 0.000000 0.011679 0.000000
# 3 0.001937 -0.006626 0.031758 0.000000 -0.011988 0.000000
# 4 0.000000 0.000000 0.000000 -0.050094 0.000000 0.003737
# 5 -0.042742 0.011679 -0.011988 0.000000 0.161767 0.000000
# 6 0.000000 0.000000 0.000000 0.003737 0.000000 0.045293
#
#
# Mechanical properties :
#
#
# Convention : Reuss Voigt Hill
#
# Bulk Modulus (GPa) = 22.69439 43.18475 32.93957
# Shear Modulus (GPa) = 19.06750 14.50377 16.78564
#
# Velocity S-wave (km/s) = 3.28766 2.86735 3.08467
# Velocity P-wave (km/s) = 5.22267 5.95334 5.59994
#
# Compressibility (1/GPa) = 0.04406376
#
# Stress axis : x y z
#
# Youngs Moduli (GPa) = 42.86128 81.77321 31.48832
#
# Poissons Ratio (x) = 0.56735 -0.06100
# Poissons Ratio (y) = 0.29738 0.20864
# Poissons Ratio (z) = -0.08303 0.54184
#
# Static dielectric constant tensor:
#      x y z
#    x 1.621650 0.000000 0.009010 
#    y 0.000000 1.615180 0.000000 
#    z 0.009010 0.000000 1.591220 
# 
# From -- ./inp_files/35093.got.cif
#   From: 2010.05.17/outbox.cif.g08.bks.cpg/sg10_18_cif.got.tgz:35093.got - 2010.06.03 11:33:40.
