data_PCOD9148086
_publ_section_title
;
Structure prediction by ZEFSAII (Michael W. Deem and Ramdas Pophale) SiO2 
 PCOD9148086
Probable space group: P 2/M
;
_chemical_formula_sum "Si O2"
_cell_formula_units_Z 28
_cell_length_a 20.373752
_cell_length_b 14.093760
_cell_length_c 11.843563
_cell_angle_alpha 90.000000
_cell_angle_beta 157.167719
_cell_angle_gamma 90.000000
_cell_volume 1319.626604
_symmetry_space_group_name_H-M "P 2/M"
_symmetry_group_IT_number 10
_symmetry_cell_setting 'monoclinic'
loop_
_space_group_symop_operation_xyz
x,y,z
-x,y,-z
-x,-y,-z
x,-y,z
loop_
_atom_site_type_symbol
_atom_site_label
_atom_site_fract_x
_atom_site_fract_y
_atom_site_fract_z
Si Si1 0.210104 0.500000 0.534831
Si Si2 0.487081 0.500000 0.164878
Si Si3 0.948005 0.645855 0.043606
Si Si4 0.299051 0.113780 0.666840
Si Si5 0.491956 0.860345 0.616463
Si Si6 0.432322 0.364898 0.513780
Si Si7 0.165664 0.888062 0.697389
Si Si8 0.168032 0.152023 0.227752
O O1 0.340439 0.500000 0.635349
O O2 0.092466 0.594396 0.345061
O O3 0.330365 0.500000 0.833094
O O4 0.484325 0.411686 0.245316
O O5 0.765263 0.610726 0.792078
O O6 0.906952 0.758716 0.962216
O O7 0.000000 0.615629 0.000000
O O8 0.205739 0.146806 0.633681
O O9 0.252982 0.175029 0.483638
O O10 0.263836 0.000000 0.592393
O O11 0.500000 0.120511 0.000000
O O12 0.500000 0.892027 0.500000
O O13 0.465057 0.747118 0.573822
O O14 0.319129 0.896072 0.399721
O O15 0.663308 0.880473 0.956825
O O16 0.500000 0.395634 0.500000
O O17 0.000000 0.848163 0.500000
O O18 0.133006 0.000000 0.630021
O O19 0.000000 0.098498 0.000000
#
# Coordination Sequence:
#
# PCOD9148086 Si02
#       8
#     2   2   4   4   4   4   4   4
#     4  11  22  38  62  92 124 152 201 256 305 353
#     4  11  22  39  62  95 118 155 204 252 301 365
#     4  10  19  39  61  84 119 162 198 244 300 364
#     4  10  20  39  63  88 125 161 198 258 313 355
#     4  10  22  40  59  88 125 160 200 251 302 362
#     4  10  21  40  62  87 122 161 198 243 309 363
#     4  10  22  41  63  88 121 165 205 246 307 363
#     4  10  22  37  59  94 117 162 211 246 303 368
#
# _framework density 21.218122999999999
#
# number of rings (size 3 to 8) (size 9 to 14) (size 15 to 20)
#    0.000    1.857    2.857    0.857    2.000    0.571 
#    5.143    1.429    0.000    0.000    0.000    0.000 
#    0.000    0.000    0.000    0.000    0.000    0.000 
#
# Total GULP energy -156091.313310 kJ/mol
# GULP energy per Si atom -5574.689761 kJ/mol
# Density = 2.116983 g / cm^3
# Si number density = 21.218123 Si / 1000 Ang^3
#
#
#
# Elastic Constant Matrix: (Units=GPa)
#
#
# Indices 1 2 3 4 5 6 
#
# 1 186.7962 20.3726 71.5805 0.0000 21.8768 0.0000
# 2 20.3726 94.4373 25.7526 0.0000 -2.8721 0.0000
# 3 71.5805 25.7526 138.8124 0.0000 12.7079 0.0000
# 4 0.0000 0.0000 0.0000 0.7315 0.0000 -36.7424
# 5 21.8768 -2.8721 12.7079 0.0000 45.2663 0.0000
# 6 0.0000 0.0000 0.0000 -36.7424 0.0000 -55.6193
#
#
#
# Elastic Compliance Matrix: (Units=1/GPa)
#
#
# Indices 1 2 3 4 5 6 
#
# 1 0.006960 -0.000697 -0.003231 0.000000 -0.002501 0.000000
# 2 -0.000697 0.011301 -0.001882 0.000000 0.001582 0.000000
# 3 -0.003231 -0.001882 0.009327 0.000000 -0.001176 0.000000
# 4 0.000000 0.000000 0.000000 0.039994 0.000000 -0.026420
# 5 -0.002501 0.001582 -0.001176 0.000000 0.023731 0.000000
# 6 0.000000 0.000000 0.000000 -0.026420 0.000000 -0.000526
#
#
# Mechanical properties :
#
#
# Convention : Reuss Voigt Hill
#
# Bulk Modulus (GPa) = 62.62295 72.82858 67.72576
# Shear Modulus (GPa) = 46.41257 18.23172 32.32214
#
# Velocity S-wave (km/s) = 4.68204 2.93448 3.90722
# Velocity P-wave (km/s) = 7.66855 6.77347 7.23486
#
# Compressibility (1/GPa) = 0.01596859
#
# Stress axis : x y z
#
# Youngs Moduli (GPa) = 143.66883 88.49035 107.21589
#
# Poissons Ratio (x) = 0.06164 0.34642
# Poissons Ratio (y) = 0.10007 0.20180
# Poissons Ratio (z) = 0.46420 0.16655
#
# Static dielectric constant tensor:
#      x y z
#    x 1.784030 0.000000 0.021890 
#    y 0.000000 1.826690 0.000000 
#    z 0.021890 0.000000 1.754170 
# 
# From -- ./inp_files/56123.got.cif
#   From: 2010.05.17/outbox.cif.g08.bks.cpg/sg10_29_cif.got.tgz:56123.got - 2010.06.03 11:33:40.
