data_PCOD9148028
_publ_section_title
;
Structure prediction by ZEFSAII (Michael W. Deem and Ramdas Pophale) SiO2 
 PCOD9148028
Probable space group: P 2/M
;
_chemical_formula_sum "Si O2"
_cell_formula_units_Z 24
_cell_length_a 24.968911
_cell_length_b 7.606177
_cell_length_c 19.120691
_cell_angle_alpha 90.000000
_cell_angle_beta 20.661196
_cell_angle_gamma 90.000000
_cell_volume 1281.294419
_symmetry_space_group_name_H-M "P 2/M"
_symmetry_group_IT_number 10
_symmetry_cell_setting 'monoclinic'
loop_
_space_group_symop_operation_xyz
x,y,z
-x,y,-z
-x,-y,-z
x,-y,z
loop_
_atom_site_type_symbol
_atom_site_label
_atom_site_fract_x
_atom_site_fract_y
_atom_site_fract_z
Si Si1 0.607437 0.712720 0.805886
Si Si2 0.481566 0.286539 0.241060
Si Si3 0.725672 0.709241 0.056360
Si Si4 0.076158 0.794386 0.624234
Si Si5 0.351250 0.000000 0.731854
Si Si6 0.956763 0.000000 0.973046
Si Si7 0.838533 0.305985 0.330330
O O1 0.605242 0.500000 0.807965
O O2 0.541973 0.774641 0.810158
O O3 0.783363 0.769089 0.600249
O O4 0.500000 0.772886 0.000000
O O5 0.477956 0.500000 0.242492
O O6 0.627829 0.238545 0.107439
O O7 0.331973 0.234226 0.467826
O O8 0.702202 0.500000 0.099359
O O9 0.673090 0.831749 0.185940
O O10 0.903770 0.737942 0.821193
O O11 0.133763 0.686696 0.620618
O O12 0.070580 0.000000 0.649719
O O13 0.500000 0.000000 0.500000
O O14 0.213750 0.000000 0.844676
O O15 0.036037 0.825625 0.848122
O O16 0.000000 0.000000 0.000000
O O17 0.849881 0.500000 0.285384
#
# Coordination Sequence:
#
# PCOD9148028 Si02
#       7
#     4   4   4   4   2   2   4
#     4   9  18  35  59  89 124 157 195 246 294 340
#     4   8  18  33  58  89 112 151 203 235 284 346
#     4  11  21  40  64  85 117 157 198 243 286 349
#     4  11  19  35  59  86 113 155 203 238 287 348
#     4  12  28  44  58  90 119 151 195 240 305 365
#     4  12  26  40  58  88 113 148 189 237 298 362
#     4  10  19  38  60  82 111 148 196 243 282 342
#
# _framework density 18.731057
#
# number of rings (size 3 to 8) (size 9 to 14) (size 15 to 20)
#    0.000    1.833    3.333    2.500    2.333    1.000 
#    1.500    0.833    0.000    5.000    0.000    0.000 
#    0.000    0.000    0.000    0.000    0.000    0.000 
#
# Total GULP energy -133711.141215 kJ/mol
# GULP energy per Si atom -5571.297551 kJ/mol
# Density = 1.868842 g / cm^3
# Si number density = 18.731057 Si / 1000 Ang^3
#
#
#
# Elastic Constant Matrix: (Units=GPa)
#
#
# Indices 1 2 3 4 5 6 
#
# 1 94.7985 20.3003 76.7612 0.0000 -19.0720 0.0000
# 2 20.3003 95.1922 34.3169 0.0000 5.6993 0.0000
# 3 76.7612 34.3169 175.9068 0.0000 -14.1411 0.0000
# 4 0.0000 0.0000 0.0000 12.2891 0.0000 -1.6703
# 5 -19.0720 5.6993 -14.1411 0.0000 34.4372 0.0000
# 6 0.0000 0.0000 0.0000 -1.6703 0.0000 18.2724
#
#
#
# Elastic Compliance Matrix: (Units=1/GPa)
#
#
# Indices 1 2 3 4 5 6 
#
# 1 0.018035 -0.001797 -0.006921 0.000000 0.007444 0.000000
# 2 -0.001797 0.011760 -0.001806 0.000000 -0.003683 0.000000
# 3 -0.006921 -0.001806 0.009073 0.000000 0.000191 0.000000
# 4 0.000000 0.000000 0.000000 0.082397 0.000000 0.007532
# 5 0.007444 -0.003683 0.000191 0.000000 0.033849 0.000000
# 6 0.000000 0.000000 0.000000 0.007532 0.000000 0.055416
#
#
# Mechanical properties :
#
#
# Convention : Reuss Voigt Hill
#
# Bulk Modulus (GPa) = 56.11769 69.85051 62.98410
# Shear Modulus (GPa) = 21.05107 28.63435 24.84271
#
# Velocity S-wave (km/s) = 3.35604 3.91411 3.64577
# Velocity P-wave (km/s) = 6.71134 7.60258 7.17082
#
# Compressibility (1/GPa) = 0.01781969
#
# Stress axis : x y z
#
# Youngs Moduli (GPa) = 55.44682 85.03501 110.21899
#
# Poissons Ratio (x) = 0.15278 0.76285
# Poissons Ratio (y) = 0.09962 0.19908
# Poissons Ratio (z) = 0.38376 0.15359
#
# Static dielectric constant tensor:
#      x y z
#    x 1.595860 0.000000 -0.013810 
#    y 0.000000 1.663890 0.000000 
#    z -0.013810 0.000000 1.686240 
# 
# From -- ./inp_files/31249.got.cif
#   From: 2010.05.17/outbox.cif.g08.bks.cpg/sg10_16_cif.got.tgz:31249.got - 2010.06.03 11:33:40.
