data_PCOD9148704
_publ_section_title
;
Structure prediction by ZEFSAII (Michael W. Deem and Ramdas Pophale) SiO2 
 PCOD9148704
Probable space group: P 2/M
;
_chemical_formula_sum "Si O2"
_cell_formula_units_Z 32
_cell_length_a 24.412806
_cell_length_b 8.701705
_cell_length_c 18.059202
_cell_angle_alpha 90.000000
_cell_angle_beta 148.716351
_cell_angle_gamma 90.000000
_cell_volume 1992.132553
_symmetry_space_group_name_H-M "P 2/M"
_symmetry_group_IT_number 10
_symmetry_cell_setting 'monoclinic'
loop_
_space_group_symop_operation_xyz
x,y,z
-x,y,-z
-x,-y,-z
x,-y,z
loop_
_atom_site_type_symbol
_atom_site_label
_atom_site_fract_x
_atom_site_fract_y
_atom_site_fract_z
Si Si1 0.753830 0.186008 0.180793
Si Si2 0.919147 0.814707 0.248263
Si Si3 0.698776 0.184621 0.390980
Si Si4 0.822460 0.318235 0.664784
Si Si5 0.050805 0.186000 0.884971
Si Si6 0.144529 0.316691 0.552416
Si Si7 0.516517 0.186967 0.933971
Si Si8 0.875014 0.177776 0.875780
O O1 0.819933 0.228131 0.184347
O O2 0.810081 0.255422 0.317717
O O3 0.756090 0.000000 0.190463
O O4 0.631648 0.235046 0.039103
O O5 0.909429 0.772772 0.150584
O O6 0.025504 0.740644 0.402819
O O7 0.931076 0.000000 0.265565
O O8 0.732693 0.243386 0.510520
O O9 0.783024 0.248848 0.429335
O O10 0.582740 0.234988 0.230213
O O11 0.703829 0.000000 0.395050
O O12 0.820635 0.500000 0.654414
O O13 0.817778 0.271793 0.745638
O O14 0.934760 0.255098 0.764114
O O15 0.040830 0.000000 0.878076
O O16 0.125532 0.233094 0.039911
O O17 0.148241 0.500000 0.554467
O O18 0.515692 0.000000 0.933716
O O19 0.500000 0.237091 0.000000
O O20 0.841024 0.000000 0.832658
O O21 0.000000 0.181176 0.000000
#
# Coordination Sequence:
#
# PCOD9148704 Si02
#       8
#     4   4   4   4   4   4   4   4
#     4  10  20  36  54  72  93 126 169 205 241 289
#     4  10  20  33  52  73  97 131 166 198 236 288
#     4  11  20  33  53  71  94 129 165 202 246 291
#     4  11  20  29  44  71 101 126 156 198 241 286
#     4   9  17  30  47  68  96 131 163 191 231 287
#     4  12  23  33  47  71 101 131 163 201 243 285
#     4   9  17  32  54  74  91 118 163 211 247 283
#     4   8  15  28  45  65  93 129 162 190 229 286
#
# _framework density 16.063188
#
# number of rings (size 3 to 8) (size 9 to 14) (size 15 to 20)
#    0.000    2.000    2.500    3.750    0.000    4.250 
#    0.000    1.875    0.000    0.000    0.000    0.875 
#    0.000    7.000    0.000    0.000    0.000    0.000 
#
# Total GULP energy -178509.070149 kJ/mol
# GULP energy per Si atom -5578.408442 kJ/mol
# Density = 1.602663 g / cm^3
# Si number density = 16.063188 Si / 1000 Ang^3
#
#
#
# Elastic Constant Matrix: (Units=GPa)
#
#
# Indices 1 2 3 4 5 6 
#
# 1 87.0730 31.3151 88.3975 0.0000 -0.4931 0.0000
# 2 31.3151 33.4198 35.4728 0.0000 -3.2394 0.0000
# 3 88.3975 35.4728 132.4279 0.0000 -11.9722 0.0000
# 4 0.0000 0.0000 0.0000 -9.1680 0.0000 -3.5465
# 5 -0.4931 -3.2394 -11.9722 0.0000 26.2214 0.0000
# 6 0.0000 0.0000 0.0000 -3.5465 0.0000 3.3703
#
#
#
# Elastic Compliance Matrix: (Units=1/GPa)
#
#
# Indices 1 2 3 4 5 6 
#
# 1 0.042762 -0.013670 -0.026037 0.000000 -0.012773 0.000000
# 2 -0.013670 0.046180 -0.002871 0.000000 0.004137 0.000000
# 3 -0.026037 -0.002871 0.026727 0.000000 0.011359 0.000000
# 4 0.000000 0.000000 0.000000 -0.077520 0.000000 -0.081573
# 5 -0.012773 0.004137 0.011359 0.000000 0.043594 0.000000
# 6 0.000000 0.000000 0.000000 -0.081573 0.000000 0.210874
#
#
# Mechanical properties :
#
#
# Convention : Reuss Voigt Hill
#
# Bulk Modulus (GPa) = 32.77328 62.58794 47.68061
# Shear Modulus (GPa) = 12.88844 10.60041 11.74442
#
# Velocity S-wave (km/s) = 2.83567 2.57168 2.70689
# Velocity P-wave (km/s) = 5.58286 6.91854 6.28628
#
# Compressibility (1/GPa) = 0.03051267
#
# Stress axis : x y z
#
# Youngs Moduli (GPa) = 23.38538 21.65442 37.41501
#
# Poissons Ratio (x) = 0.29602 0.97417
# Poissons Ratio (y) = 0.31968 0.10741
# Poissons Ratio (z) = 0.60889 0.06217
#
# Static dielectric constant tensor:
#      x y z
#    x 1.541730 0.000000 -0.022440 
#    y 0.000000 1.532590 0.000000 
#    z -0.022440 0.000000 1.529960 
# 
# From -- ./inp_files/79962.got.cif
#   From: 2010.05.17/outbox.cif.g08.bks.cpg/sg10_40_cif.got.tgz:79962.got - 2010.06.03 11:33:40.
