data_PCOD9148918
_publ_section_title
;
Structure prediction by ZEFSAII (Michael W. Deem and Ramdas Pophale) SiO2 
 PCOD9148918
Probable space group: P 2/M
;
_chemical_formula_sum "Si O2"
_cell_formula_units_Z 32
_cell_length_a 15.491257
_cell_length_b 8.486823
_cell_length_c 23.981938
_cell_angle_alpha 90.000000
_cell_angle_beta 39.834152
_cell_angle_gamma 90.000000
_cell_volume 2019.672732
_symmetry_space_group_name_H-M "P 2/M"
_symmetry_group_IT_number 10
_symmetry_cell_setting 'monoclinic'
loop_
_space_group_symop_operation_xyz
x,y,z
-x,y,-z
-x,-y,-z
x,-y,z
loop_
_atom_site_type_symbol
_atom_site_label
_atom_site_fract_x
_atom_site_fract_y
_atom_site_fract_z
Si Si1 0.728488 0.309135 0.699185
Si Si2 0.454933 0.691767 0.110233
Si Si3 0.999071 0.812383 0.379105
Si Si4 0.710586 0.810246 0.372370
Si Si5 0.003162 0.311368 0.746490
Si Si6 0.271432 0.688555 0.428627
Si Si7 0.549758 0.190360 0.563718
Si Si8 0.709841 0.691797 0.918908
O O1 0.730069 0.500000 0.699308
O O2 0.610042 0.254940 0.799699
O O3 0.711827 0.258387 0.643580
O O4 0.869896 0.251525 0.654027
O O5 0.457436 0.500000 0.109976
O O6 0.356032 0.735680 0.108075
O O7 0.604598 0.744911 0.018462
O O8 0.996593 0.747526 0.317412
O O9 0.864573 0.759179 0.477745
O O10 0.003161 0.000000 0.374857
O O11 0.859914 0.745077 0.292685
O O12 0.600150 0.761957 0.381169
O O13 0.648726 0.763580 0.463375
O O14 0.715800 0.000000 0.369672
O O15 0.001673 0.500000 0.746228
O O16 0.864071 0.254979 0.843927
O O17 0.259189 0.500000 0.435212
O O18 0.393925 0.738873 0.407596
O O19 0.553337 0.000000 0.565328
O O20 0.710580 0.500000 0.919943
#
# Coordination Sequence:
#
# PCOD9148918 Si02
#       8
#     4   4   4   4   4   4   4   4
#     4  10  20  34  50  68  93 124 160 199 233 267
#     4   8  13  26  46  68  92 120 152 188 231 277
#     4  12  23  33  45  64  95 133 166 191 221 272
#     4   9  18  32  49  69  93 123 155 187 233 283
#     4  11  19  29  48  74  98 122 154 194 234 274
#     4  11  22  33  48  70  94 122 159 200 234 266
#     4   9  18  33  50  67  92 124 156 190 229 280
#     4   8  14  24  45  71  93 118 151 188 230 280
#
# _framework density 15.844151
#
# number of rings (size 3 to 8) (size 9 to 14) (size 15 to 20)
#    0.000    2.250    2.500    3.750    0.000    3.000 
#    0.000    1.250    0.000    2.250    0.000    0.875 
#    0.000    7.000    0.000    0.000    0.000    0.000 
#
# Total GULP energy -178447.681775 kJ/mol
# GULP energy per Si atom -5576.490055 kJ/mol
# Density = 1.580809 g / cm^3
# Si number density = 15.844151 Si / 1000 Ang^3
#
#
#
# Elastic Constant Matrix: (Units=GPa)
#
#
# Indices 1 2 3 4 5 6 
#
# 1 110.8158 16.4788 80.5301 0.0000 -15.0911 0.0000
# 2 16.4788 15.6216 17.1702 0.0000 -3.1973 0.0000
# 3 80.5301 17.1702 120.3358 0.0000 -21.1908 0.0000
# 4 0.0000 0.0000 0.0000 4.1876 0.0000 -9.2779
# 5 -15.0911 -3.1973 -21.1908 0.0000 24.2159 0.0000
# 6 0.0000 0.0000 0.0000 -9.2779 0.0000 26.4006
#
#
#
# Elastic Compliance Matrix: (Units=1/GPa)
#
#
# Indices 1 2 3 4 5 6 
#
# 1 0.018182 -0.006876 -0.011054 0.000000 0.000749 0.000000
# 2 -0.006876 0.078530 -0.006540 0.000000 0.000360 0.000000
# 3 -0.011054 -0.006540 0.018059 0.000000 0.008050 0.000000
# 4 0.000000 0.000000 0.000000 1.078645 0.000000 0.379067
# 5 0.000749 0.000360 0.008050 0.000000 0.048854 0.000000
# 6 0.000000 0.000000 0.000000 0.379067 0.000000 0.171093
#
#
# Mechanical properties :
#
#
# Convention : Reuss Voigt Hill
#
# Bulk Modulus (GPa) = 15.19085 52.79238 33.99162
# Shear Modulus (GPa) = 3.36871 19.80041 11.58456
#
# Velocity S-wave (km/s) = 1.45972 3.53894 2.70692
# Velocity P-wave (km/s) = 3.52839 7.07750 5.59198
#
# Compressibility (1/GPa) = 0.06582908
#
# Stress axis : x y z
#
# Youngs Moduli (GPa) = 55.00012 12.73407 55.37519
#
# Poissons Ratio (x) = 0.08756 0.61214
# Poissons Ratio (y) = 0.37817 0.36216
# Poissons Ratio (z) = 0.60799 0.08328
#
# Static dielectric constant tensor:
#      x y z
#    x 1.517030 0.000000 -0.012360 
#    y 0.000000 1.540540 0.000000 
#    z -0.012360 0.000000 1.538850 
# 
# From -- ./inp_files/65984.got.cif
#   From: 2010.05.17/outbox.cif.g08.bks.cpg/sg10_33_cif.got.tgz:65984.got - 2010.06.03 11:33:40.
