data_PCOD9148068
_publ_section_title
;
Structure prediction by ZEFSAII (Michael W. Deem and Ramdas Pophale) SiO2 
 PCOD9148068
Probable space group: P 2/M
;
_chemical_formula_sum "Si O2"
_cell_formula_units_Z 28
_cell_length_a 21.798606
_cell_length_b 9.155697
_cell_length_c 19.229308
_cell_angle_alpha 90.000000
_cell_angle_beta 160.778278
_cell_angle_gamma 90.000000
_cell_volume 1263.502603
_symmetry_space_group_name_H-M "P 2/M"
_symmetry_group_IT_number 10
_symmetry_cell_setting 'monoclinic'
loop_
_space_group_symop_operation_xyz
x,y,z
-x,y,-z
-x,-y,-z
x,-y,z
loop_
_atom_site_type_symbol
_atom_site_label
_atom_site_fract_x
_atom_site_fract_y
_atom_site_fract_z
Si Si1 0.277263 0.335101 0.268632
Si Si2 0.058276 0.669574 0.888577
Si Si3 0.593532 0.172085 0.247500
Si Si4 0.413913 0.674689 0.188449
Si Si5 0.730293 0.828301 0.604731
Si Si6 0.911620 0.668105 0.518202
Si Si7 0.710407 0.330926 0.152876
O O1 0.500000 0.320829 0.500000
O O2 0.237635 0.500000 0.252425
O O3 0.210897 0.221167 0.255225
O O4 0.179792 0.321109 0.089761
O O5 0.998575 0.500000 0.817127
O O6 0.884005 0.773258 0.714518
O O7 0.199188 0.707282 0.977133
O O8 0.498472 0.253705 0.210395
O O9 0.799110 0.230898 0.450196
O O10 0.593545 0.000000 0.257853
O O11 0.458085 0.221822 0.039665
O O12 0.431389 0.500000 0.204942
O O13 0.542389 0.740907 0.386477
O O14 0.701756 0.000000 0.569511
O O15 0.903058 0.500000 0.533081
O O16 0.803430 0.676065 0.328218
O O17 0.124477 0.700812 0.725661
O O18 0.648120 0.500000 0.075842
#
# Coordination Sequence:
#
# PCOD9148068 Si02
#       7
#     4   4   4   4   4   4   4
#     4  10  19  38  65  91 118 154 202 248 288 342
#     4  10  22  41  66  89 113 154 206 250 289 346
#     4  12  25  38  57  89 126 160 193 240 305 361
#     4  11  24  45  66  83 110 158 212 252 287 342
#     4  12  25  39  60  92 127 156 187 240 310 367
#     4   9  19  38  64  91 119 156 203 248 286 340
#     4   9  19  38  64  91 118 155 204 249 288 338
#
# _framework density 22.160617999999999
#
# number of rings (size 3 to 8) (size 9 to 14) (size 15 to 20)
#    0.000    1.571    1.429    4.714    0.000    7.714 
#    0.000    2.857    0.000    0.000    0.000    0.000 
#    0.000    0.000    0.000    0.000    0.000    0.000 
#
# Total GULP energy -156707.710380 kJ/mol
# GULP energy per Si atom -5596.703942 kJ/mol
# Density = 2.211018 g / cm^3
# Si number density = 22.160618 Si / 1000 Ang^3
#
#
#
# Elastic Constant Matrix: (Units=GPa)
#
#
# Indices 1 2 3 4 5 6 
#
# 1 112.1692 58.9212 10.8972 0.0000 23.8743 0.0000
# 2 58.9212 112.5264 31.6291 0.0000 35.0895 0.0000
# 3 10.8972 31.6291 55.6193 0.0000 18.7322 0.0000
# 4 0.0000 0.0000 0.0000 185.5672 0.0000 33.4721
# 5 23.8743 35.0895 18.7322 0.0000 41.7086 0.0000
# 6 0.0000 0.0000 0.0000 33.4721 0.0000 -26.9962
#
#
#
# Elastic Compliance Matrix: (Units=1/GPa)
#
#
# Indices 1 2 3 4 5 6 
#
# 1 0.012635 -0.006308 0.002074 0.000000 -0.002857 0.000000
# 2 -0.006308 0.016024 -0.005364 0.000000 -0.007461 0.000000
# 3 0.002074 -0.005364 0.022979 0.000000 -0.006995 0.000000
# 4 0.000000 0.000000 0.000000 0.004404 0.000000 0.005460
# 5 -0.002857 -0.007461 -0.006995 0.000000 0.035030 0.000000
# 6 0.000000 0.000000 0.000000 0.005460 0.000000 -0.030272
#
#
# Mechanical properties :
#
#
# Convention : Reuss Voigt Hill
#
# Bulk Modulus (GPa) = 30.82351 53.68999 42.25675
# Shear Modulus (GPa) = 55.05962 51.98043 53.52002
#
# Velocity S-wave (km/s) = 4.98995 4.84842 4.91969
# Velocity P-wave (km/s) = 6.86577 7.45809 7.16805
#
# Compressibility (1/GPa) = 0.03244277
#
# Stress axis : x y z
#
# Youngs Moduli (GPa) = 79.14336 62.40553 43.51784
#
# Poissons Ratio (x) = 0.39366 -0.09025
# Poissons Ratio (y) = 0.49925 0.23341
# Poissons Ratio (z) = -0.16413 0.33472
#
# Static dielectric constant tensor:
#      x y z
#    x 1.876920 0.000000 -0.051630 
#    y 0.000000 1.732110 0.000000 
#    z -0.051630 0.000000 1.876490 
# 
# From -- ./inp_files/86540.got.cif
#   From: 2010.05.17/outbox.cif.g08.bks.cpg/sg10_44_cif.got.tgz:86540.got - 2010.06.03 11:33:40.
