data_PCOD9148728
_publ_section_title
;
Structure prediction by ZEFSAII (Michael W. Deem and Ramdas Pophale) SiO2 
 PCOD9148728
Probable space group: P 2/M
;
_chemical_formula_sum "Si O2"
_cell_formula_units_Z 32
_cell_length_a 25.614712
_cell_length_b 7.502904
_cell_length_c 20.740450
_cell_angle_alpha 90.000000
_cell_angle_beta 22.948858
_cell_angle_gamma 90.000000
_cell_volume 1554.177701
_symmetry_space_group_name_H-M "P 2/M"
_symmetry_group_IT_number 10
_symmetry_cell_setting 'monoclinic'
loop_
_space_group_symop_operation_xyz
x,y,z
-x,y,-z
-x,-y,-z
x,-y,z
loop_
_atom_site_type_symbol
_atom_site_label
_atom_site_fract_x
_atom_site_fract_y
_atom_site_fract_z
Si Si1 0.017308 0.789436 0.276729
Si Si2 0.511871 0.707880 0.414787
Si Si3 0.671094 0.292114 0.489854
Si Si4 0.970347 0.784145 0.106741
Si Si5 0.188011 0.216670 0.965253
Si Si6 0.717599 0.716018 0.576704
Si Si7 0.069557 0.785784 0.486008
Si Si8 0.630719 0.286346 0.814525
O O1 0.873413 0.767134 0.405984
O O2 0.998111 0.716036 0.370811
O O3 0.042419 0.000000 0.254936
O O4 0.129401 0.719647 0.100505
O O5 0.500000 0.786882 0.500000
O O6 0.471143 0.500000 0.467327
O O7 0.416979 0.787878 0.467477
O O8 0.663939 0.719591 0.218513
O O9 0.632230 0.500000 0.539247
O O10 0.826164 0.280570 0.293961
O O11 0.659010 0.216932 0.575835
O O12 0.966611 0.000000 0.111626
O O13 0.000000 0.726541 0.000000
O O14 0.085769 0.727773 0.025064
O O15 0.189651 0.000000 0.963929
O O16 0.713473 0.500000 0.580920
O O17 0.646640 0.779561 0.722873
O O18 0.228161 0.749582 0.310711
O O19 0.000000 0.718746 0.500000
O O20 0.055074 0.000000 0.503102
O O21 0.617597 0.500000 0.825552
O O22 0.500000 0.217139 0.000000
#
# Coordination Sequence:
#
# PCOD9148728 Si02
#       8
#     4   4   4   4   4   4   4   4
#     4   9  17  32  53  75 102 132 165 206 250 294
#     4  10  22  38  52  70 101 137 169 204 250 302
#     4  10  20  34  52  74  99 130 169 208 248 296
#     4  10  20  33  52  78 102 125 161 208 251 296
#     4  10  20  34  52  75 101 130 166 205 249 300
#     4   9  17  31  52  75 100 130 167 208 250 294
#     4   9  18  33  53  76 104 136 168 205 247 293
#     4   9  18  33  52  75 104 135 167 206 250 295
#
# _framework density 20.589666000000001
#
# number of rings (size 3 to 8) (size 9 to 14) (size 15 to 20)
#    0.000    2.500    1.250    0.750    0.000    2.500 
#    2.250    0.000    0.000    0.000    0.000    0.000 
#    0.000    0.000    0.000    0.000    0.000    0.000 
#
# Total GULP energy -178599.383296 kJ/mol
# GULP energy per Si atom -5581.230728 kJ/mol
# Density = 2.054280 g / cm^3
# Si number density = 20.589666 Si / 1000 Ang^3
#
#
#
# Elastic Constant Matrix: (Units=GPa)
#
#
# Indices 1 2 3 4 5 6 
#
# 1 193.4303 -0.4689 67.8770 0.0000 12.5654 0.0000
# 2 -0.4689 52.8947 -9.4699 0.0000 4.8777 0.0000
# 3 67.8770 -9.4699 92.6917 0.0000 19.2514 0.0000
# 4 0.0000 0.0000 0.0000 20.1139 0.0000 -1.5632
# 5 12.5654 4.8777 19.2514 0.0000 30.9706 0.0000
# 6 0.0000 0.0000 0.0000 -1.5632 0.0000 22.5410
#
#
#
# Elastic Compliance Matrix: (Units=1/GPa)
#
#
# Indices 1 2 3 4 5 6 
#
# 1 0.007008 -0.000957 -0.005362 0.000000 0.000641 0.000000
# 2 -0.000957 0.020055 0.003818 0.000000 -0.005144 0.000000
# 3 -0.005362 0.003818 0.016969 0.000000 -0.008974 0.000000
# 4 0.000000 0.000000 0.000000 0.049986 0.000000 0.003467
# 5 0.000641 -0.005144 -0.008974 0.000000 0.038417 0.000000
# 6 0.000000 0.000000 0.000000 0.003467 0.000000 0.044604
#
#
# Mechanical properties :
#
#
# Convention : Reuss Voigt Hill
#
# Bulk Modulus (GPa) = 25.62215 50.54364 38.08290
# Shear Modulus (GPa) = 25.63426 33.46367 29.54897
#
# Velocity S-wave (km/s) = 3.53229 4.03583 3.79243
# Velocity P-wave (km/s) = 5.39512 6.80578 6.14109
#
# Compressibility (1/GPa) = 0.03902873
#
# Stress axis : x y z
#
# Youngs Moduli (GPa) = 142.70165 49.86315 58.93028
#
# Poissons Ratio (x) = 0.04772 0.31601
# Poissons Ratio (y) = 0.13657 -0.22500
# Poissons Ratio (z) = 0.76524 -0.19038
#
# Static dielectric constant tensor:
#      x y z
#    x 1.749510 0.000000 0.037230 
#    y 0.000000 1.760710 0.000000 
#    z 0.037230 0.000000 1.688410 
# 
# From -- ./inp_files/86860.got.cif
#   From: 2010.05.17/outbox.cif.g08.bks.cpg/sg10_44_cif.got.tgz:86860.got - 2010.06.03 11:33:40.
