data_PCOD9148332
_publ_section_title
;
Structure prediction by ZEFSAII (Michael W. Deem and Ramdas Pophale) SiO2 
 PCOD9148332
Probable space group: P 2/M
;
_chemical_formula_sum "Si O2"
_cell_formula_units_Z 32
_cell_length_a 28.515219
_cell_length_b 13.791250
_cell_length_c 10.013887
_cell_angle_alpha 90.000000
_cell_angle_beta 27.255547
_cell_angle_gamma 90.000000
_cell_volume 1803.476793
_symmetry_space_group_name_H-M "P 2/M"
_symmetry_group_IT_number 10
_symmetry_cell_setting 'monoclinic'
loop_
_space_group_symop_operation_xyz
x,y,z
-x,y,-z
-x,-y,-z
x,-y,z
loop_
_atom_site_type_symbol
_atom_site_label
_atom_site_fract_x
_atom_site_fract_y
_atom_site_fract_z
Si Si1 0.534658 0.111068 0.758031
Si Si2 0.903609 0.615119 0.842290
Si Si3 0.278230 0.757961 0.779069
Si Si4 0.185947 0.114735 0.797676
Si Si5 0.960152 0.615665 0.246913
Si Si6 0.028953 0.884976 0.577221
Si Si7 0.788874 0.236847 0.763667
Si Si8 0.309452 0.885261 0.223506
O O1 0.608407 0.203376 0.547683
O O2 0.577266 0.000000 0.625403
O O3 0.500000 0.111096 0.000000
O O4 0.431251 0.120076 0.934019
O O5 0.885480 0.500000 0.873587
O O6 0.000000 0.639251 0.500000
O O7 0.951671 0.634762 0.866246
O O8 0.797020 0.671357 0.084301
O O9 0.218516 0.846990 0.859659
O O10 0.280219 0.742229 0.932388
O O11 0.255812 0.148223 0.498218
O O12 0.195657 0.000000 0.775458
O O13 0.066942 0.138866 0.084779
O O14 0.941487 0.500000 0.296599
O O15 0.856150 0.672005 0.545733
O O16 0.000000 0.643682 0.000000
O O17 0.127528 0.835067 0.384837
O O18 0.000000 0.855024 0.500000
O O19 0.042409 0.000000 0.540803
O O20 0.730828 0.181981 0.792741
O O21 0.283254 0.000000 0.268693
#
# Coordination Sequence:
#
# PCOD9148332 Si02
#       8
#     4   4   4   4   4   4   4   4
#     4  10  21  40  63  85 114 157 210 257 296 346
#     4  10  21  40  63  91 123 151 190 243 298 366
#     4  12  22  34  62  88 113 151 201 245 298 351
#     4  10  20  34  54  80 113 154 198 238 287 353
#     4  10  23  40  59  85 120 159 194 235 293 361
#     4  10  20  32  48  77 118 154 187 228 283 354
#     4  12  24  34  56  87 121 153 194 246 298 352
#     4  10  23  40  56  81 115 156 205 250 293 342
#
# _framework density 17.743506
#
# number of rings (size 3 to 8) (size 9 to 14) (size 15 to 20)
#    0.000    1.500    3.750    1.500    3.500    2.000 
#    0.000    3.125    0.000    1.125    0.000    1.750 
#    0.000    0.000    0.000    0.000    0.000    0.000 
#
# Total GULP energy -178279.918439 kJ/mol
# GULP energy per Si atom -5571.247451 kJ/mol
# Density = 1.770312 g / cm^3
# Si number density = 17.743506 Si / 1000 Ang^3
#
#
#
# Elastic Constant Matrix: (Units=GPa)
#
#
# Indices 1 2 3 4 5 6 
#
# 1 93.9701 34.8386 38.1653 0.0000 5.9619 0.0000
# 2 34.8386 86.8571 46.4570 0.0000 -0.8025 0.0000
# 3 38.1653 46.4570 81.1133 0.0000 6.7970 0.0000
# 4 0.0000 0.0000 0.0000 19.8892 0.0000 -5.3289
# 5 5.9619 -0.8025 6.7970 0.0000 30.1637 0.0000
# 6 0.0000 0.0000 0.0000 -5.3289 0.0000 23.2517
#
#
#
# Elastic Compliance Matrix: (Units=1/GPa)
#
#
# Indices 1 2 3 4 5 6 
#
# 1 0.013750 -0.003101 -0.004545 0.000000 -0.001776 0.000000
# 2 -0.003101 0.017505 -0.008824 0.000000 0.003067 0.000000
# 3 -0.004545 -0.008824 0.019840 0.000000 -0.003807 0.000000
# 4 0.000000 0.000000 0.000000 0.053568 0.000000 0.012277
# 5 -0.001776 0.003067 -0.003807 0.000000 0.034443 0.000000
# 6 0.000000 0.000000 0.000000 0.012277 0.000000 0.045821
#
#
# Mechanical properties :
#
#
# Convention : Reuss Voigt Hill
#
# Bulk Modulus (GPa) = 55.07927 55.65135 55.36531
# Shear Modulus (GPa) = 22.32976 24.15957 23.24467
#
# Velocity S-wave (km/s) = 3.55135 3.69399 3.62337
# Velocity P-wave (km/s) = 6.92282 7.04461 6.98398
#
# Compressibility (1/GPa) = 0.01815565
#
# Stress axis : x y z
#
# Youngs Moduli (GPa) = 72.72868 57.12752 50.40415
#
# Poissons Ratio (x) = 0.17713 0.22908
# Poissons Ratio (y) = 0.22550 0.44476
# Poissons Ratio (z) = 0.33054 0.50408
#
# Static dielectric constant tensor:
#      x y z
#    x 1.608210 0.000000 0.009430 
#    y 0.000000 1.623860 0.000000 
#    z 0.009430 0.000000 1.698630 
# 
# From -- ./inp_files/37720.got.cif
#   From: 2010.05.17/outbox.cif.g08.bks.cpg/sg10_19_cif.got.tgz:37720.got - 2010.06.03 11:33:40.
