data_PCOD9148633
_publ_section_title
;
Structure prediction by ZEFSAII (Michael W. Deem and Ramdas Pophale) SiO2 
 PCOD9148633
Probable space group: P 2/M
;
_chemical_formula_sum "Si O2"
_cell_formula_units_Z 24
_cell_length_a 23.626407
_cell_length_b 9.973907
_cell_length_c 5.525354
_cell_angle_alpha 90.000000
_cell_angle_beta 115.213862
_cell_angle_gamma 90.000000
_cell_volume 1177.983537
_symmetry_space_group_name_H-M "P 2/M"
_symmetry_group_IT_number 10
_symmetry_cell_setting 'monoclinic'
loop_
_space_group_symop_operation_xyz
x,y,z
-x,y,-z
-x,-y,-z
x,-y,z
loop_
_atom_site_type_symbol
_atom_site_label
_atom_site_fract_x
_atom_site_fract_y
_atom_site_fract_z
Si Si1 0.572251 0.163311 0.174325
Si Si2 0.634209 0.839259 0.789678
Si Si3 0.944462 0.353763 0.091283
Si Si4 0.820508 0.651123 0.539824
Si Si5 0.879431 0.149088 0.260224
Si Si6 0.755737 0.148298 0.726051
O O1 0.596651 0.209651 0.482124
O O2 0.575830 0.000000 0.187080
O O3 0.500000 0.198817 0.000000
O O4 0.611907 0.210240 0.011703
O O5 0.706495 0.820208 0.847807
O O6 0.624135 0.000000 0.781077
O O7 0.951535 0.500000 0.225559
O O8 0.937681 0.226790 0.251445
O O9 0.877865 0.360740 0.833427
O O10 0.000000 0.338849 0.000000
O O11 0.805709 0.500000 0.429215
O O12 0.849146 0.749389 0.393881
O O13 0.762360 0.730258 0.551656
O O14 0.893282 0.000000 0.380869
O O15 0.824664 0.134402 0.962002
O O16 0.738110 0.000000 0.589814
#
# Coordination Sequence:
#
# PCOD9148633 Si02
#       6
#     4   4   4   4   4   4
#     4   9  16  26  41  66 102 141 176 213 262 319
#     4   9  17  27  44  68  99 139 178 216 263 320
#     4   9  19  36  54  72  97 131 172 213 256 312
#     4  10  20  34  53  74  99 131 167 213 263 310
#     4  10  20  33  51  74 102 134 167 210 263 315
#     4   9  19  33  50  72 100 135 172 211 259 315
#
# _framework density 20.373799999999999
#
# number of rings (size 3 to 8) (size 9 to 14) (size 15 to 20)
#    0.000    2.667    0.000    1.500    2.333    4.333 
#    0.000    3.333    0.000    0.000    0.000    0.000 
#    0.000    4.000    0.000    0.000    0.000    0.000 
#
# Total GULP energy -133713.301892 kJ/mol
# GULP energy per Si atom -5571.387579 kJ/mol
# Density = 2.032743 g / cm^3
# Si number density = 20.373800 Si / 1000 Ang^3
#
#
#
# Elastic Constant Matrix: (Units=GPa)
#
#
# Indices 1 2 3 4 5 6 
#
# 1 94.0612 41.7119 6.4873 0.0000 -11.3102 0.0000
# 2 41.7119 140.9001 17.4420 0.0000 -27.3972 0.0000
# 3 6.4873 17.4420 43.4321 0.0000 -2.7011 0.0000
# 4 0.0000 0.0000 0.0000 9.8255 0.0000 -37.5942
# 5 -11.3102 -27.3972 -2.7011 0.0000 32.2105 0.0000
# 6 0.0000 0.0000 0.0000 -37.5942 0.0000 -134.3184
#
#
#
# Elastic Compliance Matrix: (Units=1/GPa)
#
#
# Indices 1 2 3 4 5 6 
#
# 1 0.012303 -0.003303 -0.000419 0.000000 0.001475 0.000000
# 2 -0.003303 0.009793 -0.003009 0.000000 0.006917 0.000000
# 3 -0.000419 -0.003009 0.024254 0.000000 -0.000673 0.000000
# 4 0.000000 0.000000 0.000000 0.049146 0.000000 -0.013755
# 5 0.001475 0.006917 -0.000673 0.000000 0.037391 0.000000
# 6 0.000000 0.000000 0.000000 -0.013755 0.000000 -0.003595
#
#
# Mechanical properties :
#
#
# Convention : Reuss Voigt Hill
#
# Bulk Modulus (GPa) = 30.40856 45.51951 37.96404
# Shear Modulus (GPa) = 32.52772 -4.27299 14.12736
#
# Velocity S-wave (km/s) = 4.00002 -1.44978 2.63612
# Velocity P-wave (km/s) = 6.02422 4.42586 5.28580
#
# Compressibility (1/GPa) = 0.03288548
#
# Stress axis : x y z
#
# Youngs Moduli (GPa) = 81.28414 102.11782 41.23097
#
# Poissons Ratio (x) = 0.33733 0.01729
# Poissons Ratio (y) = 0.26851 0.12407
# Poissons Ratio (z) = 0.03408 0.30728
#
# Static dielectric constant tensor:
#      x y z
#    x 1.724440 0.000000 -0.008750 
#    y 0.000000 1.761970 0.000000 
#    z -0.008750 0.000000 1.802840 
# 
# From -- ./inp_files/13005.got.cif
#   From: 2010.05.17/outbox.cif.g08.bks.cpg/sg10_7_cif.got.tgz:13005.got - 2010.06.03 11:33:40.
