data_PCOD9148382
_publ_section_title
;
Structure prediction by ZEFSAII (Michael W. Deem and Ramdas Pophale) SiO2 
 PCOD9148382
Probable space group: P 2/M
;
_chemical_formula_sum "Si O2"
_cell_formula_units_Z 18
_cell_length_a 14.177727
_cell_length_b 16.600749
_cell_length_c 12.386535
_cell_angle_alpha 90.000000
_cell_angle_beta 20.956525
_cell_angle_gamma 90.000000
_cell_volume 1042.686730
_symmetry_space_group_name_H-M "P 2/M"
_symmetry_group_IT_number 10
_symmetry_cell_setting 'monoclinic'
loop_
_space_group_symop_operation_xyz
x,y,z
-x,y,-z
-x,-y,-z
x,-y,z
loop_
_atom_site_type_symbol
_atom_site_label
_atom_site_fract_x
_atom_site_fract_y
_atom_site_fract_z
Si Si1 0.969271 0.095086 0.407338
Si Si2 0.057231 0.591038 0.810142
Si Si3 0.443454 0.691247 0.688829
Si Si4 0.281210 0.000000 0.641867
Si Si5 0.537502 0.859123 0.707776
O O1 0.000000 0.116680 0.500000
O O2 0.738026 0.143257 0.594277
O O3 0.899215 0.000000 0.476160
O O4 0.251815 0.108078 0.048960
O O5 0.027960 0.500000 0.799684
O O6 0.650457 0.625637 0.511131
O O7 0.846884 0.654110 0.988666
O O8 0.000000 0.587691 0.000000
O O9 0.500000 0.702886 0.500000
O O10 0.491314 0.774326 0.698997
O O11 0.500000 0.000000 0.500000
O O12 0.326617 0.078280 0.519744
O O13 0.000000 0.000000 0.000000
#
# Coordination Sequence:
#
# PCOD9148382 Si02
#       5
#     4   4   4   2   4
#     4  11  22  39  59  77  99 135 186 239 285 313
#     4   9  17  31  50  73 104 143 180 212 255 307
#     4  10  20  32  50  77 111 145 173 213 257 310
#     4  12  24  36  51  74 109 152 184 206 242 314
#     4  12  22  38  54  79 109 142 184 221 268 317
#
# _framework density 17.263095
#
# number of rings (size 3 to 8) (size 9 to 14) (size 15 to 20)
#    0.000    1.333    2.222    4.667    0.000    7.111 
#    0.000    0.000    0.000    0.000    0.000    0.000 
#    0.000   62.222    0.000    0.000    0.000    0.000 
#
# Total GULP energy -100532.829823 kJ/mol
# GULP energy per Si atom -5585.157212 kJ/mol
# Density = 1.722380 g / cm^3
# Si number density = 17.263095 Si / 1000 Ang^3
#
#
#
# Elastic Constant Matrix: (Units=GPa)
#
#
# Indices 1 2 3 4 5 6 
#
# 1 111.9865 52.2746 21.0755 0.0000 -20.6497 0.0000
# 2 52.2746 107.1002 11.5232 0.0000 0.8570 0.0000
# 3 21.0755 11.5232 47.0004 0.0000 -15.2803 0.0000
# 4 0.0000 0.0000 0.0000 13.3875 0.0000 -6.1140
# 5 -20.6497 0.8570 -15.2803 0.0000 29.0130 0.0000
# 6 0.0000 0.0000 0.0000 -6.1140 0.0000 14.3543
#
#
#
# Elastic Compliance Matrix: (Units=1/GPa)
#
#
# Indices 1 2 3 4 5 6 
#
# 1 0.014148 -0.006807 -0.001612 0.000000 0.009422 0.000000
# 2 -0.006807 0.012947 -0.002198 0.000000 -0.006385 0.000000
# 3 -0.001612 -0.002198 0.026770 0.000000 0.013017 0.000000
# 4 0.000000 0.000000 0.000000 0.092736 0.000000 0.039499
# 5 0.009422 -0.006385 0.013017 0.000000 0.048217 0.000000
# 6 0.000000 0.000000 0.000000 0.039499 0.000000 0.086490
#
#
# Mechanical properties :
#
#
# Convention : Reuss Voigt Hill
#
# Bulk Modulus (GPa) = 30.64566 48.42596 39.53581
# Shear Modulus (GPa) = 15.95308 23.43187 19.69248
#
# Velocity S-wave (km/s) = 3.04322 3.68820 3.38113
# Velocity P-wave (km/s) = 5.48989 6.80072 6.18016
#
# Compressibility (1/GPa) = 0.03263105
#
# Stress axis : x y z
#
# Youngs Moduli (GPa) = 70.68108 77.23641 37.35539
#
# Poissons Ratio (x) = 0.52579 0.06022
# Poissons Ratio (y) = 0.48116 0.08209
# Poissons Ratio (z) = 0.11394 0.16973
#
# Static dielectric constant tensor:
#      x y z
#    x 1.593730 0.000000 -0.007650 
#    y 0.000000 1.575470 0.000000 
#    z -0.007650 0.000000 1.572730 
# 
# From -- ./inp_files/51787.got.cif
#   From: 2010.05.17/outbox.cif.g08.bks.cpg/sg10_26_cif.got.tgz:51787.got - 2010.06.03 11:33:40.
