data_PCOD9148118
_publ_section_title
;
Structure prediction by ZEFSAII (Michael W. Deem and Ramdas Pophale) SiO2 
 PCOD9148118
Probable space group: P 2/M
;
_chemical_formula_sum "Si O2"
_cell_formula_units_Z 14
_cell_length_a 7.197542
_cell_length_b 9.854207
_cell_length_c 10.176619
_cell_angle_alpha 90.000000
_cell_angle_beta 132.286146
_cell_angle_gamma 90.000000
_cell_volume 533.973980
_symmetry_space_group_name_H-M "P 2/M"
_symmetry_group_IT_number 10
_symmetry_cell_setting 'monoclinic'
loop_
_space_group_symop_operation_xyz
x,y,z
-x,y,-z
-x,-y,-z
x,-y,z
loop_
_atom_site_type_symbol
_atom_site_label
_atom_site_fract_x
_atom_site_fract_y
_atom_site_fract_z
Si Si1 0.257433 0.000000 0.039270
Si Si2 0.828199 0.704656 0.051270
Si Si3 0.244721 0.305828 0.452783
Si Si4 0.402909 0.500000 0.753471
Si Si5 0.256877 0.000000 0.542575
O O1 0.496370 0.000000 0.248732
O O2 0.246920 0.859732 0.956995
O O3 0.000000 0.000000 0.000000
O O4 0.003173 0.653681 0.252509
O O5 0.587853 0.616159 0.907303
O O6 0.000000 0.699895 0.000000
O O7 0.500000 0.347878 0.500000
O O8 0.264166 0.380409 0.599672
O O9 0.253944 0.142333 0.464602
O O10 0.000000 0.000000 0.500000
#
# Coordination Sequence:
#
# PCOD9148118 Si02
#       5
#     2   4   4   2   2
#     4  10  19  42  66  94 130 172 227 288 327 382
#     4  11  21  35  62 100 138 168 220 285 341 396
#     4  12  23  40  69 102 135 181 229 281 349 403
#     4  12  22  36  63 105 147 165 227 288 344 402
#     4  12  26  48  71  98 139 184 233 289 345 410
#
# _framework density 26.218505
#
# number of rings (size 3 to 8) (size 9 to 14) (size 15 to 20)
#    0.000    0.571    5.714    4.714    0.000    0.000 
#    0.000    3.571    0.000    1.714    0.000    0.000 
#    0.000    0.000    0.000    0.000    0.000    0.000 
#
# Total GULP energy -78102.690549 kJ/mol
# GULP energy per Si atom -5578.763611 kJ/mol
# Density = 2.615883 g / cm^3
# Si number density = 26.218505 Si / 1000 Ang^3
#
#
#
# Elastic Constant Matrix: (Units=GPa)
#
#
# Indices 1 2 3 4 5 6 
#
# 1 125.6315 -1.2415 37.6146 0.0000 15.1893 0.0000
# 2 -1.2415 253.7901 77.8129 0.0000 -3.2519 0.0000
# 3 37.6146 77.8129 335.6882 0.0000 27.7615 0.0000
# 4 0.0000 0.0000 0.0000 77.4626 0.0000 12.1299
# 5 15.1893 -3.2519 27.7615 0.0000 30.2447 0.0000
# 6 0.0000 0.0000 0.0000 12.1299 0.0000 -22.1361
#
#
#
# Elastic Compliance Matrix: (Units=1/GPa)
#
#
# Indices 1 2 3 4 5 6 
#
# 1 0.008617 0.000214 -0.000713 0.000000 -0.003650 0.000000
# 2 0.000214 0.004308 -0.001139 0.000000 0.001401 0.000000
# 3 -0.000713 -0.001139 0.003575 0.000000 -0.003045 0.000000
# 4 0.000000 0.000000 0.000000 0.011889 0.000000 0.006515
# 5 -0.003650 0.001401 -0.003045 0.000000 0.037842 0.000000
# 6 0.000000 0.000000 0.000000 0.006515 0.000000 -0.041605
#
#
# Mechanical properties :
#
#
# Convention : Reuss Voigt Hill
#
# Bulk Modulus (GPa) = 75.61875 104.83131 90.22503
# Shear Modulus (GPa) = 154.75129 57.17581 105.96355
#
# Velocity S-wave (km/s) = 7.69102 4.67491 6.36422
# Velocity P-wave (km/s) = 10.38140 8.31927 9.40701
#
# Compressibility (1/GPa) = 0.01322423
#
# Stress axis : x y z
#
# Youngs Moduli (GPa) = 116.05329 232.10850 279.74831
#
# Poissons Ratio (x) = -0.04969 0.19955
# Poissons Ratio (y) = -0.02485 0.31850
# Poissons Ratio (z) = 0.08278 0.26426
#
# Static dielectric constant tensor:
#      x y z
#    x 2.100730 0.000000 -0.079610 
#    y 0.000000 2.013770 0.000000 
#    z -0.079610 0.000000 1.884770 
# 
# From -- ./inp_files/31813.got.cif
#   From: 2010.05.17/outbox.cif.g08.bks.cpg/sg10_16_cif.got.tgz:31813.got - 2010.06.03 11:33:40.
