data_PCOD9148119
_publ_section_title
;
Structure prediction by ZEFSAII (Michael W. Deem and Ramdas Pophale) SiO2 
 PCOD9148119
Probable space group: P 2/M
;
_chemical_formula_sum "Si O2"
_cell_formula_units_Z 21
_cell_length_a 6.947821
_cell_length_b 28.148834
_cell_length_c 5.413325
_cell_angle_alpha 90.000000
_cell_angle_beta 70.566980
_cell_angle_gamma 90.000000
_cell_volume 998.387503
_symmetry_space_group_name_H-M "P 2/M"
_symmetry_group_IT_number 10
_symmetry_cell_setting 'monoclinic'
loop_
_space_group_symop_operation_xyz
x,y,z
-x,y,-z
-x,-y,-z
x,-y,z
loop_
_atom_site_type_symbol
_atom_site_label
_atom_site_fract_x
_atom_site_fract_y
_atom_site_fract_z
Si Si1 0.500000 0.500000 0.000000
Si Si2 0.000000 0.638118 0.500000
Si Si3 0.000000 0.179005 0.500000
Si Si4 0.699443 0.314027 0.262121
Si Si5 0.635963 0.895213 0.692092
Si Si6 0.000000 0.239730 0.000000
Si Si7 0.772562 0.410692 0.982170
Si Si8 0.634662 0.000000 0.692633
O O1 0.355022 0.457927 0.942654
O O2 0.889632 0.671881 0.354838
O O3 0.825832 0.603756 0.679874
O O4 0.196133 0.145449 0.384420
O O5 0.976766 0.209772 0.260488
O O6 0.500000 0.300651 0.500000
O O7 0.794758 0.271972 0.061247
O O8 0.665556 0.363943 0.137798
O O9 0.500000 0.891907 0.500000
O O10 0.737028 0.948167 0.650352
O O11 0.500000 0.891237 0.000000
O O12 0.000000 0.415792 0.000000
O O13 0.500000 0.000000 0.500000
O O14 0.500000 0.000000 0.000000
#
# Coordination Sequence:
#
# PCOD9148119 Si02
#       8
#     1   2   2   4   4   2   4   2
#     4  12  22  38  62 100 124 164 204 242 336 412
#     4  10  19  43  66  91 125 160 204 262 316 384
#     4  12  27  43  66  99 135 181 222 287 342 392
#     4  11  23  43  68  90 120 166 212 268 325 389
#     4  10  21  41  67  96 140 178 225 279 336 402
#     4  12  26  46  66  98 132 170 238 282 330 400
#     4  10  22  40  63  91 127 158 200 258 319 388
#     4   8  16  33  62  97 128 178 224 271 328 397
#
# _framework density 21.033919000000001
#
# number of rings (size 3 to 8) (size 9 to 14) (size 15 to 20)
#    0.000    1.524    2.857    3.143    0.000    3.048 
#    0.000   10.952    0.000    8.000    0.000    0.000 
#    0.000    0.000    0.000    0.000    0.000    0.000 
#
# Total GULP energy -116924.049102 kJ/mol
# GULP energy per Si atom -5567.811862 kJ/mol
# Density = 2.098605 g / cm^3
# Si number density = 21.033919 Si / 1000 Ang^3
#
#
#
# Elastic Constant Matrix: (Units=GPa)
#
#
# Indices 1 2 3 4 5 6 
#
# 1 79.9067 47.0901 32.5760 0.0000 -10.2030 0.0000
# 2 47.0901 163.2745 68.1299 0.0000 -22.0039 0.0000
# 3 32.5760 68.1299 129.0494 0.0000 -7.6026 0.0000
# 4 0.0000 0.0000 0.0000 -27.8175 0.0000 -21.7473
# 5 -10.2030 -22.0039 -7.6026 0.0000 36.6005 0.0000
# 6 0.0000 0.0000 0.0000 -21.7473 0.0000 -133.2847
#
#
#
# Elastic Compliance Matrix: (Units=1/GPa)
#
#
# Indices 1 2 3 4 5 6 
#
# 1 0.015583 -0.003393 -0.002031 0.000000 0.001882 0.000000
# 2 -0.003393 0.009188 -0.003771 0.000000 0.003795 0.000000
# 3 -0.002031 -0.003771 0.010210 0.000000 -0.000712 0.000000
# 4 0.000000 0.000000 0.000000 -0.041205 0.000000 0.006723
# 5 0.001882 0.003795 -0.000712 0.000000 0.029980 0.000000
# 6 0.000000 0.000000 0.000000 0.006723 0.000000 -0.008600
#
#
# Mechanical properties :
#
#
# Convention : Reuss Voigt Hill
#
# Bulk Modulus (GPa) = 60.27316 74.20250 67.23783
# Shear Modulus (GPa) = 127.95255 -9.93805 59.00725
#
# Velocity S-wave (km/s) = 7.80792 -2.17601 5.30229
# Velocity P-wave (km/s) = 10.48819 5.38895 8.33795
#
# Compressibility (1/GPa) = 0.01659113
#
# Stress axis : x y z
#
# Youngs Moduli (GPa) = 64.17436 108.83794 97.93880
#
# Poissons Ratio (x) = 0.36927 0.19895
# Poissons Ratio (y) = 0.21774 0.36929
# Poissons Ratio (z) = 0.13036 0.41039
#
# Static dielectric constant tensor:
#      x y z
#    x 1.584120 0.000000 -0.045270 
#    y 0.000000 1.758460 0.000000 
#    z -0.045270 0.000000 1.808740 
# 
# From -- ./inp_files/5291.got.cif
#   From: 2010.05.17/outbox.cif.g08.bks.cpg/sg10_3_cif.got.tgz:5291.got - 2010.06.03 11:33:40.
