data_PCOD9148348
_publ_section_title
;
Structure prediction by ZEFSAII (Michael W. Deem and Ramdas Pophale) SiO2 
 PCOD9148348
Probable space group: P 2/M
;
_chemical_formula_sum "Si O2"
_cell_formula_units_Z 28
_cell_length_a 26.260893
_cell_length_b 7.485907
_cell_length_c 9.854201
_cell_angle_alpha 90.000000
_cell_angle_beta 37.495040
_cell_angle_gamma 90.000000
_cell_volume 1179.161963
_symmetry_space_group_name_H-M "P 2/M"
_symmetry_group_IT_number 10
_symmetry_cell_setting 'monoclinic'
loop_
_space_group_symop_operation_xyz
x,y,z
-x,y,-z
-x,-y,-z
x,-y,z
loop_
_atom_site_type_symbol
_atom_site_label
_atom_site_fract_x
_atom_site_fract_y
_atom_site_fract_z
Si Si1 0.201979 0.786950 0.072778
Si Si2 0.416350 0.718106 0.259646
Si Si3 0.754805 0.285441 0.519657
Si Si4 0.881025 0.213339 0.025262
Si Si5 0.314637 0.713384 0.062119
Si Si6 0.499811 0.282257 0.654705
Si Si7 0.954864 0.796296 0.447548
O O1 0.289322 0.756659 0.961940
O O2 0.133267 0.711318 0.325071
O O3 0.190088 0.000000 0.093356
O O4 0.179711 0.720509 0.969251
O O5 0.414835 0.500000 0.258816
O O6 0.328447 0.778843 0.383639
O O7 0.430925 0.775712 0.384241
O O8 0.500000 0.770357 0.000000
O O9 0.750257 0.500000 0.533065
O O10 0.837308 0.243379 0.260482
O O11 0.747160 0.218425 0.690000
O O12 0.888502 0.000000 0.992852
O O13 0.974796 0.284582 0.799544
O O14 0.315032 0.500000 0.066998
O O15 0.408089 0.769950 0.901953
O O16 0.500000 0.219702 0.500000
O O17 0.504023 0.500000 0.642527
O O18 0.000000 0.804720 0.500000
O O19 0.938550 0.000000 0.435984
#
# Coordination Sequence:
#
# PCOD9148348 Si02
#       7
#     4   4   4   4   4   4   4
#     4   9  18  33  54  76  98 127 163 203 249 295
#     4   9  15  28  47  66  92 128 166 201 236 279
#     4  10  20  32  49  74 103 133 165 201 243 291
#     4   9  18  33  54  77  98 124 164 208 245 289
#     4  10  20  33  48  73 106 133 161 200 247 294
#     4   9  17  28  45  70  96 124 163 206 242 281
#     4   7  12  28  52  73  93 122 162 204 241 284
#
# _framework density 23.74568
#
# number of rings (size 3 to 8) (size 9 to 14) (size 15 to 20)
#    0.000    3.000    1.429    1.714    2.000    1.143 
#    0.000    1.429    0.000    8.571    0.000    0.000 
#    0.000    0.000    0.000    0.000    0.000    0.000 
#
# Total GULP energy -156164.572084 kJ/mol
# GULP energy per Si atom -5577.306146 kJ/mol
# Density = 2.369163 g / cm^3
# Si number density = 23.745680 Si / 1000 Ang^3
#
#
#
# Elastic Constant Matrix: (Units=GPa)
#
#
# Indices 1 2 3 4 5 6 
#
# 1 41.4820 -4.5677 -22.0867 0.0000 12.0115 0.0000
# 2 -4.5677 65.6896 -0.1314 0.0000 -0.0921 0.0000
# 3 -22.0867 -0.1314 79.4174 0.0000 24.1447 0.0000
# 4 0.0000 0.0000 0.0000 18.2657 0.0000 -2.2611
# 5 12.0115 -0.0921 24.1447 0.0000 27.7166 0.0000
# 6 0.0000 0.0000 0.0000 -2.2611 0.0000 15.9741
#
#
#
# Elastic Compliance Matrix: (Units=1/GPa)
#
#
# Indices 1 2 3 4 5 6 
#
# 1 0.056138 0.003894 0.031301 0.000000 -0.051583 0.000000
# 2 0.003894 0.015493 0.002184 0.000000 -0.003539 0.000000
# 3 0.031301 0.002184 0.034581 0.000000 -0.043682 0.000000
# 4 0.000000 0.000000 0.000000 0.055724 0.000000 0.007888
# 5 -0.051583 -0.003539 -0.043682 0.000000 0.096475 0.000000
# 6 0.000000 0.000000 0.000000 0.007888 0.000000 0.063718
#
#
# Mechanical properties :
#
#
# Convention : Reuss Voigt Hill
#
# Bulk Modulus (GPa) = 5.52573 14.77972 10.15273
# Shear Modulus (GPa) = 16.24994 26.61628 21.43311
#
# Velocity S-wave (km/s) = 2.61881 3.35160 3.00761
# Velocity P-wave (km/s) = 3.38767 4.60601 4.04300
#
# Compressibility (1/GPa) = 0.18097155
#
# Stress axis : x y z
#
# Youngs Moduli (GPa) = 17.81320 64.54420 28.91768
#
# Poissons Ratio (x) = -0.25132 -0.90516
# Poissons Ratio (y) = -0.06936 -0.06317
# Poissons Ratio (z) = -0.55758 -0.14099
#
# Static dielectric constant tensor:
#      x y z
#    x 1.884050 0.000000 -0.005030 
#    y 0.000000 1.922150 0.000000 
#    z -0.005030 0.000000 1.960520 
# 
# From -- ./inp_files/37009.got.cif
#   From: 2010.05.17/outbox.cif.g08.bks.cpg/sg10_19_cif.got.tgz:37009.got - 2010.06.03 11:33:40.
