data_PCOD9148002
_publ_section_title
;
Structure prediction by ZEFSAII (Michael W. Deem and Ramdas Pophale) SiO2 
 PCOD9148002
Probable space group: P 2/M
;
_chemical_formula_sum "Si O2"
_cell_formula_units_Z 18
_cell_length_a 11.762190
_cell_length_b 7.937665
_cell_length_c 10.509228
_cell_angle_alpha 90.000000
_cell_angle_beta 67.595466
_cell_angle_gamma 90.000000
_cell_volume 907.122928
_symmetry_space_group_name_H-M "P 2/M"
_symmetry_group_IT_number 10
_symmetry_cell_setting 'monoclinic'
loop_
_space_group_symop_operation_xyz
x,y,z
-x,y,-z
-x,-y,-z
x,-y,z
loop_
_atom_site_type_symbol
_atom_site_label
_atom_site_fract_x
_atom_site_fract_y
_atom_site_fract_z
Si Si1 0.460509 0.000000 0.735666
Si Si2 0.844163 0.807961 0.803535
Si Si3 0.754960 0.000000 0.611041
Si Si4 0.230773 0.000000 0.686299
Si Si5 0.391456 0.688247 0.942214
Si Si6 0.926241 0.689183 0.163691
O O1 0.377004 0.000000 0.645550
O O2 0.419510 0.164690 0.831760
O O3 0.607462 0.000000 0.666524
O O4 0.801151 0.842160 0.677056
O O5 0.970284 0.711644 0.771572
O O6 0.862635 0.000000 0.846192
O O7 0.735592 0.723955 0.930072
O O8 0.803441 0.000000 0.447776
O O9 0.172612 0.165258 0.775305
O O10 0.389091 0.500000 0.887864
O O11 0.500000 0.695275 0.000000
O O12 0.875116 0.500000 0.187343
O O13 0.000000 0.711586 0.000000
#
# Coordination Sequence:
#
# PCOD9148002 Si02
#       6
#     2   4   2   2   4   4
#     4  12  21  41  62  87 127 163 201 253 302 349
#     4  10  19  37  65  86 126 155 193 253 304 349
#     4  10  23  41  61  90 121 161 213 247 289 367
#     4  12  25  41  65  84 122 172 203 243 301 354
#     4  11  20  34  62  95 122 153 196 250 308 358
#     4  11  24  42  64  94 123 152 199 253 308 366
#
# _framework density 19.842956999999998
#
# number of rings (size 3 to 8) (size 9 to 14) (size 15 to 20)
#    0.667    0.444    4.444    3.000    0.000    4.444 
#    0.000    4.444    0.000    2.667    0.000    0.000 
#    0.000    0.000    0.000    0.000    0.000    0.000 
#
# Total GULP energy -100527.077782 kJ/mol
# GULP energy per Si atom -5584.837655 kJ/mol
# Density = 1.979779 g / cm^3
# Si number density = 19.842957 Si / 1000 Ang^3
#
#
#
# Elastic Constant Matrix: (Units=GPa)
#
#
# Indices 1 2 3 4 5 6 
#
# 1 96.7584 20.1689 11.2610 0.0000 14.8102 0.0000
# 2 20.1689 142.8938 44.1221 0.0000 -3.3489 0.0000
# 3 11.2610 44.1221 71.6430 0.0000 12.3438 0.0000
# 4 0.0000 0.0000 0.0000 -31.4830 0.0000 -49.5349
# 5 14.8102 -3.3489 12.3438 0.0000 24.0731 0.0000
# 6 0.0000 0.0000 0.0000 -49.5349 0.0000 -60.4323
#
#
#
# Elastic Compliance Matrix: (Units=1/GPa)
#
#
# Indices 1 2 3 4 5 6 
#
# 1 0.011914 -0.002124 0.000822 0.000000 -0.008046 0.000000
# 2 -0.002124 0.009448 -0.006512 0.000000 0.005960 0.000000
# 3 0.000822 -0.006512 0.019835 0.000000 -0.011582 0.000000
# 4 0.000000 0.000000 0.000000 0.109654 0.000000 -0.089881
# 5 -0.008046 0.005960 -0.011582 0.000000 0.053258 0.000000
# 6 0.000000 0.000000 0.000000 -0.089881 0.000000 0.057126
#
#
# Mechanical properties :
#
#
# Convention : Reuss Voigt Hill
#
# Bulk Modulus (GPa) = 39.11011 51.37770 45.24391
# Shear Modulus (GPa) = 17.52011 2.14778 9.83395
#
# Velocity S-wave (km/s) = 2.97465 1.04151 2.22860
# Velocity P-wave (km/s) = 5.61700 5.23399 5.42888
#
# Compressibility (1/GPa) = 0.02556883
#
# Stress axis : x y z
#
# Youngs Moduli (GPa) = 83.93698 105.83795 50.41606
#
# Poissons Ratio (x) = 0.22479 -0.04143
# Poissons Ratio (y) = 0.17827 0.32831
# Poissons Ratio (z) = -0.06898 0.68921
#
# Static dielectric constant tensor:
#      x y z
#    x 1.716720 0.000000 0.033790 
#    y 0.000000 1.689990 0.000000 
#    z 0.033790 0.000000 1.674240 
# 
# From -- ./inp_files/22190.got.cif
#   From: 2010.05.17/outbox.cif.g08.bks.cpg/sg10_12_cif.got.tgz:22190.got - 2010.06.03 11:33:40.
