data_PCOD9148702
_publ_section_title
;
Structure prediction by ZEFSAII (Michael W. Deem and Ramdas Pophale) SiO2 
 PCOD9148702
Probable space group: P 2/M
;
_chemical_formula_sum "Si O2"
_cell_formula_units_Z 28
_cell_length_a 9.923449
_cell_length_b 7.356601
_cell_length_c 33.800228
_cell_angle_alpha 90.000000
_cell_angle_beta 32.865997
_cell_angle_gamma 90.000000
_cell_volume 1339.060332
_symmetry_space_group_name_H-M "P 2/M"
_symmetry_group_IT_number 10
_symmetry_cell_setting 'monoclinic'
loop_
_space_group_symop_operation_xyz
x,y,z
-x,y,-z
-x,-y,-z
x,-y,z
loop_
_atom_site_type_symbol
_atom_site_label
_atom_site_fract_x
_atom_site_fract_y
_atom_site_fract_z
Si Si1 0.584191 0.214952 0.705605
Si Si2 0.715593 0.776988 0.760674
Si Si3 0.074268 0.284255 0.797523
Si Si4 0.770362 0.205316 0.328600
Si Si5 0.476592 0.205646 0.048192
Si Si6 0.289467 0.777976 0.928551
Si Si7 0.270696 0.222629 0.418140
O O1 0.681499 0.282842 0.723691
O O2 0.289135 0.245433 0.775926
O O3 0.684736 0.284335 0.638324
O O4 0.634311 0.000000 0.693016
O O5 0.482812 0.721485 0.846164
O O6 0.985965 0.716063 0.710114
O O7 0.716470 0.000000 0.761734
O O8 0.048148 0.500000 0.799189
O O9 0.155601 0.202097 0.735765
O O10 0.814334 0.200753 0.872476
O O11 0.492881 0.285563 0.392672
O O12 0.742408 0.000000 0.351197
O O13 0.600740 0.284616 0.056523
O O14 0.580382 0.000000 0.018958
O O15 0.500000 0.297216 0.000000
O O16 0.293970 0.000000 0.926384
O O17 0.000000 0.723871 0.000000
O O18 0.000000 0.274411 0.500000
O O19 0.284418 0.000000 0.414550
#
# Coordination Sequence:
#
# PCOD9148702 Si02
#       7
#     4   4   4   4   4   4   4
#     4   9  18  31  51  74  97 128 168 204 243 292
#     4   9  16  28  49  73  97 124 163 210 248 286
#     4  11  21  33  49  70  99 132 166 204 249 292
#     4   9  16  31  53  73  95 127 166 204 243 292
#     4  10  20  33  52  73  94 124 167 208 247 291
#     4   9  17  28  45  72  98 119 153 204 248 283
#     4   8  14  26  46  73 104 132 159 196 242 291
#
# _framework density 20.910185999999999
#
# number of rings (size 3 to 8) (size 9 to 14) (size 15 to 20)
#    0.000    2.714    1.429    2.143    2.000    0.286 
#    0.000    1.429    0.000   11.571    0.000    0.000 
#    0.000    9.143    0.000    0.000    0.000    0.000 
#
# Total GULP energy -156039.375446 kJ/mol
# GULP energy per Si atom -5572.834837 kJ/mol
# Density = 2.086259 g / cm^3
# Si number density = 20.910186 Si / 1000 Ang^3
#
#
#
# Elastic Constant Matrix: (Units=GPa)
#
#
# Indices 1 2 3 4 5 6 
#
# 1 209.3266 7.8348 93.5530 0.0000 -21.6259 0.0000
# 2 7.8348 75.1215 1.5580 0.0000 7.6631 0.0000
# 3 93.5530 1.5580 125.6476 0.0000 -30.3115 0.0000
# 4 0.0000 0.0000 0.0000 2.5971 0.0000 -18.2951
# 5 -21.6259 7.6631 -30.3115 0.0000 32.8465 0.0000
# 6 0.0000 0.0000 0.0000 -18.2951 0.0000 5.2919
#
#
#
# Elastic Compliance Matrix: (Units=1/GPa)
#
#
# Indices 1 2 3 4 5 6 
#
# 1 0.007190 -0.000632 -0.005362 0.000000 -0.000067 0.000000
# 2 -0.000632 0.013835 -0.000746 0.000000 -0.004332 0.000000
# 3 -0.005362 -0.000746 0.014344 0.000000 0.009881 0.000000
# 4 0.000000 0.000000 0.000000 -0.016487 0.000000 -0.057000
# 5 -0.000067 -0.004332 0.009881 0.000000 0.040530 0.000000
# 6 0.000000 0.000000 0.000000 -0.057000 0.000000 -0.008091
#
#
# Mechanical properties :
#
#
# Convention : Reuss Voigt Hill
#
# Bulk Modulus (GPa) = 45.68431 68.44302 57.06366
# Shear Modulus (GPa) = 69.35098 28.62376 48.98737
#
# Velocity S-wave (km/s) = 5.76525 3.70387 4.84545
# Velocity P-wave (km/s) = 8.13713 7.14804 7.65857
#
# Compressibility (1/GPa) = 0.02188935
#
# Stress axis : x y z
#
# Youngs Moduli (GPa) = 139.07479 72.27997 69.71548
#
# Poissons Ratio (x) = 0.04568 0.37381
# Poissons Ratio (y) = 0.08788 0.05202
# Poissons Ratio (z) = 0.74571 0.05394
#
# Static dielectric constant tensor:
#      x y z
#    x 1.750100 0.000000 -0.011740 
#    y 0.000000 1.791130 0.000000 
#    z -0.011740 0.000000 1.747630 
# 
# From -- ./inp_files/79237.got.cif
#   From: 2010.05.17/outbox.cif.g08.bks.cpg/sg10_40_cif.got.tgz:79237.got - 2010.06.03 11:33:40.
