data_PCOD9148048
_publ_section_title
;
Structure prediction by ZEFSAII (Michael W. Deem and Ramdas Pophale) SiO2 
 PCOD9148048
Probable space group: P 2/M
;
_chemical_formula_sum "Si O2"
_cell_formula_units_Z 22
_cell_length_a 8.976388
_cell_length_b 13.724135
_cell_length_c 8.714515
_cell_angle_alpha 90.000000
_cell_angle_beta 92.083982
_cell_angle_gamma 90.000000
_cell_volume 1072.858588
_symmetry_space_group_name_H-M "P 2/M"
_symmetry_group_IT_number 10
_symmetry_cell_setting 'monoclinic'
loop_
_space_group_symop_operation_xyz
x,y,z
-x,y,-z
-x,-y,-z
x,-y,z
loop_
_atom_site_type_symbol
_atom_site_label
_atom_site_fract_x
_atom_site_fract_y
_atom_site_fract_z
Si Si1 0.164505 0.181281 0.985777
Si Si2 0.356762 0.777105 0.728524
Si Si3 0.338774 0.113314 0.281771
Si Si4 0.830669 0.278867 0.552801
Si Si5 0.198866 0.392454 0.136628
Si Si6 0.500000 0.351954 0.000000
O O1 0.285705 0.133939 0.104620
O O2 0.151002 0.295619 0.038911
O O3 0.221506 0.170980 0.814031
O O4 0.000000 0.138541 0.000000
O O5 0.494193 0.845492 0.685452
O O6 0.285196 0.712529 0.591862
O O7 0.425566 0.711854 0.864857
O O8 0.221376 0.176431 0.375045
O O9 0.333094 0.000000 0.315620
O O10 0.811507 0.357943 0.687077
O O11 0.000000 0.278915 0.500000
O O12 0.127797 0.500000 0.116469
O O13 0.367479 0.403072 0.084258
#
# Coordination Sequence:
#
# PCOD9148048 Si02
#       6
#     4   4   4   4   4   2
#     4  10  21  40  63  90 126 166 202 256 313 363
#     4  11  19  39  64  88 124 162 210 251 306 370
#     4  11  23  40  63  91 120 161 213 258 307 369
#     4  11  24  41  62  89 130 168 202 255 316 367
#     4  10  21  39  62  92 125 159 210 256 303 366
#     4  10  19  38  63  94 116 168 201 260 313 356
#
# _framework density 20.505963999999999
#
# number of rings (size 3 to 8) (size 9 to 14) (size 15 to 20)
#    0.000    1.455    5.455    3.000    0.000    4.364 
#    0.000    7.273    0.000    0.000    0.000    0.000 
#    0.000    0.000    0.000    0.000    0.000    0.000 
#
# Total GULP energy -122609.525759 kJ/mol
# GULP energy per Si atom -5573.160262 kJ/mol
# Density = 2.045929 g / cm^3
# Si number density = 20.505964 Si / 1000 Ang^3
#
#
#
# Elastic Constant Matrix: (Units=GPa)
#
#
# Indices 1 2 3 4 5 6 
#
# 1 131.5547 37.6084 44.4177 0.0000 -14.6446 0.0000
# 2 37.6084 102.6448 32.5854 0.0000 -5.2915 0.0000
# 3 44.4177 32.5854 92.6085 0.0000 -18.1546 0.0000
# 4 0.0000 0.0000 0.0000 5.0896 0.0000 -17.1456
# 5 -14.6446 -5.2915 -18.1546 0.0000 35.2958 0.0000
# 6 0.0000 0.0000 0.0000 -17.1456 0.0000 12.9408
#
#
#
# Elastic Compliance Matrix: (Units=1/GPa)
#
#
# Indices 1 2 3 4 5 6 
#
# 1 0.009639 -0.002346 -0.003428 0.000000 0.001884 0.000000
# 2 -0.002346 0.011543 -0.003100 0.000000 -0.000838 0.000000
# 3 -0.003428 -0.003100 0.014640 0.000000 0.005643 0.000000
# 4 0.000000 0.000000 0.000000 -0.056731 0.000000 -0.075164
# 5 0.001884 -0.000838 0.005643 0.000000 0.031891 0.000000
# 6 0.000000 0.000000 0.000000 -0.075164 0.000000 -0.022312
#
#
# Mechanical properties :
#
#
# Convention : Reuss Voigt Hill
#
# Bulk Modulus (GPa) = 55.33463 61.78121 58.55792
# Shear Modulus (GPa) = 401.80421 24.81167 213.30794
#
# Velocity S-wave (km/s) = 14.01322 3.48224 10.21020
# Velocity P-wave (km/s) = 16.99619 6.80895 12.94667
#
# Compressibility (1/GPa) = 0.01807187
#
# Stress axis : x y z
#
# Youngs Moduli (GPa) = 103.74006 86.63199 68.30793
#
# Poissons Ratio (x) = 0.20327 0.23419
# Poissons Ratio (y) = 0.24341 0.21178
# Poissons Ratio (z) = 0.35566 0.26860
#
# Static dielectric constant tensor:
#      x y z
#    x 1.784850 0.000000 -0.014380 
#    y 0.000000 1.738700 0.000000 
#    z -0.014380 0.000000 1.786370 
# 
# From -- ./inp_files/18858.got.cif
#   From: 2010.05.17/outbox.cif.g08.bks.cpg/sg10_10_cif.got.tgz:18858.got - 2010.06.03 11:33:40.
