data_PCOD9148657
_publ_section_title
;
Structure prediction by ZEFSAII (Michael W. Deem and Ramdas Pophale) SiO2 
 PCOD9148657
Probable space group: P 2/M
;
_chemical_formula_sum "Si O2"
_cell_formula_units_Z 28
_cell_length_a 8.060512
_cell_length_b 15.833306
_cell_length_c 17.918653
_cell_angle_alpha 90.000000
_cell_angle_beta 34.005667
_cell_angle_gamma 90.000000
_cell_volume 1278.983440
_symmetry_space_group_name_H-M "P 2/M"
_symmetry_group_IT_number 10
_symmetry_cell_setting 'monoclinic'
loop_
_space_group_symop_operation_xyz
x,y,z
-x,y,-z
-x,-y,-z
x,-y,z
loop_
_atom_site_type_symbol
_atom_site_label
_atom_site_fract_x
_atom_site_fract_y
_atom_site_fract_z
Si Si1 0.712043 0.405483 0.159731
Si Si2 0.928284 0.243203 0.342626
Si Si3 0.654088 0.094151 0.168476
Si Si4 0.033999 0.595345 0.397594
Si Si5 0.577621 0.816525 0.050589
Si Si6 0.039126 0.094226 0.568228
Si Si7 0.815886 0.752778 0.215870
O O1 0.751180 0.500000 0.176902
O O2 0.385326 0.404723 0.245286
O O3 0.690249 0.331553 0.227553
O O4 0.000000 0.390003 0.000000
O O5 0.895450 0.328234 0.402495
O O6 0.281477 0.225790 0.193993
O O7 0.824604 0.161700 0.427772
O O8 0.779883 0.245249 0.317389
O O9 0.739794 0.128114 0.054057
O O10 0.303366 0.084400 0.283119
O O11 0.693905 0.164672 0.217788
O O12 0.760600 0.000000 0.148917
O O13 0.919822 0.500000 0.425061
O O14 0.000000 0.608709 0.500000
O O15 0.500000 0.861090 0.000000
O O16 0.830737 0.750772 0.932947
O O17 0.000000 0.129758 0.500000
O O18 0.177298 0.000000 0.513856
#
# Coordination Sequence:
#
# PCOD9148657 Si02
#       7
#     4   4   4   4   4   4   4
#     4  10  20  36  59  82 105 139 181 223 268 317
#     4  10  20  34  54  77 105 141 176 215 265 322
#     4  10  20  33  51  75 104 139 175 214 267 323
#     4  10  21  38  59  81 107 142 183 224 267 321
#     4   9  19  34  52  76 106 141 180 220 259 306
#     4   9  18  35  56  73  94 131 179 224 261 308
#     4  11  21  33  51  78 112 140 170 218 267 318
#
# _framework density 21.892386999999999
#
# number of rings (size 3 to 8) (size 9 to 14) (size 15 to 20)
#    0.000    2.143    0.000    4.286    0.000    2.571 
#    0.000    5.714    0.000   10.286    0.000    0.000 
#    0.000    0.000    0.000    0.000    0.000    0.000 
#
# Total GULP energy -156132.903159 kJ/mol
# GULP energy per Si atom -5576.175113 kJ/mol
# Density = 2.184256 g / cm^3
# Si number density = 21.892387 Si / 1000 Ang^3
#
#
#
# Elastic Constant Matrix: (Units=GPa)
#
#
# Indices 1 2 3 4 5 6 
#
# 1 104.6649 98.5173 16.5368 0.0000 36.2918 0.0000
# 2 98.5173 176.2627 28.0689 0.0000 46.9788 0.0000
# 3 16.5368 28.0689 65.9394 0.0000 6.2512 0.0000
# 4 0.0000 0.0000 0.0000 18.9958 0.0000 -5.1225
# 5 36.2918 46.9788 6.2512 0.0000 51.1049 0.0000
# 6 0.0000 0.0000 0.0000 -5.1225 0.0000 -3.5587
#
#
#
# Elastic Compliance Matrix: (Units=1/GPa)
#
#
# Indices 1 2 3 4 5 6 
#
# 1 0.021290 -0.010356 -0.000405 0.000000 -0.005550 0.000000
# 2 -0.010356 0.013010 -0.002534 0.000000 -0.004295 0.000000
# 3 -0.000405 -0.002534 0.016286 0.000000 0.000624 0.000000
# 4 0.000000 0.000000 0.000000 0.037923 0.000000 -0.054587
# 5 -0.005550 -0.004295 0.000624 0.000000 0.027381 0.000000
# 6 0.000000 0.000000 0.000000 -0.054587 0.000000 -0.202428
#
#
# Mechanical properties :
#
#
# Convention : Reuss Voigt Hill
#
# Bulk Modulus (GPa) = 41.67120 70.34588 56.00854
# Shear Modulus (GPa) = -96.24782 26.89134 -34.67824
#
# Velocity S-wave (km/s) = -6.63773 3.50857 -3.98431
# Velocity P-wave (km/s) = 6.29842 6.97250 2.11491
#
# Compressibility (1/GPa) = 0.02399739
#
# Stress axis : x y z
#
# Youngs Moduli (GPa) = 46.96947 76.86469 61.40134
#
# Poissons Ratio (x) = 0.79602 0.02486
# Poissons Ratio (y) = 0.48642 0.15557
# Poissons Ratio (z) = 0.01902 0.19475
#
# Static dielectric constant tensor:
#      x y z
#    x 1.810350 0.000000 -0.047760 
#    y 0.000000 1.790800 0.000000 
#    z -0.047760 0.000000 1.984920 
# 
# From -- ./inp_files/75285.got.cif
#   From: 2010.05.17/outbox.cif.g08.bks.cpg/sg10_38_cif.got.tgz:75285.got - 2010.06.03 11:33:40.
