data_PCOD9148880
_publ_section_title
;
Structure prediction by ZEFSAII (Michael W. Deem and Ramdas Pophale) SiO2 
 PCOD9148880
Probable space group: P 2/M
;
_chemical_formula_sum "Si O2"
_cell_formula_units_Z 32
_cell_length_a 21.180456
_cell_length_b 11.235190
_cell_length_c 22.257338
_cell_angle_alpha 90.000000
_cell_angle_beta 18.974171
_cell_angle_gamma 90.000000
_cell_volume 1722.113858
_symmetry_space_group_name_H-M "P 2/M"
_symmetry_group_IT_number 10
_symmetry_cell_setting 'monoclinic'
loop_
_space_group_symop_operation_xyz
x,y,z
-x,y,-z
-x,-y,-z
x,-y,z
loop_
_atom_site_type_symbol
_atom_site_label
_atom_site_fract_x
_atom_site_fract_y
_atom_site_fract_z
Si Si1 0.214288 0.796974 0.306469
Si Si2 0.360792 0.133099 0.052531
Si Si3 0.193583 0.364623 0.435026
Si Si4 0.601669 0.863964 0.218201
Si Si5 0.002873 0.861128 0.064042
Si Si6 0.177381 0.860218 0.654241
Si Si7 0.393935 0.631576 0.871061
Si Si8 0.922783 0.748831 0.777580
O O1 0.406557 0.857674 0.162382
O O2 0.185946 0.682985 0.374248
O O3 0.000000 0.856168 0.500000
O O4 0.282634 0.781713 0.176135
O O5 0.315052 0.000000 0.114863
O O6 0.239608 0.161586 0.102439
O O7 0.125857 0.500000 0.499330
O O8 0.413864 0.359697 0.261172
O O9 0.065470 0.285454 0.595192
O O10 0.782683 0.858190 0.100564
O O11 0.400338 0.852074 0.434951
O O12 0.612850 0.750128 0.164084
O O13 0.604337 0.000000 0.188823
O O14 0.942769 0.000000 0.110878
O O15 0.000000 0.807224 0.000000
O O16 0.867810 0.810538 0.238741
O O17 0.047178 0.800195 0.720342
O O18 0.123231 0.000000 0.703674
O O19 0.400380 0.500000 0.835217
O O20 0.203622 0.640149 0.083627
#
# Coordination Sequence:
#
# PCOD9148880 Si02
#       8
#     4   4   4   4   4   4   4   4
#     4  11  22  43  59  80 110 146 194 232 290 357
#     4  11  25  40  58  86 118 150 190 241 296 357
#     4  11  24  42  60  83 113 146 194 247 297 354
#     4  10  20  36  59  89 123 157 198 244 292 349
#     4   9  18  33  55  86 126 164 197 240 290 341
#     4  10  20  33  56  89 121 154 195 241 294 350
#     4  11  23  40  61  87 120 156 197 246 302 356
#     4  12  21  40  59  87 114 150 196 243 294 357
#
# _framework density 18.581814000000001
#
# number of rings (size 3 to 8) (size 9 to 14) (size 15 to 20)
#    0.000    1.375    5.000    1.500    0.000    2.250 
#    0.000    3.750    0.000    0.375    0.000    0.875 
#    0.000    0.000    0.000    0.000    0.000    0.000 
#
# Total GULP energy -178308.071080 kJ/mol
# GULP energy per Si atom -5572.127221 kJ/mol
# Density = 1.853952 g / cm^3
# Si number density = 18.581814 Si / 1000 Ang^3
#
#
#
# Elastic Constant Matrix: (Units=GPa)
#
#
# Indices 1 2 3 4 5 6 
#
# 1 59.8141 30.4045 9.7621 0.0000 19.0206 0.0000
# 2 30.4045 67.4154 15.2050 0.0000 6.3213 0.0000
# 3 9.7621 15.2050 96.3177 0.0000 -0.7659 0.0000
# 4 0.0000 0.0000 0.0000 15.4260 0.0000 1.1916
# 5 19.0206 6.3213 -0.7659 0.0000 21.0214 0.0000
# 6 0.0000 0.0000 0.0000 1.1916 0.0000 18.5736
#
#
#
# Elastic Compliance Matrix: (Units=1/GPa)
#
#
# Indices 1 2 3 4 5 6 
#
# 1 0.030238 -0.011037 -0.001514 0.000000 -0.024097 0.000000
# 2 -0.011037 0.019891 -0.001990 0.000000 0.003932 0.000000
# 3 -0.001514 -0.001990 0.010869 0.000000 0.002364 0.000000
# 4 0.000000 0.000000 0.000000 0.065149 0.000000 -0.004180
# 5 -0.024097 0.003932 0.002364 0.000000 0.068278 0.000000
# 6 0.000000 0.000000 0.000000 -0.004180 0.000000 0.054108
#
#
# Mechanical properties :
#
#
# Convention : Reuss Voigt Hill
#
# Bulk Modulus (GPa) = 31.33189 37.14336 34.23762
# Shear Modulus (GPa) = 17.34589 22.21591 19.78090
#
# Velocity S-wave (km/s) = 3.05862 3.46146 3.26625
# Velocity P-wave (km/s) = 5.41957 6.00067 5.71751
#
# Compressibility (1/GPa) = 0.03191637
#
# Stress axis : x y z
#
# Youngs Moduli (GPa) = 33.07065 50.27371 92.00694
#
# Poissons Ratio (x) = 0.55485 0.13931
# Poissons Ratio (y) = 0.36499 0.18311
# Poissons Ratio (z) = 0.05007 0.10006
#
# Static dielectric constant tensor:
#      x y z
#    x 1.644080 0.000000 0.017610 
#    y 0.000000 1.645840 0.000000 
#    z 0.017610 0.000000 1.669230 
# 
# From -- ./inp_files/86250.got.cif
#   From: 2010.05.17/outbox.cif.g08.bks.cpg/sg10_44_cif.got.tgz:86250.got - 2010.06.03 11:33:40.
