data_PCOD9148182
_publ_section_title
;
Structure prediction by ZEFSAII (Michael W. Deem and Ramdas Pophale) SiO2 
 PCOD9148182
Probable space group: P 2/M
;
_chemical_formula_sum "Si O2"
_cell_formula_units_Z 22
_cell_length_a 12.462950
_cell_length_b 21.711733
_cell_length_c 12.354179
_cell_angle_alpha 90.000000
_cell_angle_beta 23.660062
_cell_angle_gamma 90.000000
_cell_volume 1341.555310
_symmetry_space_group_name_H-M "P 2/M"
_symmetry_group_IT_number 10
_symmetry_cell_setting 'monoclinic'
loop_
_space_group_symop_operation_xyz
x,y,z
-x,y,-z
-x,-y,-z
x,-y,z
loop_
_atom_site_type_symbol
_atom_site_label
_atom_site_fract_x
_atom_site_fract_y
_atom_site_fract_z
Si Si1 0.215786 0.500000 0.206099
Si Si2 0.540374 0.189332 0.093224
Si Si3 0.282896 0.931567 0.295461
Si Si4 0.043823 0.261222 0.589815
Si Si5 0.536731 0.426740 0.340002
Si Si6 0.039361 0.390204 0.216460
O O1 0.173262 0.440061 0.171984
O O2 0.000000 0.500000 0.500000
O O3 0.500000 0.500000 0.000000
O O4 0.414724 0.123378 0.242978
O O5 0.349913 0.240947 0.320006
O O6 0.500000 0.190803 0.000000
O O7 0.847798 0.208450 0.819235
O O8 0.000000 0.913595 0.500000
O O9 0.244717 0.000000 0.380255
O O10 0.500000 0.938535 0.000000
O O11 0.977134 0.324916 0.709049
O O12 0.000000 0.266365 0.500000
O O13 0.500000 0.411461 0.500000
O O14 0.595408 0.500000 0.278242
O O15 0.258186 0.412689 0.537759
O O16 0.776952 0.390908 0.060102
#
# Coordination Sequence:
#
# PCOD9148182 Si02
#       6
#     2   4   4   4   4   4
#     4  12  24  36  49  70  99 126 154 192 230 272
#     4   9  16  28  41  59  86 122 162 195 224 261
#     4   9  15  23  37  57  81 113 158 207 238 254
#     4  10  20  31  46  65  93 129 160 188 222 279
#     4  11  22  39  59  76  91 113 151 203 255 299
#     4  12  22  38  53  74  96 124 158 195 245 287
#
# _framework density 16.398876000000001
#
# number of rings (size 3 to 8) (size 9 to 14) (size 15 to 20)
#    0.000    1.636    1.818    6.000    0.000    3.636 
#    0.000    0.000    0.000    0.000    0.000    0.000 
#    0.000    0.000    0.000    0.000    0.000   63.636 
#
# Total GULP energy -122619.756659 kJ/mol
# GULP energy per Si atom -5573.625303 kJ/mol
# Density = 1.636155 g / cm^3
# Si number density = 16.398876 Si / 1000 Ang^3
#
#
#
# Elastic Constant Matrix: (Units=GPa)
#
#
# Indices 1 2 3 4 5 6 
#
# 1 24.4693 18.8263 7.5947 0.0000 5.3262 0.0000
# 2 18.8263 104.2991 23.5631 0.0000 12.3219 0.0000
# 3 7.5947 23.5631 99.2254 0.0000 7.3719 0.0000
# 4 0.0000 0.0000 0.0000 17.9544 0.0000 -6.5156
# 5 5.3262 12.3219 7.3719 0.0000 23.4365 0.0000
# 6 0.0000 0.0000 0.0000 -6.5156 0.0000 4.5479
#
#
#
# Elastic Compliance Matrix: (Units=1/GPa)
#
#
# Indices 1 2 3 4 5 6 
#
# 1 0.048649 -0.007686 -0.001410 0.000000 -0.006571 0.000000
# 2 -0.007686 0.011873 -0.001943 0.000000 -0.003884 0.000000
# 3 -0.001410 -0.001943 0.010800 0.000000 -0.002055 0.000000
# 4 0.000000 0.000000 0.000000 0.116013 0.000000 0.166207
# 5 -0.006571 -0.003884 -0.002055 0.000000 0.046851 0.000000
# 6 0.000000 0.000000 0.000000 0.166207 0.000000 0.457996
#
#
# Mechanical properties :
#
#
# Convention : Reuss Voigt Hill
#
# Bulk Modulus (GPa) = 20.30700 36.44023 28.37362
# Shear Modulus (GPa) = 6.84298 21.05509 13.94904
#
# Velocity S-wave (km/s) = 2.04497 3.58709 2.91968
# Velocity P-wave (km/s) = 4.24098 6.27899 5.35778
#
# Compressibility (1/GPa) = 0.04924409
#
# Stress axis : x y z
#
# Youngs Moduli (GPa) = 20.55523 84.22464 92.59258
#
# Poissons Ratio (x) = 0.64739 0.13057
# Poissons Ratio (y) = 0.15800 0.17987
# Poissons Ratio (z) = 0.02899 0.16361
#
# Static dielectric constant tensor:
#      x y z
#    x 1.525850 0.000000 -0.001930 
#    y 0.000000 1.618020 0.000000 
#    z -0.001930 0.000000 1.569800 
# 
# From -- ./inp_files/48082.got.cif
#   From: 2010.05.17/outbox.cif.g08.bks.cpg/sg10_25_cif.got.tgz:48082.got - 2010.06.03 11:33:40.
