data_PCOD9148369
_publ_section_title
;
Structure prediction by ZEFSAII (Michael W. Deem and Ramdas Pophale) SiO2 
 PCOD9148369
Probable space group: P 2/M
;
_chemical_formula_sum "Si O2"
_cell_formula_units_Z 24
_cell_length_a 16.333133
_cell_length_b 11.909328
_cell_length_c 16.529327
_cell_angle_alpha 90.000000
_cell_angle_beta 153.627918
_cell_angle_gamma 90.000000
_cell_volume 1428.200534
_symmetry_space_group_name_H-M "P 2/M"
_symmetry_group_IT_number 10
_symmetry_cell_setting 'monoclinic'
loop_
_space_group_symop_operation_xyz
x,y,z
-x,y,-z
-x,-y,-z
x,-y,z
loop_
_atom_site_type_symbol
_atom_site_label
_atom_site_fract_x
_atom_site_fract_y
_atom_site_fract_z
Si Si1 0.951460 0.866107 0.363003
Si Si2 0.931176 0.500000 0.530598
Si Si3 0.206313 0.364023 0.203178
Si Si4 0.580646 0.745852 0.981816
Si Si5 0.577257 0.364104 0.442268
Si Si6 0.725979 0.272575 0.406744
Si Si7 0.642872 0.500000 0.047322
O O1 0.764760 0.814288 0.161314
O O2 0.000000 0.831022 0.500000
O O3 0.108333 0.814926 0.445410
O O4 0.942306 0.000000 0.354685
O O5 0.813199 0.388279 0.445884
O O6 0.000000 0.500000 0.500000
O O7 0.134338 0.500000 0.749428
O O8 0.199945 0.500000 0.195547
O O9 0.369586 0.332290 0.285499
O O10 0.284560 0.335158 0.361376
O O11 0.000000 0.323272 0.000000
O O12 0.607194 0.618375 0.974149
O O13 0.500000 0.736832 0.000000
O O14 0.425693 0.787625 0.784151
O O15 0.582678 0.500000 0.437226
O O16 0.641902 0.306117 0.417826
O O17 0.500000 0.500000 0.000000
#
# Coordination Sequence:
#
# PCOD9148369 Si02
#       7
#     4   2   4   4   4   4   2
#     4  11  24  41  57  73  99 146 200 243 279 317
#     4  12  20  34  54  72 114 153 179 220 275 323
#     4   8  15  31  52  72 109 149 177 204 255 326
#     4  11  21  36  53  77 105 143 186 229 279 322
#     4   9  18  31  49  81 113 143 175 214 262 323
#     4  12  22  35  55  83 112 142 185 233 273 327
#     4  10  20  32  50  75 105 142 179 216 269 332
#
# _framework density 16.804361
#
# number of rings (size 3 to 8) (size 9 to 14) (size 15 to 20)
#    0.000    1.667    4.167    4.000    0.000    2.333 
#    0.000    0.000    0.000    0.000    0.000    2.333 
#    0.000    6.667    0.000    0.000    0.000    0.000 
#
# Total GULP energy -133605.403199 kJ/mol
# GULP energy per Si atom -5566.891800 kJ/mol
# Density = 1.676611 g / cm^3
# Si number density = 16.804361 Si / 1000 Ang^3
#
#
#
# Elastic Constant Matrix: (Units=GPa)
#
#
# Indices 1 2 3 4 5 6 
#
# 1 120.7721 19.2478 57.9390 0.0000 5.2115 0.0000
# 2 19.2478 50.0221 28.9131 0.0000 8.9906 0.0000
# 3 57.9390 28.9131 142.2564 0.0000 29.2341 0.0000
# 4 0.0000 0.0000 0.0000 -16.6442 0.0000 -12.3564
# 5 5.2115 8.9906 29.2341 0.0000 16.9309 0.0000
# 6 0.0000 0.0000 0.0000 -12.3564 0.0000 -3.4778
#
#
#
# Elastic Compliance Matrix: (Units=1/GPa)
#
#
# Indices 1 2 3 4 5 6 
#
# 1 0.010982 -0.002369 -0.005511 0.000000 0.007393 0.000000
# 2 -0.002369 0.023609 -0.002181 0.000000 -0.008042 0.000000
# 3 -0.005511 -0.002181 0.014152 0.000000 -0.021582 0.000000
# 4 0.000000 0.000000 0.000000 0.036688 0.000000 -0.130348
# 5 0.007393 -0.008042 -0.021582 0.000000 0.098324 0.000000
# 6 0.000000 0.000000 0.000000 -0.130348 0.000000 0.175580
#
#
# Mechanical properties :
#
#
# Convention : Reuss Voigt Hill
#
# Bulk Modulus (GPa) = 34.93816 58.36116 46.64966
# Shear Modulus (GPa) = 12.85356 13.15848 13.00602
#
# Velocity S-wave (km/s) = 2.76867 2.80132 2.78504
# Velocity P-wave (km/s) = 5.57288 6.72818 6.17759
#
# Compressibility (1/GPa) = 0.02862200
#
# Stress axis : x y z
#
# Youngs Moduli (GPa) = 91.05552 42.35721 70.65936
#
# Poissons Ratio (x) = 0.10036 0.38937
# Poissons Ratio (y) = 0.21574 0.15409
# Poissons Ratio (z) = 0.50177 0.09237
#
# Static dielectric constant tensor:
#      x y z
#    x 1.563640 0.000000 0.006960 
#    y 0.000000 1.584910 0.000000 
#    z 0.006960 0.000000 1.561840 
# 
# From -- ./inp_files/67283.got.cif
#   From: 2010.05.17/outbox.cif.g08.bks.cpg/sg10_34_cif.got.tgz:67283.got - 2010.06.03 11:33:40.
