data_PCOD9148312
_publ_section_title
;
Structure prediction by ZEFSAII (Michael W. Deem and Ramdas Pophale) SiO2 
 PCOD9148312
Probable space group: P 2/M
;
_chemical_formula_sum "Si O2"
_cell_formula_units_Z 32
_cell_length_a 13.014300
_cell_length_b 13.844875
_cell_length_c 11.206119
_cell_angle_alpha 90.000000
_cell_angle_beta 106.203806
_cell_angle_gamma 90.000000
_cell_volume 1938.923942
_symmetry_space_group_name_H-M "P 2/M"
_symmetry_group_IT_number 10
_symmetry_cell_setting 'monoclinic'
loop_
_space_group_symop_operation_xyz
x,y,z
-x,y,-z
-x,-y,-z
x,-y,z
loop_
_atom_site_type_symbol
_atom_site_label
_atom_site_fract_x
_atom_site_fract_y
_atom_site_fract_z
Si Si1 0.158759 0.804224 0.392321
Si Si2 0.071822 0.609876 0.403015
Si Si3 0.715677 0.886577 0.365163
Si Si4 0.106577 0.181393 0.952670
Si Si5 0.509785 0.117401 0.641434
Si Si6 0.254217 0.885543 0.197017
Si Si7 0.061355 0.392460 0.890853
Si Si8 0.928757 0.888703 0.315846
O O1 0.161506 0.692448 0.428029
O O2 0.245473 0.870030 0.486885
O O3 0.180273 0.823336 0.261468
O O4 0.039159 0.837921 0.386043
O O5 0.111994 0.500000 0.420731
O O6 0.000000 0.623377 0.500000
O O7 0.008638 0.619225 0.254629
O O8 0.595203 0.848235 0.320283
O O9 0.817653 0.844484 0.328288
O O10 0.711700 0.000000 0.334062
O O11 0.126439 0.292910 0.921573
O O12 0.079908 0.119552 0.828297
O O13 0.208308 0.138012 0.052832
O O14 0.000000 0.178737 0.000000
O O15 0.500000 0.149280 0.500000
O O16 0.622960 0.141699 0.737325
O O17 0.504234 0.000000 0.637279
O O18 0.241262 0.000000 0.217248
O O19 0.111800 0.500000 0.896586
O O20 0.000000 0.394873 0.000000
O O21 0.935514 0.000000 0.356269
#
# Coordination Sequence:
#
# PCOD9148312 Si02
#       8
#     4   4   4   4   4   4   4   4
#     4  12  19  30  50  75 103 131 161 204 254 306
#     4  10  20  33  49  72 104 139 172 208 253 309
#     4  10  20  32  48  71  99 132 170 208 244 290
#     4  11  20  32  47  71 103 136 166 201 251 307
#     4   9  17  33  51  68  93 130 176 214 242 284
#     4  11  21  32  51  76 102 134 173 211 245 297
#     4   9  17  32  50  68  97 136 174 210 249 300
#     4  11  21  30  43  70 107 137 160 194 248 303
#
# _framework density 16.503999
#
# number of rings (size 3 to 8) (size 9 to 14) (size 15 to 20)
#    0.000    1.625    3.750    3.375    0.000    1.500 
#    0.000    0.625    0.000    3.000    0.000    2.625 
#    0.000    1.000    0.000    0.000    0.000    0.000 
#
# Total GULP energy -178144.661516 kJ/mol
# GULP energy per Si atom -5567.020672 kJ/mol
# Density = 1.646644 g / cm^3
# Si number density = 16.503999 Si / 1000 Ang^3
#
#
#
# Elastic Constant Matrix: (Units=GPa)
#
#
# Indices 1 2 3 4 5 6 
#
# 1 92.3856 17.4717 21.2051 0.0000 15.7410 0.0000
# 2 17.4717 59.5765 -3.4716 0.0000 3.2157 0.0000
# 3 21.2051 -3.4716 65.9841 0.0000 5.7878 0.0000
# 4 0.0000 0.0000 0.0000 18.1805 0.0000 -2.4930
# 5 15.7410 3.2157 5.7878 0.0000 24.3098 0.0000
# 6 0.0000 0.0000 0.0000 -2.4930 0.0000 2.5971
#
#
#
# Elastic Compliance Matrix: (Units=1/GPa)
#
#
# Indices 1 2 3 4 5 6 
#
# 1 0.013730 -0.003856 -0.003963 0.000000 -0.007437 0.000000
# 2 -0.003856 0.018069 0.002227 0.000000 -0.000423 0.000000
# 3 -0.003963 0.002227 0.016695 0.000000 -0.001703 0.000000
# 4 0.000000 0.000000 0.000000 0.063341 0.000000 0.060800
# 5 -0.007437 -0.000423 -0.001703 0.000000 0.046413 0.000000
# 6 0.000000 0.000000 0.000000 0.060800 0.000000 0.443401
#
#
# Mechanical properties :
#
#
# Convention : Reuss Voigt Hill
#
# Bulk Modulus (GPa) = 26.80244 32.03961 29.42103
# Shear Modulus (GPa) = 7.99655 21.20023 14.59839
#
# Velocity S-wave (km/s) = 2.20357 3.58795 2.97734
# Velocity P-wave (km/s) = 4.76965 6.05144 5.44837
#
# Compressibility (1/GPa) = 0.03731003
#
# Stress axis : x y z
#
# Youngs Moduli (GPa) = 72.83224 55.34452 59.89704
#
# Poissons Ratio (x) = 0.21341 0.23737
# Poissons Ratio (y) = 0.28085 -0.13339
# Poissons Ratio (z) = 0.28863 -0.12325
#
# Static dielectric constant tensor:
#      x y z
#    x 1.580590 0.000000 -0.039970 
#    y 0.000000 1.577850 0.000000 
#    z -0.039970 0.000000 1.601360 
# 
# From -- ./inp_files/47436.got.cif
#   From: 2010.05.17/outbox.cif.g08.bks.cpg/sg10_24_cif.got.tgz:47436.got - 2010.06.03 11:33:40.
