data_PCOD9148145
_publ_section_title
;
Structure prediction by ZEFSAII (Michael W. Deem and Ramdas Pophale) SiO2 
 PCOD9148145
Probable space group: P 2/M
;
_chemical_formula_sum "Si O2"
_cell_formula_units_Z 26
_cell_length_a 5.193873
_cell_length_b 24.796570
_cell_length_c 10.799705
_cell_angle_alpha 90.000000
_cell_angle_beta 59.028390
_cell_angle_gamma 90.000000
_cell_volume 1192.585852
_symmetry_space_group_name_H-M "P 2/M"
_symmetry_group_IT_number 10
_symmetry_cell_setting 'monoclinic'
loop_
_space_group_symop_operation_xyz
x,y,z
-x,y,-z
-x,-y,-z
x,-y,z
loop_
_atom_site_type_symbol
_atom_site_label
_atom_site_fract_x
_atom_site_fract_y
_atom_site_fract_z
Si Si1 0.774385 0.440260 0.670125
Si Si2 0.638882 0.216287 0.602694
Si Si3 0.842203 0.435329 0.919104
Si Si4 0.862265 0.063174 0.901419
Si Si5 0.363005 0.000000 0.397750
Si Si6 0.761709 0.108466 0.672331
Si Si7 0.363021 0.665551 0.398077
O O1 0.626314 0.500000 0.719424
O O2 0.954515 0.428236 0.751374
O O3 0.570544 0.388456 0.694903
O O4 0.000000 0.444395 0.500000
O O5 0.500000 0.207261 0.500000
O O6 0.586045 0.164657 0.702961
O O7 0.537202 0.275434 0.674206
O O8 0.000000 0.220217 0.500000
O O9 0.834529 0.500000 0.936165
O O10 0.500000 0.416100 0.000000
O O11 0.000000 0.412183 0.000000
O O12 0.924561 0.098311 0.762736
O O13 0.941472 0.000000 0.858419
O O14 0.500000 0.065835 0.000000
O O15 0.000000 0.079368 0.000000
O O16 0.500000 0.000000 0.500000
O O17 0.433414 0.054851 0.307159
O O18 0.000000 0.000000 0.500000
O O19 0.000000 0.110219 0.500000
O O20 0.500000 0.660067 0.500000
O O21 0.000000 0.666852 0.500000
#
# Coordination Sequence:
#
# PCOD9148145 Si02
#       7
#     4   4   4   4   2   4   4
#     4   9  18  32  53  80 106 134 175 221 262 307
#     4   9  18  32  51  76 104 135 172 214 263 314
#     4   9  18  32  48  68  99 136 167 200 251 310
#     4  10  22  38  53  75 110 148 176 207 264 327
#     4  10  20  30  46  78 108 124 155 216 265 286
#     4  10  20  36  57  83 105 137 179 227 261 304
#     4   9  18  32  49  73 106 137 167 211 265 314
#
# _framework density 21.801368
#
# number of rings (size 3 to 8) (size 9 to 14) (size 15 to 20)
#    0.000    2.615    0.769    0.462    0.000    7.692 
#    0.000    4.615    0.000    1.846    0.000    0.000 
#    0.000    0.000    0.000    0.000    0.000    0.000 
#
# Total GULP energy -145018.785944 kJ/mol
# GULP energy per Si atom -5577.645613 kJ/mol
# Density = 2.175175 g / cm^3
# Si number density = 21.801368 Si / 1000 Ang^3
#
#
#
# Elastic Constant Matrix: (Units=GPa)
#
#
# Indices 1 2 3 4 5 6 
#
# 1 113.3262 18.9386 56.1006 0.0000 45.8731 0.0000
# 2 18.9386 204.8238 43.8412 0.0000 36.8140 0.0000
# 3 56.1006 43.8412 161.6497 0.0000 40.0664 0.0000
# 4 0.0000 0.0000 0.0000 -74.4610 0.0000 -75.2815
# 5 45.8731 36.8140 40.0664 0.0000 50.0943 0.0000
# 6 0.0000 0.0000 0.0000 -75.2815 0.0000 -73.5420
#
#
#
# Elastic Compliance Matrix: (Units=1/GPa)
#
#
# Indices 1 2 3 4 5 6 
#
# 1 0.014973 0.001439 -0.002402 0.000000 -0.012848 0.000000
# 2 0.001439 0.005815 -0.000861 0.000000 -0.004902 0.000000
# 3 -0.002402 -0.000861 0.008171 0.000000 -0.003703 0.000000
# 4 0.000000 0.000000 0.000000 0.384453 0.000000 -0.393547
# 5 -0.012848 -0.004902 -0.003703 0.000000 0.038291 0.000000
# 6 0.000000 0.000000 0.000000 -0.393547 0.000000 0.389257
#
#
# Mechanical properties :
#
#
# Convention : Reuss Voigt Hill
#
# Bulk Modulus (GPa) = 39.51061 79.72895 59.61978
# Shear Modulus (GPa) = 5.86134 4.47956 5.17045
#
# Velocity S-wave (km/s) = 1.64145 1.43498 1.54168
# Velocity P-wave (km/s) = 4.66421 6.27659 5.52948
#
# Compressibility (1/GPa) = 0.02530966
#
# Stress axis : x y z
#
# Youngs Moduli (GPa) = 66.78470 171.98079 122.37947
#
# Poissons Ratio (x) = -0.24746 0.29400
# Poissons Ratio (y) = -0.09610 0.10542
# Poissons Ratio (z) = 0.16044 0.14814
#
# Static dielectric constant tensor:
#      x y z
#    x 2.398250 0.000000 -0.351140 
#    y 0.000000 1.899920 0.000000 
#    z -0.351140 0.000000 1.996350 
# 
# From -- ./inp_files/15732.got.cif
#   From: 2010.05.17/outbox.cif.g08.bks.cpg/sg10_8_cif.got.tgz:15732.got - 2010.06.03 11:33:40.
