data_PCOD9148644
_publ_section_title
;
Structure prediction by ZEFSAII (Michael W. Deem and Ramdas Pophale) SiO2 
 PCOD9148644
Probable space group: P 2/M
;
_chemical_formula_sum "Si O2"
_cell_formula_units_Z 32
_cell_length_a 14.396239
_cell_length_b 8.813632
_cell_length_c 28.470876
_cell_angle_alpha 90.000000
_cell_angle_beta 29.565023
_cell_angle_gamma 90.000000
_cell_volume 1782.434585
_symmetry_space_group_name_H-M "P 2/M"
_symmetry_group_IT_number 10
_symmetry_cell_setting 'monoclinic'
loop_
_space_group_symop_operation_xyz
x,y,z
-x,y,-z
-x,-y,-z
x,-y,z
loop_
_atom_site_type_symbol
_atom_site_label
_atom_site_fract_x
_atom_site_fract_y
_atom_site_fract_z
Si Si1 0.802536 0.181062 0.784554
Si Si2 0.378921 0.818415 0.947300
Si Si3 0.008141 0.319068 0.609975
Si Si4 0.615704 0.316614 0.611243
Si Si5 0.142799 0.682615 0.136958
Si Si6 0.800943 0.316327 0.225554
Si Si7 0.067808 0.683321 0.021814
Si Si8 0.196603 0.173170 0.384405
O O1 0.599148 0.219640 0.851660
O O2 0.961322 0.243499 0.679952
O O3 0.816368 0.253340 0.829844
O O4 0.814531 0.000000 0.783126
O O5 0.285069 0.747623 0.035351
O O6 0.262882 0.753457 0.954278
O O7 0.358862 0.000000 0.957538
O O8 0.003841 0.500000 0.616059
O O9 0.210788 0.274216 0.499063
O O10 0.852161 0.264994 0.640880
O O11 0.616756 0.500000 0.614422
O O12 0.413816 0.263982 0.681032
O O13 0.656673 0.249375 0.644704
O O14 0.155724 0.500000 0.131245
O O15 0.934619 0.728326 0.209942
O O16 0.795042 0.500000 0.228537
O O17 0.911611 0.272696 0.129397
O O18 0.085234 0.500000 0.014992
O O19 0.000000 0.729040 0.000000
O O20 0.000000 0.171358 0.500000
O O21 0.247970 0.000000 0.350506
#
# Coordination Sequence:
#
# PCOD9148644 Si02
#       8
#     4   4   4   4   4   4   4   4
#     4  11  23  37  53  75 105 136 166 210 266 311
#     4  10  21  36  54  77 105 137 170 206 254 309
#     4  10  20  33  51  75 101 133 176 219 255 297
#     4   9  17  32  53  75 101 136 177 215 250 297
#     4  10  20  36  58  80 101 130 170 211 253 306
#     4   8  16  32  53  76 102 133 170 212 255 299
#     4   9  18  33  53  79 110 140 171 209 251 298
#     4   9  17  30  48  71 102 136 167 205 253 301
#
# _framework density 17.952973
#
# number of rings (size 3 to 8) (size 9 to 14) (size 15 to 20)
#    0.000    2.500    0.000    3.000    0.000    6.750 
#    0.000    5.000    0.000    3.750    0.000    0.000 
#    0.000    0.000    0.000    0.000    0.000    0.000 
#
# Total GULP energy -178506.197575 kJ/mol
# GULP energy per Si atom -5578.318674 kJ/mol
# Density = 1.791211 g / cm^3
# Si number density = 17.952973 Si / 1000 Ang^3
#
#
#
# Elastic Constant Matrix: (Units=GPa)
#
#
# Indices 1 2 3 4 5 6 
#
# 1 125.3087 38.0895 56.9949 0.0000 -1.2277 0.0000
# 2 38.0895 39.3737 26.7590 0.0000 -1.9478 0.0000
# 3 56.9949 26.7590 56.0608 0.0000 -7.2119 0.0000
# 4 0.0000 0.0000 0.0000 17.9024 0.0000 -2.9042
# 5 -1.2277 -1.9478 -7.2119 0.0000 30.3870 0.0000
# 6 0.0000 0.0000 0.0000 -2.9042 0.0000 11.1744
#
#
#
# Elastic Compliance Matrix: (Units=1/GPa)
#
#
# Indices 1 2 3 4 5 6 
#
# 1 0.016159 -0.006442 -0.013742 0.000000 -0.003022 0.000000
# 2 -0.006442 0.040268 -0.012762 0.000000 -0.000708 0.000000
# 3 -0.013742 -0.012762 0.038912 0.000000 0.007862 0.000000
# 4 0.000000 0.000000 0.000000 0.058317 0.000000 0.015156
# 5 -0.003022 -0.000708 0.007862 0.000000 0.034607 0.000000
# 6 0.000000 0.000000 0.000000 0.015156 0.000000 0.093430
#
#
# Mechanical properties :
#
#
# Convention : Reuss Voigt Hill
#
# Bulk Modulus (GPa) = 33.96052 51.60334 42.78193
# Shear Modulus (GPa) = 13.98979 18.48608 16.23793
#
# Velocity S-wave (km/s) = 2.79453 3.21237 3.01070
# Velocity P-wave (km/s) = 5.41941 6.52419 5.99729
#
# Compressibility (1/GPa) = 0.02944595
#
# Stress axis : x y z
#
# Youngs Moduli (GPa) = 61.88327 24.83338 25.69881
#
# Poissons Ratio (x) = 0.15998 0.35316
# Poissons Ratio (y) = 0.39867 0.32798
# Poissons Ratio (z) = 0.85042 0.31693
#
# Static dielectric constant tensor:
#      x y z
#    x 1.606140 0.000000 -0.015030 
#    y 0.000000 1.603140 0.000000 
#    z -0.015030 0.000000 1.611350 
# 
# From -- ./inp_files/92961.got.cif
#   From: 2010.05.17/outbox.cif.g08.bks.cpg/sg10_47_cif.got.tgz:92961.got - 2010.06.03 11:33:40.
