data_PCOD9148863
_publ_section_title
;
Structure prediction by ZEFSAII (Michael W. Deem and Ramdas Pophale) SiO2 
 PCOD9148863
Probable space group: P 2/M
;
_chemical_formula_sum "Si O2"
_cell_formula_units_Z 32
_cell_length_a 22.384641
_cell_length_b 9.317565
_cell_length_c 11.123455
_cell_angle_alpha 90.000000
_cell_angle_beta 46.336412
_cell_angle_gamma 90.000000
_cell_volume 1678.318612
_symmetry_space_group_name_H-M "P 2/M"
_symmetry_group_IT_number 10
_symmetry_cell_setting 'monoclinic'
loop_
_space_group_symop_operation_xyz
x,y,z
-x,y,-z
-x,-y,-z
x,-y,z
loop_
_atom_site_type_symbol
_atom_site_label
_atom_site_fract_x
_atom_site_fract_y
_atom_site_fract_z
Si Si1 0.358666 0.163089 0.745907
Si Si2 0.056119 0.327013 0.308468
Si Si3 0.781191 0.161999 0.852777
Si Si4 0.359288 0.336152 0.356081
Si Si5 0.531543 0.332612 0.235764
Si Si6 0.055202 0.674494 0.036627
Si Si7 0.363237 0.170234 0.110728
Si Si8 0.755472 0.669175 0.276765
O O1 0.434827 0.250676 0.694718
O O2 0.309364 0.240883 0.709665
O O3 0.381397 0.000000 0.683965
O O4 0.290921 0.159793 0.947496
O O5 0.056394 0.500000 0.307144
O O6 0.147536 0.269058 0.208166
O O7 0.000000 0.280488 0.500000
O O8 0.031535 0.280277 0.206209
O O9 0.730624 0.199465 0.802849
O O10 0.814897 0.000000 0.796294
O O11 0.362832 0.500000 0.303119
O O12 0.434244 0.323809 0.346656
O O13 0.372779 0.224146 0.232097
O O14 0.273489 0.316458 0.545313
O O15 0.554765 0.500000 0.210538
O O16 0.575866 0.258483 0.060120
O O17 0.051274 0.500000 0.041209
O O18 0.150830 0.714069 0.879973
O O19 0.000000 0.724490 0.000000
O O20 0.378120 0.000000 0.076575
O O21 0.748119 0.500000 0.255781
#
# Coordination Sequence:
#
# PCOD9148863 Si02
#       8
#     4   4   4   4   4   4   4   4
#     4  10  20  35  56  81 108 142 189 233 277 332
#     4  10  20  33  55  87 112 137 183 236 281 333
#     4   9  19  35  54  77 106 141 180 222 271 330
#     4  10  22  36  52  80 112 147 190 233 277 335
#     4  10  20  35  55  79 110 145 186 235 284 330
#     4   9  18  34  56  82 113 146 180 226 284 338
#     4  10  21  36  55  80 110 147 187 229 280 336
#     4  10  20  36  58  79 106 148 189 226 279 337
#
# _framework density 19.066703
#
# number of rings (size 3 to 8) (size 9 to 14) (size 15 to 20)
#    0.000    2.250    1.250    2.250    0.000    7.250 
#    0.000    5.000    0.000    1.500    0.000    0.000 
#    0.000    0.000    0.000    0.000    0.000    0.000 
#
# Total GULP energy -178483.675342 kJ/mol
# GULP energy per Si atom -5577.614854 kJ/mol
# Density = 1.902331 g / cm^3
# Si number density = 19.066703 Si / 1000 Ang^3
#
#
#
# Elastic Constant Matrix: (Units=GPa)
#
#
# Indices 1 2 3 4 5 6 
#
# 1 94.1203 44.9222 38.4507 0.0000 13.9278 0.0000
# 2 44.9222 61.9986 34.5024 0.0000 6.9542 0.0000
# 3 38.4507 34.5024 85.7138 0.0000 6.6640 0.0000
# 4 0.0000 0.0000 0.0000 5.0885 0.0000 6.5753
# 5 13.9278 6.9542 6.6640 0.0000 4.3958 0.0000
# 6 0.0000 0.0000 0.0000 6.5753 0.0000 12.9132
#
#
#
# Elastic Compliance Matrix: (Units=1/GPa)
#
#
# Indices 1 2 3 4 5 6 
#
# 1 0.025612 -0.010264 -0.002620 0.000000 -0.060940 0.000000
# 2 -0.010264 0.027152 -0.006251 0.000000 -0.000958 0.000000
# 3 -0.002620 -0.006251 0.015807 0.000000 -0.005774 0.000000
# 4 0.000000 0.000000 0.000000 0.574561 0.000000 -0.292561
# 5 -0.060940 -0.000958 -0.005774 0.000000 0.430848 0.000000
# 6 0.000000 0.000000 0.000000 -0.292561 0.000000 0.226410
#
#
# Mechanical properties :
#
#
# Convention : Reuss Voigt Hill
#
# Bulk Modulus (GPa) = 33.00117 53.06480 43.03298
# Shear Modulus (GPa) = 3.70711 12.74333 8.22522
#
# Velocity S-wave (km/s) = 1.39589 2.58806 2.07925
# Velocity P-wave (km/s) = 4.46585 6.06814 5.32758
#
# Compressibility (1/GPa) = 0.03030196
#
# Stress axis : x y z
#
# Youngs Moduli (GPa) = 39.04466 36.82914 63.26320
#
# Poissons Ratio (x) = 0.37802 0.16573
# Poissons Ratio (y) = 0.40076 0.39544
# Poissons Ratio (z) = 0.10229 0.23021
#
# Static dielectric constant tensor:
#      x y z
#    x 1.668210 0.000000 0.021550 
#    y 0.000000 1.646770 0.000000 
#    z 0.021550 0.000000 1.675990 
# 
# From -- ./inp_files/55257.got.cif
#   From: 2010.05.17/outbox.cif.g08.bks.cpg/sg10_28_cif.got.tgz:55257.got - 2010.06.03 11:33:40.
