data_PCOD9148374
_publ_section_title
;
Structure prediction by ZEFSAII (Michael W. Deem and Ramdas Pophale) SiO2 
 PCOD9148374
Probable space group: P 2/M
;
_chemical_formula_sum "Si O2"
_cell_formula_units_Z 32
_cell_length_a 7.950259
_cell_length_b 21.561151
_cell_length_c 11.346175
_cell_angle_alpha 90.000000
_cell_angle_beta 126.336320
_cell_angle_gamma 90.000000
_cell_volume 1566.739272
_symmetry_space_group_name_H-M "P 2/M"
_symmetry_group_IT_number 10
_symmetry_cell_setting 'monoclinic'
loop_
_space_group_symop_operation_xyz
x,y,z
-x,y,-z
-x,-y,-z
x,-y,z
loop_
_atom_site_type_symbol
_atom_site_label
_atom_site_fract_x
_atom_site_fract_y
_atom_site_fract_z
Si Si1 0.311458 0.069775 0.091793
Si Si2 0.581369 0.849457 0.652514
Si Si3 0.240447 0.649085 0.086070
Si Si4 0.408712 0.568296 0.829100
Si Si5 0.805561 0.194461 0.347771
Si Si6 0.177050 0.311235 0.796277
Si Si7 0.800191 0.929003 0.215297
Si Si8 0.709518 0.717410 0.655651
O O1 0.293831 0.111825 0.198936
O O2 0.556504 0.069670 0.154936
O O3 0.254518 0.000000 0.100417
O O4 0.194669 0.085509 0.921930
O O5 0.500000 0.883578 0.500000
O O6 0.384222 0.821945 0.643769
O O7 0.713028 0.791806 0.658932
O O8 0.390589 0.590337 0.160328
O O9 0.299546 0.696128 0.213125
O O10 0.256631 0.680535 0.964036
O O11 0.000000 0.369238 0.000000
O O12 0.328542 0.500000 0.764454
O O13 0.252499 0.626535 0.761904
O O14 0.500000 0.564842 0.000000
O O15 0.743135 0.247402 0.228439
O O16 0.884403 0.130053 0.320971
O O17 0.000000 0.221212 0.500000
O O18 0.925850 0.308029 0.695102
O O19 0.879909 0.000000 0.268097
O O20 0.500000 0.698455 0.500000
#
# Coordination Sequence:
#
# PCOD9148374 Si02
#       8
#     4   4   4   4   4   4   4   4
#     4   8  15  30  50  73 103 139 184 236 285 342
#     4  10  20  32  50  76 106 144 187 233 291 349
#     4   9  19  35  57  88 117 150 191 234 288 346
#     4   9  18  35  59  88 119 149 192 246 288 338
#     4  11  21  33  54  80 109 145 187 237 291 343
#     4  10  21  36  57  85 114 150 198 242 291 345
#     4   8  16  31  50  76 106 141 186 235 288 342
#     4  10  20  36  55  77 116 155 187 242 299 349
#
# _framework density 20.424585
#
# number of rings (size 3 to 8) (size 9 to 14) (size 15 to 20)
#    0.000    2.625    0.000    3.000    1.750    0.750 
#    4.500    1.875    0.000    6.375    0.000    7.000 
#    0.000    0.000    0.000    0.000    0.000    0.000 
#
# Total GULP energy -178462.456880 kJ/mol
# GULP energy per Si atom -5576.951777 kJ/mol
# Density = 2.037810 g / cm^3
# Si number density = 20.424585 Si / 1000 Ang^3
#
#
#
# Elastic Constant Matrix: (Units=GPa)
#
#
# Indices 1 2 3 4 5 6 
#
# 1 74.5417 38.1931 40.0709 0.0000 -2.4850 0.0000
# 2 38.1931 106.5037 47.2901 0.0000 -16.1334 0.0000
# 3 40.0709 47.2901 64.3625 0.0000 -6.6051 0.0000
# 4 0.0000 0.0000 0.0000 -13.2490 0.0000 9.3195
# 5 -2.4850 -16.1334 -6.6051 0.0000 24.1819 0.0000
# 6 0.0000 0.0000 0.0000 9.3195 0.0000 9.3620
#
#
#
# Elastic Compliance Matrix: (Units=1/GPa)
#
#
# Indices 1 2 3 4 5 6 
#
# 1 0.020785 -0.002986 -0.011041 0.000000 -0.002872 0.000000
# 2 -0.002986 0.015502 -0.008746 0.000000 0.007647 0.000000
# 3 -0.011041 -0.008746 0.028933 0.000000 0.000933 0.000000
# 4 0.000000 0.000000 0.000000 -0.044393 0.000000 0.044191
# 5 -0.002872 0.007647 0.000933 0.000000 0.046414 0.000000
# 6 0.000000 0.000000 0.000000 0.044191 0.000000 0.062824
#
#
# Mechanical properties :
#
#
# Convention : Reuss Voigt Hill
#
# Bulk Modulus (GPa) = 50.83083 55.16846 52.99965
# Shear Modulus (GPa) = 27.44697 12.04925 19.74811
#
# Velocity S-wave (km/s) = 3.66979 2.43150 3.11284
# Velocity P-wave (km/s) = 6.54963 5.91205 6.23899
#
# Compressibility (1/GPa) = 0.01967310
#
# Stress axis : x y z
#
# Youngs Moduli (GPa) = 48.11213 64.50740 34.56295
#
# Poissons Ratio (x) = 0.19264 0.38160
# Poissons Ratio (y) = 0.14368 0.30229
# Poissons Ratio (z) = 0.53119 0.56419
#
# Static dielectric constant tensor:
#      x y z
#    x 1.782480 0.000000 -0.018240 
#    y 0.000000 1.719230 0.000000 
#    z -0.018240 0.000000 1.737230 
# 
# From -- ./inp_files/43613.got.cif
#   From: 2010.05.17/outbox.cif.g08.bks.cpg/sg10_22_cif.got.tgz:43613.got - 2010.06.03 11:33:40.
