data_PCOD9148852
_publ_section_title
;
Structure prediction by ZEFSAII (Michael W. Deem and Ramdas Pophale) SiO2 
 PCOD9148852
Probable space group: P 2/M
;
_chemical_formula_sum "Si O2"
_cell_formula_units_Z 30
_cell_length_a 11.470484
_cell_length_b 16.914125
_cell_length_c 7.800555
_cell_angle_alpha 90.000000
_cell_angle_beta 124.506058
_cell_angle_gamma 90.000000
_cell_volume 1247.150701
_symmetry_space_group_name_H-M "P 2/M"
_symmetry_group_IT_number 10
_symmetry_cell_setting 'monoclinic'
loop_
_space_group_symop_operation_xyz
x,y,z
-x,y,-z
-x,-y,-z
x,-y,z
loop_
_atom_site_type_symbol
_atom_site_label
_atom_site_fract_x
_atom_site_fract_y
_atom_site_fract_z
Si Si1 0.500000 0.307347 0.500000
Si Si2 0.407931 0.909036 0.746098
Si Si3 0.969471 0.297486 0.664179
Si Si4 0.141234 0.585250 0.999265
Si Si5 0.710058 0.408787 0.526822
Si Si6 0.338772 0.838937 0.244361
Si Si7 0.174138 0.092580 0.789666
Si Si8 0.912881 0.129804 0.759767
O O1 0.565576 0.359631 0.401056
O O2 0.625962 0.249728 0.668978
O O3 0.508884 0.868858 0.692169
O O4 0.254323 0.878978 0.683537
O O5 0.393555 0.000000 0.686006
O O6 0.500000 0.904839 0.000000
O O7 0.840803 0.360675 0.555239
O O8 0.000000 0.267338 0.500000
O O9 0.108851 0.342617 0.848531
O O10 0.928406 0.224440 0.749516
O O11 0.150968 0.500000 0.917009
O O12 0.260614 0.589917 0.242529
O O13 0.000000 0.583601 0.000000
O O14 0.703819 0.500000 0.464732
O O15 0.249307 0.883383 0.318909
O O16 0.240009 0.852721 0.995234
O O17 0.006529 0.094007 0.684792
O O18 0.217934 0.000000 0.848884
O O19 0.000000 0.102609 0.000000
#
# Coordination Sequence:
#
# PCOD9148852 Si02
#       8
#     2   4   4   4   4   4   4   4
#     4  12  23  36  55  82 118 154 206 252 297 358
#     4   8  15  32  56  82 112 148 193 239 293 364
#     4  11  21  34  58  92 123 152 191 249 314 364
#     4   8  16  32  57  83 109 145 194 245 296 359
#     4  10  21  39  61  82 114 160 204 248 299 362
#     4  10  20  33  55  83 118 155 195 249 293 350
#     4   9  19  36  62  91 116 153 202 251 308 366
#     4  10  20  35  58  88 123 157 197 254 299 360
#
# _framework density 24.054832000000001
#
# number of rings (size 3 to 8) (size 9 to 14) (size 15 to 20)
#    0.000    2.400    1.333    3.800    1.867    5.067 
#    0.000    1.333    0.000    0.400    0.000    2.800 
#    0.000    0.000    0.000    0.000    0.000    0.000 
#
# Total GULP energy -167436.834166 kJ/mol
# GULP energy per Si atom -5581.227806 kJ/mol
# Density = 2.400008 g / cm^3
# Si number density = 24.054832 Si / 1000 Ang^3
#
#
#
# Elastic Constant Matrix: (Units=GPa)
#
#
# Indices 1 2 3 4 5 6 
#
# 1 191.9432 28.0551 32.0490 0.0000 2.7834 0.0000
# 2 28.0551 100.4578 -1.5596 0.0000 -4.4021 0.0000
# 3 32.0490 -1.5596 45.6447 0.0000 -0.9127 0.0000
# 4 0.0000 0.0000 0.0000 -12.6176 0.0000 -14.0817
# 5 2.7834 -4.4021 -0.9127 0.0000 49.7765 0.0000
# 6 0.0000 0.0000 0.0000 -14.0817 0.0000 22.3348
#
#
#
# Elastic Compliance Matrix: (Units=1/GPa)
#
#
# Indices 1 2 3 4 5 6 
#
# 1 0.006229 -0.001835 -0.004448 0.000000 -0.000592 0.000000
# 2 -0.001835 0.010539 0.001670 0.000000 0.001065 0.000000
# 3 -0.004448 0.001670 0.025106 0.000000 0.000857 0.000000
# 4 0.000000 0.000000 0.000000 -0.046520 0.000000 -0.029330
# 5 -0.000592 0.001065 0.000857 0.000000 0.020233 0.000000
# 6 0.000000 0.000000 0.000000 -0.029330 0.000000 0.026281
#
#
# Mechanical properties :
#
#
# Convention : Reuss Voigt Hill
#
# Bulk Modulus (GPa) = 30.62999 50.57054 40.60027
# Shear Modulus (GPa) = 80.67423 30.53215 55.60319
#
# Velocity S-wave (km/s) = 5.79745 3.56655 4.81304
# Velocity P-wave (km/s) = 7.58782 6.16677 6.91390
#
# Compressibility (1/GPa) = 0.03264774
#
# Stress axis : x y z
#
# Youngs Moduli (GPa) = 160.52936 94.88190 39.83117
#
# Poissons Ratio (x) = 0.17408 0.17719
# Poissons Ratio (y) = 0.29452 -0.06650
# Poissons Ratio (z) = 0.71411 -0.15842
#
# Static dielectric constant tensor:
#      x y z
#    x 1.960300 0.000000 0.046620 
#    y 0.000000 1.911730 0.000000 
#    z 0.046620 0.000000 2.042430 
# 
# From -- ./inp_files/25872.got.cif
#   From: 2010.05.17/outbox.cif.g08.bks.cpg/sg10_13_cif.got.tgz:25872.got - 2010.06.03 11:33:40.
