data_PCOD9148819
_publ_section_title
;
Structure prediction by ZEFSAII (Michael W. Deem and Ramdas Pophale) SiO2 
 PCOD9148819
Probable space group: P 2/M
;
_chemical_formula_sum "Si O2"
_cell_formula_units_Z 28
_cell_length_a 14.655617
_cell_length_b 7.399046
_cell_length_c 11.566491
_cell_angle_alpha 90.000000
_cell_angle_beta 60.702090
_cell_angle_gamma 90.000000
_cell_volume 1093.808597
_symmetry_space_group_name_H-M "P 2/M"
_symmetry_group_IT_number 10
_symmetry_cell_setting 'monoclinic'
loop_
_space_group_symop_operation_xyz
x,y,z
-x,y,-z
-x,-y,-z
x,-y,z
loop_
_atom_site_type_symbol
_atom_site_label
_atom_site_fract_x
_atom_site_fract_y
_atom_site_fract_z
Si Si1 0.234686 0.703294 0.186363
Si Si2 0.505931 0.295672 0.629950
Si Si3 0.885158 0.718873 0.533954
Si Si4 0.430343 0.719823 0.929098
Si Si5 0.156088 0.780195 0.830935
Si Si6 0.929634 0.781383 0.880675
Si Si7 0.272889 0.789829 0.552265
O O1 0.272896 0.500000 0.185092
O O2 0.207461 0.790379 0.324772
O O3 0.119342 0.699794 0.202314
O O4 0.315926 0.781206 0.044632
O O5 0.500000 0.217994 0.500000
O O6 0.465213 0.500000 0.645425
O O7 0.459596 0.216556 0.779996
O O8 0.631410 0.301801 0.570607
O O9 0.886588 0.500000 0.539320
O O10 0.839956 0.770616 0.438175
O O11 0.000000 0.784053 0.500000
O O12 0.435865 0.500000 0.916902
O O13 0.500000 0.768956 0.000000
O O14 0.252994 0.719838 0.694494
O O15 0.045080 0.724659 0.844995
O O16 0.156716 0.000000 0.829018
O O17 0.147656 0.724474 0.967822
O O18 0.929308 0.000000 0.871356
O O19 0.298877 0.000000 0.540335
#
# Coordination Sequence:
#
# PCOD9148819 Si02
#       7
#     4   4   4   4   4   4   4
#     4  10  20  33  54  81 107 136 178 226 273 322
#     4  10  22  39  59  83 111 149 196 243 292 347
#     4  10  21  37  57  84 118 152 185 226 279 338
#     4   9  18  35  57  77 104 144 186 230 284 338
#     4   8  17  33  52  75 106 144 178 210 261 327
#     4   9  17  33  54  75 104 142 179 213 259 324
#     4  11  22  36  57  83 113 148 188 233 284 337
#
# _framework density 25.598627
#
# number of rings (size 3 to 8) (size 9 to 14) (size 15 to 20)
#    0.000    2.429    0.000    3.000    2.000    3.429 
#    0.000    3.571    0.000    1.714    0.000    0.000 
#    0.000    0.000    0.000    0.000    0.000    0.000 
#
# Total GULP energy -156224.140537 kJ/mol
# GULP energy per Si atom -5579.433591 kJ/mol
# Density = 2.554036 g / cm^3
# Si number density = 25.598627 Si / 1000 Ang^3
#
#
#
# Elastic Constant Matrix: (Units=GPa)
#
#
# Indices 1 2 3 4 5 6 
#
# 1 92.4681 1.3683 19.5158 0.0000 9.2888 0.0000
# 2 1.3683 98.8715 12.0399 0.0000 -3.8445 0.0000
# 3 19.5158 12.0399 207.7181 0.0000 3.2443 0.0000
# 4 0.0000 0.0000 0.0000 -4.3027 0.0000 -2.2650
# 5 9.2888 -3.8445 3.2443 0.0000 39.6516 0.0000
# 6 0.0000 0.0000 0.0000 -2.2650 0.0000 6.5730
#
#
#
# Elastic Compliance Matrix: (Units=1/GPa)
#
#
# Indices 1 2 3 4 5 6 
#
# 1 0.011289 -0.000133 -0.001013 0.000000 -0.002575 0.000000
# 2 -0.000133 0.010230 -0.000597 0.000000 0.001072 0.000000
# 3 -0.001013 -0.000597 0.004948 0.000000 -0.000225 0.000000
# 4 0.000000 0.000000 0.000000 -0.196728 0.000000 -0.067791
# 5 -0.002575 0.001072 -0.000225 0.000000 0.025945 0.000000
# 6 0.000000 0.000000 0.000000 -0.067791 0.000000 0.128778
#
#
# Mechanical properties :
#
#
# Convention : Reuss Voigt Hill
#
# Bulk Modulus (GPa) = 43.51448 51.65619 47.58534
# Shear Modulus (GPa) = -1138.57942 32.79330 -552.89306
#
# Velocity S-wave (km/s) = -21.11272 3.58307 -14.71239
# Velocity P-wave (km/s) = 24.02694 6.11072 16.43096
#
# Compressibility (1/GPa) = 0.02298085
#
# Stress axis : x y z
#
# Youngs Moduli (GPa) = 88.58285 97.74806 202.12216
#
# Poissons Ratio (x) = 0.01300 0.20469
# Poissons Ratio (y) = 0.01178 0.12071
# Poissons Ratio (z) = 0.08971 0.05838
#
# Static dielectric constant tensor:
#      x y z
#    x 1.998860 0.000000 0.000090 
#    y 0.000000 1.980260 0.000000 
#    z 0.000090 0.000000 2.048550 
# 
# From -- ./inp_files/49592.got.cif
#   From: 2010.05.17/outbox.cif.g08.bks.cpg/sg10_25_cif.got.tgz:49592.got - 2010.06.03 11:33:40.
