data_PCOD9148883
_publ_section_title
;
Structure prediction by ZEFSAII (Michael W. Deem and Ramdas Pophale) SiO2 
 PCOD9148883
Probable space group: P 2/M
;
_chemical_formula_sum "Si O2"
_cell_formula_units_Z 32
_cell_length_a 12.902982
_cell_length_b 13.999863
_cell_length_c 19.139807
_cell_angle_alpha 90.000000
_cell_angle_beta 150.527833
_cell_angle_gamma 90.000000
_cell_volume 1701.050295
_symmetry_space_group_name_H-M "P 2/M"
_symmetry_group_IT_number 10
_symmetry_cell_setting 'monoclinic'
loop_
_space_group_symop_operation_xyz
x,y,z
-x,y,-z
-x,-y,-z
x,-y,z
loop_
_atom_site_type_symbol
_atom_site_label
_atom_site_fract_x
_atom_site_fract_y
_atom_site_fract_z
Si Si1 0.606366 0.890373 0.418900
Si Si2 0.191919 0.385355 0.764800
Si Si3 0.333537 0.743839 0.338455
Si Si4 0.088943 0.897936 0.269434
Si Si5 0.342151 0.384546 0.008424
Si Si6 0.711767 0.110330 0.154735
Si Si7 0.002545 0.385204 0.081976
Si Si8 0.020033 0.222065 0.430386
O O1 0.434352 0.810698 0.337367
O O2 0.731531 0.900392 0.565711
O O3 0.774543 0.841119 0.466112
O O4 0.545720 0.000000 0.363480
O O5 0.159794 0.500000 0.741086
O O6 0.234496 0.359583 0.870876
O O7 0.000789 0.322472 0.622947
O O8 0.409416 0.360044 0.851023
O O9 0.500000 0.728176 0.500000
O O10 0.143055 0.808477 0.255355
O O11 0.220995 0.649956 0.244229
O O12 0.875411 0.889625 0.186907
O O13 0.095880 0.000000 0.235410
O O14 0.342038 0.500000 0.009686
O O15 0.198715 0.352274 0.989254
O O16 0.823779 0.162714 0.283859
O O17 0.671580 0.000000 0.151093
O O18 0.500000 0.154128 0.000000
O O19 0.996222 0.500000 0.078269
O O20 0.000000 0.351931 0.000000
O O21 0.000000 0.238914 0.500000
#
# Coordination Sequence:
#
# PCOD9148883 Si02
#       8
#     4   4   4   4   4   4   4   4
#     4   9  19  36  54  76 111 148 185 225 276 336
#     4   9  19  35  57  85 112 146 194 238 277 330
#     4  10  20  33  57  82 104 141 191 232 266 319
#     4   8  15  30  53  79 103 133 176 228 277 322
#     4   8  17  35  59  81 105 146 193 233 279 331
#     4   9  19  34  53  79 109 139 180 231 281 336
#     4  10  22  38  56  82 118 153 181 224 288 345
#     4  11  23  34  53  83 114 151 185 226 291 340
#
# _framework density 18.811907000000001
#
# number of rings (size 3 to 8) (size 9 to 14) (size 15 to 20)
#    0.000    2.750    0.000    2.250    7.000    4.000 
#    0.000    0.625    0.000    3.000    0.000    0.000 
#    0.000    0.000    0.000    0.000    0.000    0.000 
#
# Total GULP energy -178222.793138 kJ/mol
# GULP energy per Si atom -5569.462286 kJ/mol
# Density = 1.876909 g / cm^3
# Si number density = 18.811907 Si / 1000 Ang^3
#
#
#
# Elastic Constant Matrix: (Units=GPa)
#
#
# Indices 1 2 3 4 5 6 
#
# 1 72.4447 17.0089 16.3297 0.0000 -8.7440 0.0000
# 2 17.0089 50.3400 6.3167 0.0000 -4.0535 0.0000
# 3 16.3297 6.3167 33.6975 0.0000 0.3055 0.0000
# 4 0.0000 0.0000 0.0000 3.0214 0.0000 -0.1976
# 5 -8.7440 -4.0535 0.3055 0.0000 13.7682 0.0000
# 6 0.0000 0.0000 0.0000 -0.1976 0.0000 20.8689
#
#
#
# Elastic Compliance Matrix: (Units=1/GPa)
#
#
# Indices 1 2 3 4 5 6 
#
# 1 0.017817 -0.004198 -0.007940 0.000000 0.010255 0.000000
# 2 -0.004198 0.021854 -0.002097 0.000000 0.003814 0.000000
# 3 -0.007940 -0.002097 0.033975 0.000000 -0.006414 0.000000
# 4 0.000000 0.000000 0.000000 0.331183 0.000000 0.003136
# 5 0.010255 0.003814 -0.006414 0.000000 0.080410 0.000000
# 6 0.000000 0.000000 0.000000 0.003136 0.000000 0.047948
#
#
# Mechanical properties :
#
#
# Convention : Reuss Voigt Hill
#
# Bulk Modulus (GPa) = 22.13583 26.19920 24.16752
# Shear Modulus (GPa) = 8.66982 15.32015 11.99498
#
# Velocity S-wave (km/s) = 2.14911 2.85684 2.52787
# Velocity P-wave (km/s) = 4.23683 4.98389 4.62547
#
# Compressibility (1/GPa) = 0.04517563
#
# Stress axis : x y z
#
# Youngs Moduli (GPa) = 56.12689 45.75922 29.43367
#
# Poissons Ratio (x) = 0.19209 0.23370
# Poissons Ratio (y) = 0.23561 0.06172
# Poissons Ratio (z) = 0.44565 0.09595
#
# Static dielectric constant tensor:
#      x y z
#    x 1.625360 0.000000 -0.005820 
#    y 0.000000 1.696340 0.000000 
#    z -0.005820 0.000000 1.608540 
# 
# From -- ./inp_files/77033.got.cif
#   From: 2010.05.17/outbox.cif.g08.bks.cpg/sg10_39_cif.got.tgz:77033.got - 2010.06.03 11:33:40.
