data_PCOD9148455
_publ_section_title
;
Structure prediction by ZEFSAII (Michael W. Deem and Ramdas Pophale) SiO2 
 PCOD9148455
Probable space group: P 2/M
;
_chemical_formula_sum "Si O2"
_cell_formula_units_Z 32
_cell_length_a 26.474322
_cell_length_b 7.667695
_cell_length_c 15.497382
_cell_angle_alpha 90.000000
_cell_angle_beta 26.331940
_cell_angle_gamma 90.000000
_cell_volume 1395.439582
_symmetry_space_group_name_H-M "P 2/M"
_symmetry_group_IT_number 10
_symmetry_cell_setting 'monoclinic'
loop_
_space_group_symop_operation_xyz
x,y,z
-x,y,-z
-x,-y,-z
x,-y,z
loop_
_atom_site_type_symbol
_atom_site_label
_atom_site_fract_x
_atom_site_fract_y
_atom_site_fract_z
Si Si1 0.475930 0.213024 0.262438
Si Si2 0.879544 0.289582 0.792707
Si Si3 0.816845 0.798744 0.077990
Si Si4 0.562019 0.213964 0.492167
Si Si5 0.286792 0.793687 0.429586
Si Si6 0.033146 0.701959 0.856159
Si Si7 0.642619 0.798668 0.859367
Si Si8 0.856161 0.289115 0.637075
O O1 0.495391 0.271010 0.330424
O O2 0.351308 0.264655 0.417262
O O3 0.482876 0.000000 0.254791
O O4 0.563342 0.277460 0.055766
O O5 0.872547 0.500000 0.808338
O O6 0.829719 0.235634 0.776263
O O7 0.013531 0.243609 0.583411
O O8 0.825712 0.213907 0.960988
O O9 0.693558 0.727764 0.292565
O O10 0.820354 0.000000 0.099480
O O11 0.927160 0.716033 0.953529
O O12 0.500000 0.272190 0.500000
O O13 0.562879 0.000000 0.488662
O O14 0.151751 0.771406 0.637784
O O15 0.347574 0.718766 0.250871
O O16 0.306380 0.000000 0.395253
O O17 0.058011 0.500000 0.833143
O O18 0.000000 0.781459 0.000000
O O19 0.769293 0.792058 0.703700
O O20 0.605807 0.000000 0.906475
O O21 0.847914 0.500000 0.645133
#
# Coordination Sequence:
#
# PCOD9148455 Si02
#       8
#     4   4   4   4   4   4   4   4
#     4   9  18  34  55  78 113 153 185 230 287 337
#     4   9  19  36  55  75 108 150 187 228 279 336
#     4  11  22  35  58  88 113 142 185 234 283 335
#     4   9  19  34  53  81 114 147 185 228 280 336
#     4  10  20  36  58  86 116 147 189 235 283 341
#     4  11  24  40  59  83 114 153 190 230 283 339
#     4  10  20  32  54  84 112 144 186 234 285 336
#     4   9  19  35  53  75 107 150 191 226 276 337
#
# _framework density 22.931840000000001
#
# number of rings (size 3 to 8) (size 9 to 14) (size 15 to 20)
#    0.000    2.250    0.000    3.375    1.750    7.000 
#    0.000    1.875    0.000    4.500    0.000    0.000 
#    0.000    0.000    0.000    0.000    0.000    0.000 
#
# Total GULP energy -178765.087712 kJ/mol
# GULP energy per Si atom -5586.408991 kJ/mol
# Density = 2.287965 g / cm^3
# Si number density = 22.931840 Si / 1000 Ang^3
#
#
#
# Elastic Constant Matrix: (Units=GPa)
#
#
# Indices 1 2 3 4 5 6 
#
# 1 134.0414 2.6091 42.5994 0.0000 23.9568 0.0000
# 2 2.6091 35.7969 2.5789 0.0000 0.9056 0.0000
# 3 42.5994 2.5789 90.1689 0.0000 28.0551 0.0000
# 4 0.0000 0.0000 0.0000 11.5339 0.0000 -3.9328
# 5 23.9568 0.9056 28.0551 0.0000 37.4049 0.0000
# 6 0.0000 0.0000 0.0000 -3.9328 0.0000 15.5768
#
#
#
# Elastic Compliance Matrix: (Units=1/GPa)
#
#
# Indices 1 2 3 4 5 6 
#
# 1 0.009102 -0.000345 -0.003234 0.000000 -0.003396 0.000000
# 2 -0.000345 0.028006 -0.000647 0.000000 0.000028 0.000000
# 3 -0.003234 -0.000647 0.015636 0.000000 -0.009641 0.000000
# 4 0.000000 0.000000 0.000000 0.094868 0.000000 0.023952
# 5 -0.003396 0.000028 -0.009641 0.000000 0.036140 0.000000
# 6 0.000000 0.000000 0.000000 0.023952 0.000000 0.070245
#
#
# Mechanical properties :
#
#
# Convention : Reuss Voigt Hill
#
# Bulk Modulus (GPa) = 22.57630 39.50909 31.04269
# Shear Modulus (GPa) = 18.03675 27.05112 22.54394
#
# Velocity S-wave (km/s) = 2.80757 3.43830 3.13882
# Velocity P-wave (km/s) = 4.51401 5.74708 5.16745
#
# Compressibility (1/GPa) = 0.04429424
#
# Stress axis : x y z
#
# Youngs Moduli (GPa) = 109.87014 35.70614 63.95420
#
# Poissons Ratio (x) = 0.01230 0.20680
# Poissons Ratio (y) = 0.03785 0.04137
# Poissons Ratio (z) = 0.35528 0.02310
#
# Static dielectric constant tensor:
#      x y z
#    x 1.840940 0.000000 0.023130 
#    y 0.000000 1.845970 0.000000 
#    z 0.023130 0.000000 1.852950 
# 
# From -- ./inp_files/71492.got.cif
#   From: 2010.05.17/outbox.cif.g08.bks.cpg/sg10_36_cif.got.tgz:71492.got - 2010.06.03 11:33:40.
