data_PCOD9148721
_publ_section_title
;
Structure prediction by ZEFSAII (Michael W. Deem and Ramdas Pophale) SiO2 
 PCOD9148721
Probable space group: P 2/M
;
_chemical_formula_sum "Si O2"
_cell_formula_units_Z 32
_cell_length_a 12.955065
_cell_length_b 7.423817
_cell_length_c 21.891768
_cell_angle_alpha 90.000000
_cell_angle_beta 139.571625
_cell_angle_gamma 90.000000
_cell_volume 1365.386606
_symmetry_space_group_name_H-M "P 2/M"
_symmetry_group_IT_number 10
_symmetry_cell_setting 'monoclinic'
loop_
_space_group_symop_operation_xyz
x,y,z
-x,y,-z
-x,-y,-z
x,-y,z
loop_
_atom_site_type_symbol
_atom_site_label
_atom_site_fract_x
_atom_site_fract_y
_atom_site_fract_z
Si Si1 0.790797 0.217746 0.662759
Si Si2 0.273127 0.779881 0.743261
Si Si3 0.102648 0.202156 0.867229
Si Si4 0.912392 0.718260 0.898377
Si Si5 0.557499 0.208066 0.956477
Si Si6 0.914853 0.220143 0.594522
Si Si7 0.738839 0.204289 0.400467
Si Si8 0.591251 0.289392 0.693119
O O1 0.790488 0.274356 0.591808
O O2 0.660995 0.268447 0.655548
O O3 0.965388 0.283499 0.763280
O O4 0.791914 0.000000 0.664911
O O5 0.420867 0.716219 0.851072
O O6 0.285570 0.719873 0.678258
O O7 0.098112 0.728539 0.688643
O O8 0.278859 0.000000 0.748210
O O9 0.011792 0.193017 0.889813
O O10 0.137087 0.000000 0.857532
O O11 0.268502 0.293290 0.958533
O O12 0.918402 0.500000 0.894513
O O13 0.730224 0.770449 0.802765
O O14 0.000000 0.765437 0.000000
O O15 0.583623 0.000000 0.947432
O O16 0.500000 0.204877 0.000000
O O17 0.862252 0.286274 0.504140
O O18 0.910721 0.000000 0.591549
O O19 0.573236 0.198994 0.363010
O O20 0.794575 0.000000 0.414200
O O21 0.564360 0.500000 0.690530
#
# Coordination Sequence:
#
# PCOD9148721 Si02
#       8
#     4   4   4   4   4   4   4   4
#     4   9  17  32  53  75 101 133 171 212 251 296
#     4   9  17  29  48  75 105 134 166 207 252 300
#     4   9  17  28  46  74 100 125 159 200 242 284
#     4   9  19  34  50  67  92 131 167 194 235 295
#     4   9  16  26  43  72 107 134 157 195 250 301
#     4   9  17  31  52  75 100 134 172 210 254 301
#     4  10  20  33  52  77 104 133 170 213 252 297
#     4  10  21  36  52  73 103 135 169 209 256 304
#
# _framework density 23.436585999999998
#
# number of rings (size 3 to 8) (size 9 to 14) (size 15 to 20)
#    0.000    2.750    0.000    1.500    1.750    5.750 
#    0.000    3.125    0.000    2.625    0.000    0.000 
#    0.000    0.000    0.000    0.000    0.000    0.000 
#
# Total GULP energy -178483.255445 kJ/mol
# GULP energy per Si atom -5577.601733 kJ/mol
# Density = 2.338324 g / cm^3
# Si number density = 23.436586 Si / 1000 Ang^3
#
#
#
# Elastic Constant Matrix: (Units=GPa)
#
#
# Indices 1 2 3 4 5 6 
#
# 1 76.3855 -4.9151 25.5629 0.0000 -7.4069 0.0000
# 2 -4.9151 72.7955 0.8490 0.0000 -0.3208 0.0000
# 3 25.5629 0.8490 41.7661 0.0000 -7.4491 0.0000
# 4 0.0000 0.0000 0.0000 -5.9320 0.0000 -30.1361
# 5 -7.4069 -0.3208 -7.4491 0.0000 47.6623 0.0000
# 6 0.0000 0.0000 0.0000 -30.1361 0.0000 -319.9798
#
#
#
# Elastic Compliance Matrix: (Units=1/GPa)
#
#
# Indices 1 2 3 4 5 6 
#
# 1 0.016623 0.001244 -0.010016 0.000000 0.001026 0.000000
# 2 0.001244 0.013834 -0.001020 0.000000 0.000127 0.000000
# 3 -0.010016 -0.001020 0.030670 0.000000 0.003230 0.000000
# 4 0.000000 0.000000 0.000000 -0.323228 0.000000 0.030442
# 5 0.001026 0.000127 0.003230 0.000000 0.021646 0.000000
# 6 0.000000 0.000000 0.000000 0.030442 0.000000 -0.005992
#
#
# Mechanical properties :
#
#
# Convention : Reuss Voigt Hill
#
# Bulk Modulus (GPa) = 24.07208 25.99343 25.03275
# Shear Modulus (GPa) = -23.47257 -44.35322 -33.91289
#
# Velocity S-wave (km/s) = -3.16814 -4.35498 -3.80808
# Velocity P-wave (km/s) = 1.75765 3.76467 2.93787
#
# Compressibility (1/GPa) = 0.04154191
#
# Stress axis : x y z
#
# Youngs Moduli (GPa) = 60.15730 72.28810 32.60489
#
# Poissons Ratio (x) = -0.08991 0.32658
# Poissons Ratio (y) = -0.07482 0.03325
# Poissons Ratio (z) = 0.60256 0.07372
#
# Static dielectric constant tensor:
#      x y z
#    x 1.880210 0.000000 0.024100 
#    y 0.000000 1.977220 0.000000 
#    z 0.024100 0.000000 2.007460 
# 
# From -- ./inp_files/83871.got.cif
#   From: 2010.05.17/outbox.cif.g08.bks.cpg/sg10_42_cif.got.tgz:83871.got - 2010.06.03 11:33:40.
