data_PCOD9148040
_publ_section_title
;
Structure prediction by ZEFSAII (Michael W. Deem and Ramdas Pophale) SiO2 
 PCOD9148040
Probable space group: P 2/M
;
_chemical_formula_sum "Si O2"
_cell_formula_units_Z 24
_cell_length_a 9.025646
_cell_length_b 14.422038
_cell_length_c 13.490715
_cell_angle_alpha 90.000000
_cell_angle_beta 49.149213
_cell_angle_gamma 90.000000
_cell_volume 1328.312796
_symmetry_space_group_name_H-M "P 2/M"
_symmetry_group_IT_number 10
_symmetry_cell_setting 'monoclinic'
loop_
_space_group_symop_operation_xyz
x,y,z
-x,y,-z
-x,-y,-z
x,-y,z
loop_
_atom_site_type_symbol
_atom_site_label
_atom_site_fract_x
_atom_site_fract_y
_atom_site_fract_z
Si Si1 0.171835 0.215652 0.004392
Si Si2 0.193746 0.605266 0.348293
Si Si3 0.397096 0.794274 0.266162
Si Si4 0.265311 0.393742 0.089249
Si Si5 0.322948 0.888611 0.507075
Si Si6 0.886558 0.889369 0.769183
O O1 0.183433 0.316413 0.051904
O O2 0.145420 0.142356 0.104513
O O3 0.378368 0.197207 0.861804
O O4 0.000000 0.210691 0.000000
O O5 0.265794 0.500000 0.334161
O O6 0.343355 0.686847 0.306947
O O7 0.165401 0.613065 0.241606
O O8 0.000000 0.618014 0.500000
O O9 0.349006 0.849055 0.386586
O O10 0.262765 0.834944 0.236736
O O11 0.243596 0.500000 0.063760
O O12 0.500000 0.376812 0.000000
O O13 0.500000 0.856041 0.500000
O O14 0.108622 0.864184 0.641781
O O15 0.332210 0.000000 0.498869
O O16 0.860441 0.000000 0.768996
#
# Coordination Sequence:
#
# PCOD9148040 Si02
#       6
#     4   4   4   4   4   4
#     4  12  25  39  56  86 123 157 196 244 305 355
#     4  10  20  35  61  92 117 145 189 242 292 340
#     4  12  22  38  62  88 115 155 201 248 288 346
#     4  10  19  38  63  85 116 155 198 243 287 345
#     4  10  22  40  61  88 121 156 192 238 301 357
#     4  11  23  40  62  87 115 153 203 248 290 349
#
# _framework density 18.068031999999999
#
# number of rings (size 3 to 8) (size 9 to 14) (size 15 to 20)
#    0.000    1.167    3.333    3.500    0.000    4.000 
#    0.000    0.000    0.000    0.500    0.000    0.000 
#    0.000    0.000    0.000    0.000    0.000    0.000 
#
# Total GULP energy -134084.469742 kJ/mol
# GULP energy per Si atom -5586.852906 kJ/mol
# Density = 1.802691 g / cm^3
# Si number density = 18.068032 Si / 1000 Ang^3
#
#
#
# Elastic Constant Matrix: (Units=GPa)
#
#
# Indices 1 2 3 4 5 6 
#
# 1 99.2756 37.0899 37.6443 0.0000 -20.5459 0.0000
# 2 37.0899 48.4967 46.6232 0.0000 -15.8581 0.0000
# 3 37.6443 46.6232 140.0380 0.0000 -15.7666 0.0000
# 4 0.0000 0.0000 0.0000 40.5506 0.0000 22.8985
# 5 -20.5459 -15.8581 -15.7666 0.0000 26.1118 0.0000
# 6 0.0000 0.0000 0.0000 22.8985 0.0000 40.6929
#
#
#
# Elastic Compliance Matrix: (Units=1/GPa)
#
#
# Indices 1 2 3 4 5 6 
#
# 1 0.014817 -0.009119 -0.000277 0.000000 0.005953 0.000000
# 2 -0.009119 0.040886 -0.009842 0.000000 0.011713 0.000000
# 3 -0.000277 -0.009842 0.010509 0.000000 0.000150 0.000000
# 4 0.000000 0.000000 0.000000 0.036146 0.000000 -0.020340
# 5 0.005953 0.011713 0.000150 0.000000 0.050185 0.000000
# 6 0.000000 0.000000 0.000000 -0.020340 0.000000 0.036020
#
#
# Mechanical properties :
#
#
# Convention : Reuss Voigt Hill
#
# Bulk Modulus (GPa) = 36.05430 58.94723 47.50076
# Shear Modulus (GPa) = 21.16084 32.56792 26.86438
#
# Velocity S-wave (km/s) = 3.42596 4.25021 3.86015
# Velocity P-wave (km/s) = 5.97056 7.53536 6.79814
#
# Compressibility (1/GPa) = 0.02773595
#
# Stress axis : x y z
#
# Youngs Moduli (GPa) = 67.49022 24.45809 95.15608
#
# Poissons Ratio (x) = 0.22304 0.02633
# Poissons Ratio (y) = 0.61546 0.93655
# Poissons Ratio (z) = 0.01867 0.24072
#
# Static dielectric constant tensor:
#      x y z
#    x 1.586740 0.000000 -0.002640 
#    y 0.000000 1.627880 0.000000 
#    z -0.002640 0.000000 1.614630 
# 
# From -- ./inp_files/29662.got.cif
#   From: 2010.05.17/outbox.cif.g08.bks.cpg/sg10_15_cif.got.tgz:29662.got - 2010.06.03 11:33:40.
