data_PCOD9148801
_publ_section_title
;
Structure prediction by ZEFSAII (Michael W. Deem and Ramdas Pophale) SiO2 
 PCOD9148801
Probable space group: P 2/M
;
_chemical_formula_sum "Si O2"
_cell_formula_units_Z 32
_cell_length_a 31.403978
_cell_length_b 8.524176
_cell_length_c 13.392066
_cell_angle_alpha 90.000000
_cell_angle_beta 152.928733
_cell_angle_gamma 90.000000
_cell_volume 1631.510910
_symmetry_space_group_name_H-M "P 2/M"
_symmetry_group_IT_number 10
_symmetry_cell_setting 'monoclinic'
loop_
_space_group_symop_operation_xyz
x,y,z
-x,y,-z
-x,-y,-z
x,-y,z
loop_
_atom_site_type_symbol
_atom_site_label
_atom_site_fract_x
_atom_site_fract_y
_atom_site_fract_z
Si Si1 0.129506 0.687465 0.065863
Si Si2 0.398488 0.192252 0.330018
Si Si3 0.075795 0.811870 0.375409
Si Si4 0.654452 0.680366 0.124618
Si Si5 0.824293 0.312797 0.613398
Si Si6 0.749889 0.817039 0.139654
Si Si7 0.542696 0.683074 0.191646
Si Si8 0.687222 0.185477 0.639962
O O1 0.126667 0.500000 0.063260
O O2 0.153715 0.745120 0.229503
O O3 0.211356 0.739275 0.162345
O O4 0.028234 0.751420 0.825526
O O5 0.500000 0.243766 0.500000
O O6 0.371956 0.240087 0.387055
O O7 0.400365 0.000000 0.330964
O O8 0.312912 0.248357 0.081047
O O9 0.112396 0.758253 0.342649
O O10 0.150366 0.751856 0.614248
O O11 0.077436 0.000000 0.380844
O O12 0.677306 0.500000 0.142631
O O13 0.717357 0.713138 0.354065
O O14 0.685902 0.796567 0.104157
O O15 0.545546 0.688575 0.918690
O O16 0.840265 0.500000 0.646537
O O17 0.764754 0.000000 0.147905
O O18 0.569648 0.500000 0.231344
O O19 0.628028 0.772025 0.418383
O O20 0.500000 0.746257 0.000000
O O21 0.698668 0.000000 0.672642
#
# Coordination Sequence:
#
# PCOD9148801 Si02
#       8
#     4   4   4   4   4   4   4   4
#     4  11  22  37  55  74 106 150 186 219 267 327
#     4   9  18  35  59  83 107 137 173 216 271 332
#     4  10  20  33  53  82 111 139 178 228 272 312
#     4   9  17  30  50  76 104 134 173 218 258 307
#     4   9  18  33  53  77 106 145 185 215 257 319
#     4   9  18  34  55  78 105 136 171 216 272 326
#     4  10  20  35  53  74 107 149 182 209 254 319
#     4  11  23  37  56  82 108 137 180 231 274 315
#
# _framework density 19.613721000000002
#
# number of rings (size 3 to 8) (size 9 to 14) (size 15 to 20)
#    0.000    2.250    0.000    3.000    0.000    6.750 
#    0.000    4.375    0.000    7.125    0.000    0.000 
#    0.000    0.000    0.000    0.000    0.000    0.000 
#
# Total GULP energy -178527.737456 kJ/mol
# GULP energy per Si atom -5578.991796 kJ/mol
# Density = 1.956908 g / cm^3
# Si number density = 19.613721 Si / 1000 Ang^3
#
#
#
# Elastic Constant Matrix: (Units=GPa)
#
#
# Indices 1 2 3 4 5 6 
#
# 1 81.0546 10.2006 56.6718 0.0000 8.7601 0.0000
# 2 10.2006 12.4150 18.4446 0.0000 5.3016 0.0000
# 3 56.6718 18.4446 114.3641 0.0000 3.9533 0.0000
# 4 0.0000 0.0000 0.0000 42.8548 0.0000 -3.5369
# 5 8.7601 5.3016 3.9533 0.0000 34.5024 0.0000
# 6 0.0000 0.0000 0.0000 -3.5369 0.0000 26.1930
#
#
#
# Elastic Compliance Matrix: (Units=1/GPa)
#
#
# Indices 1 2 3 4 5 6 
#
# 1 0.019371 -0.000303 -0.009419 0.000000 -0.003793 0.000000
# 2 -0.000303 0.113547 -0.017632 0.000000 -0.015350 0.000000
# 3 -0.009419 -0.017632 0.016143 0.000000 0.003251 0.000000
# 4 0.000000 0.000000 0.000000 0.023598 0.000000 0.003186
# 5 -0.003793 -0.015350 0.003251 0.000000 0.031933 0.000000
# 6 0.000000 0.000000 0.000000 0.003186 0.000000 0.038608
#
#
# Mechanical properties :
#
#
# Convention : Reuss Voigt Hill
#
# Bulk Modulus (GPa) = 10.59849 42.05196 26.32522
# Shear Modulus (GPa) = 15.18100 28.87782 22.02941
#
# Velocity S-wave (km/s) = 2.78510 3.84125 3.35500
# Velocity P-wave (km/s) = 3.96960 6.41563 5.33470
#
# Compressibility (1/GPa) = 0.09435311
#
# Stress axis : x y z
#
# Youngs Moduli (GPa) = 51.62349 8.80690 61.94661
#
# Poissons Ratio (x) = 0.00266 0.58349
# Poissons Ratio (y) = 0.01562 1.09226
# Poissons Ratio (z) = 0.48625 0.15529
#
# Static dielectric constant tensor:
#      x y z
#    x 1.686270 0.000000 -0.014040 
#    y 0.000000 1.685670 0.000000 
#    z -0.014040 0.000000 1.707440 
# 
# From -- ./inp_files/58339.got.cif
#   From: 2010.05.17/outbox.cif.g08.bks.cpg/sg10_30_cif.got.tgz:58339.got - 2010.06.03 11:33:40.
