data_PCOD9148487
_publ_section_title
;
Structure prediction by ZEFSAII (Michael W. Deem and Ramdas Pophale) SiO2 
 PCOD9148487
Probable space group: P 2/M
;
_chemical_formula_sum "Si O2"
_cell_formula_units_Z 32
_cell_length_a 23.350949
_cell_length_b 9.176780
_cell_length_c 14.453664
_cell_angle_alpha 90.000000
_cell_angle_beta 36.096113
_cell_angle_gamma 90.000000
_cell_volume 1824.704137
_symmetry_space_group_name_H-M "P 2/M"
_symmetry_group_IT_number 10
_symmetry_cell_setting 'monoclinic'
loop_
_space_group_symop_operation_xyz
x,y,z
-x,y,-z
-x,-y,-z
x,-y,z
loop_
_atom_site_type_symbol
_atom_site_label
_atom_site_fract_x
_atom_site_fract_y
_atom_site_fract_z
Si Si1 0.695353 0.170972 0.029590
Si Si2 0.401133 0.326857 0.009714
Si Si3 0.301275 0.669803 0.637446
Si Si4 0.378101 0.674042 0.258724
Si Si5 0.009724 0.675280 0.877839
Si Si6 0.810888 0.328289 0.030690
Si Si7 0.792917 0.173325 0.405547
Si Si8 0.491732 0.165047 0.399936
O O1 0.780365 0.241104 0.979826
O O2 0.595413 0.190653 0.218286
O O3 0.712064 0.000000 0.996027
O O4 0.672150 0.246058 0.962453
O O5 0.397018 0.500000 0.997741
O O6 0.378292 0.304014 0.147738
O O7 0.513987 0.280785 0.847786
O O8 0.284375 0.500000 0.637009
O O9 0.271065 0.692193 0.783125
O O10 0.235652 0.771201 0.659400
O O11 0.411659 0.717224 0.476732
O O12 0.367856 0.500000 0.289243
O O13 0.291369 0.760147 0.419860
O O14 0.023749 0.500000 0.855417
O O15 0.101835 0.756719 0.714511
O O16 0.911960 0.711094 0.948871
O O17 0.000000 0.712317 0.000000
O O18 0.814363 0.500000 0.004358
O O19 0.795194 0.000000 0.408541
O O20 0.500000 0.169503 0.500000
O O21 0.459136 0.000000 0.417003
#
# Coordination Sequence:
#
# PCOD9148487 Si02
#       8
#     4   4   4   4   4   4   4   4
#     4  11  22  34  52  77 112 152 184 221 275 332
#     4   9  19  37  61  86 112 143 187 232 273 325
#     4  11  21  34  52  75 104 144 190 229 266 317
#     4   9  19  38  62  86 111 144 184 232 278 324
#     4  10  20  39  60  79 106 143 190 238 279 325
#     4  10  21  36  55  76 103 142 188 231 270 317
#     4  12  24  35  54  84 115 145 178 225 284 340
#     4  10  20  33  46  70 109 147 180 217 264 322
#
# _framework density 17.537089999999999
#
# number of rings (size 3 to 8) (size 9 to 14) (size 15 to 20)
#    0.000    1.750    2.500    3.375    0.000    5.500 
#    0.000    1.250    0.000    0.750    0.000    5.250 
#    0.000    0.000    0.000    0.000    0.000    0.000 
#
# Total GULP energy -178669.309829 kJ/mol
# GULP energy per Si atom -5583.415932 kJ/mol
# Density = 1.749717 g / cm^3
# Si number density = 17.537090 Si / 1000 Ang^3
#
#
#
# Elastic Constant Matrix: (Units=GPa)
#
#
# Indices 1 2 3 4 5 6 
#
# 1 124.9889 60.2093 30.8965 0.0000 -13.1661 0.0000
# 2 60.2093 67.9401 43.0660 0.0000 -12.2074 0.0000
# 3 30.8965 43.0660 63.0798 0.0000 -10.1666 0.0000
# 4 0.0000 0.0000 0.0000 18.1377 0.0000 -2.4261
# 5 -13.1661 -12.2074 -10.1666 0.0000 21.8630 0.0000
# 6 0.0000 0.0000 0.0000 -2.4261 0.0000 19.7124
#
#
#
# Elastic Compliance Matrix: (Units=1/GPa)
#
#
# Indices 1 2 3 4 5 6 
#
# 1 0.014339 -0.014268 0.003055 0.000000 0.002089 0.000000
# 2 -0.014268 0.041104 -0.020280 0.000000 0.004928 0.000000
# 3 0.003055 -0.020280 0.028835 0.000000 0.003925 0.000000
# 4 0.000000 0.000000 0.000000 0.056056 0.000000 0.006899
# 5 0.002089 0.004928 0.003925 0.000000 0.051574 0.000000
# 6 0.000000 0.000000 0.000000 0.006899 0.000000 0.051578
#
#
# Mechanical properties :
#
#
# Convention : Reuss Voigt Hill
#
# Bulk Modulus (GPa) = 46.96840 58.26137 52.61488
# Shear Modulus (GPa) = 15.94541 20.06511 18.00526
#
# Velocity S-wave (km/s) = 3.01863 3.38620 3.20769
# Velocity P-wave (km/s) = 6.24419 6.97011 6.61711
#
# Compressibility (1/GPa) = 0.02129091
#
# Stress axis : x y z
#
# Youngs Moduli (GPa) = 69.74017 24.32854 34.68044
#
# Poissons Ratio (x) = 0.34713 -0.10594
# Poissons Ratio (y) = 0.99508 0.70331
# Poissons Ratio (z) = -0.21304 0.49338
#
# Static dielectric constant tensor:
#      x y z
#    x 1.606990 0.000000 -0.006290 
#    y 0.000000 1.584160 0.000000 
#    z -0.006290 0.000000 1.591160 
# 
# From -- ./inp_files/70006.got.cif
#   From: 2010.05.17/outbox.cif.g08.bks.cpg/sg10_36_cif.got.tgz:70006.got - 2010.06.03 11:33:40.
