data_PCOD9148448
_publ_section_title
;
Structure prediction by ZEFSAII (Michael W. Deem and Ramdas Pophale) SiO2 
 PCOD9148448
Probable space group: P 2/M
;
_chemical_formula_sum "Si O2"
_cell_formula_units_Z 32
_cell_length_a 21.610373
_cell_length_b 10.835812
_cell_length_c 22.228597
_cell_angle_alpha 90.000000
_cell_angle_beta 19.735687
_cell_angle_gamma 90.000000
_cell_volume 1757.693574
_symmetry_space_group_name_H-M "P 2/M"
_symmetry_group_IT_number 10
_symmetry_cell_setting 'monoclinic'
loop_
_space_group_symop_operation_xyz
x,y,z
-x,y,-z
-x,-y,-z
x,-y,z
loop_
_atom_site_type_symbol
_atom_site_label
_atom_site_fract_x
_atom_site_fract_y
_atom_site_fract_z
Si Si1 0.735637 0.365263 0.399866
Si Si2 0.056928 0.143987 0.279955
Si Si3 0.095521 0.365172 0.150180
Si Si4 0.778960 0.855959 0.272826
Si Si5 0.557761 0.292362 0.237659
Si Si6 0.221890 0.857594 0.864426
Si Si7 0.433737 0.852132 0.996492
Si Si8 0.634794 0.854480 0.692621
O O1 0.724232 0.500000 0.379535
O O2 0.704684 0.247208 0.385832
O O3 0.591913 0.362738 0.585968
O O4 0.936102 0.353922 0.246312
O O5 0.082474 0.246035 0.204889
O O6 0.853877 0.158744 0.492170
O O7 0.074015 0.000000 0.242862
O O8 0.218816 0.164222 0.179776
O O9 0.068665 0.500000 0.204956
O O10 0.291929 0.364306 0.938421
O O11 0.728799 0.826121 0.249680
O O12 0.729009 0.000000 0.331351
O O13 0.001288 0.848425 0.072137
O O14 0.675930 0.218110 0.178550
O O15 0.448921 0.208844 0.289483
O O16 0.270652 0.000000 0.828129
O O17 0.543491 0.805251 0.837543
O O18 0.467405 0.000000 0.967046
O O19 0.500000 0.801932 0.000000
O O20 0.592331 0.000000 0.727516
#
# Coordination Sequence:
#
# PCOD9148448 Si02
#       8
#     4   4   4   4   4   4   4   4
#     4  11  24  40  57  84 115 147 191 238 288 345
#     4  10  20  36  58  86 117 151 190 231 280 335
#     4  11  23  39  57  82 116 152 189 236 292 336
#     4   9  19  39  60  82 111 149 191 234 289 346
#     4  12  21  36  58  84 110 148 193 236 285 343
#     4   9  19  35  59  86 113 145 188 240 290 339
#     4   9  18  33  55  86 124 157 186 228 278 330
#     4  10  20  32  53  88 120 147 188 235 281 334
#
# _framework density 18.205677000000001
#
# number of rings (size 3 to 8) (size 9 to 14) (size 15 to 20)
#    0.000    1.875    3.750    1.500    0.000    3.000 
#    0.000    6.875    0.000    0.375    0.000    0.875 
#    0.000    0.000    0.000    0.000    0.000    0.000 
#
# Total GULP energy -178465.708226 kJ/mol
# GULP energy per Si atom -5577.053382 kJ/mol
# Density = 1.816424 g / cm^3
# Si number density = 18.205677 Si / 1000 Ang^3
#
#
#
# Elastic Constant Matrix: (Units=GPa)
#
#
# Indices 1 2 3 4 5 6 
#
# 1 105.0588 68.0162 31.4079 0.0000 0.0438 0.0000
# 2 68.0162 86.4768 35.5469 0.0000 -0.7445 0.0000
# 3 31.4079 35.5469 84.0633 0.0000 -6.4619 0.0000
# 4 0.0000 0.0000 0.0000 52.7035 0.0000 17.2835
# 5 0.0438 -0.7445 -6.4619 0.0000 18.2841 0.0000
# 6 0.0000 0.0000 0.0000 17.2835 0.0000 3.6820
#
#
#
# Elastic Compliance Matrix: (Units=1/GPa)
#
#
# Indices 1 2 3 4 5 6 
#
# 1 0.019477 -0.014893 -0.001058 0.000000 -0.001027 0.000000
# 2 -0.014893 0.025428 -0.005248 0.000000 -0.000784 0.000000
# 3 -0.001058 -0.005248 0.014899 0.000000 0.005054 0.000000
# 4 0.000000 0.000000 0.000000 -0.035180 0.000000 0.165133
# 5 -0.001027 -0.000784 0.005054 0.000000 0.056449 0.000000
# 6 0.000000 0.000000 0.000000 0.165133 0.000000 -0.503550
#
#
# Mechanical properties :
#
#
# Convention : Reuss Voigt Hill
#
# Bulk Modulus (GPa) = 57.45560 60.61566 59.03563
# Shear Modulus (GPa) = -13.35921 24.30912 5.47496
#
# Velocity S-wave (km/s) = -2.71180 3.65807 1.73603
# Velocity P-wave (km/s) = 4.67146 7.15606 6.04283
#
# Compressibility (1/GPa) = 0.01740474
#
# Stress axis : x y z
#
# Youngs Moduli (GPa) = 51.34170 39.32619 67.11812
#
# Poissons Ratio (x) = 0.58569 0.07104
# Poissons Ratio (y) = 0.76464 0.35226
# Poissons Ratio (z) = 0.05434 0.20640
#
# Static dielectric constant tensor:
#      x y z
#    x 1.605410 0.000000 0.000290 
#    y 0.000000 1.687750 0.000000 
#    z 0.000290 0.000000 1.652590 
# 
# From -- ./inp_files/86265.got.cif
#   From: 2010.05.17/outbox.cif.g08.bks.cpg/sg10_44_cif.got.tgz:86265.got - 2010.06.03 11:33:40.
