data_PCOD9148942
_publ_section_title
;
Structure prediction by ZEFSAII (Michael W. Deem and Ramdas Pophale) SiO2 
 PCOD9148942
Probable space group: P 2/M
;
_chemical_formula_sum "Si O2"
_cell_formula_units_Z 28
_cell_length_a 18.922901
_cell_length_b 9.212189
_cell_length_c 24.477950
_cell_angle_alpha 90.000000
_cell_angle_beta 21.566847
_cell_angle_gamma 90.000000
_cell_volume 1568.502256
_symmetry_space_group_name_H-M "P 2/M"
_symmetry_group_IT_number 10
_symmetry_cell_setting 'monoclinic'
loop_
_space_group_symop_operation_xyz
x,y,z
-x,y,-z
-x,-y,-z
x,-y,z
loop_
_atom_site_type_symbol
_atom_site_label
_atom_site_fract_x
_atom_site_fract_y
_atom_site_fract_z
Si Si1 0.922512 0.825697 0.229445
Si Si2 0.933446 0.829259 0.673440
Si Si3 0.800571 0.836056 0.608952
Si Si4 0.844534 0.825125 0.159077
Si Si5 0.606368 0.329143 0.839778
Si Si6 0.543259 0.332723 0.534137
Si Si7 0.215510 0.170503 0.106312
O O1 0.920163 0.791533 0.166421
O O2 0.745472 0.751636 0.388637
O O3 0.119261 0.784856 0.118733
O O4 0.901030 0.000000 0.249731
O O5 0.760357 0.740225 0.770550
O O6 0.937969 0.812024 0.734670
O O7 0.130863 0.794711 0.500593
O O8 0.894620 0.000000 0.689705
O O9 0.672489 0.720771 0.731897
O O10 0.000000 0.840793 0.500000
O O11 0.719052 0.000000 0.668795
O O12 0.636087 0.746491 0.307220
O O13 0.816844 0.000000 0.175709
O O14 0.000000 0.785437 0.000000
O O15 0.603687 0.500000 0.848344
O O16 0.397934 0.259924 0.994770
O O17 0.500000 0.333532 0.500000
O O18 0.560150 0.500000 0.539979
O O19 0.268062 0.000000 0.065730
#
# Coordination Sequence:
#
# PCOD9148942 Si02
#       7
#     4   4   4   4   4   4   4
#     4   9  18  33  52  73  97 128 165 202 241 284
#     4   9  18  33  52  71  91 122 166 209 246 288
#     4   8  15  30  50  68  87 115 154 199 243 286
#     4   9  17  31  53  79 103 127 160 201 238 277
#     4  11  21  31  47  72  99 128 162 200 245 294
#     4   9  17  30  50  74  99 128 158 189 232 287
#     4  10  20  34  51  70  95 128 165 205 246 287
#
# _framework density 17.851424000000002
#
# number of rings (size 3 to 8) (size 9 to 14) (size 15 to 20)
#    0.000    2.714    0.000    3.000    0.000    7.429 
#    0.000    1.429    0.000    8.571    0.000    0.000 
#    0.000    0.000    0.000    0.000    0.000    0.000 
#
# Total GULP energy -155926.541720 kJ/mol
# GULP energy per Si atom -5568.805061 kJ/mol
# Density = 1.781079 g / cm^3
# Si number density = 17.851424 Si / 1000 Ang^3
#
#
#
# Elastic Constant Matrix: (Units=GPa)
#
#
# Indices 1 2 3 4 5 6 
#
# 1 52.4750 24.3646 23.5122 0.0000 11.7604 0.0000
# 2 24.3646 48.4466 27.7041 0.0000 6.5444 0.0000
# 3 23.5122 27.7041 73.9419 0.0000 27.5969 0.0000
# 4 0.0000 0.0000 0.0000 139.1562 0.0000 53.6516
# 5 11.7604 6.5444 27.5969 0.0000 22.6510 0.0000
# 6 0.0000 0.0000 0.0000 53.6516 0.0000 27.3494
#
#
#
# Elastic Compliance Matrix: (Units=1/GPa)
#
#
# Indices 1 2 3 4 5 6 
#
# 1 0.027083 -0.012090 -0.000253 0.000000 -0.010261 0.000000
# 2 -0.012090 0.032497 -0.013149 0.000000 0.012908 0.000000
# 3 -0.000253 -0.013149 0.031294 0.000000 -0.034197 0.000000
# 4 0.000000 0.000000 0.000000 0.029492 0.000000 -0.057855
# 5 -0.010261 0.012908 -0.034197 0.000000 0.087410 0.000000
# 6 0.000000 0.000000 0.000000 -0.057855 0.000000 0.150058
#
#
# Mechanical properties :
#
#
# Convention : Reuss Voigt Hill
#
# Bulk Modulus (GPa) = 25.06821 36.22502 30.64662
# Shear Modulus (GPa) = 11.84513 44.45017 28.14765
#
# Velocity S-wave (km/s) = 2.57872 4.99541 3.97517
# Velocity P-wave (km/s) = 4.78953 7.32180 6.18661
#
# Compressibility (1/GPa) = 0.03989116
#
# Stress axis : x y z
#
# Youngs Moduli (GPa) = 36.92371 30.77198 31.95476
#
# Poissons Ratio (x) = 0.37203 0.00807
# Poissons Ratio (y) = 0.44641 0.42017
# Poissons Ratio (z) = 0.00933 0.40462
#
# Static dielectric constant tensor:
#      x y z
#    x 1.641730 0.000000 0.039490 
#    y 0.000000 1.600550 0.000000 
#    z 0.039490 0.000000 1.652560 
# 
# From -- ./inp_files/93517.got.cif
#   From: 2010.05.17/outbox.cif.g08.bks.cpg/sg10_47_cif.got.tgz:93517.got - 2010.06.03 11:33:40.
