data_PCOD9148314
_publ_section_title
;
Structure prediction by ZEFSAII (Michael W. Deem and Ramdas Pophale) SiO2 
 PCOD9148314
Probable space group: P 2/M
;
_chemical_formula_sum "Si O2"
_cell_formula_units_Z 32
_cell_length_a 23.061915
_cell_length_b 9.009466
_cell_length_c 12.322014
_cell_angle_alpha 90.000000
_cell_angle_beta 47.196214
_cell_angle_gamma 90.000000
_cell_volume 1878.389864
_symmetry_space_group_name_H-M "P 2/M"
_symmetry_group_IT_number 10
_symmetry_cell_setting 'monoclinic'
loop_
_space_group_symop_operation_xyz
x,y,z
-x,y,-z
-x,-y,-z
x,-y,z
loop_
_atom_site_type_symbol
_atom_site_label
_atom_site_fract_x
_atom_site_fract_y
_atom_site_fract_z
Si Si1 0.994889 0.171465 0.176301
Si Si2 0.780816 0.677479 0.943126
Si Si3 0.511749 0.330442 0.854372
Si Si4 0.173595 0.321707 0.641761
Si Si5 0.064026 0.172856 0.330977
Si Si6 0.648130 0.823452 0.971173
Si Si7 0.682565 0.679954 0.694028
Si Si8 0.152628 0.322232 0.907594
O O1 0.911540 0.252073 0.272531
O O2 0.023172 0.177944 0.265357
O O3 0.987277 0.000000 0.154169
O O4 0.066240 0.248067 0.020510
O O5 0.772871 0.500000 0.946917
O O6 0.856805 0.731241 0.777382
O O7 0.704396 0.756020 0.991549
O O8 0.800371 0.720470 0.043098
O O9 0.501450 0.500000 0.828808
O O10 0.602904 0.284027 0.727345
O O11 0.500000 0.332480 0.000000
O O12 0.442503 0.228222 0.897354
O O13 0.167388 0.500000 0.642080
O O14 0.240228 0.275064 0.471403
O O15 0.193829 0.285253 0.741346
O O16 0.000000 0.224175 0.500000
O O17 0.084191 0.000000 0.329085
O O18 0.676097 0.755465 0.819747
O O19 0.653722 0.000000 0.960673
O O20 0.682328 0.500000 0.709157
O O21 0.141718 0.500000 0.926414
#
# Coordination Sequence:
#
# PCOD9148314 Si02
#       8
#     4   4   4   4   4   4   4   4
#     4  10  20  32  48  72 100 133 171 206 247 294
#     4  10  20  34  52  73  96 128 172 209 244 291
#     4   8  15  31  52  73 101 132 162 198 244 294
#     4  10  20  34  53  75 100 129 166 210 252 293
#     4   9  19  34  48  66  99 135 164 203 250 291
#     4  11  21  32  51  77 105 133 164 200 244 300
#     4   9  19  34  52  77 105 132 161 201 251 298
#     4   9  19  36  54  71  95 131 172 213 250 288
#
# _framework density 17.035867
#
# number of rings (size 3 to 8) (size 9 to 14) (size 15 to 20)
#    0.000    2.500    0.000    3.000    1.750    6.000 
#    0.000    0.000    0.000    0.750    0.000    5.250 
#    0.000    0.000    0.000    0.000    0.000    0.000 
#
# Total GULP energy -178453.657085 kJ/mol
# GULP energy per Si atom -5576.676784 kJ/mol
# Density = 1.699709 g / cm^3
# Si number density = 17.035867 Si / 1000 Ang^3
#
#
#
# Elastic Constant Matrix: (Units=GPa)
#
#
# Indices 1 2 3 4 5 6 
#
# 1 99.6009 45.4401 31.0090 0.0000 -21.9275 0.0000
# 2 45.4401 49.4352 20.4014 0.0000 -7.3582 0.0000
# 3 31.0090 20.4014 53.2102 0.0000 -9.0182 0.0000
# 4 0.0000 0.0000 0.0000 10.4435 0.0000 2.5909
# 5 -21.9275 -7.3582 -9.0182 0.0000 16.1334 0.0000
# 6 0.0000 0.0000 0.0000 2.5909 0.0000 16.2581
#
#
#
# Elastic Compliance Matrix: (Units=1/GPa)
#
#
# Indices 1 2 3 4 5 6 
#
# 1 0.024022 -0.017229 -0.003526 0.000000 0.022820 0.000000
# 2 -0.017229 0.037005 -0.005806 0.000000 -0.009784 0.000000
# 3 -0.003526 -0.005806 0.024096 0.000000 0.006029 0.000000
# 4 0.000000 0.000000 0.000000 0.099695 0.000000 -0.015887
# 5 0.022820 -0.009784 0.006029 0.000000 0.091907 0.000000
# 6 0.000000 0.000000 0.000000 -0.015887 0.000000 0.064040
#
#
# Mechanical properties :
#
#
# Convention : Reuss Voigt Hill
#
# Bulk Modulus (GPa) = 31.24848 43.99414 37.62131
# Shear Modulus (GPa) = 12.35936 15.59338 13.97637
#
# Velocity S-wave (km/s) = 2.69641 3.02872 2.86738
# Velocity P-wave (km/s) = 5.29875 6.17344 5.75274
#
# Compressibility (1/GPa) = 0.03200155
#
# Stress axis : x y z
#
# Youngs Moduli (GPa) = 41.62874 27.02367 41.50073
#
# Poissons Ratio (x) = 0.46558 0.14632
# Poissons Ratio (y) = 0.71721 0.24095
# Poissons Ratio (z) = 0.14677 0.15690
#
# Static dielectric constant tensor:
#      x y z
#    x 1.579900 0.000000 0.006620 
#    y 0.000000 1.570690 0.000000 
#    z 0.006620 0.000000 1.572240 
# 
# From -- ./inp_files/55292.got.cif
#   From: 2010.05.17/outbox.cif.g08.bks.cpg/sg10_28_cif.got.tgz:55292.got - 2010.06.03 11:33:40.
