data_PCOD9148003
_publ_section_title
;
Structure prediction by ZEFSAII (Michael W. Deem and Ramdas Pophale) SiO2 
 PCOD9148003
Probable space group: P 2/M
;
_chemical_formula_sum "Si O2"
_cell_formula_units_Z 32
_cell_length_a 21.449154
_cell_length_b 7.936830
_cell_length_c 27.304000
_cell_angle_alpha 90.000000
_cell_angle_beta 18.946933
_cell_angle_gamma 90.000000
_cell_volume 1509.230195
_symmetry_space_group_name_H-M "P 2/M"
_symmetry_group_IT_number 10
_symmetry_cell_setting 'monoclinic'
loop_
_space_group_symop_operation_xyz
x,y,z
-x,y,-z
-x,-y,-z
x,-y,z
loop_
_atom_site_type_symbol
_atom_site_label
_atom_site_fract_x
_atom_site_fract_y
_atom_site_fract_z
Si Si1 0.249910 0.301838 0.463507
Si Si2 0.875773 0.705019 0.965232
Si Si3 0.472364 0.202015 0.097773
Si Si4 0.615527 0.810895 0.530386
Si Si5 0.703918 0.692509 0.364325
Si Si6 0.484458 0.297042 0.823243
Si Si7 0.210624 0.702603 0.861082
Si Si8 0.187445 0.795219 0.225020
O O1 0.293499 0.500000 0.436203
O O2 0.309353 0.220734 0.470797
O O3 0.370489 0.237256 0.327098
O O4 0.024826 0.275501 0.621788
O O5 0.889487 0.500000 0.951730
O O6 0.093672 0.769655 0.802329
O O7 0.730384 0.762822 0.031171
O O8 0.778526 0.742581 0.089483
O O9 0.458393 0.249791 0.164514
O O10 0.296989 0.258283 0.193381
O O11 0.473345 0.000000 0.093884
O O12 0.671069 0.258345 0.924391
O O13 0.703741 0.692874 0.423350
O O14 0.386846 0.783258 0.701974
O O15 0.662361 0.000000 0.480642
O O16 0.500000 0.771003 0.500000
O O17 0.701047 0.500000 0.346910
O O18 0.483273 0.500000 0.821745
O O19 0.225823 0.500000 0.843990
O O20 0.000000 0.753607 0.000000
O O21 0.174891 0.000000 0.233845
#
# Coordination Sequence:
#
# PCOD9148003 Si02
#       8
#     4   4   4   4   4   4   4   4
#     4  11  23  40  61  85 117 156 200 246 287 339
#     4   9  18  35  57  84 115 147 190 245 293 336
#     4   9  20  39  62  87 120 156 189 231 286 355
#     4  12  25  39  57  86 124 159 193 240 295 353
#     4  10  21  39  63  88 114 151 200 247 295 351
#     4  10  21  37  57  84 118 152 195 246 288 339
#     4  10  19  37  65  88 111 150 199 245 289 342
#     4   9  20  40  62  88 120 153 192 236 287 347
#
# _framework density 21.202863000000001
#
# number of rings (size 3 to 8) (size 9 to 14) (size 15 to 20)
#    0.000    2.000    1.250    3.000    1.750    5.000 
#    0.000    4.375    0.000    0.000    0.000    0.000 
#    0.000    0.000    0.000    0.000    0.000    0.000 
#
# Total GULP energy -178739.642678 kJ/mol
# GULP energy per Si atom -5585.613834 kJ/mol
# Density = 2.115460 g / cm^3
# Si number density = 21.202863 Si / 1000 Ang^3
#
#
#
# Elastic Constant Matrix: (Units=GPa)
#
#
# Indices 1 2 3 4 5 6 
#
# 1 89.8220 -2.8086 14.1312 0.0000 0.9363 0.0000
# 2 -2.8086 28.5072 -2.1189 0.0000 -1.5499 0.0000
# 3 14.1312 -2.1189 88.2627 0.0000 -9.7996 0.0000
# 4 0.0000 0.0000 0.0000 32.0719 0.0000 16.5764
# 5 0.9363 -1.5499 -9.7996 0.0000 30.6521 0.0000
# 6 0.0000 0.0000 0.0000 16.5764 0.0000 53.5828
#
#
#
# Elastic Compliance Matrix: (Units=1/GPa)
#
#
# Indices 1 2 3 4 5 6 
#
# 1 0.011473 0.000938 -0.001916 0.000000 -0.000916 0.000000
# 2 0.000938 0.035352 0.000927 0.000000 0.002055 0.000000
# 3 -0.001916 0.000927 0.012100 0.000000 0.003974 0.000000
# 4 0.000000 0.000000 0.000000 0.037114 0.000000 -0.011482
# 5 -0.000916 0.002055 0.003974 0.000000 0.034026 0.000000
# 6 0.000000 0.000000 0.000000 -0.011482 0.000000 0.022215
#
#
# Mechanical properties :
#
#
# Convention : Reuss Voigt Hill
#
# Bulk Modulus (GPa) = 17.00017 24.99994 21.00005
# Shear Modulus (GPa) = 29.07129 36.42058 32.74593
#
# Velocity S-wave (km/s) = 3.70686 4.14903 3.93416
# Velocity P-wave (km/s) = 5.13384 5.89653 5.52835
#
# Compressibility (1/GPa) = 0.05882294
#
# Stress axis : x y z
#
# Youngs Moduli (GPa) = 87.15772 28.28701 82.64442
#
# Poissons Ratio (x) = -0.02654 0.15835
# Poissons Ratio (y) = -0.08177 -0.07658
# Poissons Ratio (z) = 0.16700 -0.02621
#
# Static dielectric constant tensor:
#      x y z
#    x 1.757530 0.000000 -0.011210 
#    y 0.000000 1.804210 0.000000 
#    z -0.011210 0.000000 1.746620 
# 
# From -- ./inp_files/93653.got.cif
#   From: 2010.05.17/outbox.cif.g08.bks.cpg/sg10_47_cif.got.tgz:93653.got - 2010.06.03 11:33:40.
