data_PCOD9148959
_publ_section_title
;
Structure prediction by ZEFSAII (Michael W. Deem and Ramdas Pophale) SiO2 
 PCOD9148959
Probable space group: P 2/M
;
_chemical_formula_sum "Si O2"
_cell_formula_units_Z 32
_cell_length_a 24.740653
_cell_length_b 7.515782
_cell_length_c 15.638440
_cell_angle_alpha 90.000000
_cell_angle_beta 152.725047
_cell_angle_gamma 90.000000
_cell_volume 1332.575137
_symmetry_space_group_name_H-M "P 2/M"
_symmetry_group_IT_number 10
_symmetry_cell_setting 'monoclinic'
loop_
_space_group_symop_operation_xyz
x,y,z
-x,y,-z
-x,-y,-z
x,-y,z
loop_
_atom_site_type_symbol
_atom_site_label
_atom_site_fract_x
_atom_site_fract_y
_atom_site_fract_z
Si Si1 0.691748 0.297459 0.601540
Si Si2 0.628606 0.717242 0.152899
Si Si3 0.426011 0.203817 0.248555
Si Si4 0.127692 0.716618 0.436466
Si Si5 0.093987 0.718114 0.202271
Si Si6 0.244029 0.787509 0.125283
Si Si7 0.260271 0.703023 0.865691
Si Si8 0.931009 0.709397 0.276928
O O1 0.664331 0.500000 0.539882
O O2 0.565830 0.210193 0.439718
O O3 0.777363 0.223592 0.649523
O O4 0.763594 0.293369 0.791673
O O5 0.621178 0.500000 0.138793
O O6 0.735058 0.763312 0.366220
O O7 0.676436 0.781358 0.128201
O O8 0.500000 0.780976 0.000000
O O9 0.370221 0.262263 0.260175
O O10 0.387247 0.000000 0.183723
O O11 0.359640 0.303065 0.079187
O O12 0.120738 0.500000 0.428230
O O13 0.072781 0.775987 0.269433
O O14 0.055724 0.780626 0.418500
O O15 0.093487 0.500000 0.200696
O O16 0.000000 0.777609 0.000000
O O17 0.236822 0.000000 0.125390
O O18 0.150645 0.727782 0.922738
O O19 0.227970 0.500000 0.796337
O O20 0.144610 0.783238 0.749910
O O21 0.945270 0.500000 0.314921
#
# Coordination Sequence:
#
# PCOD9148959 Si02
#       8
#     4   4   4   4   4   4   4   4
#     4  11  21  31  51  78 103 135 179 227 266 311
#     4   9  18  30  49  79 112 141 173 219 271 323
#     4  10  21  35  51  73 104 142 178 214 265 324
#     4   9  17  30  50  77 108 142 176 217 273 324
#     4   9  18  31  48  75 106 136 174 216 261 315
#     4  10  20  34  51  73 105 143 178 214 264 323
#     4   9  18  32  52  80 106 132 174 223 267 311
#     4   9  17  31  53  78 105 134 172 223 268 311
#
# _framework density 24.013655
#
# number of rings (size 3 to 8) (size 9 to 14) (size 15 to 20)
#    0.000    2.500    0.000    2.250    1.750    5.500 
#    0.000    2.500    0.000    7.875    0.000    3.500 
#    0.000    0.000    0.000    0.000    0.000    0.000 
#
# Total GULP energy -178749.125885 kJ/mol
# GULP energy per Si atom -5585.910184 kJ/mol
# Density = 2.395900 g / cm^3
# Si number density = 24.013655 Si / 1000 Ang^3
#
#
#
# Elastic Constant Matrix: (Units=GPa)
#
#
# Indices 1 2 3 4 5 6 
#
# 1 183.4678 2.0620 59.6818 0.0000 15.7551 0.0000
# 2 2.0620 65.5725 -4.0322 0.0000 2.8976 0.0000
# 3 59.6818 -4.0322 91.6941 0.0000 18.2635 0.0000
# 4 0.0000 0.0000 0.0000 -56.9736 0.0000 27.5203
# 5 15.7551 2.8976 18.2635 0.0000 44.6494 0.0000
# 6 0.0000 0.0000 0.0000 27.5203 0.0000 -114.9329
#
#
#
# Elastic Compliance Matrix: (Units=1/GPa)
#
#
# Indices 1 2 3 4 5 6 
#
# 1 0.006946 -0.000463 -0.004419 0.000000 -0.000613 0.000000
# 2 -0.000463 0.015401 0.001247 0.000000 -0.001346 0.000000
# 3 -0.004419 0.001247 0.014744 0.000000 -0.004552 0.000000
# 4 0.000000 0.000000 0.000000 -0.019848 0.000000 -0.004752
# 5 -0.000613 -0.001346 -0.004552 0.000000 0.024563 0.000000
# 6 0.000000 0.000000 0.000000 -0.004752 0.000000 -0.009839
#
#
# Mechanical properties :
#
#
# Convention : Reuss Voigt Hill
#
# Bulk Modulus (GPa) = 33.53488 50.68418 42.10953
# Shear Modulus (GPa) = 101.67140 -6.58325 47.54407
#
# Velocity S-wave (km/s) = 6.51390 -1.65753 4.45441
# Velocity P-wave (km/s) = 8.40058 4.18199 6.63546
#
# Compressibility (1/GPa) = 0.02981970
#
# Stress axis : x y z
#
# Youngs Moduli (GPa) = 143.96817 64.93086 67.82527
#
# Poissons Ratio (x) = 0.03007 0.29973
# Poissons Ratio (y) = 0.06667 -0.08456
# Poissons Ratio (z) = 0.63623 -0.08095
#
# Static dielectric constant tensor:
#      x y z
#    x 1.918690 0.000000 0.012740 
#    y 0.000000 1.888540 0.000000 
#    z 0.012740 0.000000 1.904300 
# 
# From -- ./inp_files/71603.got.cif
#   From: 2010.05.17/outbox.cif.g08.bks.cpg/sg10_36_cif.got.tgz:71603.got - 2010.06.03 11:33:40.
