data_PCOD9148935
_publ_section_title
;
Structure prediction by ZEFSAII (Michael W. Deem and Ramdas Pophale) SiO2 
 PCOD9148935
Probable space group: P 2/M
;
_chemical_formula_sum "Si O2"
_cell_formula_units_Z 28
_cell_length_a 24.675852
_cell_length_b 9.058025
_cell_length_c 19.114330
_cell_angle_alpha 90.000000
_cell_angle_beta 156.348895
_cell_angle_gamma 90.000000
_cell_volume 1713.914336
_symmetry_space_group_name_H-M "P 2/M"
_symmetry_group_IT_number 10
_symmetry_cell_setting 'monoclinic'
loop_
_space_group_symop_operation_xyz
x,y,z
-x,y,-z
-x,-y,-z
x,-y,z
loop_
_atom_site_type_symbol
_atom_site_label
_atom_site_fract_x
_atom_site_fract_y
_atom_site_fract_z
Si Si1 0.646726 0.830568 0.634654
Si Si2 0.876591 0.679245 0.175324
Si Si3 0.607907 0.323112 0.066748
Si Si4 0.768364 0.330364 0.903712
Si Si5 0.523901 0.669631 0.363624
Si Si6 0.605198 0.176258 0.915943
Si Si7 0.089271 0.679074 0.539298
O O1 0.500000 0.825958 0.500000
O O2 0.751699 0.765734 0.814799
O O3 0.628520 0.736129 0.542940
O O4 0.675594 0.000000 0.652214
O O5 0.859272 0.500000 0.158657
O O6 0.011547 0.721125 0.376547
O O7 0.869094 0.719327 0.084483
O O8 0.749535 0.753623 0.063805
O O9 0.612683 0.500000 0.057727
O O10 0.756588 0.274952 0.268570
O O11 0.500000 0.298302 0.000000
O O12 0.573542 0.238405 0.955085
O O13 0.797139 0.500000 0.918858
O O14 0.621773 0.328648 0.768960
O O15 0.554207 0.500000 0.382255
O O16 0.501020 0.765351 0.267309
O O17 0.612717 0.000000 0.923617
O O18 0.089536 0.500000 0.540844
O O19 0.000000 0.728688 0.500000
#
# Coordination Sequence:
#
# PCOD9148935 Si02
#       7
#     4   4   4   4   4   4   4
#     4   9  15  22  33  52  81 114 146 180 223 269
#     4   9  16  28  45  64  87 118 155 191 228 271
#     4  10  20  34  51  69  90 120 157 194 233 277
#     4   8  14  22  34  53  79 112 147 181 219 265
#     4   9  16  26  40  56  79 113 153 188 221 267
#     4  11  20  29  43  64  91 118 150 190 234 276
#     4   9  15  27  50  71  89 115 154 197 232 269
#
# _framework density 16.336872
#
# number of rings (size 3 to 8) (size 9 to 14) (size 15 to 20)
#    0.000    2.714    1.429    3.000    0.000    5.429 
#    0.000    1.429    0.000    0.000    0.000    0.000 
#    0.000    1.143    0.000   13.429    0.000    5.714 
#
# Total GULP energy -155950.846243 kJ/mol
# GULP energy per Si atom -5569.673080 kJ/mol
# Density = 1.629969 g / cm^3
# Si number density = 16.336872 Si / 1000 Ang^3
#
#
#
# Elastic Constant Matrix: (Units=GPa)
#
#
# Indices 1 2 3 4 5 6 
#
# 1 67.2055 43.6148 57.7982 0.0000 -28.0430 0.0000
# 2 43.6148 71.0316 34.7772 0.0000 -19.3129 0.0000
# 3 57.7982 34.7772 88.6503 0.0000 -33.5334 0.0000
# 4 0.0000 0.0000 0.0000 3.2198 0.0000 -3.4640
# 5 -28.0430 -19.3129 -33.5334 0.0000 33.7437 0.0000
# 6 0.0000 0.0000 0.0000 -3.4640 0.0000 12.8152
#
#
#
# Elastic Compliance Matrix: (Units=1/GPa)
#
#
# Indices 1 2 3 4 5 6 
#
# 1 0.047342 -0.016295 -0.021021 0.000000 0.009128 0.000000
# 2 -0.016295 0.023598 0.002168 0.000000 0.002118 0.000000
# 3 -0.021021 0.002168 0.028836 0.000000 0.012427 0.000000
# 4 0.000000 0.000000 0.000000 0.437934 0.000000 0.118374
# 5 0.009128 0.002118 0.012427 0.000000 0.050783 0.000000
# 6 0.000000 0.000000 0.000000 0.118374 0.000000 0.110029
#
#
# Mechanical properties :
#
#
# Convention : Reuss Voigt Hill
#
# Bulk Modulus (GPa) = 33.92120 55.47419 44.69769
# Shear Modulus (GPa) = 6.42141 16.00221 11.21181
#
# Velocity S-wave (km/s) = 1.98473 3.13312 2.62255
# Velocity P-wave (km/s) = 5.10498 6.86431 6.04895
#
# Compressibility (1/GPa) = 0.02948009
#
# Stress axis : x y z
#
# Youngs Moduli (GPa) = 21.12284 42.37568 34.67923
#
# Poissons Ratio (x) = 0.69053 0.72898
# Poissons Ratio (y) = 0.34420 -0.07518
# Poissons Ratio (z) = 0.44402 -0.09187
#
# Static dielectric constant tensor:
#      x y z
#    x 1.533610 0.000000 -0.028650 
#    y 0.000000 1.543650 0.000000 
#    z -0.028650 0.000000 1.559630 
# 
# From -- ./inp_files/83405.got.cif
#   From: 2010.05.17/outbox.cif.g08.bks.cpg/sg10_42_cif.got.tgz:83405.got - 2010.06.03 11:33:40.
