data_PCOD9148445
_publ_section_title
;
Structure prediction by ZEFSAII (Michael W. Deem and Ramdas Pophale) SiO2 
 PCOD9148445
Probable space group: P 2/M
;
_chemical_formula_sum "Si O2"
_cell_formula_units_Z 28
_cell_length_a 17.533655
_cell_length_b 7.559436
_cell_length_c 18.922402
_cell_angle_alpha 90.000000
_cell_angle_beta 32.209209
_cell_angle_gamma 90.000000
_cell_volume 1336.827366
_symmetry_space_group_name_H-M "P 2/M"
_symmetry_group_IT_number 10
_symmetry_cell_setting 'monoclinic'
loop_
_space_group_symop_operation_xyz
x,y,z
-x,y,-z
-x,-y,-z
x,-y,z
loop_
_atom_site_type_symbol
_atom_site_label
_atom_site_fract_x
_atom_site_fract_y
_atom_site_fract_z
Si Si1 0.948688 0.500000 0.620174
Si Si2 0.876532 0.796015 0.438038
Si Si3 0.555610 0.712771 0.685172
Si Si4 0.549821 0.716685 0.383381
Si Si5 0.647255 0.500000 0.928301
Si Si6 0.979995 0.788097 0.203383
Si Si7 0.133751 0.703382 0.856775
Si Si8 0.302113 0.793524 0.992326
O O1 0.780852 0.500000 0.769498
O O2 0.000000 0.500000 0.500000
O O3 0.019893 0.671068 0.599843
O O4 0.711322 0.773375 0.588532
O O5 0.897304 0.742928 0.339933
O O6 0.918797 0.000000 0.411528
O O7 0.553074 0.500000 0.688354
O O8 0.535266 0.772198 0.619666
O O9 0.425749 0.775251 0.836434
O O10 0.500000 0.774591 0.500000
O O11 0.547110 0.500000 0.386706
O O12 0.712441 0.780152 0.247658
O O13 0.500000 0.500000 0.000000
O O14 0.661323 0.668555 0.969966
O O15 0.902494 0.705058 0.197279
O O16 0.975134 0.000000 0.197604
O O17 0.146973 0.738238 0.082243
O O18 0.142529 0.500000 0.875258
O O19 0.000000 0.790509 0.000000
O O20 0.289974 0.000000 0.022550
#
# Coordination Sequence:
#
# PCOD9148445 Si02
#       8
#     2   4   4   4   2   4   4   4
#     4  12  28  48  76 106 136 171 210 258 328 399
#     4  11  24  44  68 100 135 173 221 268 321 389
#     4  11  21  37  67  96 132 182 230 277 330 386
#     4   9  18  32  50  86 128 170 223 277 330 383
#     4  12  28  48  76 106 136 170 212 258 326 406
#     4  10  22  39  62  89 123 175 224 267 327 388
#     4  10  20  32  53  85 122 165 218 274 329 376
#     4  11  24  44  68  99 137 174 220 273 327 390
#
# _framework density 20.945112999999999
#
# number of rings (size 3 to 8) (size 9 to 14) (size 15 to 20)
#    0.000    1.429    2.857    2.143    4.000    3.143 
#    0.000    1.429    0.000    3.857    0.000    0.000 
#    0.000    0.000    0.000    0.000    0.000    0.000 
#
# Total GULP energy -156549.113319 kJ/mol
# GULP energy per Si atom -5591.039761 kJ/mol
# Density = 2.089744 g / cm^3
# Si number density = 20.945113 Si / 1000 Ang^3
#
#
#
# Elastic Constant Matrix: (Units=GPa)
#
#
# Indices 1 2 3 4 5 6 
#
# 1 76.1809 19.7727 17.0107 0.0000 -9.2629 0.0000
# 2 19.7727 81.7986 1.4515 0.0000 1.1566 0.0000
# 3 17.0107 1.4515 118.8725 0.0000 -8.5006 0.0000
# 4 0.0000 0.0000 0.0000 11.1706 0.0000 -11.2774
# 5 -9.2629 1.1566 -8.5006 0.0000 43.6566 0.0000
# 6 0.0000 0.0000 0.0000 -11.2774 0.0000 46.3955
#
#
#
# Elastic Compliance Matrix: (Units=1/GPa)
#
#
# Indices 1 2 3 4 5 6 
#
# 1 0.014827 -0.003591 -0.001872 0.000000 0.002876 0.000000
# 2 -0.003591 0.013103 0.000278 0.000000 -0.001055 0.000000
# 3 -0.001872 0.000278 0.008770 0.000000 0.001303 0.000000
# 4 0.000000 0.000000 0.000000 0.118633 0.000000 0.028836
# 5 0.002876 -0.001055 0.001303 0.000000 0.023798 0.000000
# 6 0.000000 0.000000 0.000000 0.028836 0.000000 0.028563
#
#
# Mechanical properties :
#
#
# Convention : Reuss Voigt Hill
#
# Bulk Modulus (GPa) = 37.97974 39.25795 38.61885
# Shear Modulus (GPa) = 22.04195 36.15235 29.09715
#
# Velocity S-wave (km/s) = 3.24754 4.15908 3.73125
# Velocity P-wave (km/s) = 5.67753 6.46900 6.08614
#
# Compressibility (1/GPa) = 0.02632983
#
# Stress axis : x y z
#
# Youngs Moduli (GPa) = 67.44641 76.31695 114.02429
#
# Poissons Ratio (x) = 0.27408 0.21347
# Poissons Ratio (y) = 0.24223 -0.03176
# Poissons Ratio (z) = 0.12627 -0.02125
#
# Static dielectric constant tensor:
#      x y z
#    x 1.724510 0.000000 0.041260 
#    y 0.000000 1.764620 0.000000 
#    z 0.041260 0.000000 1.821370 
# 
# From -- ./inp_files/77737.got.cif
#   From: 2010.05.17/outbox.cif.g08.bks.cpg/sg10_39_cif.got.tgz:77737.got - 2010.06.03 11:33:40.
