data_PCOD9148828
_publ_section_title
;
Structure prediction by ZEFSAII (Michael W. Deem and Ramdas Pophale) SiO2 
 PCOD9148828
Probable space group: P 2/M
;
_chemical_formula_sum "Si O2"
_cell_formula_units_Z 28
_cell_length_a 15.028558
_cell_length_b 20.591671
_cell_length_c 9.558849
_cell_angle_alpha 90.000000
_cell_angle_beta 29.267918
_cell_angle_gamma 90.000000
_cell_volume 1446.203055
_symmetry_space_group_name_H-M "P 2/M"
_symmetry_group_IT_number 10
_symmetry_cell_setting 'monoclinic'
loop_
_space_group_symop_operation_xyz
x,y,z
-x,y,-z
-x,-y,-z
x,-y,z
loop_
_atom_site_type_symbol
_atom_site_label
_atom_site_fract_x
_atom_site_fract_y
_atom_site_fract_z
Si Si1 0.031275 0.702754 0.791870
Si Si2 0.458647 0.817468 0.895432
Si Si3 0.827572 0.073937 0.634836
Si Si4 0.855944 0.844666 0.323213
Si Si5 0.362429 0.293071 0.812395
Si Si6 0.708840 0.570393 0.990157
Si Si7 0.877360 0.428907 0.456545
O O1 0.119741 0.772605 0.644676
O O2 0.141933 0.638326 0.598807
O O3 0.000000 0.698745 0.000000
O O4 0.840653 0.705578 0.971283
O O5 0.644792 0.843152 0.569146
O O6 0.381810 0.757888 0.911299
O O7 0.500000 0.798386 0.000000
O O8 0.320240 0.877086 0.099294
O O9 0.879690 0.102218 0.411237
O O10 0.000000 0.074640 0.500000
O O11 0.760268 0.000000 0.714924
O O12 0.000000 0.851836 0.000000
O O13 0.500000 0.275424 0.500000
O O14 0.399116 0.366667 0.812915
O O15 0.624391 0.500000 0.137125
O O16 0.753066 0.574283 0.764888
O O17 0.910705 0.570797 0.783759
O O18 0.844749 0.500000 0.432990
#
# Coordination Sequence:
#
# PCOD9148828 Si02
#       7
#     4   4   4   4   4   4   4
#     4  10  20  33  54  82 114 149 193 242 291 346
#     4  10  23  39  61  89 119 157 196 244 285 346
#     4  10  22  41  64  91 120 153 193 234 281 345
#     4  10  21  38  59  86 121 157 193 242 288 340
#     4  11  21  35  56  82 112 152 190 241 297 346
#     4   8  16  30  49  75 104 143 191 239 292 346
#     4   8  15  29  49  74 106 143 192 241 286 345
#
# _framework density 19.361042999999999
#
# number of rings (size 3 to 8) (size 9 to 14) (size 15 to 20)
#    0.000    2.429    0.000    3.429    4.000    3.429 
#    0.000    0.000    0.000    5.143    0.000    0.000 
#    0.000    0.000    0.000    0.000    0.000    0.000 
#
# Total GULP energy -156167.912221 kJ/mol
# GULP energy per Si atom -5577.425436 kJ/mol
# Density = 1.931698 g / cm^3
# Si number density = 19.361043 Si / 1000 Ang^3
#
#
#
# Elastic Constant Matrix: (Units=GPa)
#
#
# Indices 1 2 3 4 5 6 
#
# 1 67.6487 59.5832 21.5903 0.0000 3.2524 0.0000
# 2 59.5832 181.7139 46.8996 0.0000 16.8930 0.0000
# 3 21.5903 46.8996 81.4694 0.0000 0.3954 0.0000
# 4 0.0000 0.0000 0.0000 24.2973 0.0000 14.3001
# 5 3.2524 16.8930 0.3954 0.0000 12.9336 0.0000
# 6 0.0000 0.0000 0.0000 14.3001 0.0000 9.6388
#
#
#
# Elastic Compliance Matrix: (Units=1/GPa)
#
#
# Indices 1 2 3 4 5 6 
#
# 1 0.021177 -0.006850 -0.001687 0.000000 0.003673 0.000000
# 2 -0.006850 0.009721 -0.003728 0.000000 -0.010861 0.000000
# 3 -0.001687 -0.003728 0.014844 0.000000 0.004840 0.000000
# 4 0.000000 0.000000 0.000000 0.324485 0.000000 -0.481403
# 5 0.003673 -0.010861 0.004840 0.000000 0.090432 0.000000
# 6 0.000000 0.000000 0.000000 -0.481403 0.000000 0.817954
#
#
# Mechanical properties :
#
#
# Convention : Reuss Voigt Hill
#
# Bulk Modulus (GPa) = 47.14106 65.21981 56.18044
# Shear Modulus (GPa) = 3.81617 22.89121 13.35369
#
# Velocity S-wave (km/s) = 1.40547 3.44224 2.62910
# Velocity P-wave (km/s) = 5.19952 7.03974 6.18841
#
# Compressibility (1/GPa) = 0.02121293
#
# Stress axis : x y z
#
# Youngs Moduli (GPa) = 47.22019 102.86838 67.36632
#
# Poissons Ratio (x) = 0.70466 0.11362
# Poissons Ratio (y) = 0.32347 0.25115
# Poissons Ratio (z) = 0.07964 0.38350
#
# Static dielectric constant tensor:
#      x y z
#    x 1.790090 0.000000 -0.052460 
#    y 0.000000 1.694500 0.000000 
#    z -0.052460 0.000000 1.683470 
# 
# From -- ./inp_files/30367.got.cif
#   From: 2010.05.17/outbox.cif.g08.bks.cpg/sg10_16_cif.got.tgz:30367.got - 2010.06.03 11:33:40.
