data_PCOD9148285
_publ_section_title
;
Structure prediction by ZEFSAII (Michael W. Deem and Ramdas Pophale) SiO2 
 PCOD9148285
Probable space group: P 2/M
;
_chemical_formula_sum "Si O2"
_cell_formula_units_Z 32
_cell_length_a 9.773725
_cell_length_b 12.672744
_cell_length_c 24.501863
_cell_angle_alpha 90.000000
_cell_angle_beta 149.073837
_cell_angle_gamma 90.000000
_cell_volume 1559.683234
_symmetry_space_group_name_H-M "P 2/M"
_symmetry_group_IT_number 10
_symmetry_cell_setting 'monoclinic'
loop_
_space_group_symop_operation_xyz
x,y,z
-x,y,-z
-x,-y,-z
x,-y,z
loop_
_atom_site_type_symbol
_atom_site_label
_atom_site_fract_x
_atom_site_fract_y
_atom_site_fract_z
Si Si1 0.422406 0.617576 0.754013
Si Si2 0.077411 0.321522 0.146957
Si Si3 0.702336 0.622263 0.660777
Si Si4 0.500184 0.611799 0.064248
Si Si5 0.087563 0.879840 0.969212
Si Si6 0.787707 0.803705 0.597593
Si Si7 0.893100 0.690336 0.522416
Si Si8 0.345973 0.200836 0.818561
O O1 0.464603 0.500000 0.791486
O O2 0.660826 0.638917 0.794024
O O3 0.415478 0.717829 0.792613
O O4 0.135667 0.619288 0.626871
O O5 0.122699 0.347953 0.225991
O O6 0.029458 0.198489 0.116150
O O7 0.812944 0.373565 0.029901
O O8 0.746062 0.500000 0.660593
O O9 0.747586 0.700011 0.623974
O O10 0.395599 0.635384 0.576610
O O11 0.606886 0.500000 0.120370
O O12 0.664964 0.712094 0.138182
O O13 0.500000 0.609614 0.000000
O O14 0.000645 0.000000 0.931273
O O15 0.406986 0.871929 0.081993
O O16 0.000000 0.844622 0.000000
O O17 0.500000 0.858564 0.500000
O O18 0.850384 0.774958 0.556241
O O19 0.062617 0.853273 0.712820
O O20 0.000000 0.729084 0.500000
#
# Coordination Sequence:
#
# PCOD9148285 Si02
#       8
#     4   4   4   4   4   4   4   4
#     4  11  20  30  47  79 116 150 185 227 272 319
#     4  11  21  33  53  79 106 142 188 234 282 337
#     4  11  21  34  52  78 119 163 197 230 272 327
#     4  10  20  32  47  70 104 147 186 221 268 329
#     4  10  21  40  61  84 111 139 183 242 300 351
#     4   9  21  36  54  80 116 157 198 229 273 329
#     4  10  20  33  50  78 118 162 204 236 263 310
#     4  10  20  35  55  78 108 144 188 227 278 333
#
# _framework density 20.516985999999999
#
# number of rings (size 3 to 8) (size 9 to 14) (size 15 to 20)
#    0.000    1.750    2.500    2.625    0.000    6.250 
#    0.000    1.875    0.000   13.875    0.000    8.750 
#    0.000    0.000    0.000    0.000    0.000    0.000 
#
# Total GULP energy -178316.510588 kJ/mol
# GULP energy per Si atom -5572.390956 kJ/mol
# Density = 2.047029 g / cm^3
# Si number density = 20.516986 Si / 1000 Ang^3
#
#
#
# Elastic Constant Matrix: (Units=GPa)
#
#
# Indices 1 2 3 4 5 6 
#
# 1 101.3898 -2.5231 10.0456 0.0000 4.0436 0.0000
# 2 -2.5231 35.1785 0.9971 0.0000 -5.0697 0.0000
# 3 10.0456 0.9971 96.1187 0.0000 18.5506 0.0000
# 4 0.0000 0.0000 0.0000 28.7619 0.0000 4.6071
# 5 4.0436 -5.0697 18.5506 0.0000 40.8899 0.0000
# 6 0.0000 0.0000 0.0000 4.6071 0.0000 9.7376
#
#
#
# Elastic Compliance Matrix: (Units=1/GPa)
#
#
# Indices 1 2 3 4 5 6 
#
# 1 0.009994 0.000676 -0.000961 0.000000 -0.000468 0.000000
# 2 0.000676 0.029094 -0.001157 0.000000 0.004065 0.000000
# 3 -0.000961 -0.001157 0.011536 0.000000 -0.005282 0.000000
# 4 0.000000 0.000000 0.000000 0.037619 0.000000 -0.017799
# 5 -0.000468 0.004065 -0.005282 0.000000 0.027402 0.000000
# 6 0.000000 0.000000 0.000000 -0.017799 0.000000 0.111116
#
#
# Mechanical properties :
#
#
# Convention : Reuss Voigt Hill
#
# Bulk Modulus (GPa) = 20.94698 27.74737 24.34718
# Shear Modulus (GPa) = 20.36186 30.82237 25.59211
#
# Velocity S-wave (km/s) = 3.15372 3.88014 3.53563
# Velocity P-wave (km/s) = 4.84696 5.79892 5.34417
#
# Compressibility (1/GPa) = 0.04773958
#
# Stress axis : x y z
#
# Youngs Moduli (GPa) = 100.06345 34.37179 86.68800
#
# Poissons Ratio (x) = -0.02325 0.08331
# Poissons Ratio (y) = -0.06769 0.10031
# Poissons Ratio (z) = 0.09617 0.03977
#
# Static dielectric constant tensor:
#      x y z
#    x 1.770600 0.000000 0.006890 
#    y 0.000000 1.733610 0.000000 
#    z 0.006890 0.000000 1.806800 
# 
# From -- ./inp_files/88277.got.cif
#   From: 2010.05.17/outbox.cif.g08.bks.cpg/sg10_45_cif.got.tgz:88277.got - 2010.06.03 11:33:40.
