data_PCOD9148228
_publ_section_title
;
Structure prediction by ZEFSAII (Michael W. Deem and Ramdas Pophale) SiO2 
 PCOD9148228
Probable space group: P 2/M
;
_chemical_formula_sum "Si O2"
_cell_formula_units_Z 28
_cell_length_a 19.237333
_cell_length_b 9.158157
_cell_length_c 13.921528
_cell_angle_alpha 90.000000
_cell_angle_beta 141.666651
_cell_angle_gamma 90.000000
_cell_volume 1521.236077
_symmetry_space_group_name_H-M "P 2/M"
_symmetry_group_IT_number 10
_symmetry_cell_setting 'monoclinic'
loop_
_space_group_symop_operation_xyz
x,y,z
-x,y,-z
-x,-y,-z
x,-y,z
loop_
_atom_site_type_symbol
_atom_site_label
_atom_site_fract_x
_atom_site_fract_y
_atom_site_fract_z
Si Si1 0.918383 0.822599 0.621054
Si Si2 0.675841 0.330804 0.147895
Si Si3 0.948716 0.821627 0.045242
Si Si4 0.462535 0.669521 0.201193
Si Si5 0.732755 0.168209 0.913685
Si Si6 0.660292 0.174578 0.322503
Si Si7 0.872671 0.168402 0.266516
O O1 0.974045 0.774930 0.781672
O O2 0.789672 0.778526 0.475862
O O3 0.002531 0.780635 0.625842
O O4 0.920849 0.000000 0.622568
O O5 0.678979 0.500000 0.180259
O O6 0.628730 0.234970 0.183357
O O7 0.798399 0.268924 0.253833
O O8 0.602659 0.319600 0.971898
O O9 0.820815 0.777375 0.929345
O O10 0.947520 0.000000 0.044730
O O11 0.000000 0.773797 0.000000
O O12 0.483719 0.500000 0.243316
O O13 0.576842 0.757458 0.309855
O O14 0.377103 0.737998 0.185348
O O15 0.806214 0.166567 0.092131
O O16 0.701922 0.000000 0.860632
O O17 0.653669 0.000000 0.317594
O O18 0.874130 0.000000 0.303706
#
# Coordination Sequence:
#
# PCOD9148228 Si02
#       7
#     4   4   4   4   4   4   4
#     4   8  16  29  44  67  96 122 148 181 226 276
#     4  10  20  32  45  64  89 117 156 201 235 262
#     4   8  13  25  50  80 102 116 137 179 230 273
#     4  10  20  33  47  63  88 122 159 197 230 260
#     4   8  14  26  47  73  94 115 147 183 221 269
#     4  11  21  31  45  64  90 124 158 191 226 268
#     4   8  14  28  47  64  88 120 151 184 224 271
#
# _framework density 18.406085000000001
#
# number of rings (size 3 to 8) (size 9 to 14) (size 15 to 20)
#    0.000    3.000    0.000    3.429    0.000    4.000 
#    0.000    4.286    0.000    3.000    0.000    6.000 
#    0.000    0.000    0.000    0.000    0.000    0.000 
#
# Total GULP energy -156109.213565 kJ/mol
# GULP energy per Si atom -5575.329056 kJ/mol
# Density = 1.836419 g / cm^3
# Si number density = 18.406085 Si / 1000 Ang^3
#
#
#
# Elastic Constant Matrix: (Units=GPa)
#
#
# Indices 1 2 3 4 5 6 
#
# 1 133.2811 42.6458 28.5800 0.0000 34.7766 0.0000
# 2 42.6458 58.5230 20.6704 0.0000 21.9519 0.0000
# 3 28.5800 20.6704 40.3920 0.0000 26.6353 0.0000
# 4 0.0000 0.0000 0.0000 0.6003 0.0000 -9.7071
# 5 34.7766 21.9519 26.6353 0.0000 34.0669 0.0000
# 6 0.0000 0.0000 0.0000 -9.7071 0.0000 -6.2764
#
#
#
# Elastic Compliance Matrix: (Units=1/GPa)
#
#
# Indices 1 2 3 4 5 6 
#
# 1 0.011293 -0.005159 0.000123 0.000000 -0.008300 0.000000
# 2 -0.005159 0.025215 -0.004153 0.000000 -0.007734 0.000000
# 3 0.000123 -0.004153 0.051842 0.000000 -0.037982 0.000000
# 4 0.000000 0.000000 0.000000 0.064048 0.000000 -0.099057
# 5 -0.008300 -0.007734 -0.037982 0.000000 0.072506 0.000000
# 6 0.000000 0.000000 0.000000 -0.099057 0.000000 -0.006125
#
#
# Mechanical properties :
#
#
# Convention : Reuss Voigt Hill
#
# Bulk Modulus (GPa) = 14.29186 46.22092 30.25639
# Shear Modulus (GPa) = 19.19523 15.03148 17.11336
#
# Velocity S-wave (km/s) = 3.23286 2.86082 3.05252
# Velocity P-wave (km/s) = 4.66013 6.00655 5.37566
#
# Compressibility (1/GPa) = 0.06996989
#
# Stress axis : x y z
#
# Youngs Moduli (GPa) = 88.54975 39.65928 19.28945
#
# Poissons Ratio (x) = 0.20462 -0.00237
# Poissons Ratio (y) = 0.45687 0.08011
# Poissons Ratio (z) = -0.01086 0.16471
#
# Static dielectric constant tensor:
#      x y z
#    x 1.654220 0.000000 0.008890 
#    y 0.000000 1.608030 0.000000 
#    z 0.008890 0.000000 1.662370 
# 
# From -- ./inp_files/54690.got.cif
#   From: 2010.05.17/outbox.cif.g08.bks.cpg/sg10_28_cif.got.tgz:54690.got - 2010.06.03 11:33:40.
