data_PCOD9148316
_publ_section_title
;
Structure prediction by ZEFSAII (Michael W. Deem and Ramdas Pophale) SiO2 
 PCOD9148316
Probable space group: P 2/M
;
_chemical_formula_sum "Si O2"
_cell_formula_units_Z 26
_cell_length_a 13.895117
_cell_length_b 12.295861
_cell_length_c 8.751829
_cell_angle_alpha 90.000000
_cell_angle_beta 58.680806
_cell_angle_gamma 90.000000
_cell_volume 1277.387398
_symmetry_space_group_name_H-M "P 2/M"
_symmetry_group_IT_number 10
_symmetry_cell_setting 'monoclinic'
loop_
_space_group_symop_operation_xyz
x,y,z
-x,y,-z
-x,-y,-z
x,-y,z
loop_
_atom_site_type_symbol
_atom_site_label
_atom_site_fract_x
_atom_site_fract_y
_atom_site_fract_z
Si Si1 0.204376 0.374579 0.698123
Si Si2 0.658226 0.763733 0.835207
Si Si3 0.552446 0.374163 0.672853
Si Si4 0.107251 0.237987 0.523130
Si Si5 0.352640 0.000000 0.112278
Si Si6 0.603779 0.000000 0.290829
Si Si7 0.665905 0.238498 0.192011
Si Si8 0.122341 0.000000 0.472254
O O1 0.178209 0.500000 0.749221
O O2 0.327849 0.369327 0.513326
O O3 0.114779 0.318853 0.659341
O O4 0.229371 0.304732 0.827392
O O5 0.580647 0.677519 0.813944
O O6 0.782081 0.741754 0.668788
O O7 0.615454 0.886524 0.832681
O O8 0.670688 0.765123 0.005551
O O9 0.517046 0.500000 0.708111
O O10 0.451584 0.303000 0.687342
O O11 0.126727 0.112743 0.559456
O O12 0.000000 0.246823 0.500000
O O13 0.216670 0.000000 0.258615
O O14 0.396504 0.000000 0.899933
O O15 0.500000 0.000000 0.500000
O O16 0.660998 0.882105 0.267930
O O17 0.000000 0.000000 0.500000
#
# Coordination Sequence:
#
# PCOD9148316 Si02
#       8
#     4   4   4   4   2   2   4   2
#     4  10  21  35  52  75 102 136 173 207 252 304
#     4   9  19  33  52  77 102 133 170 209 255 303
#     4  10  20  34  52  74 102 138 175 208 248 301
#     4   9  18  35  57  78 101 129 165 209 256 310
#     4   8  16  31  49  74 107 134 167 217 256 297
#     4  10  20  32  48  72 104 144 177 202 252 312
#     4  11  21  34  51  74 106 136 170 215 254 297
#     4   8  14  29  57  84 100 124 165 213 267 313
#
# _framework density 20.354044999999999
#
# number of rings (size 3 to 8) (size 9 to 14) (size 15 to 20)
#    0.000    2.462    0.000    2.308    0.000    4.615 
#    0.000    6.154    0.000    0.923    0.000   10.769 
#    0.000    0.000    0.000    0.000    0.000    0.000 
#
# Total GULP energy -144800.238086 kJ/mol
# GULP energy per Si atom -5569.239926 kJ/mol
# Density = 2.030772 g / cm^3
# Si number density = 20.354045 Si / 1000 Ang^3
#
#
#
# Elastic Constant Matrix: (Units=GPa)
#
#
# Indices 1 2 3 4 5 6 
#
# 1 101.7617 50.5249 6.7068 0.0000 7.9487 0.0000
# 2 50.5249 139.8825 14.1338 0.0000 24.0796 0.0000
# 3 6.7068 14.1338 29.5777 0.0000 6.5127 0.0000
# 4 0.0000 0.0000 0.0000 14.6375 0.0000 -5.0396
# 5 7.9487 24.0796 6.5127 0.0000 27.7365 0.0000
# 6 0.0000 0.0000 0.0000 -5.0396 0.0000 26.9087
#
#
#
# Elastic Compliance Matrix: (Units=1/GPa)
#
#
# Indices 1 2 3 4 5 6 
#
# 1 0.011993 -0.004344 -0.000757 0.000000 0.000511 0.000000
# 2 -0.004344 0.010163 -0.002323 0.000000 -0.007033 0.000000
# 3 -0.000757 -0.002323 0.036485 0.000000 -0.006334 0.000000
# 4 0.000000 0.000000 0.000000 0.073027 0.000000 0.013677
# 5 0.000511 -0.007033 -0.006334 0.000000 0.043500 0.000000
# 6 0.000000 0.000000 0.000000 0.013677 0.000000 0.039724
#
#
# Mechanical properties :
#
#
# Convention : Reuss Voigt Hill
#
# Bulk Modulus (GPa) = 22.83326 45.99475 34.41400
# Shear Modulus (GPa) = 20.46350 27.18030 23.82190
#
# Velocity S-wave (km/s) = 3.17421 3.65824 3.42479
# Velocity P-wave (km/s) = 4.96755 6.36318 5.70818
#
# Compressibility (1/GPa) = 0.04379576
#
# Stress axis : x y z
#
# Youngs Moduli (GPa) = 83.37942 98.39518 27.40817
#
# Poissons Ratio (x) = 0.42738 0.02074
# Poissons Ratio (y) = 0.36216 0.06367
# Poissons Ratio (z) = 0.06308 0.22857
#
# Static dielectric constant tensor:
#      x y z
#    x 1.727950 0.000000 0.010760 
#    y 0.000000 1.768460 0.000000 
#    z 0.010760 0.000000 1.771470 
# 
# From -- ./inp_files/28166.got.cif
#   From: 2010.05.17/outbox.cif.g08.bks.cpg/sg10_15_cif.got.tgz:28166.got - 2010.06.03 11:33:40.
