data_PCOD9148341
_publ_section_title
;
Structure prediction by ZEFSAII (Michael W. Deem and Ramdas Pophale) SiO2 
 PCOD9148341
Probable space group: P 2/M
;
_chemical_formula_sum "Si O2"
_cell_formula_units_Z 28
_cell_length_a 9.573906
_cell_length_b 12.498444
_cell_length_c 16.216755
_cell_angle_alpha 90.000000
_cell_angle_beta 63.093823
_cell_angle_gamma 90.000000
_cell_volume 1730.420181
_symmetry_space_group_name_H-M "P 2/M"
_symmetry_group_IT_number 10
_symmetry_cell_setting 'monoclinic'
loop_
_space_group_symop_operation_xyz
x,y,z
-x,y,-z
-x,-y,-z
x,-y,z
loop_
_atom_site_type_symbol
_atom_site_label
_atom_site_fract_x
_atom_site_fract_y
_atom_site_fract_z
Si Si1 0.748355 0.710213 0.881790
Si Si2 0.410183 0.289001 0.895565
Si Si3 0.908312 0.125459 0.448722
Si Si4 0.986571 0.871167 0.241236
Si Si5 0.544026 0.874666 0.575180
Si Si6 0.758795 0.500000 0.108752
Si Si7 0.076344 0.500000 0.115915
Si Si8 0.675253 0.128190 0.220313
O O1 0.595618 0.702469 0.864229
O O2 0.857668 0.604616 0.855526
O O3 0.858287 0.808972 0.827411
O O4 0.676906 0.719664 0.992966
O O5 0.346582 0.393996 0.865651
O O6 0.360413 0.188331 0.854243
O O7 0.936120 0.163467 0.347747
O O8 0.729468 0.128014 0.525327
O O9 0.000000 0.178005 0.500000
O O10 0.955377 0.000000 0.431387
O O11 0.844000 0.848252 0.216199
O O12 0.008505 0.000000 0.234976
O O13 0.500000 0.822861 0.500000
O O14 0.454796 0.833664 0.678590
O O15 0.491727 0.000000 0.585443
O O16 0.891300 0.500000 0.144383
O O17 0.845286 0.500000 0.996315
O O18 0.664368 0.000000 0.212068
#
# Coordination Sequence:
#
# PCOD9148341 Si02
#       8
#     4   4   4   4   4   2   2   4
#     4  10  21  35  51  73 103 132 164 207 252 295
#     4  10  21  35  51  74 101 132 167 206 249 295
#     4   9  17  28  45  69  96 127 164 207 250 289
#     4  10  20  33  48  72 104 137 171 205 245 297
#     4   9  15  28  47  67  94 127 164 208 248 285
#     4   9  17  33  57  77  93 119 165 211 249 294
#     4   9  17  33  57  77  93 121 161 211 255 289
#     4  10  20  32  49  73 102 137 173 204 244 298
#
# _framework density 16.181041
#
# number of rings (size 3 to 8) (size 9 to 14) (size 15 to 20)
#    0.000    2.429    1.429    1.286    2.000    4.571 
#    0.000    2.857    0.000    0.000    0.000    2.000 
#    0.000    0.000    0.000    0.000    0.000    0.000 
#
# Total GULP energy -155869.446271 kJ/mol
# GULP energy per Si atom -5566.765938 kJ/mol
# Density = 1.614421 g / cm^3
# Si number density = 16.181041 Si / 1000 Ang^3
#
#
#
# Elastic Constant Matrix: (Units=GPa)
#
#
# Indices 1 2 3 4 5 6 
#
# 1 116.1531 58.4921 53.2518 0.0000 23.6777 0.0000
# 2 58.4921 54.2884 26.5141 0.0000 1.0954 0.0000
# 3 53.2518 26.5141 41.4494 0.0000 -1.3300 0.0000
# 4 0.0000 0.0000 0.0000 -4.8502 0.0000 0.7527
# 5 23.6777 1.0954 -1.3300 0.0000 20.0125 0.0000
# 6 0.0000 0.0000 0.0000 0.7527 0.0000 21.0333
#
#
#
# Elastic Compliance Matrix: (Units=1/GPa)
#
#
# Indices 1 2 3 4 5 6 
#
# 1 0.401926 -0.237599 -0.380036 0.000000 -0.487788 0.000000
# 2 -0.237599 0.167383 0.207351 0.000000 0.285732 0.000000
# 3 -0.380036 0.207351 0.394642 0.000000 0.464516 0.000000
# 4 0.000000 0.000000 0.000000 -0.205039 0.000000 0.007338
# 5 -0.487788 0.285732 0.464516 0.000000 0.642325 0.000000
# 6 0.000000 0.000000 0.000000 0.007338 0.000000 0.047281
#
#
# Mechanical properties :
#
#
# Convention : Reuss Voigt Hill
#
# Bulk Modulus (GPa) = 6.97439 54.26741 30.62090
# Shear Modulus (GPa) = 2.15807 12.14799 7.15303
#
# Velocity S-wave (km/s) = 1.15611 2.74296 2.10481
# Velocity P-wave (km/s) = 2.47016 6.60623 4.98718
#
# Compressibility (1/GPa) = 0.14338177
#
# Stress axis : x y z
#
# Youngs Moduli (GPa) = 2.48802 5.97432 2.53394
#
# Poissons Ratio (x) = 1.41949 0.96299
# Poissons Ratio (y) = 0.59115 -0.52541
# Poissons Ratio (z) = 0.94554 -1.23878
#
# Static dielectric constant tensor:
#      x y z
#    x 1.397250 0.000000 0.081780 
#    y 0.000000 1.537210 0.000000 
#    z 0.081780 0.000000 1.521930 
# 
# From -- ./inp_files/60955.got.cif
#   From: 2010.05.17/outbox.cif.g08.bks.cpg/sg10_31_cif.got.tgz:60955.got - 2010.06.03 11:33:40.
