data_PCOD9148380
_publ_section_title
;
Structure prediction by ZEFSAII (Michael W. Deem and Ramdas Pophale) SiO2 
 PCOD9148380
Probable space group: P 2/M
;
_chemical_formula_sum "Si O2"
_cell_formula_units_Z 28
_cell_length_a 10.527898
_cell_length_b 18.900528
_cell_length_c 19.271160
_cell_angle_alpha 90.000000
_cell_angle_beta 159.087629
_cell_angle_gamma 90.000000
_cell_volume 1368.731670
_symmetry_space_group_name_H-M "P 2/M"
_symmetry_group_IT_number 10
_symmetry_cell_setting 'monoclinic'
loop_
_space_group_symop_operation_xyz
x,y,z
-x,y,-z
-x,-y,-z
x,-y,z
loop_
_atom_site_type_symbol
_atom_site_label
_atom_site_fract_x
_atom_site_fract_y
_atom_site_fract_z
Si Si1 0.726790 0.000000 0.008270
Si Si2 0.039631 0.000000 0.324929
Si Si3 0.936454 0.154241 0.668199
Si Si4 0.737767 0.275733 0.470338
Si Si5 0.531329 0.579385 0.433772
Si Si6 0.248196 0.845766 0.976580
Si Si7 0.819781 0.424471 0.983813
Si Si8 0.478645 0.726089 0.189797
O O1 0.298246 0.000000 0.796151
O O2 0.832053 0.923501 0.033059
O O3 0.876683 0.000000 0.163859
O O4 0.225379 0.075822 0.427050
O O5 0.004138 0.166546 0.784384
O O6 0.718409 0.215677 0.519195
O O7 0.342224 0.151671 0.844085
O O8 0.720626 0.353909 0.494699
O O9 0.467229 0.270989 0.267496
O O10 0.119754 0.262012 0.630634
O O11 0.500000 0.589301 0.500000
O O12 0.682775 0.500000 0.497503
O O13 0.135732 0.578842 0.200282
O O14 0.243043 0.783599 0.029700
O O15 0.625929 0.500000 0.893051
O O16 0.602590 0.353192 0.875987
O O17 0.000000 0.425088 0.000000
#
# Coordination Sequence:
#
# PCOD9148380 Si02
#       8
#     2   2   4   4   4   4   4   4
#     4   7  10  20  39  63  93 127 165 201 237 285
#     4   7  10  20  39  63  91 129 167 198 237 286
#     4   8  14  25  43  67  98 131 165 204 244 288
#     4  10  20  33  49  76 108 132 161 207 256 292
#     4  10  22  39  56  74  99 130 166 208 250 296
#     4   8  14  25  43  68  97 131 166 202 244 290
#     4  10  20  37  56  73  96 132 173 203 238 298
#     4  10  20  32  50  77 106 132 164 206 249 296
#
# _framework density 20.456896
#
# number of rings (size 3 to 8) (size 9 to 14) (size 15 to 20)
#    0.000    3.000    1.429    1.714    2.000    0.571 
#    0.000    2.143    0.000    6.857    0.000    2.000 
#    0.000    0.000    0.000    0.000    0.000    0.000 
#
# Total GULP energy -156059.368078 kJ/mol
# GULP energy per Si atom -5573.548860 kJ/mol
# Density = 2.041034 g / cm^3
# Si number density = 20.456896 Si / 1000 Ang^3
#
#
#
# Elastic Constant Matrix: (Units=GPa)
#
#
# Indices 1 2 3 4 5 6 
#
# 1 65.1805 54.2452 37.9158 0.0000 -22.5008 0.0000
# 2 54.2452 215.1279 50.0255 0.0000 -36.6816 0.0000
# 3 37.9158 50.0255 48.4180 0.0000 -28.2708 0.0000
# 4 0.0000 0.0000 0.0000 -19.8284 0.0000 -57.6213
# 5 -22.5008 -36.6816 -28.2708 0.0000 39.9449 0.0000
# 6 0.0000 0.0000 0.0000 -57.6213 0.0000 -46.6356
#
#
#
# Elastic Compliance Matrix: (Units=1/GPa)
#
#
# Indices 1 2 3 4 5 6 
#
# 1 0.029330 -0.002723 -0.020397 0.000000 -0.000415 0.000000
# 2 -0.002723 0.006462 -0.003365 0.000000 0.002018 0.000000
# 3 -0.020397 -0.003365 0.053839 0.000000 0.023524 0.000000
# 4 0.000000 0.000000 0.000000 0.019468 0.000000 -0.024054
# 5 -0.000415 0.002018 0.023524 0.000000 0.043303 0.000000
# 6 0.000000 0.000000 0.000000 -0.024054 0.000000 0.008277
#
#
# Mechanical properties :
#
#
# Convention : Reuss Voigt Hill
#
# Bulk Modulus (GPa) = 27.27803 68.12217 47.70010
# Shear Modulus (GPa) = 22.13662 7.13215 14.63438
#
# Velocity S-wave (km/s) = 3.29311 1.86922 2.67755
# Velocity P-wave (km/s) = 5.27473 6.16695 5.73821
#
# Compressibility (1/GPa) = 0.03665954
#
# Stress axis : x y z
#
# Youngs Moduli (GPa) = 34.09456 154.75614 18.57398
#
# Poissons Ratio (x) = 0.42147 0.37885
# Poissons Ratio (y) = 0.09285 0.06251
# Poissons Ratio (z) = 0.69542 0.52080
#
# Static dielectric constant tensor:
#      x y z
#    x 1.730780 0.000000 0.037500 
#    y 0.000000 1.768320 0.000000 
#    z 0.037500 0.000000 1.745330 
# 
# From -- ./inp_files/84234.got.cif
#   From: 2010.05.17/outbox.cif.g08.bks.cpg/sg10_43_cif.got.tgz:84234.got - 2010.06.03 11:33:40.
