data_PCOD9148495
_publ_section_title
;
Structure prediction by ZEFSAII (Michael W. Deem and Ramdas Pophale) SiO2 
 PCOD9148495
Probable space group: P 2/M
;
_chemical_formula_sum "Si O2"
_cell_formula_units_Z 32
_cell_length_a 19.289845
_cell_length_b 9.151938
_cell_length_c 23.545979
_cell_angle_alpha 90.000000
_cell_angle_beta 151.568994
_cell_angle_gamma 90.000000
_cell_volume 1979.050579
_symmetry_space_group_name_H-M "P 2/M"
_symmetry_group_IT_number 10
_symmetry_cell_setting 'monoclinic'
loop_
_space_group_symop_operation_xyz
x,y,z
-x,y,-z
-x,-y,-z
x,-y,z
loop_
_atom_site_type_symbol
_atom_site_label
_atom_site_fract_x
_atom_site_fract_y
_atom_site_fract_z
Si Si1 0.429155 0.166911 0.077213
Si Si2 0.371009 0.332424 0.859440
Si Si3 0.645829 0.827564 0.680205
Si Si4 0.159516 0.328283 0.087613
Si Si5 0.027118 0.674364 0.258953
Si Si6 0.815014 0.175765 0.014656
Si Si7 0.695898 0.172370 0.584977
Si Si8 0.169520 0.831989 0.796088
O O1 0.556317 0.267674 0.144786
O O2 0.480918 0.000000 0.119046
O O3 0.344094 0.209285 0.073071
O O4 0.300580 0.168333 0.937098
O O5 0.327451 0.500000 0.821044
O O6 0.240221 0.237492 0.790990
O O7 0.500000 0.328546 0.000000
O O8 0.725158 0.730485 0.783671
O O9 0.471748 0.805872 0.553591
O O10 0.702880 0.796101 0.657570
O O11 0.672850 0.000000 0.710629
O O12 0.181136 0.500000 0.091238
O O13 0.170738 0.235954 0.038148
O O14 0.000000 0.309792 0.000000
O O15 0.015465 0.500000 0.248739
O O16 0.190651 0.729643 0.367048
O O17 0.933006 0.746397 0.140083
O O18 0.956998 0.737376 0.266220
O O19 0.834635 0.000000 0.031679
O O20 0.730547 0.000000 0.602424
O O21 0.125556 0.000000 0.756277
#
# Coordination Sequence:
#
# PCOD9148495 Si02
#       8
#     4   4   4   4   4   4   4   4
#     4   8  15  26  39  56  79 112 152 188 223 266
#     4   9  15  22  35  56  82 113 147 184 226 269
#     4   9  19  35  54  72  90 118 156 193 227 272
#     4  11  23  35  48  70  98 124 152 190 235 278
#     4  11  20  29  44  68  96 123 153 191 236 279
#     4  10  20  33  48  65  89 124 162 195 228 273
#     4   9  18  34  53  71  91 118 154 191 229 275
#     4   9  16  26  39  56  83 119 155 188 221 265
#
# _framework density 16.169370000000001
#
# number of rings (size 3 to 8) (size 9 to 14) (size 15 to 20)
#    0.000    2.500    0.000    4.875    0.000    9.000 
#    0.000    1.250    0.000    0.000    0.000    0.000 
#    0.000    1.000    0.000   10.500    0.000    7.375 
#
# Total GULP energy -178414.190449 kJ/mol
# GULP energy per Si atom -5575.443452 kJ/mol
# Density = 1.613257 g / cm^3
# Si number density = 16.169370 Si / 1000 Ang^3
#
#
#
# Elastic Constant Matrix: (Units=GPa)
#
#
# Indices 1 2 3 4 5 6 
#
# 1 97.6294 69.7909 23.7400 0.0000 24.3560 0.0000
# 2 69.7909 111.6385 30.7022 0.0000 20.9271 0.0000
# 3 23.7400 30.7022 25.9870 0.0000 8.8540 0.0000
# 4 0.0000 0.0000 0.0000 16.9509 0.0000 3.0862
# 5 24.3560 20.9271 8.8540 0.0000 19.4705 0.0000
# 6 0.0000 0.0000 0.0000 3.0862 0.0000 23.5203
#
#
#
# Elastic Compliance Matrix: (Units=1/GPa)
#
#
# Indices 1 2 3 4 5 6 
#
# 1 0.021972 -0.010040 -0.002985 0.000000 -0.015337 0.000000
# 2 -0.010040 0.019142 -0.012677 0.000000 -0.002250 0.000000
# 3 -0.002985 -0.012677 0.059487 0.000000 -0.009692 0.000000
# 4 0.000000 0.000000 0.000000 0.060438 0.000000 -0.007930
# 5 -0.015337 -0.002250 -0.009692 0.000000 0.077371 0.000000
# 6 0.000000 0.000000 0.000000 -0.007930 0.000000 0.043557
#
#
# Mechanical properties :
#
#
# Convention : Reuss Voigt Hill
#
# Bulk Modulus (GPa) = 20.32644 53.74680 37.03662
# Shear Modulus (GPa) = 14.29515 19.38977 16.84246
#
# Velocity S-wave (km/s) = 2.97659 3.46666 3.23093
# Velocity P-wave (km/s) = 4.94082 7.02393 6.07237
#
# Compressibility (1/GPa) = 0.04919702
#
# Stress axis : x y z
#
# Youngs Moduli (GPa) = 45.51276 52.24100 16.81049
#
# Poissons Ratio (x) = 0.52449 0.05018
# Poissons Ratio (y) = 0.45694 0.21310
# Poissons Ratio (z) = 0.13586 0.66225
#
# Static dielectric constant tensor:
#      x y z
#    x 1.548030 0.000000 0.013350 
#    y 0.000000 1.539390 0.000000 
#    z 0.013350 0.000000 1.519280 
# 
# From -- ./inp_files/89926.got.cif
#   From: 2010.05.17/outbox.cif.g08.bks.cpg/sg10_45_cif.got.tgz:89926.got - 2010.06.03 11:33:40.
