data_PCOD9148564
_publ_section_title
;
Structure prediction by ZEFSAII (Michael W. Deem and Ramdas Pophale) SiO2 
 PCOD9148564
Probable space group: P 2/M
;
_chemical_formula_sum "Si O2"
_cell_formula_units_Z 28
_cell_length_a 33.445929
_cell_length_b 7.331137
_cell_length_c 9.824723
_cell_angle_alpha 90.000000
_cell_angle_beta 31.007890
_cell_angle_gamma 90.000000
_cell_volume 1241.005672
_symmetry_space_group_name_H-M "P 2/M"
_symmetry_group_IT_number 10
_symmetry_cell_setting 'monoclinic'
loop_
_space_group_symop_operation_xyz
x,y,z
-x,y,-z
-x,-y,-z
x,-y,z
loop_
_atom_site_type_symbol
_atom_site_label
_atom_site_fract_x
_atom_site_fract_y
_atom_site_fract_z
Si Si1 0.246318 0.723645 0.675919
Si Si2 0.583990 0.722490 0.303847
Si Si3 0.319327 0.721388 0.729765
Si Si4 0.924823 0.293414 0.791199
Si Si5 0.830736 0.280213 0.657311
Si Si6 0.732954 0.278215 0.692717
Si Si7 0.996013 0.792030 0.859372
O O1 0.244146 0.500000 0.680007
O O2 0.309960 0.779126 0.601472
O O3 0.261082 0.783758 0.479173
O O4 0.160811 0.785216 0.972999
O O5 0.500000 0.784378 0.500000
O O6 0.582853 0.500000 0.307208
O O7 0.610614 0.780721 0.377338
O O8 0.653178 0.776326 0.999694
O O9 0.321487 0.500000 0.723421
O O10 0.239610 0.773190 0.039219
O O11 0.919804 0.500000 0.750013
O O12 0.000000 0.207443 0.500000
O O13 0.943960 0.298976 0.896276
O O14 0.835161 0.500000 0.647623
O O15 0.803894 0.223440 0.584004
O O16 0.914879 0.210248 0.450027
O O17 0.733603 0.500000 0.690076
O O18 0.968762 0.000000 0.951064
O O19 0.000000 0.711618 0.000000
#
# Coordination Sequence:
#
# PCOD9148564 Si02
#       7
#     4   4   4   4   4   4   4
#     4   9  15  24  38  58  81 102 136 187 227 254
#     4   8  13  22  35  53  81 114 142 167 204 259
#     4   8  14  24  40  60  80 104 137 178 217 254
#     4  10  20  33  50  69  87 115 158 201 237 274
#     4   9  16  29  47  62  79 111 154 190 220 261
#     4   8  14  23  38  59  80 106 141 180 219 256
#     4  11  23  34  44  64  94 123 151 189 237 281
#
# _framework density 22.562346000000002
#
# number of rings (size 3 to 8) (size 9 to 14) (size 15 to 20)
#    0.000    3.000    0.000    3.857    0.000    4.857 
#    0.000    0.714    0.000    4.286    0.000    0.000 
#    0.000    9.143    0.000    0.000    0.000   50.571 
#
# Total GULP energy -156376.861498 kJ/mol
# GULP energy per Si atom -5584.887911 kJ/mol
# Density = 2.251099 g / cm^3
# Si number density = 22.562346 Si / 1000 Ang^3
#
#
#
# Elastic Constant Matrix: (Units=GPa)
#
#
# Indices 1 2 3 4 5 6 
#
# 1 182.1093 -0.1629 43.1306 0.0000 -1.5721 0.0000
# 2 -0.1629 88.2008 0.3078 0.0000 1.4162 0.0000
# 3 43.1306 0.3078 42.4316 0.0000 -6.4394 0.0000
# 4 0.0000 0.0000 0.0000 6.3599 0.0000 3.6833
# 5 -1.5721 1.4162 -6.4394 0.0000 42.8469 0.0000
# 6 0.0000 0.0000 0.0000 3.6833 0.0000 -30.3382
#
#
#
# Elastic Compliance Matrix: (Units=1/GPa)
#
#
# Indices 1 2 3 4 5 6 
#
# 1 0.007264 0.000054 -0.007515 0.000000 -0.000865 0.000000
# 2 0.000054 0.011345 -0.000198 0.000000 -0.000403 0.000000
# 3 -0.007515 -0.000198 0.031894 0.000000 0.004524 0.000000
# 4 0.000000 0.000000 0.000000 0.146907 0.000000 0.017836
# 5 -0.000865 -0.000403 0.004524 0.000000 0.024000 0.000000
# 6 0.000000 0.000000 0.000000 0.017836 0.000000 -0.030796
#
#
# Mechanical properties :
#
#
# Convention : Reuss Voigt Hill
#
# Bulk Modulus (GPa) = 28.42176 44.36584 36.39380
# Shear Modulus (GPa) = 22.97160 21.73812 22.35486
#
# Velocity S-wave (km/s) = 3.19429 3.10735 3.15112
# Velocity P-wave (km/s) = 5.12142 5.70793 5.42261
#
# Compressibility (1/GPa) = 0.03518431
#
# Stress axis : x y z
#
# Youngs Moduli (GPa) = 137.67261 88.14437 31.35381
#
# Poissons Ratio (x) = -0.00472 0.23562
# Poissons Ratio (y) = -0.00737 0.00620
# Poissons Ratio (z) = 1.03459 0.01744
#
# Static dielectric constant tensor:
#      x y z
#    x 1.829070 0.000000 0.031800 
#    y 0.000000 1.868850 0.000000 
#    z 0.031800 0.000000 1.807800 
# 
# From -- ./inp_files/37941.got.cif
#   From: 2010.05.17/outbox.cif.g08.bks.cpg/sg10_19_cif.got.tgz:37941.got - 2010.06.03 11:33:40.
