data_PCOD9148642
_publ_section_title
;
Structure prediction by ZEFSAII (Michael W. Deem and Ramdas Pophale) SiO2 
 PCOD9148642
Probable space group: P 2/M
;
_chemical_formula_sum "Si O2"
_cell_formula_units_Z 28
_cell_length_a 10.789703
_cell_length_b 7.339740
_cell_length_c 14.384437
_cell_angle_alpha 90.000000
_cell_angle_beta 76.022687
_cell_angle_gamma 90.000000
_cell_volume 1105.426808
_symmetry_space_group_name_H-M "P 2/M"
_symmetry_group_IT_number 10
_symmetry_cell_setting 'monoclinic'
loop_
_space_group_symop_operation_xyz
x,y,z
-x,y,-z
-x,-y,-z
x,-y,z
loop_
_atom_site_type_symbol
_atom_site_label
_atom_site_fract_x
_atom_site_fract_y
_atom_site_fract_z
Si Si1 0.472294 0.718273 0.810208
Si Si2 0.756883 0.793665 0.284433
Si Si3 0.342581 0.711044 0.010112
Si Si4 0.873004 0.723663 0.576906
Si Si5 0.639959 0.295207 0.496035
Si Si6 0.885597 0.220979 0.085764
Si Si7 0.243628 0.718799 0.221325
O O1 0.455437 0.500000 0.812288
O O2 0.369740 0.797147 0.758216
O O3 0.617810 0.754587 0.757558
O O4 0.458228 0.779639 0.921556
O O5 0.715990 0.695247 0.384896
O O6 0.867084 0.718799 0.195823
O O7 0.789726 0.000000 0.304374
O O8 0.368077 0.500000 0.029819
O O9 0.266793 0.790726 0.112671
O O10 0.237403 0.716139 0.947836
O O11 0.872088 0.500000 0.575081
O O12 0.744458 0.784777 0.546967
O O13 0.861998 0.782263 0.686636
O O14 0.000000 0.781372 0.500000
O O15 0.500000 0.211677 0.500000
O O16 0.611058 0.500000 0.536810
O O17 0.886842 0.000000 0.088520
O O18 0.000000 0.283037 0.000000
O O19 0.226167 0.500000 0.216699
#
# Coordination Sequence:
#
# PCOD9148642 Si02
#       7
#     4   4   4   4   4   4   4
#     4   9  16  29  49  73 101 129 158 196 247 307
#     4  10  20  33  51  75 101 130 167 213 257 294
#     4   9  17  28  47  75  98 119 156 204 248 291
#     4   9  18  31  47  71 102 132 165 207 251 296
#     4  10  20  35  56  79 102 134 174 212 257 312
#     4   9  19  35  50  66  96 136 169 198 244 307
#     4   9  16  28  47  69  96 129 160 195 245 301
#
# _framework density 25.329583
#
# number of rings (size 3 to 8) (size 9 to 14) (size 15 to 20)
#    0.000    2.714    0.000    1.714    0.000    6.286 
#    0.000    2.143    0.000    4.714    0.000    0.000 
#    0.000    0.000    0.000    0.000    0.000    0.000 
#
# Total GULP energy -156198.744474 kJ/mol
# GULP energy per Si atom -5578.526588 kJ/mol
# Density = 2.527193 g / cm^3
# Si number density = 25.329583 Si / 1000 Ang^3
#
#
#
# Elastic Constant Matrix: (Units=GPa)
#
#
# Indices 1 2 3 4 5 6 
#
# 1 27.2171 1.8120 33.3520 0.0000 -17.5680 0.0000
# 2 1.8120 91.5780 6.0284 0.0000 -4.9435 0.0000
# 3 33.3520 6.0284 211.8416 0.0000 -31.1911 0.0000
# 4 0.0000 0.0000 0.0000 -11.5020 0.0000 21.4262
# 5 -17.5680 -4.9435 -31.1911 0.0000 45.6864 0.0000
# 6 0.0000 0.0000 0.0000 21.4262 0.0000 -108.6795
#
#
#
# Elastic Compliance Matrix: (Units=1/GPa)
#
#
# Indices 1 2 3 4 5 6 
#
# 1 0.055352 0.000235 -0.006208 0.000000 0.017072 0.000000
# 2 0.000235 0.010989 -0.000179 0.000000 0.001157 0.000000
# 3 -0.006208 -0.000179 0.005946 0.000000 0.001653 0.000000
# 4 0.000000 0.000000 0.000000 -0.137404 0.000000 -0.027089
# 5 0.017072 0.001157 0.001653 0.000000 0.029707 0.000000
# 6 0.000000 0.000000 0.000000 -0.027089 0.000000 -0.014542
#
#
# Mechanical properties :
#
#
# Convention : Reuss Voigt Hill
#
# Bulk Modulus (GPa) = 16.67110 45.89128 31.28119
# Shear Modulus (GPa) = -283.24183 4.39727 -139.42228
#
# Velocity S-wave (km/s) = -10.58609 1.31901 -7.42716
# Velocity P-wave (km/s) = 11.95092 4.52512 7.82137
#
# Compressibility (1/GPa) = 0.05998405
#
# Stress axis : x y z
#
# Youngs Moduli (GPa) = 18.06607 90.99789 168.17037
#
# Poissons Ratio (x) = -0.02138 1.04393
# Poissons Ratio (y) = -0.00425 0.03016
# Poissons Ratio (z) = 0.11215 0.01632
#
# Static dielectric constant tensor:
#      x y z
#    x 2.064200 0.000000 -0.051610 
#    y 0.000000 1.930750 0.000000 
#    z -0.051610 0.000000 2.094250 
# 
# From -- ./inp_files/63362.got.cif
#   From: 2010.05.17/outbox.cif.g08.bks.cpg/sg10_32_cif.got.tgz:63362.got - 2010.06.03 11:33:40.
