data_PCOD9148146
_publ_section_title
;
Structure prediction by ZEFSAII (Michael W. Deem and Ramdas Pophale) SiO2 
 PCOD9148146
Probable space group: P 2/M
;
_chemical_formula_sum "Si O2"
_cell_formula_units_Z 14
_cell_length_a 5.118032
_cell_length_b 13.726509
_cell_length_c 10.616973
_cell_angle_alpha 90.000000
_cell_angle_beta 58.598809
_cell_angle_gamma 90.000000
_cell_volume 636.630837
_symmetry_space_group_name_H-M "P 2/M"
_symmetry_group_IT_number 10
_symmetry_cell_setting 'monoclinic'
loop_
_space_group_symop_operation_xyz
x,y,z
-x,y,-z
-x,-y,-z
x,-y,z
loop_
_atom_site_type_symbol
_atom_site_label
_atom_site_fract_x
_atom_site_fract_y
_atom_site_fract_z
Si Si1 0.368502 0.613403 0.898414
Si Si2 0.868545 0.500000 0.393727
Si Si3 0.255429 0.698229 0.674948
Si Si4 0.867262 0.892308 0.394271
O O1 0.455003 0.500000 0.851648
O O2 0.429803 0.679967 0.761655
O O3 0.500000 0.643748 0.000000
O O4 0.000000 0.615528 0.000000
O O5 0.500000 0.500000 0.500000
O O6 0.938772 0.600102 0.303376
O O7 0.000000 0.500000 0.500000
O O8 0.500000 0.701840 0.500000
O O9 0.077304 0.799981 0.709826
O O10 0.500000 0.899814 0.500000
O O11 0.000000 0.872103 0.500000
O O12 0.979858 0.000000 0.325881
#
# Coordination Sequence:
#
# PCOD9148146 Si02
#       4
#     4   2   4   4
#     4  10  22  38  53  75 110 148 178 213 269 328
#     4  10  20  30  46  78 108 128 163 220 265 298
#     4  10  20  36  57  83 107 141 182 227 264 315
#     4   9  18  32  51  78 109 138 173 220 271 316
#
# _framework density 21.990767999999999
#
# number of rings (size 3 to 8) (size 9 to 14) (size 15 to 20)
#    0.000    2.286    1.429    0.857    0.000    9.143 
#    0.000    0.000    0.000    1.714    0.000    0.000 
#    0.000    0.000    0.000    0.000    0.000    0.000 
#
# Total GULP energy -78235.218568 kJ/mol
# GULP energy per Si atom -5588.229898 kJ/mol
# Density = 2.194072 g / cm^3
# Si number density = 21.990768 Si / 1000 Ang^3
#
#
#
# Elastic Constant Matrix: (Units=GPa)
#
#
# Indices 1 2 3 4 5 6 
#
# 1 135.6197 33.1917 45.9465 0.0000 52.0868 0.0000
# 2 33.1917 208.6900 49.2639 0.0000 44.0437 0.0000
# 3 45.9465 49.2639 127.5999 0.0000 46.4635 0.0000
# 4 0.0000 0.0000 0.0000 4.7013 0.0000 8.8762
# 5 52.0868 44.0437 46.4635 0.0000 57.0776 0.0000
# 6 0.0000 0.0000 0.0000 8.8762 0.0000 27.1027
#
#
#
# Elastic Compliance Matrix: (Units=1/GPa)
#
#
# Indices 1 2 3 4 5 6 
#
# 1 0.011413 0.000498 -0.000525 0.000000 -0.010372 0.000000
# 2 0.000498 0.005812 -0.000888 0.000000 -0.004216 0.000000
# 3 -0.000525 -0.000888 0.011292 0.000000 -0.008028 0.000000
# 4 0.000000 0.000000 0.000000 0.557316 0.000000 -0.182523
# 5 -0.010372 -0.004216 -0.008028 0.000000 0.036773 0.000000
# 6 0.000000 0.000000 0.000000 -0.182523 0.000000 0.096674
#
#
# Mechanical properties :
#
#
# Convention : Reuss Voigt Hill
#
# Bulk Modulus (GPa) = 37.47183 80.96820 59.22001
# Shear Modulus (GPa) = 6.84925 40.67682 23.76304
#
# Velocity S-wave (km/s) = 1.76674 4.30551 3.29080
# Velocity P-wave (km/s) = 4.60854 7.84956 6.43639
#
# Compressibility (1/GPa) = 0.02668671
#
# Stress axis : x y z
#
# Youngs Moduli (GPa) = 87.61887 172.05588 88.55740
#
# Poissons Ratio (x) = -0.08563 0.04650
# Poissons Ratio (y) = -0.04360 0.07862
# Poissons Ratio (z) = 0.04601 0.15276
#
# Static dielectric constant tensor:
#      x y z
#    x 1.176440 0.000000 0.500960 
#    y 0.000000 1.917850 0.000000 
#    z 0.500960 0.000000 1.389080 
# 
# From -- ./inp_files/3140.got.cif
#   From: 2010.05.17/outbox.cif.g08.bks.cpg/sg10_2_cif.got.tgz:3140.got - 2010.06.03 11:33:40.
