data_PCOD9148255
_publ_section_title
;
Structure prediction by ZEFSAII (Michael W. Deem and Ramdas Pophale) SiO2 
 PCOD9148255
Probable space group: P 2/M
;
_chemical_formula_sum "Si O2"
_cell_formula_units_Z 28
_cell_length_a 7.452922
_cell_length_b 8.534942
_cell_length_c 27.563314
_cell_angle_alpha 90.000000
_cell_angle_beta 130.186513
_cell_angle_gamma 90.000000
_cell_volume 1339.437177
_symmetry_space_group_name_H-M "P 2/M"
_symmetry_group_IT_number 10
_symmetry_cell_setting 'monoclinic'
loop_
_space_group_symop_operation_xyz
x,y,z
-x,y,-z
-x,-y,-z
x,-y,z
loop_
_atom_site_type_symbol
_atom_site_label
_atom_site_fract_x
_atom_site_fract_y
_atom_site_fract_z
Si Si1 0.028456 0.818111 0.311311
Si Si2 0.787755 0.818094 0.431373
Si Si3 0.578957 0.183770 0.706449
Si Si4 0.585099 0.325030 0.569511
Si Si5 0.323962 0.189695 0.827105
Si Si6 0.861873 0.810613 0.928076
Si Si7 0.046705 0.314808 0.159769
O O1 0.220825 0.807755 0.300938
O O2 0.145411 0.721102 0.374841
O O3 0.791092 0.760740 0.244393
O O4 0.004784 0.000000 0.321197
O O5 0.664295 0.756612 0.360341
O O6 0.572800 0.803184 0.431366
O O7 0.000000 0.744605 0.500000
O O8 0.848648 0.000000 0.432520
O O9 0.702084 0.266411 0.772985
O O10 0.547096 0.000000 0.712514
O O11 0.500000 0.327477 0.500000
O O12 0.545285 0.500000 0.583433
O O13 0.590179 0.241238 0.880863
O O14 0.155724 0.247046 0.840734
O O15 0.315705 0.000000 0.825367
O O16 0.973125 0.752431 0.897539
O O17 0.863151 0.000000 0.927936
O O18 0.000000 0.757653 0.000000
O O19 0.029186 0.500000 0.156194
#
# Coordination Sequence:
#
# PCOD9148255 Si02
#       7
#     4   4   4   4   4   4   4
#     4   8  15  30  53  76  98 132 179 228 270 314
#     4   9  18  33  52  74  99 132 178 228 273 316
#     4   8  15  31  54  76 103 138 182 230 270 323
#     4  10  20  32  46  69 104 141 174 215 269 328
#     4   9  19  38  62  86 112 146 192 238 281 333
#     4  10  22  41  64  88 116 151 192 238 283 334
#     4  11  22  36  58  87 119 154 188 229 286 345
#
# _framework density 20.904302999999999
#
# number of rings (size 3 to 8) (size 9 to 14) (size 15 to 20)
#    0.000    2.714    0.000    3.429    0.000    8.000 
#    2.571    2.857    0.000    0.000    0.000    0.000 
#    0.000    0.000    0.000    0.000    0.000    0.000 
#
# Total GULP energy -156104.847823 kJ/mol
# GULP energy per Si atom -5575.173137 kJ/mol
# Density = 2.085672 g / cm^3
# Si number density = 20.904303 Si / 1000 Ang^3
#
#
#
# Elastic Constant Matrix: (Units=GPa)
#
#
# Indices 1 2 3 4 5 6 
#
# 1 39.2687 1.6975 16.5955 0.0000 11.4116 0.0000
# 2 1.6975 12.1118 32.1161 0.0000 0.3455 0.0000
# 3 16.5955 32.1161 154.9184 0.0000 12.3681 0.0000
# 4 0.0000 0.0000 0.0000 117.4106 0.0000 -35.8466
# 5 11.4116 0.3455 12.3681 0.0000 29.6509 0.0000
# 6 0.0000 0.0000 0.0000 -35.8466 0.0000 6.8721
#
#
#
# Elastic Compliance Matrix: (Units=1/GPa)
#
#
# Indices 1 2 3 4 5 6 
#
# 1 0.029616 0.005395 -0.003492 0.000000 -0.010004 0.000000
# 2 0.005395 0.190301 -0.041053 0.000000 0.012830 0.000000
# 3 -0.003492 -0.041053 0.015718 0.000000 -0.004734 0.000000
# 4 0.000000 0.000000 0.000000 -0.014373 0.000000 -0.074973
# 5 -0.010004 0.012830 -0.004734 0.000000 0.039401 0.000000
# 6 0.000000 0.000000 0.000000 -0.074973 0.000000 -0.245565
#
#
# Mechanical properties :
#
#
# Convention : Reuss Voigt Hill
#
# Bulk Modulus (GPa) = 6.35598 34.12411 20.24004
# Shear Modulus (GPa) = 34.28344 41.17938 37.73141
#
# Velocity S-wave (km/s) = 4.05411 4.44317 4.25309
# Velocity P-wave (km/s) = 4.99615 6.53313 5.81564
#
# Compressibility (1/GPa) = 0.15733222
#
# Stress axis : x y z
#
# Youngs Moduli (GPa) = 33.76609 5.25484 63.62217
#
# Poissons Ratio (x) = -0.02835 0.22218
# Poissons Ratio (y) = -0.18216 2.61190
# Poissons Ratio (z) = 0.11792 0.21573
#
# Static dielectric constant tensor:
#      x y z
#    x 1.768110 0.000000 0.021910 
#    y 0.000000 1.730370 0.000000 
#    z 0.021910 0.000000 1.807860 
# 
# From -- ./inp_files/94549.got.cif
#   From: 2010.05.17/outbox.cif.g08.bks.cpg/sg10_48_cif.got.tgz:94549.got - 2010.06.03 11:33:40.
