data_PCOD9148144
_publ_section_title
;
Structure prediction by ZEFSAII (Michael W. Deem and Ramdas Pophale) SiO2 
 PCOD9148144
Probable space group: P 2/M
;
_chemical_formula_sum "Si O2"
_cell_formula_units_Z 28
_cell_length_a 15.910309
_cell_length_b 7.602206
_cell_length_c 17.254403
_cell_angle_alpha 90.000000
_cell_angle_beta 42.610481
_cell_angle_gamma 90.000000
_cell_volume 1412.907274
_symmetry_space_group_name_H-M "P 2/M"
_symmetry_group_IT_number 10
_symmetry_cell_setting 'monoclinic'
loop_
_space_group_symop_operation_xyz
x,y,z
-x,y,-z
-x,-y,-z
x,-y,z
loop_
_atom_site_type_symbol
_atom_site_label
_atom_site_fract_x
_atom_site_fract_y
_atom_site_fract_z
Si Si1 0.943389 0.000000 0.164857
Si Si2 0.795765 0.000000 0.105879
Si Si3 0.269967 0.703588 0.066111
Si Si4 0.610530 0.291833 0.172544
Si Si5 0.987526 0.706047 0.251776
Si Si6 0.054062 0.296464 0.545508
Si Si7 0.663313 0.211966 0.668610
Si Si8 0.392239 0.799949 0.124938
O O1 0.921693 0.831738 0.235069
O O2 0.853905 0.000000 0.151804
O O3 0.084884 0.000000 0.033461
O O4 0.706347 0.168649 0.153111
O O5 0.293079 0.500000 0.067845
O O6 0.281152 0.802286 0.139304
O O7 0.131357 0.714868 0.129578
O O8 0.363856 0.760658 0.935111
O O9 0.637850 0.500000 0.161072
O O10 0.464695 0.260153 0.287975
O O11 0.948334 0.500000 0.276643
O O12 0.982742 0.772422 0.344247
O O13 0.011705 0.500000 0.574906
O O14 0.203523 0.285113 0.445626
O O15 0.000000 0.221812 0.500000
O O16 0.643215 0.280622 0.770034
O O17 0.674875 0.000000 0.660077
O O18 0.431245 0.000000 0.115397
O O19 0.500000 0.715433 0.000000
#
# Coordination Sequence:
#
# PCOD9148144 Si02
#       8
#     2   2   4   4   4   4   4   4
#     4  11  24  40  68  94 125 162 192 253 319 380
#     4  11  24  42  63  97 127 155 197 247 326 387
#     4  10  20  33  53  81 113 156 202 244 293 352
#     4  11  22  38  61  87 123 161 198 250 306 368
#     4  10  22  40  62  90 122 161 208 250 298 364
#     4  10  22  41  61  86 127 172 214 257 297 348
#     4  11  22  36  56  87 122 162 214 256 302 363
#     4  10  20  30  46  74 115 158 194 241 288 342
#
# _framework density 19.817294
#
# number of rings (size 3 to 8) (size 9 to 14) (size 15 to 20)
#    0.000    1.571    3.571    1.286    3.000    3.429 
#    0.000    1.429    0.000    1.714    0.000    3.000 
#    0.000    0.000    0.000    0.000    0.000    0.000 
#
# Total GULP energy -156109.226230 kJ/mol
# GULP energy per Si atom -5575.329508 kJ/mol
# Density = 1.977219 g / cm^3
# Si number density = 19.817294 Si / 1000 Ang^3
#
#
#
# Elastic Constant Matrix: (Units=GPa)
#
#
# Indices 1 2 3 4 5 6 
#
# 1 119.6981 51.2665 33.5958 0.0000 9.0099 0.0000
# 2 51.2665 87.2337 11.1172 0.0000 15.0002 0.0000
# 3 33.5958 11.1172 77.0558 0.0000 0.7555 0.0000
# 4 0.0000 0.0000 0.0000 6.1889 0.0000 -32.0962
# 5 9.0099 15.0002 0.7555 0.0000 34.3029 0.0000
# 6 0.0000 0.0000 0.0000 -32.0962 0.0000 -88.7464
#
#
#
# Elastic Compliance Matrix: (Units=1/GPa)
#
#
# Indices 1 2 3 4 5 6 
#
# 1 0.012520 -0.006745 -0.004483 0.000000 -0.000240 0.000000
# 2 -0.006745 0.016266 0.000647 0.000000 -0.005356 0.000000
# 3 -0.004483 0.000647 0.014833 0.000000 0.000568 0.000000
# 4 0.000000 0.000000 0.000000 0.056190 0.000000 -0.020322
# 5 -0.000240 -0.005356 0.000568 0.000000 0.031544 0.000000
# 6 0.000000 0.000000 0.000000 -0.020322 0.000000 -0.003918
#
#
# Mechanical properties :
#
#
# Convention : Reuss Voigt Hill
#
# Bulk Modulus (GPa) = 44.53172 52.88296 48.70734
# Shear Modulus (GPa) = 32.03429 2.88294 17.45862
#
# Velocity S-wave (km/s) = 4.02491 1.20744 2.97135
# Velocity P-wave (km/s) = 6.64227 5.35603 6.03353
#
# Compressibility (1/GPa) = 0.02245590
#
# Stress axis : x y z
#
# Youngs Moduli (GPa) = 79.87510 61.47802 67.41593
#
# Poissons Ratio (x) = 0.41467 0.30222
# Poissons Ratio (y) = 0.53876 -0.04359
# Poissons Ratio (z) = 0.35808 -0.03975
#
# Static dielectric constant tensor:
#      x y z
#    x 1.740810 0.000000 -0.020180 
#    y 0.000000 1.744010 0.000000 
#    z -0.020180 0.000000 1.724680 
# 
# From -- ./inp_files/63427.got.cif
#   From: 2010.05.17/outbox.cif.g08.bks.cpg/sg10_32_cif.got.tgz:63427.got - 2010.06.03 11:33:40.
