data_PCOD9148903
_publ_section_title
;
Structure prediction by ZEFSAII (Michael W. Deem and Ramdas Pophale) SiO2 
 PCOD9148903
Probable space group: P 2/M
;
_chemical_formula_sum "Si O2"
_cell_formula_units_Z 32
_cell_length_a 14.875647
_cell_length_b 14.710608
_cell_length_c 9.638644
_cell_angle_alpha 90.000000
_cell_angle_beta 72.181082
_cell_angle_gamma 90.000000
_cell_volume 2008.039879
_symmetry_space_group_name_H-M "P 2/M"
_symmetry_group_IT_number 10
_symmetry_cell_setting 'monoclinic'
loop_
_space_group_symop_operation_xyz
x,y,z
-x,y,-z
-x,-y,-z
x,-y,z
loop_
_atom_site_type_symbol
_atom_site_label
_atom_site_fract_x
_atom_site_fract_y
_atom_site_fract_z
Si Si1 0.087985 0.288341 0.160971
Si Si2 0.811549 0.605442 0.120972
Si Si3 0.017456 0.898708 0.259761
Si Si4 0.600601 0.609649 0.627952
Si Si5 0.088636 0.394484 0.630373
Si Si6 0.221366 0.289285 0.353165
Si Si7 0.610823 0.390008 0.296439
Si Si8 0.843531 0.101554 0.537018
O O1 0.049177 0.186838 0.155498
O O2 0.178645 0.285863 0.219464
O O3 0.006897 0.343266 0.281701
O O4 0.118333 0.338154 0.007399
O O5 0.813120 0.500000 0.073600
O O6 0.846506 0.607016 0.262793
O O7 0.704047 0.641290 0.172520
O O8 0.086942 0.896984 0.361539
O O9 0.913002 0.885428 0.372878
O O10 0.023787 0.000000 0.195457
O O11 0.609793 0.500000 0.637055
O O12 0.679751 0.659684 0.679067
O O13 0.492245 0.636166 0.710545
O O14 0.616486 0.632612 0.457444
O O15 0.071372 0.500000 0.603011
O O16 0.144958 0.343421 0.483130
O O17 0.224531 0.186768 0.411509
O O18 0.613543 0.500000 0.291160
O O19 0.801980 0.000000 0.549105
#
# Coordination Sequence:
#
# PCOD9148903 Si02
#       8
#     4   4   4   4   4   4   4   4
#     4  11  21  30  44  69  97 124 150 186 229 270
#     4  10  20  34  47  62  90 130 164 183 214 272
#     4   8  14  27  45  63  86 119 155 188 223 264
#     4   9  16  28  48  71  90 112 152 198 228 260
#     4  11  21  32  44  62  94 133 162 179 209 269
#     4  11  19  29  47  73  94 114 152 195 234 263
#     4   8  15  30  49  65  84 118 161 194 220 260
#     4   8  14  26  44  65  90 117 148 188 228 269
#
# _framework density 15.935938
#
# number of rings (size 3 to 8) (size 9 to 14) (size 15 to 20)
#    0.000    2.500    2.500    3.000    0.000    3.500 
#    0.000    0.625    0.000    4.500    0.000    2.625 
#    0.000    4.000    0.000    0.000    0.000    0.000 
#
# Total GULP energy -178338.066101 kJ/mol
# GULP energy per Si atom -5573.064566 kJ/mol
# Density = 1.589967 g / cm^3
# Si number density = 15.935938 Si / 1000 Ang^3
#
#
#
# Elastic Constant Matrix: (Units=GPa)
#
#
# Indices 1 2 3 4 5 6 
#
# 1 70.5103 19.2957 -1.6029 0.0000 -4.2508 0.0000
# 2 19.2957 86.0549 12.6398 0.0000 -5.2203 0.0000
# 3 -1.6029 12.6398 29.1723 0.0000 -5.2247 0.0000
# 4 0.0000 0.0000 0.0000 1.3446 0.0000 -32.7409
# 5 -4.2508 -5.2203 -5.2247 0.0000 10.2822 0.0000
# 6 0.0000 0.0000 0.0000 -32.7409 0.0000 -65.6233
#
#
#
# Elastic Compliance Matrix: (Units=1/GPa)
#
#
# Indices 1 2 3 4 5 6 
#
# 1 0.015650 -0.003646 0.003594 0.000000 0.006445 0.000000
# 2 -0.003646 0.013405 -0.005566 0.000000 0.002470 0.000000
# 3 0.003594 -0.005566 0.040317 0.000000 0.019146 0.000000
# 4 0.000000 0.000000 0.000000 0.056562 0.000000 -0.028220
# 5 0.006445 0.002470 0.019146 0.000000 0.110903 0.000000
# 6 0.000000 0.000000 0.000000 -0.028220 0.000000 -0.001159
#
#
# Mechanical properties :
#
#
# Convention : Reuss Voigt Hill
#
# Bulk Modulus (GPa) = 17.20091 27.37807 22.28949
# Shear Modulus (GPa) = 18.77621 -0.43896 9.16862
#
# Velocity S-wave (km/s) = 3.43626 -0.52541 2.40123
# Velocity P-wave (km/s) = 5.15374 4.10479 4.65888
#
# Compressibility (1/GPa) = 0.05813647
#
# Stress axis : x y z
#
# Youngs Moduli (GPa) = 63.89629 74.59648 24.80324
#
# Poissons Ratio (x) = 0.27199 -0.08914
# Poissons Ratio (y) = 0.23297 0.13806
# Poissons Ratio (z) = -0.22964 0.41522
#
# Static dielectric constant tensor:
#      x y z
#    x 1.546880 0.000000 0.009620 
#    y 0.000000 1.543890 0.000000 
#    z 0.009620 0.000000 1.526880 
# 
# From -- ./inp_files/29039.got.cif
#   From: 2010.05.17/outbox.cif.g08.bks.cpg/sg10_15_cif.got.tgz:29039.got - 2010.06.03 11:33:40.
