data_PCOD9148410
_publ_section_title
;
Structure prediction by ZEFSAII (Michael W. Deem and Ramdas Pophale) SiO2 
 PCOD9148410
Probable space group: P 2/M
;
_chemical_formula_sum "Si O2"
_cell_formula_units_Z 28
_cell_length_a 23.565626
_cell_length_b 7.452561
_cell_length_c 21.354139
_cell_angle_alpha 90.000000
_cell_angle_beta 160.583051
_cell_angle_gamma 90.000000
_cell_volume 1246.751901
_symmetry_space_group_name_H-M "P 2/M"
_symmetry_group_IT_number 10
_symmetry_cell_setting 'monoclinic'
loop_
_space_group_symop_operation_xyz
x,y,z
-x,y,-z
-x,-y,-z
x,-y,z
loop_
_atom_site_type_symbol
_atom_site_label
_atom_site_fract_x
_atom_site_fract_y
_atom_site_fract_z
Si Si1 0.703697 0.283758 0.546482
Si Si2 0.784077 0.203093 0.130098
Si Si3 0.578368 0.281100 0.648534
Si Si4 0.426391 0.787727 0.725506
Si Si5 0.320491 0.709783 0.841045
Si Si6 0.036902 0.280951 0.966621
Si Si7 0.847735 0.217847 0.461058
O O1 0.705695 0.500000 0.552110
O O2 0.547430 0.220971 0.427481
O O3 0.668963 0.234422 0.439043
O O4 0.883019 0.220966 0.761945
O O5 0.734496 0.199199 0.152039
O O6 0.972342 0.285110 0.324551
O O7 0.802700 0.000000 0.125012
O O8 0.618764 0.287527 0.925094
O O9 0.500000 0.227996 0.500000
O O10 0.579041 0.500000 0.649906
O O11 0.774417 0.222538 0.857218
O O12 0.309638 0.717329 0.660364
O O13 0.446141 0.000000 0.758239
O O14 0.343219 0.500000 0.879385
O O15 0.184234 0.728997 0.643713
O O16 0.500000 0.779431 0.000000
O O17 0.037097 0.500000 0.966476
O O18 0.000000 0.227763 0.000000
O O19 0.851542 0.000000 0.466428
#
# Coordination Sequence:
#
# PCOD9148410 Si02
#       7
#     4   4   4   4   4   4   4
#     4  10  20  32  51  79 106 134 173 218 262 313
#     4  10  21  38  60  81 103 141 190 226 260 316
#     4   9  15  26  47  76 105 131 164 210 260 309
#     4  10  22  39  55  74 107 146 180 220 264 312
#     4  11  22  35  56  87 117 142 171 220 281 323
#     4   9  15  26  47  76 105 131 164 210 260 309
#     4  10  21  38  60  81 103 141 190 226 260 316
#
# _framework density 22.458356999999999
#
# number of rings (size 3 to 8) (size 9 to 14) (size 15 to 20)
#    0.000    2.143    2.857    0.857    0.000    5.143 
#    0.000    0.000    0.000    0.857    0.000    0.000 
#    0.000    0.000    0.000    0.000    0.000    0.000 
#
# Total GULP energy -156481.573294 kJ/mol
# GULP energy per Si atom -5588.627618 kJ/mol
# Density = 2.240724 g / cm^3
# Si number density = 22.458357 Si / 1000 Ang^3
#
#
#
# Elastic Constant Matrix: (Units=GPa)
#
#
# Indices 1 2 3 4 5 6 
#
# 1 47.4280 -7.7054 26.4932 0.0000 -10.0725 0.0000
# 2 -7.7054 72.4646 -0.5475 0.0000 6.5258 0.0000
# 3 26.4932 -0.5475 190.1906 0.0000 0.8878 0.0000
# 4 0.0000 0.0000 0.0000 5.9900 0.0000 -11.1320
# 5 -10.0725 6.5258 0.8878 0.0000 42.4486 0.0000
# 6 0.0000 0.0000 0.0000 -11.1320 0.0000 1.2883
#
#
#
# Elastic Compliance Matrix: (Units=1/GPa)
#
#
# Indices 1 2 3 4 5 6 
#
# 1 0.024525 0.002080 -0.003436 0.000000 0.005572 0.000000
# 2 0.002080 0.014170 -0.000241 0.000000 -0.001680 0.000000
# 3 -0.003436 -0.000241 0.005740 0.000000 -0.000898 0.000000
# 4 0.000000 0.000000 0.000000 -0.011087 0.000000 -0.095797
# 5 0.005572 -0.001680 -0.000898 0.000000 0.025157 0.000000
# 6 0.000000 0.000000 0.000000 -0.095797 0.000000 -0.051547
#
#
# Mechanical properties :
#
#
# Convention : Reuss Voigt Hill
#
# Bulk Modulus (GPa) = 24.24758 38.50710 31.37734
# Shear Modulus (GPa) = 209.19637 29.40158 119.29897
#
# Velocity S-wave (km/s) = 9.66182 3.62216 7.29626
# Velocity P-wave (km/s) = 11.63133 5.88868 9.21858
#
# Compressibility (1/GPa) = 0.04124122
#
# Stress axis : x y z
#
# Youngs Moduli (GPa) = 40.77411 70.56926 174.21412
#
# Poissons Ratio (x) = -0.14679 0.59866
# Poissons Ratio (y) = -0.08482 0.04201
# Poissons Ratio (z) = 0.14011 0.01702
#
# Static dielectric constant tensor:
#      x y z
#    x 1.766450 0.000000 0.030300 
#    y 0.000000 1.860700 0.000000 
#    z 0.030300 0.000000 1.850330 
# 
# From -- ./inp_files/86525.got.cif
#   From: 2010.05.17/outbox.cif.g08.bks.cpg/sg10_44_cif.got.tgz:86525.got - 2010.06.03 11:33:40.
