data_PCOD9148669
_publ_section_title
;
Structure prediction by ZEFSAII (Michael W. Deem and Ramdas Pophale) SiO2 
 PCOD9148669
Probable space group: P 2/M
;
_chemical_formula_sum "Si O2"
_cell_formula_units_Z 28
_cell_length_a 12.127426
_cell_length_b 21.003507
_cell_length_c 17.860573
_cell_angle_alpha 90.000000
_cell_angle_beta 159.660057
_cell_angle_gamma 90.000000
_cell_volume 1581.329475
_symmetry_space_group_name_H-M "P 2/M"
_symmetry_group_IT_number 10
_symmetry_cell_setting 'monoclinic'
loop_
_space_group_symop_operation_xyz
x,y,z
-x,y,-z
-x,-y,-z
x,-y,z
loop_
_atom_site_type_symbol
_atom_site_label
_atom_site_fract_x
_atom_site_fract_y
_atom_site_fract_z
Si Si1 0.684204 0.600263 0.850314
Si Si2 0.479494 0.173932 0.901552
Si Si3 0.756777 0.145462 0.452369
Si Si4 0.265462 0.074716 0.035076
Si Si5 0.382643 0.500000 0.550181
Si Si6 0.983901 0.500000 0.148669
Si Si7 0.565749 0.071873 0.629870
Si Si8 0.644172 0.273021 0.301215
O O1 0.436493 0.560198 0.640466
O O2 0.539580 0.666336 0.785723
O O3 0.000000 0.608004 0.000000
O O4 0.788848 0.559852 0.990544
O O5 0.719897 0.118980 0.028893
O O6 0.510257 0.234063 0.866213
O O7 0.127806 0.143650 0.670893
O O8 0.500000 0.193845 0.000000
O O9 0.554343 0.100255 0.268818
O O10 0.650571 0.121805 0.465434
O O11 0.666284 0.218531 0.378713
O O12 0.286012 0.000000 0.030982
O O13 0.940243 0.085365 0.873190
O O14 0.088184 0.500000 0.303106
O O15 0.689886 0.500000 0.691492
O O16 0.500000 0.071382 0.500000
O O17 0.505843 0.000000 0.620820
O O18 0.000000 0.289542 0.500000
#
# Coordination Sequence:
#
# PCOD9148669 Si02
#       8
#     4   4   4   4   2   2   4   4
#     4   9  17  32  57  84 108 142 179 213 256 307
#     4  10  21  37  53  71  99 137 178 218 264 314
#     4  10  20  35  53  70  99 140 177 210 260 322
#     4  10  20  33  52  76  99 129 170 218 271 322
#     4   8  15  31  56  82 117 143 166 219 257 300
#     4   8  15  31  54  84 116 140 172 212 260 302
#     4  10  20  33  51  77 105 130 164 220 280 319
#     4   9  20  37  52  72 105 142 173 213 261 305
#
# _framework density 17.706620000000001
#
# number of rings (size 3 to 8) (size 9 to 14) (size 15 to 20)
#    0.000    2.571    0.000    3.857    0.000    5.429 
#    5.143    1.429    3.143    0.857    0.000    0.000 
#    0.000    0.000    0.000    0.000    0.000    0.000 
#
# Total GULP energy -155971.471406 kJ/mol
# GULP energy per Si atom -5570.409693 kJ/mol
# Density = 1.766632 g / cm^3
# Si number density = 17.706620 Si / 1000 Ang^3
#
#
#
# Elastic Constant Matrix: (Units=GPa)
#
#
# Indices 1 2 3 4 5 6 
#
# 1 94.0799 73.1008 40.1501 0.0000 -9.8216 0.0000
# 2 73.1008 129.7761 45.6386 0.0000 10.6265 0.0000
# 3 40.1501 45.6386 73.8338 0.0000 -13.4655 0.0000
# 4 0.0000 0.0000 0.0000 8.0784 0.0000 -12.1460
# 5 -9.8216 10.6265 -13.4655 0.0000 20.1779 0.0000
# 6 0.0000 0.0000 0.0000 -12.1460 0.0000 -44.8377
#
#
#
# Elastic Compliance Matrix: (Units=1/GPa)
#
#
# Indices 1 2 3 4 5 6 
#
# 1 0.025026 -0.015684 -0.000212 0.000000 0.020300 0.000000
# 2 -0.015684 0.022130 -0.009869 0.000000 -0.025874 0.000000
# 3 -0.000212 -0.009869 0.023555 0.000000 0.020813 0.000000
# 4 0.000000 0.000000 0.000000 0.087961 0.000000 -0.023828
# 5 0.020300 -0.025874 0.020813 0.000000 0.086956 0.000000
# 6 0.000000 0.000000 0.000000 -0.023828 0.000000 -0.015848
#
#
# Mechanical properties :
#
#
# Convention : Reuss Voigt Hill
#
# Bulk Modulus (GPa) = 52.13524 68.38542 60.26033
# Shear Modulus (GPa) = 17.37903 5.93706 11.65805
#
# Velocity S-wave (km/s) = 3.13629 1.83311 2.56872
# Velocity P-wave (km/s) = 6.52862 6.57158 6.55014
#
# Compressibility (1/GPa) = 0.01918088
#
# Stress axis : x y z
#
# Youngs Moduli (GPa) = 39.95884 45.18839 42.45395
#
# Poissons Ratio (x) = 0.70875 0.00898
# Poissons Ratio (y) = 0.62673 0.41896
# Poissons Ratio (z) = 0.00845 0.44595
#
# Static dielectric constant tensor:
#      x y z
#    x 1.636840 0.000000 -0.046080 
#    y 0.000000 1.577530 0.000000 
#    z -0.046080 0.000000 1.666500 
# 
# From -- ./inp_files/77229.got.cif
#   From: 2010.05.17/outbox.cif.g08.bks.cpg/sg10_39_cif.got.tgz:77229.got - 2010.06.03 11:33:40.
