data_PCOD9148869
_publ_section_title
;
Structure prediction by ZEFSAII (Michael W. Deem and Ramdas Pophale) SiO2 
 PCOD9148869
Probable space group: P 2/M
;
_chemical_formula_sum "Si O2"
_cell_formula_units_Z 18
_cell_length_a 17.302433
_cell_length_b 10.742223
_cell_length_c 8.001764
_cell_angle_alpha 90.000000
_cell_angle_beta 40.409477
_cell_angle_gamma 90.000000
_cell_volume 964.110530
_symmetry_space_group_name_H-M "P 2/M"
_symmetry_group_IT_number 10
_symmetry_cell_setting 'monoclinic'
loop_
_space_group_symop_operation_xyz
x,y,z
-x,y,-z
-x,-y,-z
x,-y,z
loop_
_atom_site_type_symbol
_atom_site_label
_atom_site_fract_x
_atom_site_fract_y
_atom_site_fract_z
Si Si1 0.019283 0.849442 0.777703
Si Si2 0.724704 0.854246 0.766251
Si Si3 0.500000 0.708395 0.000000
Si Si4 0.757541 0.854289 0.102775
Si Si5 0.403420 0.363341 0.510019
O O1 0.145064 0.803488 0.500181
O O2 0.027576 0.000000 0.762963
O O3 0.000000 0.808857 0.000000
O O4 0.898138 0.822509 0.877653
O O5 0.616059 0.788143 0.855774
O O6 0.721016 0.000000 0.728597
O O7 0.714081 0.845147 0.983774
O O8 0.533550 0.638646 0.773983
O O9 0.684747 0.754260 0.329619
O O10 0.743813 0.000000 0.180120
O O11 0.500000 0.350638 0.500000
O O12 0.345114 0.500000 0.627852
#
# Coordination Sequence:
#
# PCOD9148869 Si02
#       5
#     4   4   2   4   4
#     4   9  17  31  53  83 119 155 191 236 292 346
#     4  10  20  33  55  90 124 155 192 241 294 344
#     4  12  22  38  60  86 115 160 199 242 281 356
#     4  10  20  37  61  88 118 153 196 244 291 345
#     4  11  24  42  61  84 118 157 196 242 295 352
#
# _framework density 18.670057
#
# number of rings (size 3 to 8) (size 9 to 14) (size 15 to 20)
#    0.000    1.778    2.222    2.667    0.000    6.667 
#    0.000    0.000    0.000   10.000    0.000    0.000 
#    0.000    0.000    0.000    0.000    0.000    0.000 
#
# Total GULP energy -100388.330700 kJ/mol
# GULP energy per Si atom -5577.129483 kJ/mol
# Density = 1.862756 g / cm^3
# Si number density = 18.670057 Si / 1000 Ang^3
#
#
#
# Elastic Constant Matrix: (Units=GPa)
#
#
# Indices 1 2 3 4 5 6 
#
# 1 108.7903 35.5906 33.3763 0.0000 -10.6337 0.0000
# 2 35.5906 87.8585 62.6079 0.0000 -8.9906 0.0000
# 3 33.3763 62.6079 108.3386 0.0000 -2.5993 0.0000
# 4 0.0000 0.0000 0.0000 55.3296 0.0000 29.1135
# 5 -10.6337 -8.9906 -2.5993 0.0000 27.6820 0.0000
# 6 0.0000 0.0000 0.0000 29.1135 0.0000 12.5461
#
#
#
# Elastic Compliance Matrix: (Units=1/GPa)
#
#
# Indices 1 2 3 4 5 6 
#
# 1 0.010957 -0.003010 -0.001562 0.000000 0.003085 0.000000
# 2 -0.003010 0.020969 -0.011080 0.000000 0.004614 0.000000
# 3 -0.001562 -0.011080 0.016050 0.000000 -0.002692 0.000000
# 4 0.000000 0.000000 0.000000 -0.081773 0.000000 0.189756
# 5 0.003085 0.004614 -0.002692 0.000000 0.038555 0.000000
# 6 0.000000 0.000000 0.000000 0.189756 0.000000 -0.360628
#
#
# Mechanical properties :
#
#
# Convention : Reuss Voigt Hill
#
# Bulk Modulus (GPa) = 59.97919 63.12635 61.55277
# Shear Modulus (GPa) = -15.67359 30.67238 7.49940
#
# Velocity S-wave (km/s) = -2.90056 4.05762 2.00637
# Velocity P-wave (km/s) = 4.58017 7.47244 6.19739
#
# Compressibility (1/GPa) = 0.01667245
#
# Stress axis : x y z
#
# Youngs Moduli (GPa) = 91.26173 47.69029 62.30553
#
# Poissons Ratio (x) = 0.14353 0.09735
# Poissons Ratio (y) = 0.27467 0.69033
# Poissons Ratio (z) = 0.14259 0.52839
#
# Static dielectric constant tensor:
#      x y z
#    x 1.648410 0.000000 0.015550 
#    y 0.000000 1.631370 0.000000 
#    z 0.015550 0.000000 1.660720 
# 
# From -- ./inp_files/22042.got.cif
#   From: 2010.05.17/outbox.cif.g08.bks.cpg/sg10_12_cif.got.tgz:22042.got - 2010.06.03 11:33:40.
