data_PCOD9148318
_publ_section_title
;
Structure prediction by ZEFSAII (Michael W. Deem and Ramdas Pophale) SiO2 
 PCOD9148318
Probable space group: P 2/M
;
_chemical_formula_sum "Si O2"
_cell_formula_units_Z 32
_cell_length_a 24.019656
_cell_length_b 7.614036
_cell_length_c 12.729809
_cell_angle_alpha 90.000000
_cell_angle_beta 136.215748
_cell_angle_gamma 90.000000
_cell_volume 1610.923908
_symmetry_space_group_name_H-M "P 2/M"
_symmetry_group_IT_number 10
_symmetry_cell_setting 'monoclinic'
loop_
_space_group_symop_operation_xyz
x,y,z
-x,y,-z
-x,-y,-z
x,-y,z
loop_
_atom_site_type_symbol
_atom_site_label
_atom_site_fract_x
_atom_site_fract_y
_atom_site_fract_z
Si Si1 0.354879 0.710804 0.975335
Si Si2 0.836993 0.703472 0.660022
Si Si3 0.223339 0.789378 0.967646
Si Si4 0.305278 0.716438 0.676215
Si Si5 0.474898 0.702252 0.842388
Si Si6 0.188516 0.200251 0.146767
Si Si7 0.954609 0.213386 0.333277
Si Si8 0.009851 0.296391 0.849807
O O1 0.362098 0.500000 0.975592
O O2 0.298110 0.748639 0.995782
O O3 0.315078 0.771038 0.810993
O O4 0.446594 0.780633 0.106812
O O5 0.849358 0.500000 0.647815
O O6 0.775256 0.777852 0.490809
O O7 0.799684 0.711221 0.725087
O O8 0.927193 0.778898 0.783404
O O9 0.138952 0.730260 0.800702
O O10 0.217273 0.000000 0.968429
O O11 0.226546 0.721715 0.092019
O O12 0.306049 0.500000 0.675470
O O13 0.385143 0.777360 0.722246
O O14 0.466898 0.500000 0.795750
O O15 0.500000 0.699048 0.000000
O O16 0.215577 0.000000 0.195349
O O17 0.092612 0.203824 0.993300
O O18 0.000000 0.270273 0.500000
O O19 0.995899 0.283143 0.283987
O O20 0.956987 0.000000 0.332805
O O21 0.020346 0.500000 0.896719
#
# Coordination Sequence:
#
# PCOD9148318 Si02
#       8
#     4   4   4   4   4   4   4   4
#     4   9  16  27  50  77  97 122 158 190 224 285
#     4  10  20  32  49  73  99 123 153 201 249 284
#     4   9  19  33  47  66  92 123 158 198 238 273
#     4   8  15  28  46  72 104 127 146 185 240 285
#     4   7  11  23  44  70  97 125 153 182 222 278
#     4  10  21  37  52  65  89 128 171 203 234 281
#     4   9  19  34  48  64  94 134 167 194 230 280
#     4  10  20  32  48  72  97 122 157 201 247 286
#
# _framework density 19.864377999999999
#
# number of rings (size 3 to 8) (size 9 to 14) (size 15 to 20)
#    0.000    3.000    0.000    3.375    1.750    5.250 
#    0.000    0.625    0.000    4.875    0.000    5.250 
#    0.000    0.000    0.000    0.000    0.000    0.000 
#
# Total GULP energy -178345.573483 kJ/mol
# GULP energy per Si atom -5573.299171 kJ/mol
# Density = 1.981917 g / cm^3
# Si number density = 19.864378 Si / 1000 Ang^3
#
#
#
# Elastic Constant Matrix: (Units=GPa)
#
#
# Indices 1 2 3 4 5 6 
#
# 1 142.2725 -4.6534 19.3112 0.0000 -2.1239 0.0000
# 2 -4.6534 40.4199 -5.3667 0.0000 1.6421 0.0000
# 3 19.3112 -5.3667 25.0730 0.0000 -8.6102 0.0000
# 4 0.0000 0.0000 0.0000 6.5338 0.0000 -8.0904
# 5 -2.1239 1.6421 -8.6102 0.0000 19.7649 0.0000
# 6 0.0000 0.0000 0.0000 -8.0904 0.0000 25.1497
#
#
#
# Elastic Compliance Matrix: (Units=1/GPa)
#
#
# Indices 1 2 3 4 5 6 
#
# 1 0.007925 0.000094 -0.006813 0.000000 -0.002124 0.000000
# 2 0.000094 0.025467 0.005474 0.000000 0.000279 0.000000
# 3 -0.006813 0.005474 0.053968 0.000000 0.022323 0.000000
# 4 0.000000 0.000000 0.000000 0.254374 0.000000 0.081830
# 5 -0.002124 0.000279 0.022323 0.000000 0.060068 0.000000
# 6 0.000000 0.000000 0.000000 0.081830 0.000000 0.066086
#
#
# Mechanical properties :
#
#
# Convention : Reuss Voigt Hill
#
# Bulk Modulus (GPa) = 11.78262 25.14973 18.46617
# Shear Modulus (GPa) = 10.02673 23.52133 16.77403
#
# Velocity S-wave (km/s) = 2.24912 3.44480 2.90906
# Velocity P-wave (km/s) = 3.56218 5.33952 4.53870
#
# Compressibility (1/GPa) = 0.08487078
#
# Stress axis : x y z
#
# Youngs Moduli (GPa) = 126.18469 39.26708 18.52933
#
# Poissons Ratio (x) = -0.00369 0.12624
# Poissons Ratio (y) = -0.01187 -0.10144
# Poissons Ratio (z) = 0.85970 -0.21496
#
# Static dielectric constant tensor:
#      x y z
#    x 1.728120 0.000000 0.015480 
#    y 0.000000 1.738170 0.000000 
#    z 0.015480 0.000000 1.692400 
# 
# From -- ./inp_files/56445.got.cif
#   From: 2010.05.17/outbox.cif.g08.bks.cpg/sg10_29_cif.got.tgz:56445.got - 2010.06.03 11:33:40.
