data_PCOD9148098
_publ_section_title
;
Structure prediction by ZEFSAII (Michael W. Deem and Ramdas Pophale) SiO2 
 PCOD9148098
Probable space group: P 2/M
;
_chemical_formula_sum "Si O2"
_cell_formula_units_Z 32
_cell_length_a 16.113632
_cell_length_b 20.105481
_cell_length_c 16.825741
_cell_angle_alpha 90.000000
_cell_angle_beta 17.436187
_cell_angle_gamma 90.000000
_cell_volume 1633.378537
_symmetry_space_group_name_H-M "P 2/M"
_symmetry_group_IT_number 10
_symmetry_cell_setting 'monoclinic'
loop_
_space_group_symop_operation_xyz
x,y,z
-x,y,-z
-x,-y,-z
x,-y,z
loop_
_atom_site_type_symbol
_atom_site_label
_atom_site_fract_x
_atom_site_fract_y
_atom_site_fract_z
Si Si1 0.284917 0.925568 0.005579
Si Si2 0.077966 0.763896 0.598343
Si Si3 0.309896 0.578044 0.549792
Si Si4 0.105846 0.106435 0.489883
Si Si5 0.327011 0.789531 0.895220
Si Si6 0.083035 0.388231 0.588821
Si Si7 0.149429 0.332366 0.944969
Si Si8 0.499916 0.576319 0.086690
O O1 0.577271 0.911932 0.782593
O O2 0.244791 0.867796 0.975920
O O3 0.282657 0.000000 0.974571
O O4 0.063395 0.920356 0.279410
O O5 0.068199 0.813936 0.533914
O O6 0.340120 0.787934 0.411425
O O7 0.146154 0.688670 0.517933
O O8 0.797736 0.766628 0.905555
O O9 0.334627 0.500000 0.550433
O O10 0.247345 0.582123 0.512918
O O11 0.578219 0.623335 0.320803
O O12 0.055038 0.617083 0.822447
O O13 0.000000 0.084750 0.500000
O O14 0.216111 0.734500 0.934518
O O15 0.206385 0.421419 0.397649
O O16 0.755920 0.394176 0.901807
O O17 0.000000 0.313004 0.000000
O O18 0.583676 0.500000 0.000837
O O19 0.500000 0.608912 0.000000
#
# Coordination Sequence:
#
# PCOD9148098 Si02
#       8
#     4   4   4   4   4   4   4   4
#     4  10  21  35  58  84 113 157 193 232 285 334
#     4  10  20  36  58  76 107 150 193 237 275 328
#     4  12  25  40  62  90 119 154 195 240 292 359
#     4  10  21  34  52  82 119 152 192 237 282 334
#     4  10  19  40  58  82 113 147 192 233 268 344
#     4  12  21  39  61  78 106 149 197 240 288 344
#     4  12  24  41  64  89 118 154 189 233 301 358
#     4  11  24  38  52  76 107 141 187 245 297 336
#
# _framework density 19.591294999999999
#
# number of rings (size 3 to 8) (size 9 to 14) (size 15 to 20)
#    0.000    1.125    2.500    4.500    0.000    5.000 
#    0.000    0.000    0.000    0.375    0.000    0.000 
#    0.000    8.000    0.000    0.000    0.000    1.250 
#
# Total GULP energy -178515.961724 kJ/mol
# GULP energy per Si atom -5578.623804 kJ/mol
# Density = 1.954670 g / cm^3
# Si number density = 19.591295 Si / 1000 Ang^3
#
#
#
# Elastic Constant Matrix: (Units=GPa)
#
#
# Indices 1 2 3 4 5 6 
#
# 1 52.1161 25.7982 -4.3390 0.0000 -2.9998 0.0000
# 2 25.7982 150.4043 -0.4225 0.0000 -4.0790 0.0000
# 3 -4.3390 -0.4225 77.6141 0.0000 -8.6018 0.0000
# 4 0.0000 0.0000 0.0000 15.2838 0.0000 6.2291
# 5 -2.9998 -4.0790 -8.6018 0.0000 19.8399 0.0000
# 6 0.0000 0.0000 0.0000 6.2291 0.0000 5.3664
#
#
#
# Elastic Compliance Matrix: (Units=1/GPa)
#
#
# Indices 1 2 3 4 5 6 
#
# 1 0.021255 -0.003556 0.001517 0.000000 0.003140 0.000000
# 2 -0.003556 0.007284 -0.000055 0.000000 0.000936 0.000000
# 3 0.001517 -0.000055 0.013649 0.000000 0.006136 0.000000
# 4 0.000000 0.000000 0.000000 0.124174 0.000000 -0.144137
# 5 0.003140 0.000936 0.006136 0.000000 0.053731 0.000000
# 6 0.000000 0.000000 0.000000 -0.144137 0.000000 0.353654
#
#
# Mechanical properties :
#
#
# Convention : Reuss Voigt Hill
#
# Bulk Modulus (GPa) = 26.31691 35.80087 31.05889
# Shear Modulus (GPa) = 8.46592 25.37120 16.91856
#
# Velocity S-wave (km/s) = 2.08102 3.60255 2.94185
# Velocity P-wave (km/s) = 4.38592 5.96808 5.23710
#
# Compressibility (1/GPa) = 0.03799838
#
# Stress axis : x y z
#
# Youngs Moduli (GPa) = 47.04667 137.28735 73.26673
#
# Poissons Ratio (x) = 0.48825 -0.11114
# Poissons Ratio (y) = 0.16732 0.00406
# Poissons Ratio (z) = -0.07137 0.00761
#
# Static dielectric constant tensor:
#      x y z
#    x 1.695420 0.000000 -0.011210 
#    y 0.000000 1.725580 0.000000 
#    z -0.011210 0.000000 1.688700 
# 
# From -- ./inp_files/67942.got.cif
#   From: 2010.05.17/outbox.cif.g08.bks.cpg/sg10_34_cif.got.tgz:67942.got - 2010.06.03 11:33:40.
