data_PCOD9148912
_publ_section_title
;
Structure prediction by ZEFSAII (Michael W. Deem and Ramdas Pophale) SiO2 
 PCOD9148912
Probable space group: P 2/M
;
_chemical_formula_sum "Si O2"
_cell_formula_units_Z 32
_cell_length_a 11.337977
_cell_length_b 13.831871
_cell_length_c 12.105788
_cell_angle_alpha 90.000000
_cell_angle_beta 88.066745
_cell_angle_gamma 90.000000
_cell_volume 1897.414856
_symmetry_space_group_name_H-M "P 2/M"
_symmetry_group_IT_number 10
_symmetry_cell_setting 'monoclinic'
loop_
_space_group_symop_operation_xyz
x,y,z
-x,y,-z
-x,-y,-z
x,-y,z
loop_
_atom_site_type_symbol
_atom_site_label
_atom_site_fract_x
_atom_site_fract_y
_atom_site_fract_z
Si Si1 0.989363 0.272852 0.133341
Si Si2 0.327727 0.303449 0.438138
Si Si3 0.204445 0.383521 0.239532
Si Si4 0.753483 0.609523 0.158656
Si Si5 0.385911 0.610803 0.059209
Si Si6 0.196565 0.886375 0.487137
Si Si7 0.570997 0.385993 0.350709
Si Si8 0.012795 0.112744 0.684680
O O1 0.091885 0.341109 0.180011
O O2 0.863935 0.321317 0.164266
O O3 0.996226 0.175716 0.205325
O O4 0.000000 0.261787 0.000000
O O5 0.225734 0.345234 0.362110
O O6 0.298310 0.192088 0.464821
O O7 0.453934 0.323898 0.376326
O O8 0.340489 0.362342 0.551641
O O9 0.201287 0.500000 0.237893
O O10 0.319918 0.349017 0.167028
O O11 0.787008 0.500000 0.190217
O O12 0.640755 0.636003 0.236677
O O13 0.710845 0.607184 0.033901
O O14 0.421511 0.500000 0.088068
O O15 0.500000 0.658329 0.000000
O O16 0.124014 0.862747 0.601717
O O17 0.102165 0.876072 0.390068
O O18 0.231427 0.000000 0.490109
O O19 0.538739 0.500000 0.353204
O O20 0.022896 0.000000 0.711843
#
# Coordination Sequence:
#
# PCOD9148912 Si02
#       8
#     4   4   4   4   4   4   4   4
#     4  12  22  34  53  79 110 139 176 224 276 316
#     4  11  19  34  55  79 106 137 181 220 262 318
#     4  11  21  32  49  76 109 143 179 219 263 313
#     4  10  20  34  49  71 107 146 181 214 257 308
#     4   9  17  30  48  68  94 136 185 221 247 293
#     4   9  18  35  60  82 104 133 172 225 274 320
#     4  10  21  35  52  76 110 151 182 215 258 308
#     4   9  19  37  57  79 105 136 174 218 271 329
#
# _framework density 16.865053
#
# number of rings (size 3 to 8) (size 9 to 14) (size 15 to 20)
#    0.000    1.875    2.500    4.125    0.000    2.750 
#    0.000    1.250    0.000    3.750    0.000    0.000 
#    0.000    4.500    0.000    0.000    0.000    0.000 
#
# Total GULP energy -178375.195348 kJ/mol
# GULP energy per Si atom -5574.224855 kJ/mol
# Density = 1.682667 g / cm^3
# Si number density = 16.865053 Si / 1000 Ang^3
#
#
#
# Elastic Constant Matrix: (Units=GPa)
#
#
# Indices 1 2 3 4 5 6 
#
# 1 55.7373 42.3912 11.5734 0.0000 -3.6184 0.0000
# 2 42.3912 83.2235 36.9421 0.0000 -10.4299 0.0000
# 3 11.5734 36.9421 88.0690 0.0000 8.5304 0.0000
# 4 0.0000 0.0000 0.0000 22.0383 0.0000 0.8363
# 5 -3.6184 -10.4299 8.5304 0.0000 25.9104 0.0000
# 6 0.0000 0.0000 0.0000 0.8363 0.0000 27.8043
#
#
#
# Elastic Compliance Matrix: (Units=1/GPa)
#
#
# Indices 1 2 3 4 5 6 
#
# 1 0.030303 -0.017649 0.003821 0.000000 -0.004131 0.000000
# 2 -0.017649 0.026972 -0.010131 0.000000 0.011728 0.000000
# 3 0.003821 -0.010131 0.015954 0.000000 -0.008797 0.000000
# 4 0.000000 0.000000 0.000000 0.045427 0.000000 -0.001366
# 5 -0.004131 0.011728 -0.008797 0.000000 0.045635 0.000000
# 6 0.000000 0.000000 0.000000 -0.001366 0.000000 0.036007
#
#
# Mechanical properties :
#
#
# Convention : Reuss Voigt Hill
#
# Bulk Modulus (GPa) = 39.50685 45.42704 42.46695
# Shear Modulus (GPa) = 19.48157 24.22547 21.85352
#
# Velocity S-wave (km/s) = 3.40243 3.79414 3.60361
# Velocity P-wave (km/s) = 6.23791 6.79618 6.52302
#
# Compressibility (1/GPa) = 0.02531206
#
# Stress axis : x y z
#
# Youngs Moduli (GPa) = 33.00032 37.07502 62.67959
#
# Poissons Ratio (x) = 0.65434 -0.23950
# Poissons Ratio (y) = 0.58242 0.63499
# Poissons Ratio (z) = -0.12610 0.37560
#
# Static dielectric constant tensor:
#      x y z
#    x 1.590460 0.000000 0.003010 
#    y 0.000000 1.548180 0.000000 
#    z 0.003010 0.000000 1.590210 
# 
# From -- ./inp_files/46690.got.cif
#   From: 2010.05.17/outbox.cif.g08.bks.cpg/sg10_24_cif.got.tgz:46690.got - 2010.06.03 11:33:40.
