data_PCOD9148598
_publ_section_title
;
Structure prediction by ZEFSAII (Michael W. Deem and Ramdas Pophale) SiO2 
 PCOD9148598
Probable space group: P 2/M
;
_chemical_formula_sum "Si O2"
_cell_formula_units_Z 28
_cell_length_a 12.365958
_cell_length_b 13.446470
_cell_length_c 13.858789
_cell_angle_alpha 90.000000
_cell_angle_beta 147.257249
_cell_angle_gamma 90.000000
_cell_volume 1246.386317
_symmetry_space_group_name_H-M "P 2/M"
_symmetry_group_IT_number 10
_symmetry_cell_setting 'monoclinic'
loop_
_space_group_symop_operation_xyz
x,y,z
-x,y,-z
-x,-y,-z
x,-y,z
loop_
_atom_site_type_symbol
_atom_site_label
_atom_site_fract_x
_atom_site_fract_y
_atom_site_fract_z
Si Si1 0.287825 0.811874 0.795888
Si Si2 0.377177 0.313842 0.569202
Si Si3 0.870232 0.831324 0.118411
Si Si4 0.565856 0.106722 0.277285
Si Si5 0.810887 0.310401 0.906584
Si Si6 0.767883 0.393181 0.348641
Si Si7 0.274213 0.178057 0.331130
O O1 0.132937 0.819178 0.767919
O O2 0.277773 0.880407 0.693968
O O3 0.311217 0.700742 0.770514
O O4 0.500000 0.839543 0.000000
O O5 0.400815 0.202672 0.632324
O O6 0.597234 0.360947 0.735710
O O7 0.250050 0.373034 0.550754
O O8 0.298082 0.284556 0.405455
O O9 0.082353 0.872215 0.237895
O O10 0.664234 0.886572 0.934260
O O11 0.846152 0.726514 0.042192
O O12 0.593603 0.000000 0.345637
O O13 0.785061 0.209592 0.821464
O O14 0.000000 0.362327 0.000000
O O15 0.674657 0.500000 0.254605
O O16 0.000000 0.395985 0.500000
O O17 0.500000 0.134115 0.500000
#
# Coordination Sequence:
#
# PCOD9148598 Si02
#       7
#     4   4   4   4   4   4   4
#     4   9  18  31  50  76 102 127 160 199 238 286
#     4   9  17  31  52  73  98 129 161 200 241 283
#     4   9  16  28  48  71  97 126 160 200 240 284
#     4   9  18  32  50  73 100 129 160 195 240 293
#     4   8  15  28  49  73  94 124 164 201 244 288
#     4  10  20  33  50  74 103 132 160 192 237 294
#     4   9  16  28  50  72  92 126 167 203 241 280
#
# _framework density 22.464946999999999
#
# number of rings (size 3 to 8) (size 9 to 14) (size 15 to 20)
#    0.000    3.000    0.000    1.714    0.000    2.857 
#    0.000    0.714    0.000   72.857    0.000    4.000 
#    0.000    0.000    0.000    0.000    0.000    0.000 
#
# Total GULP energy -155877.271482 kJ/mol
# GULP energy per Si atom -5567.045410 kJ/mol
# Density = 2.241382 g / cm^3
# Si number density = 22.464947 Si / 1000 Ang^3
#
#
#
# Elastic Constant Matrix: (Units=GPa)
#
#
# Indices 1 2 3 4 5 6 
#
# 1 162.2548 7.5844 18.7249 0.0000 17.4974 0.0000
# 2 7.5844 48.0452 -10.2099 0.0000 4.6873 0.0000
# 3 18.7249 -10.2099 59.2602 0.0000 9.7917 0.0000
# 4 0.0000 0.0000 0.0000 4.4786 0.0000 -3.8775
# 5 17.4974 4.6873 9.7917 0.0000 30.9536 0.0000
# 6 0.0000 0.0000 0.0000 -3.8775 0.0000 -13.9394
#
#
#
# Elastic Compliance Matrix: (Units=1/GPa)
#
#
# Indices 1 2 3 4 5 6 
#
# 1 0.006759 -0.001156 -0.001828 0.000000 -0.003067 0.000000
# 2 -0.001156 0.022469 0.004949 0.000000 -0.004315 0.000000
# 3 -0.001828 0.004949 0.019265 0.000000 -0.005810 0.000000
# 4 0.000000 0.000000 0.000000 0.179947 0.000000 -0.050056
# 5 -0.003067 -0.004315 -0.005810 0.000000 0.036532 0.000000
# 6 0.000000 0.000000 0.000000 -0.050056 0.000000 -0.057815
#
#
# Mechanical properties :
#
#
# Convention : Reuss Voigt Hill
#
# Bulk Modulus (GPa) = 19.07551 33.52881 26.30216
# Shear Modulus (GPa) = 22.65512 21.19596 21.92554
#
# Velocity S-wave (km/s) = 3.17908 3.07500 3.12747
# Velocity P-wave (km/s) = 4.68882 5.25022 4.97744
#
# Compressibility (1/GPa) = 0.05242323
#
# Stress axis : x y z
#
# Youngs Moduli (GPa) = 147.95237 44.50592 51.90728
#
# Poissons Ratio (x) = 0.05146 0.09489
# Poissons Ratio (y) = 0.17106 -0.25691
# Poissons Ratio (z) = 0.27046 -0.22028
#
# Static dielectric constant tensor:
#      x y z
#    x 1.921080 0.000000 0.012390 
#    y 0.000000 1.803510 0.000000 
#    z 0.012390 0.000000 1.890110 
# 
# From -- ./inp_files/64934.got.cif
#   From: 2010.05.17/outbox.cif.g08.bks.cpg/sg10_33_cif.got.tgz:64934.got - 2010.06.03 11:33:40.
