data_PCOD9148716
_publ_section_title
;
Structure prediction by ZEFSAII (Michael W. Deem and Ramdas Pophale) SiO2 
 PCOD9148716
Probable space group: P 2/M
;
_chemical_formula_sum "Si O2"
_cell_formula_units_Z 32
_cell_length_a 26.904364
_cell_length_b 7.506053
_cell_length_c 13.468886
_cell_angle_alpha 90.000000
_cell_angle_beta 30.557710
_cell_angle_gamma 90.000000
_cell_volume 1382.855082
_symmetry_space_group_name_H-M "P 2/M"
_symmetry_group_IT_number 10
_symmetry_cell_setting 'monoclinic'
loop_
_space_group_symop_operation_xyz
x,y,z
-x,y,-z
-x,-y,-z
x,-y,z
loop_
_atom_site_type_symbol
_atom_site_label
_atom_site_fract_x
_atom_site_fract_y
_atom_site_fract_z
Si Si1 0.142981 0.201939 0.339359
Si Si2 0.396127 0.702785 0.704865
Si Si3 0.106430 0.782998 0.615430
Si Si4 0.360263 0.296526 0.997989
Si Si5 0.894418 0.782499 0.029456
Si Si6 0.174838 0.793255 0.064312
Si Si7 0.465952 0.714591 0.166543
Si Si8 0.238947 0.788268 0.560355
O O1 0.096941 0.284044 0.518105
O O2 0.142346 0.282444 0.228628
O O3 0.105340 0.000000 0.394702
O O4 0.257419 0.197569 0.173559
O O5 0.500000 0.787343 0.500000
O O6 0.395595 0.500000 0.664739
O O7 0.393385 0.694502 0.827789
O O8 0.292808 0.786746 0.854126
O O9 0.198223 0.721546 0.523907
O O10 0.111677 0.000000 0.596973
O O11 0.008506 0.740493 0.844718
O O12 0.339986 0.500000 0.066966
O O13 0.450401 0.218932 0.903414
O O14 0.824813 0.718412 0.237572
O O15 0.886460 0.000000 0.041535
O O16 0.864268 0.717329 0.971497
O O17 0.145129 0.000000 0.118295
O O18 0.469691 0.500000 0.164192
O O19 0.353798 0.761419 0.378258
O O20 0.500000 0.774315 0.000000
O O21 0.222090 0.000000 0.586699
#
# Coordination Sequence:
#
# PCOD9148716 Si02
#       8
#     4   4   4   4   4   4   4   4
#     4   9  17  30  50  75  99 126 163 206 245 284
#     4   9  18  31  48  68  92 127 165 196 232 287
#     4   9  17  31  52  74  97 128 166 205 245 291
#     4   9  18  32  48  68  96 130 162 193 239 295
#     4   9  18  32  50  74 103 131 161 201 248 295
#     4   9  18  31  47  72 102 127 158 201 247 288
#     4  10  21  35  51  73 101 132 163 199 247 296
#     4  10  20  33  52  76  99 128 167 206 243 286
#
# _framework density 23.140529999999998
#
# number of rings (size 3 to 8) (size 9 to 14) (size 15 to 20)
#    0.000    2.750    0.000    1.125    1.750    3.000 
#    0.000    2.500    0.000    3.750    0.000    3.500 
#    0.000    0.000    0.000    0.000    0.000    0.000 
#
# Total GULP energy -178513.256292 kJ/mol
# GULP energy per Si atom -5578.539259 kJ/mol
# Density = 2.308786 g / cm^3
# Si number density = 23.140530 Si / 1000 Ang^3
#
#
#
# Elastic Constant Matrix: (Units=GPa)
#
#
# Indices 1 2 3 4 5 6 
#
# 1 79.4872 4.4229 -2.5444 0.0000 -4.1484 0.0000
# 2 4.4229 63.4708 -2.6203 0.0000 5.3977 0.0000
# 3 -2.5444 -2.6203 87.4232 0.0000 16.8616 0.0000
# 4 0.0000 0.0000 0.0000 13.3566 0.0000 -6.9227
# 5 -4.1484 5.3977 16.8616 0.0000 28.3767 0.0000
# 6 0.0000 0.0000 0.0000 -6.9227 0.0000 -4.1410
#
#
#
# Elastic Compliance Matrix: (Units=1/GPa)
#
#
# Indices 1 2 3 4 5 6 
#
# 1 0.012748 -0.001070 -0.000068 0.000000 0.002107 0.000000
# 2 -0.001070 0.016218 0.001220 0.000000 -0.003966 0.000000
# 3 -0.000068 0.001220 0.013011 0.000000 -0.007973 0.000000
# 4 0.000000 0.000000 0.000000 0.040113 0.000000 -0.067058
# 5 0.002107 -0.003966 -0.007973 0.000000 0.041040 0.000000
# 6 0.000000 0.000000 0.000000 -0.067058 0.000000 -0.129382
#
#
# Mechanical properties :
#
#
# Convention : Reuss Voigt Hill
#
# Bulk Modulus (GPa) = 23.73005 25.43307 24.58156
# Shear Modulus (GPa) = 655.26984 22.92667 339.09826
#
# Velocity S-wave (km/s) = 16.84590 3.15105 12.11845
# Velocity P-wave (km/s) = 19.71437 4.92477 14.36854
#
# Compressibility (1/GPa) = 0.04214066
#
# Stress axis : x y z
#
# Youngs Moduli (GPa) = 78.44353 61.66176 76.85802
#
# Poissons Ratio (x) = 0.06600 0.00519
# Poissons Ratio (y) = 0.08396 -0.09376
# Poissons Ratio (z) = 0.00530 -0.07522
#
# Static dielectric constant tensor:
#      x y z
#    x 1.893780 0.000000 0.003540 
#    y 0.000000 1.916870 0.000000 
#    z 0.003540 0.000000 1.861370 
# 
# From -- ./inp_files/72193.got.cif
#   From: 2010.05.17/outbox.cif.g08.bks.cpg/sg10_37_cif.got.tgz:72193.got - 2010.06.03 11:33:40.
