data_PCOD9148366
_publ_section_title
;
Structure prediction by ZEFSAII (Michael W. Deem and Ramdas Pophale) SiO2 
 PCOD9148366
Probable space group: P 2/M
;
_chemical_formula_sum "Si O2"
_cell_formula_units_Z 32
_cell_length_a 16.270322
_cell_length_b 9.194312
_cell_length_c 15.060337
_cell_angle_alpha 90.000000
_cell_angle_beta 128.395448
_cell_angle_gamma 90.000000
_cell_volume 1765.727338
_symmetry_space_group_name_H-M "P 2/M"
_symmetry_group_IT_number 10
_symmetry_cell_setting 'monoclinic'
loop_
_space_group_symop_operation_xyz
x,y,z
-x,y,-z
-x,-y,-z
x,-y,z
loop_
_atom_site_type_symbol
_atom_site_label
_atom_site_fract_x
_atom_site_fract_y
_atom_site_fract_z
Si Si1 0.143839 0.173635 0.774073
Si Si2 0.875503 0.163751 0.438747
Si Si3 0.419487 0.831496 0.640786
Si Si4 0.253880 0.829602 0.368332
Si Si5 0.565980 0.329984 0.179431
Si Si6 0.656984 0.670653 0.041909
Si Si7 0.920263 0.673587 0.643886
Si Si8 0.583290 0.666748 0.637747
O O1 0.170364 0.204742 0.687725
O O2 0.240307 0.231585 0.896600
O O3 0.036224 0.256701 0.723547
O O4 0.128921 0.000000 0.771092
O O5 0.868889 0.273457 0.515941
O O6 0.000000 0.154756 0.500000
O O7 0.840917 0.000000 0.442089
O O8 0.331585 0.818715 0.505730
O O9 0.383886 0.767100 0.710660
O O10 0.520038 0.741566 0.674621
O O11 0.446325 0.000000 0.667513
O O12 0.150806 0.741287 0.326327
O O13 0.317685 0.757880 0.330300
O O14 0.232640 0.000000 0.339106
O O15 0.574222 0.500000 0.209432
O O16 0.614801 0.314220 0.114680
O O17 0.442628 0.291960 0.085835
O O18 0.682135 0.500000 0.045580
O O19 0.924191 0.500000 0.650072
O O20 0.500000 0.665894 0.500000
O O21 0.610652 0.500000 0.675909
#
# Coordination Sequence:
#
# PCOD9148366 Si02
#       8
#     4   4   4   4   4   4   4   4
#     4  10  20  33  49  67  93 128 163 203 250 292
#     4   8  16  30  43  59  88 122 156 196 239 280
#     4  10  20  32  50  74 100 132 166 199 244 296
#     4  10  20  33  48  70 104 135 162 200 244 289
#     4   9  19  35  52  72  99 128 163 208 251 291
#     4   9  19  35  52  71  97 129 165 208 253 290
#     4  11  21  31  46  69  95 127 168 203 237 289
#     4   9  17  31  50  72  98 128 163 200 241 290
#
# _framework density 18.122845000000002
#
# number of rings (size 3 to 8) (size 9 to 14) (size 15 to 20)
#    0.000    2.500    0.000    4.125    1.750    6.750 
#    0.000    1.250    0.000    0.000    0.000    0.875 
#    0.000    7.000    0.000    0.000    0.000    0.000 
#
# Total GULP energy -178544.192612 kJ/mol
# GULP energy per Si atom -5579.506019 kJ/mol
# Density = 1.808160 g / cm^3
# Si number density = 18.122845 Si / 1000 Ang^3
#
#
#
# Elastic Constant Matrix: (Units=GPa)
#
#
# Indices 1 2 3 4 5 6 
#
# 1 80.7327 52.0086 -4.0388 0.0000 9.2887 0.0000
# 2 52.0086 103.7557 16.2525 0.0000 12.7320 0.0000
# 3 -4.0388 16.2525 23.8871 0.0000 9.1984 0.0000
# 4 0.0000 0.0000 0.0000 10.4779 0.0000 -2.0771
# 5 9.2887 12.7320 9.1984 0.0000 23.3057 0.0000
# 6 0.0000 0.0000 0.0000 -2.0771 0.0000 24.6334
#
#
#
# Elastic Compliance Matrix: (Units=1/GPa)
#
#
# Indices 1 2 3 4 5 6 
#
# 1 0.022147 -0.012520 0.015363 0.000000 -0.008051 0.000000
# 2 -0.012520 0.018118 -0.014804 0.000000 0.000935 0.000000
# 3 0.015363 -0.014804 0.063415 0.000000 -0.023065 0.000000
# 4 0.000000 0.000000 0.000000 0.097062 0.000000 0.008184
# 5 -0.008051 0.000935 -0.023065 0.000000 0.054709 0.000000
# 6 0.000000 0.000000 0.000000 0.008184 0.000000 0.041285
#
#
# Mechanical properties :
#
#
# Convention : Reuss Voigt Hill
#
# Bulk Modulus (GPa) = 12.53789 37.42446 24.98117
# Shear Modulus (GPa) = 14.39908 21.29359 17.84634
#
# Velocity S-wave (km/s) = 2.82179 3.43149 3.14147
# Velocity P-wave (km/s) = 4.18927 6.03286 5.19352
#
# Compressibility (1/GPa) = 0.07975826
#
# Stress axis : x y z
#
# Youngs Moduli (GPa) = 45.15326 55.19388 15.76906
#
# Poissons Ratio (x) = 0.69102 -0.24226
# Poissons Ratio (y) = 0.56531 0.23345
# Poissons Ratio (z) = -0.69369 0.81709
#
# Static dielectric constant tensor:
#      x y z
#    x 1.643670 0.000000 0.013770 
#    y 0.000000 1.605780 0.000000 
#    z 0.013770 0.000000 1.625580 
# 
# From -- ./inp_files/66569.got.cif
#   From: 2010.05.17/outbox.cif.g08.bks.cpg/sg10_34_cif.got.tgz:66569.got - 2010.06.03 11:33:40.
