data_PCOD9148303
_publ_section_title
;
Structure prediction by ZEFSAII (Michael W. Deem and Ramdas Pophale) SiO2 
 PCOD9148303
Probable space group: P 2/M
;
_chemical_formula_sum "Si O2"
_cell_formula_units_Z 32
_cell_length_a 14.495520
_cell_length_b 7.335065
_cell_length_c 20.688603
_cell_angle_alpha 90.000000
_cell_angle_beta 139.730672
_cell_angle_gamma 90.000000
_cell_volume 1421.863119
_symmetry_space_group_name_H-M "P 2/M"
_symmetry_group_IT_number 10
_symmetry_cell_setting 'monoclinic'
loop_
_space_group_symop_operation_xyz
x,y,z
-x,y,-z
-x,-y,-z
x,-y,z
loop_
_atom_site_type_symbol
_atom_site_label
_atom_site_fract_x
_atom_site_fract_y
_atom_site_fract_z
Si Si1 0.808495 0.722219 0.227475
Si Si2 0.116387 0.720869 0.359878
Si Si3 0.849518 0.794402 0.899016
Si Si4 0.559253 0.277119 0.461507
Si Si5 0.276285 0.278592 0.962978
Si Si6 0.034347 0.280310 0.170993
Si Si7 0.465302 0.292750 0.273470
Si Si8 0.438887 0.276352 0.810246
O O1 0.808802 0.500000 0.226900
O O2 0.746165 0.777188 0.123765
O O3 0.702587 0.779798 0.227331
O O4 0.973719 0.780741 0.321121
O O5 0.117493 0.500000 0.363817
O O6 0.276010 0.778505 0.461195
O O7 0.086433 0.771128 0.269647
O O8 0.700550 0.704662 0.835814
O O9 0.866411 0.796549 0.831006
O O10 0.845709 0.000000 0.922443
O O11 0.000000 0.707471 0.000000
O O12 0.500000 0.216334 0.500000
O O13 0.551675 0.500000 0.460432
O O14 0.478890 0.216291 0.353124
O O15 0.278440 0.500000 0.963559
O O16 0.131666 0.225664 0.923262
O O17 0.421362 0.218766 0.074327
O O18 0.041484 0.500000 0.170625
O O19 0.517349 0.500000 0.307107
O O20 0.548222 0.211874 0.256718
O O21 0.441597 0.500000 0.810660
#
# Coordination Sequence:
#
# PCOD9148303 Si02
#       8
#     4   4   4   4   4   4   4   4
#     4   8  13  21  35  59  93 125 146 175 228 280
#     4   8  14  25  43  68  94 119 150 187 229 275
#     4  11  23  35  46  64  93 125 150 179 229 283
#     4   9  16  27  44  65  89 118 153 193 234 273
#     4   8  13  21  37  62  89 117 148 182 223 270
#     4   9  16  28  48  70  89 116 156 193 221 261
#     4  10  20  32  48  69  90 118 158 196 226 264
#     4   9  15  23  36  59  91 120 149 188 227 263
#
# _framework density 22.505683999999999
#
# number of rings (size 3 to 8) (size 9 to 14) (size 15 to 20)
#    0.000    3.000    0.000    3.750    0.000    5.500 
#    0.000    0.625    0.000    7.125    0.000    3.500 
#    0.000   14.000    0.000    0.000    0.000    0.000 
#
# Total GULP energy -178599.278061 kJ/mol
# GULP energy per Si atom -5581.227439 kJ/mol
# Density = 2.245446 g / cm^3
# Si number density = 22.505684 Si / 1000 Ang^3
#
#
#
# Elastic Constant Matrix: (Units=GPa)
#
#
# Indices 1 2 3 4 5 6 
#
# 1 171.9184 4.9429 59.0328 0.0000 -1.1224 0.0000
# 2 4.9429 84.3272 3.3100 0.0000 -3.2750 0.0000
# 3 59.0328 3.3100 111.4689 0.0000 10.5367 0.0000
# 4 0.0000 0.0000 0.0000 -6.7946 0.0000 -20.6748
# 5 -1.1224 -3.2750 10.5367 0.0000 28.3071 0.0000
# 6 0.0000 0.0000 0.0000 -20.6748 0.0000 -3.9917
#
#
#
# Elastic Compliance Matrix: (Units=1/GPa)
#
#
# Indices 1 2 3 4 5 6 
#
# 1 0.007197 -0.000198 -0.003970 0.000000 0.001740 0.000000
# 2 -0.000198 0.011945 -0.000393 0.000000 0.001520 0.000000
# 3 -0.003970 -0.000393 0.011509 0.000000 -0.004487 0.000000
# 4 0.000000 0.000000 0.000000 0.009971 0.000000 -0.051645
# 5 0.001740 0.001520 -0.004487 0.000000 0.037242 0.000000
# 6 0.000000 0.000000 0.000000 -0.051645 0.000000 0.016973
#
#
# Mechanical properties :
#
#
# Convention : Reuss Voigt Hill
#
# Bulk Modulus (GPa) = 46.45224 55.80953 51.13089
# Shear Modulus (GPa) = 44.98985 23.53275 34.26130
#
# Velocity S-wave (km/s) = 4.47592 3.23714 3.90595
# Velocity P-wave (km/s) = 6.88453 6.23088 6.56585
#
# Compressibility (1/GPa) = 0.02152749
#
# Stress axis : x y z
#
# Youngs Moduli (GPa) = 138.94666 83.71917 86.88524
#
# Poissons Ratio (x) = 0.01661 0.34494
# Poissons Ratio (y) = 0.02757 0.03417
# Poissons Ratio (z) = 0.55163 0.03293
#
# Static dielectric constant tensor:
#      x y z
#    x 1.811370 0.000000 -0.008960 
#    y 0.000000 1.874730 0.000000 
#    z -0.008960 0.000000 1.832940 
# 
# From -- ./inp_files/84769.got.cif
#   From: 2010.05.17/outbox.cif.g08.bks.cpg/sg10_43_cif.got.tgz:84769.got - 2010.06.03 11:33:40.
