data_PCOD9148619
_publ_section_title
;
Structure prediction by ZEFSAII (Michael W. Deem and Ramdas Pophale) SiO2 
 PCOD9148619
Probable space group: P 2/M
;
_chemical_formula_sum "Si O2"
_cell_formula_units_Z 22
_cell_length_a 9.432570
_cell_length_b 18.720519
_cell_length_c 5.169972
_cell_angle_alpha 90.000000
_cell_angle_beta 78.168271
_cell_angle_gamma 90.000000
_cell_volume 893.531073
_symmetry_space_group_name_H-M "P 2/M"
_symmetry_group_IT_number 10
_symmetry_cell_setting 'monoclinic'
loop_
_space_group_symop_operation_xyz
x,y,z
-x,y,-z
-x,-y,-z
x,-y,z
loop_
_atom_site_type_symbol
_atom_site_label
_atom_site_fract_x
_atom_site_fract_y
_atom_site_fract_z
Si Si1 0.675220 0.417727 0.238735
Si Si2 0.335648 0.079637 0.444028
Si Si3 0.500000 0.849703 0.000000
Si Si4 0.328910 0.725072 0.901586
Si Si5 0.830741 0.223410 0.510461
Si Si6 0.859296 0.582321 0.678616
O O1 0.624299 0.500000 0.207671
O O2 0.583361 0.347864 0.201731
O O3 0.734348 0.416956 0.507956
O O4 0.801915 0.399319 0.982627
O O5 0.500000 0.082736 0.500000
O O6 0.228061 0.144250 0.541217
O O7 0.280370 0.000000 0.507202
O O8 0.372132 0.098334 0.131850
O O9 0.561873 0.791665 0.177769
O O10 0.208731 0.730783 0.725113
O O11 0.254528 0.742249 0.209013
O O12 0.000000 0.219597 0.500000
O O13 0.900369 0.500000 0.707958
O O14 0.000000 0.618381 0.500000
#
# Coordination Sequence:
#
# PCOD9148619 Si02
#       6
#     4   4   2   4   4   4
#     4  10  20  33  50  77 109 147 203 256 303 353
#     4  10  20  39  68  95 123 161 207 251 292 357
#     4  10  21  40  63  90 122 160 214 256 291 366
#     4  11  23  39  62  85 121 169 208 254 310 366
#     4  11  24  41  61  94 132 164 199 247 312 374
#     4   9  17  29  46  69 100 138 184 240 295 351
#
# _framework density 24.621414000000001
#
# number of rings (size 3 to 8) (size 9 to 14) (size 15 to 20)
#    0.000    1.818    1.818    2.455    0.000    6.909 
#    0.000    0.455    0.000    3.273    0.000    7.636 
#    0.000    0.000    0.000    0.000    0.000    0.000 
#
# Total GULP energy -122626.010023 kJ/mol
# GULP energy per Si atom -5573.909546 kJ/mol
# Density = 2.456537 g / cm^3
# Si number density = 24.621414 Si / 1000 Ang^3
#
#
#
# Elastic Constant Matrix: (Units=GPa)
#
#
# Indices 1 2 3 4 5 6 
#
# 1 99.2647 29.8884 32.8053 0.0000 16.3104 0.0000
# 2 29.8884 207.2088 29.7576 0.0000 14.0247 0.0000
# 3 32.8053 29.7576 131.6447 0.0000 3.7188 0.0000
# 4 0.0000 0.0000 0.0000 15.9807 0.0000 11.1091
# 5 16.3104 14.0247 3.7188 0.0000 35.2105 0.0000
# 6 0.0000 0.0000 0.0000 11.1091 0.0000 16.0649
#
#
#
# Elastic Compliance Matrix: (Units=1/GPa)
#
#
# Indices 1 2 3 4 5 6 
#
# 1 0.012059 -0.001030 -0.002634 0.000000 -0.004898 0.000000
# 2 -0.001030 0.005202 -0.000877 0.000000 -0.001503 0.000000
# 3 -0.002634 -0.000877 0.008432 0.000000 0.000679 0.000000
# 4 0.000000 0.000000 0.000000 0.120501 0.000000 -0.083328
# 5 -0.004898 -0.001503 0.000679 0.000000 0.031196 0.000000
# 6 0.000000 0.000000 0.000000 -0.083328 0.000000 0.119870
#
#
# Mechanical properties :
#
#
# Convention : Reuss Voigt Hill
#
# Bulk Modulus (GPa) = 60.19748 69.22453 64.71100
# Shear Modulus (GPa) = 16.03185 36.49570 26.26378
#
# Velocity S-wave (km/s) = 2.55450 3.85421 3.26959
# Velocity P-wave (km/s) = 5.76220 6.92699 6.37127
#
# Compressibility (1/GPa) = 0.01661199
#
# Stress axis : x y z
#
# Youngs Moduli (GPa) = 82.92290 192.22629 118.60100
#
# Poissons Ratio (x) = 0.19793 0.31240
# Poissons Ratio (y) = 0.08539 0.10400
# Poissons Ratio (z) = 0.21842 0.16856
#
# Static dielectric constant tensor:
#      x y z
#    x 2.071350 0.000000 -0.048860 
#    y 0.000000 2.084580 0.000000 
#    z -0.048860 0.000000 2.154700 
# 
# From -- ./inp_files/7149.got.cif
#   From: 2010.05.17/outbox.cif.g08.bks.cpg/sg10_4_cif.got.tgz:7149.got - 2010.06.03 11:33:40.
