data_PCOD9148373
_publ_section_title
;
Structure prediction by ZEFSAII (Michael W. Deem and Ramdas Pophale) SiO2 
 PCOD9148373
Probable space group: P 2/M
;
_chemical_formula_sum "Si O2"
_cell_formula_units_Z 32
_cell_length_a 25.353452
_cell_length_b 7.792952
_cell_length_c 20.334904
_cell_angle_alpha 90.000000
_cell_angle_beta 159.114969
_cell_angle_gamma 90.000000
_cell_volume 1432.297890
_symmetry_space_group_name_H-M "P 2/M"
_symmetry_group_IT_number 10
_symmetry_cell_setting 'monoclinic'
loop_
_space_group_symop_operation_xyz
x,y,z
-x,y,-z
-x,-y,-z
x,-y,z
loop_
_atom_site_type_symbol
_atom_site_label
_atom_site_fract_x
_atom_site_fract_y
_atom_site_fract_z
Si Si1 0.569473 0.806772 0.919460
Si Si2 0.960739 0.207939 0.246453
Si Si3 0.364641 0.689288 0.141414
Si Si4 0.181908 0.294484 0.286874
Si Si5 0.567818 0.803155 0.644099
Si Si6 0.835445 0.707911 0.880324
Si Si7 0.106215 0.790557 0.682115
Si Si8 0.741246 0.205479 0.477894
O O1 0.599673 0.815790 0.876022
O O2 0.406119 0.725855 0.730235
O O3 0.559311 0.000000 0.935105
O O4 0.723167 0.728419 0.124760
O O5 0.105860 0.267534 0.376533
O O6 0.959568 0.252600 0.322825
O O7 0.951222 0.000000 0.229942
O O8 0.807919 0.287189 0.043059
O O9 0.391601 0.500000 0.146409
O O10 0.454627 0.714929 0.312745
O O11 0.192256 0.500000 0.297414
O O12 0.221508 0.236156 0.258809
O O13 0.258711 0.237089 0.443606
O O14 0.007601 0.248750 0.088640
O O15 0.500000 0.718519 0.500000
O O16 0.739945 0.795550 0.825004
O O17 0.520319 0.000000 0.594014
O O18 0.823259 0.500000 0.870599
O O19 0.000000 0.732839 0.500000
O O20 0.113524 0.000000 0.688754
O O21 0.737819 0.000000 0.465322
#
# Coordination Sequence:
#
# PCOD9148373 Si02
#       8
#     4   4   4   4   4   4   4   4
#     4   9  19  35  53  77 111 141 173 218 264 313
#     4   9  18  34  55  80 109 139 174 215 258 311
#     4  11  22  36  55  76 100 136 181 222 265 317
#     4   9  19  34  52  72  98 131 166 215 264 310
#     4  11  24  37  50  70  99 132 170 218 269 314
#     4   9  19  36  52  70  96 127 170 217 266 314
#     4   8  14  29  55  81 107 144 181 211 250 303
#     4  10  20  32  50  76 106 139 173 213 265 315
#
# _framework density 22.341721
#
# number of rings (size 3 to 8) (size 9 to 14) (size 15 to 20)
#    0.000    2.500    0.000    3.750    1.750    5.000 
#    0.000    1.875    0.000    9.750    0.000    0.000 
#    0.000    9.000    0.000    0.000    0.000    0.000 
#
# Total GULP energy -178615.252357 kJ/mol
# GULP energy per Si atom -5581.726636 kJ/mol
# Density = 2.229087 g / cm^3
# Si number density = 22.341721 Si / 1000 Ang^3
#
#
#
# Elastic Constant Matrix: (Units=GPa)
#
#
# Indices 1 2 3 4 5 6 
#
# 1 45.2275 0.3889 18.3968 0.0000 -4.1222 0.0000
# 2 0.3889 47.6387 2.7168 0.0000 -1.1130 0.0000
# 3 18.3968 2.7168 108.5110 0.0000 -15.2129 0.0000
# 4 0.0000 0.0000 0.0000 27.1954 0.0000 17.4749
# 5 -4.1222 -1.1130 -15.2129 0.0000 44.3207 0.0000
# 6 0.0000 0.0000 0.0000 17.4749 0.0000 -1.0981
#
#
#
# Elastic Compliance Matrix: (Units=1/GPa)
#
#
# Indices 1 2 3 4 5 6 
#
# 1 0.023780 0.000049 -0.003911 0.000000 0.000871 0.000000
# 2 0.000049 0.021027 -0.000483 0.000000 0.000367 0.000000
# 3 -0.003911 -0.000483 0.010335 0.000000 0.003172 0.000000
# 4 0.000000 0.000000 0.000000 0.003276 0.000000 0.052127
# 5 0.000871 0.000367 0.003172 0.000000 0.023742 0.000000
# 6 0.000000 0.000000 0.000000 0.052127 0.000000 -0.081123
#
#
# Mechanical properties :
#
#
# Convention : Reuss Voigt Hill
#
# Bulk Modulus (GPa) = 21.52725 27.15356 24.34040
# Shear Modulus (GPa) = 198.32822 26.07525 112.20174
#
# Velocity S-wave (km/s) = 9.43202 3.42001 7.09435
# Velocity P-wave (km/s) = 11.32580 5.27024 8.83315
#
# Compressibility (1/GPa) = 0.04645276
#
# Stress axis : x y z
#
# Youngs Moduli (GPa) = 42.05186 47.55778 96.75423
#
# Poissons Ratio (x) = -0.00234 0.37839
# Poissons Ratio (y) = -0.00207 0.04677
# Poissons Ratio (z) = 0.16446 0.02299
#
# Static dielectric constant tensor:
#      x y z
#    x 1.793780 0.000000 0.036740 
#    y 0.000000 1.815290 0.000000 
#    z 0.036740 0.000000 1.903210 
# 
# From -- ./inp_files/87035.got.cif
#   From: 2010.05.17/outbox.cif.g08.bks.cpg/sg10_44_cif.got.tgz:87035.got - 2010.06.03 11:33:40.
