data_PCOD9148514
_publ_section_title
;
Structure prediction by ZEFSAII (Michael W. Deem and Ramdas Pophale) SiO2 
 PCOD9148514
Probable space group: P 2/M
;
_chemical_formula_sum "Si O2"
_cell_formula_units_Z 28
_cell_length_a 19.785011
_cell_length_b 19.073518
_cell_length_c 22.686925
_cell_angle_alpha 90.000000
_cell_angle_beta 11.297944
_cell_angle_gamma 90.000000
_cell_volume 1677.264126
_symmetry_space_group_name_H-M "P 2/M"
_symmetry_group_IT_number 10
_symmetry_cell_setting 'monoclinic'
loop_
_space_group_symop_operation_xyz
x,y,z
-x,y,-z
-x,-y,-z
x,-y,z
loop_
_atom_site_type_symbol
_atom_site_label
_atom_site_fract_x
_atom_site_fract_y
_atom_site_fract_z
Si Si1 0.822321 0.330483 0.592016
Si Si2 0.174682 0.581457 0.191376
Si Si3 0.834480 0.917869 0.076757
Si Si4 0.405031 0.308503 0.646680
Si Si5 0.290038 0.653009 0.499052
Si Si6 0.357936 0.741209 0.902523
Si Si7 0.197097 0.163594 0.664289
O O1 0.665001 0.267957 0.686703
O O2 0.000000 0.306354 0.500000
O O3 0.078865 0.374213 0.331089
O O4 0.515233 0.384001 0.872222
O O5 0.225193 0.500000 0.160432
O O6 0.848832 0.592456 0.425233
O O7 0.468606 0.878052 0.392172
O O8 0.792063 0.000000 0.099907
O O9 0.000000 0.911087 0.000000
O O10 0.090434 0.882072 0.811615
O O11 0.500000 0.334098 0.500000
O O12 0.514770 0.359810 0.606504
O O13 0.614780 0.235811 0.476946
O O14 0.000000 0.294220 0.000000
O O15 0.513571 0.707032 0.268580
O O16 0.942432 0.692061 0.815328
O O17 0.162114 0.813829 0.059354
#
# Coordination Sequence:
#
# PCOD9148514 Si02
#       7
#     4   4   4   4   4   4   4
#     4  10  20  33  49  73 101 119 143 189 233 270
#     4  10  20  33  49  67  92 130 160 177 216 280
#     4  11  22  32  43  64  96 128 154 185 223 260
#     4  11  19  28  46  68  87 112 153 202 242 269
#     4   9  18  31  44  64  91 116 150 195 234 267
#     4   9  18  31  48  67  89 120 151 186 230 271
#     4  11  19  31  47  64  89 120 157 186 218 273
#
# _framework density 16.693850999999999
#
# number of rings (size 3 to 8) (size 9 to 14) (size 15 to 20)
#    0.000    1.857    0.000    7.286    0.000    2.857 
#    0.000    0.000    0.000    0.857    0.000    0.000 
#    0.000    3.429    0.000    0.000    0.000    0.000 
#
# Total GULP energy -156137.702249 kJ/mol
# GULP energy per Si atom -5576.346509 kJ/mol
# Density = 1.665586 g / cm^3
# Si number density = 16.693851 Si / 1000 Ang^3
#
#
#
# Elastic Constant Matrix: (Units=GPa)
#
#
# Indices 1 2 3 4 5 6 
#
# 1 106.7536 3.3571 19.4826 0.0000 -10.1613 0.0000
# 2 3.3571 21.1774 2.6637 0.0000 -6.0239 0.0000
# 3 19.4826 2.6637 70.8143 0.0000 12.8001 0.0000
# 4 0.0000 0.0000 0.0000 8.9390 0.0000 3.8366
# 5 -10.1613 -6.0239 12.8001 0.0000 37.6984 0.0000
# 6 0.0000 0.0000 0.0000 3.8366 0.0000 7.4374
#
#
#
# Elastic Compliance Matrix: (Units=1/GPa)
#
#
# Indices 1 2 3 4 5 6 
#
# 1 0.010406 -0.000057 -0.003586 0.000000 0.004013 0.000000
# 2 -0.000057 0.050299 -0.003544 0.000000 0.009225 0.000000
# 3 -0.003586 -0.003544 0.016533 0.000000 -0.007147 0.000000
# 4 0.000000 0.000000 0.000000 0.143680 0.000000 -0.074117
# 5 0.004013 0.009225 -0.007147 0.000000 0.031509 0.000000
# 6 0.000000 0.000000 0.000000 -0.074117 0.000000 0.172689
#
#
# Mechanical properties :
#
#
# Convention : Reuss Voigt Hill
#
# Bulk Modulus (GPa) = 15.90735 27.75023 21.82879
# Shear Modulus (GPa) = 10.85910 22.36444 16.61177
#
# Velocity S-wave (km/s) = 2.55323 3.66414 3.15792
# Velocity P-wave (km/s) = 4.27101 5.87880 5.13818
#
# Compressibility (1/GPa) = 0.06286402
#
# Stress axis : x y z
#
# Youngs Moduli (GPa) = 96.10193 19.88110 60.48462
#
# Poissons Ratio (x) = 0.00113 0.21690
# Poissons Ratio (y) = 0.00547 0.21435
# Poissons Ratio (z) = 0.34463 0.07046
#
# Static dielectric constant tensor:
#      x y z
#    x 1.615280 0.000000 -0.028730 
#    y 0.000000 1.545070 0.000000 
#    z -0.028730 0.000000 1.583230 
# 
# From -- ./inp_files/86639.got.cif
#   From: 2010.05.17/outbox.cif.g08.bks.cpg/sg10_44_cif.got.tgz:86639.got - 2010.06.03 11:33:40.
