data_PCOD9148328
_publ_section_title
;
Structure prediction by ZEFSAII (Michael W. Deem and Ramdas Pophale) SiO2 
 PCOD9148328
Probable space group: P 2/M
;
_chemical_formula_sum "Si O2"
_cell_formula_units_Z 32
_cell_length_a 15.208237
_cell_length_b 14.360769
_cell_length_c 11.908182
_cell_angle_alpha 90.000000
_cell_angle_beta 39.760465
_cell_angle_gamma 90.000000
_cell_volume 1663.399292
_symmetry_space_group_name_H-M "P 2/M"
_symmetry_group_IT_number 10
_symmetry_cell_setting 'monoclinic'
loop_
_space_group_symop_operation_xyz
x,y,z
-x,y,-z
-x,-y,-z
x,-y,z
loop_
_atom_site_type_symbol
_atom_site_label
_atom_site_fract_x
_atom_site_fract_y
_atom_site_fract_z
Si Si1 0.344830 0.349686 0.165769
Si Si2 0.915461 0.610584 0.690690
Si Si3 0.660184 0.888490 0.333837
Si Si4 0.017149 0.109941 0.352956
Si Si5 0.438148 0.846211 0.169718
Si Si6 0.306660 0.889597 0.953008
Si Si7 0.188036 0.395438 0.542745
Si Si8 0.777467 0.186307 0.443904
O O1 0.239670 0.351751 0.164205
O O2 0.369548 0.244284 0.181620
O O3 0.262232 0.398071 0.347940
O O4 0.500000 0.387658 0.000000
O O5 0.899744 0.500000 0.691772
O O6 0.000000 0.648550 0.500000
O O7 0.024041 0.620510 0.684817
O O8 0.500000 0.857920 0.500000
O O9 0.715342 0.866152 0.155501
O O10 0.751021 0.848696 0.345008
O O11 0.660335 0.000000 0.345101
O O12 0.000000 0.136952 0.500000
O O13 0.922573 0.166229 0.359979
O O14 0.982241 0.000000 0.379218
O O15 0.173007 0.120917 0.159925
O O16 0.570050 0.830013 0.117637
O O17 0.324092 0.872780 0.373103
O O18 0.500000 0.899218 0.000000
O O19 0.348231 0.000000 0.916409
O O20 0.207340 0.500000 0.573584
O O21 0.245463 0.298533 0.536090
#
# Coordination Sequence:
#
# PCOD9148328 Si02
#       8
#     4   4   4   4   4   4   4   4
#     4   9  17  27  44  72 104 139 182 232 273 324
#     4   8  14  26  42  61  91 131 171 215 270 327
#     4  10  20  37  61  86 111 142 194 247 278 323
#     4  10  22  38  56  85 124 154 181 226 285 349
#     4  10  20  32  48  76 110 148 187 226 279 344
#     4  10  21  37  56  80 114 152 186 230 284 336
#     4   9  19  33  49  73 105 142 186 232 280 341
#     4  11  21  34  58  83 109 150 195 240 284 333
#
# _framework density 19.237712999999999
#
# number of rings (size 3 to 8) (size 9 to 14) (size 15 to 20)
#    0.000    2.375    1.250    2.250    0.000    6.750 
#    0.000    1.875    0.000    0.375    0.000    1.750 
#    0.000    0.000    0.000    0.000    0.000    0.000 
#
# Total GULP energy -178137.476781 kJ/mol
# GULP energy per Si atom -5566.796149 kJ/mol
# Density = 1.919393 g / cm^3
# Si number density = 19.237713 Si / 1000 Ang^3
#
#
#
# Elastic Constant Matrix: (Units=GPa)
#
#
# Indices 1 2 3 4 5 6 
#
# 1 86.9242 28.6844 28.4883 0.0000 -1.6946 0.0000
# 2 28.6844 78.2074 16.8169 0.0000 2.5760 0.0000
# 3 28.4883 16.8169 65.8334 0.0000 -10.8927 0.0000
# 4 0.0000 0.0000 0.0000 11.8852 0.0000 -11.8754
# 5 -1.6946 2.5760 -10.8927 0.0000 32.4926 0.0000
# 6 0.0000 0.0000 0.0000 -11.8754 0.0000 27.2690
#
#
#
# Elastic Compliance Matrix: (Units=1/GPa)
#
#
# Indices 1 2 3 4 5 6 
#
# 1 0.014636 -0.004188 -0.005381 0.000000 -0.000709 0.000000
# 2 -0.004188 0.014901 -0.002357 0.000000 -0.002190 0.000000
# 3 -0.005381 -0.002357 0.019168 0.000000 0.006332 0.000000
# 4 0.000000 0.000000 0.000000 0.148953 0.000000 0.064868
# 5 -0.000709 -0.002190 0.006332 0.000000 0.033036 0.000000
# 6 0.000000 0.000000 0.000000 0.064868 0.000000 0.064921
#
#
# Mechanical properties :
#
#
# Convention : Reuss Voigt Hill
#
# Bulk Modulus (GPa) = 40.23385 42.10494 41.16939
# Shear Modulus (GPa) = 15.25553 24.79438 20.02496
#
# Velocity S-wave (km/s) = 2.81908 3.59394 3.22983
# Velocity P-wave (km/s) = 5.61745 6.25748 5.94608
#
# Compressibility (1/GPa) = 0.02485469
#
# Stress axis : x y z
#
# Youngs Moduli (GPa) = 68.32507 67.10816 52.17008
#
# Poissons Ratio (x) = 0.28103 0.28073
# Poissons Ratio (y) = 0.28612 0.12295
# Poissons Ratio (z) = 0.36766 0.15815
#
# Static dielectric constant tensor:
#      x y z
#    x 1.683870 0.000000 -0.020380 
#    y 0.000000 1.721160 0.000000 
#    z -0.020380 0.000000 1.722760 
# 
# From -- ./inp_files/51620.got.cif
#   From: 2010.05.17/outbox.cif.g08.bks.cpg/sg10_26_cif.got.tgz:51620.got - 2010.06.03 11:33:40.
