data_PCOD9148578
_publ_section_title
;
Structure prediction by ZEFSAII (Michael W. Deem and Ramdas Pophale) SiO2 
 PCOD9148578
Probable space group: P 2/M
;
_chemical_formula_sum "Si O2"
_cell_formula_units_Z 32
_cell_length_a 20.960445
_cell_length_b 9.098987
_cell_length_c 25.232726
_cell_angle_alpha 90.000000
_cell_angle_beta 162.503028
_cell_angle_gamma 90.000000
_cell_volume 1446.860694
_symmetry_space_group_name_H-M "P 2/M"
_symmetry_group_IT_number 10
_symmetry_cell_setting 'monoclinic'
loop_
_space_group_symop_operation_xyz
x,y,z
-x,y,-z
-x,-y,-z
x,-y,z
loop_
_atom_site_type_symbol
_atom_site_label
_atom_site_fract_x
_atom_site_fract_y
_atom_site_fract_z
Si Si1 0.157685 0.178464 0.747187
Si Si2 0.681411 0.328413 0.843595
Si Si3 0.184257 0.671782 0.264419
Si Si4 0.254528 0.167295 0.213339
Si Si5 0.240447 0.820868 0.698101
Si Si6 0.671211 0.178894 0.002142
Si Si7 0.888071 0.827715 0.689696
Si Si8 0.709136 0.171613 0.427717
O O1 0.279401 0.219426 0.790418
O O2 0.261188 0.221020 0.884448
O O3 0.910222 0.224766 0.552863
O O4 0.151559 0.000000 0.742884
O O5 0.634584 0.500000 0.802751
O O6 0.655498 0.254012 0.765496
O O7 0.513613 0.253813 0.749960
O O8 0.928281 0.311460 0.054276
O O9 0.235740 0.500000 0.303285
O O10 0.230308 0.740824 0.358043
O O11 0.282751 0.754796 0.292126
O O12 0.333969 0.000000 0.277019
O O13 0.000000 0.162805 0.000000
O O14 0.000000 0.771067 0.500000
O O15 0.238897 0.000000 0.693352
O O16 0.426969 0.771993 0.806507
O O17 0.867726 0.228040 0.122015
O O18 0.674019 0.000000 0.000911
O O19 0.791864 0.818056 0.554443
O O20 0.891868 0.000000 0.707312
O O21 0.672621 0.000000 0.386493
#
# Coordination Sequence:
#
# PCOD9148578 Si02
#       8
#     4   4   4   4   4   4   4   4
#     4   8  14  25  40  58  85 122 158 192 235 286
#     4  10  20  33  50  73 100 129 161 198 241 290
#     4  10  20  33  50  73 100 129 161 198 241 290
#     4   9  17  31  52  75  98 127 162 198 238 285
#     4   9  15  21  33  59  92 121 152 193 238 282
#     4   8  14  25  40  58  85 122 158 192 235 286
#     4   9  18  32  49  70  96 127 165 206 245 287
#     4   9  18  32  49  70  96 127 165 206 245 287
#
# _framework density 22.116849999999999
#
# number of rings (size 3 to 8) (size 9 to 14) (size 15 to 20)
#    0.000    3.000    0.000    3.000    0.000    6.000 
#    0.000    3.125    0.000    3.750    0.000    0.875 
#    0.000    7.000    0.000    0.000    0.000    0.000 
#
# Total GULP energy -178637.693594 kJ/mol
# GULP energy per Si atom -5582.427925 kJ/mol
# Density = 2.206651 g / cm^3
# Si number density = 22.116850 Si / 1000 Ang^3
#
#
#
# Elastic Constant Matrix: (Units=GPa)
#
#
# Indices 1 2 3 4 5 6 
#
# 1 92.4216 19.0607 15.3522 0.0000 13.4225 0.0000
# 2 19.0607 41.4432 9.4470 0.0000 5.0092 0.0000
# 3 15.3522 9.4470 90.1609 0.0000 22.6492 0.0000
# 4 0.0000 0.0000 0.0000 -106.6285 0.0000 130.7459
# 5 13.4225 5.0092 22.6492 0.0000 42.4898 0.0000
# 6 0.0000 0.0000 0.0000 130.7459 0.0000 -143.3166
#
#
#
# Elastic Compliance Matrix: (Units=1/GPa)
#
#
# Indices 1 2 3 4 5 6 
#
# 1 0.012447 -0.005183 -0.000857 0.000000 -0.002864 0.000000
# 2 -0.005183 0.026994 -0.001799 0.000000 -0.000586 0.000000
# 3 -0.000857 -0.001799 0.013052 0.000000 -0.006475 0.000000
# 4 0.000000 0.000000 0.000000 0.079056 0.000000 0.072122
# 5 -0.002864 -0.000586 -0.006475 0.000000 0.027960 0.000000
# 6 0.000000 0.000000 0.000000 0.072122 0.000000 0.058818
#
#
# Mechanical properties :
#
#
# Convention : Reuss Voigt Hill
#
# Bulk Modulus (GPa) = 27.16195 34.63839 30.90017
# Shear Modulus (GPa) = 20.30230 -29.48000 -4.58885
#
# Velocity S-wave (km/s) = 3.03307 -3.65488 -1.44199
# Velocity P-wave (km/s) = 4.95719 1.45441 3.35100
#
# Compressibility (1/GPa) = 0.03681621
#
# Stress axis : x y z
#
# Youngs Moduli (GPa) = 80.33888 37.04502 76.61580
#
# Poissons Ratio (x) = 0.19201 0.06565
# Poissons Ratio (y) = 0.41642 0.13780
# Poissons Ratio (z) = 0.06884 0.06663
#
# Static dielectric constant tensor:
#      x y z
#    x 1.800860 0.000000 -0.036500 
#    y 0.000000 1.734050 0.000000 
#    z -0.036500 0.000000 1.918750 
# 
# From -- ./inp_files/93730.got.cif
#   From: 2010.05.17/outbox.cif.g08.bks.cpg/sg10_47_cif.got.tgz:93730.got - 2010.06.03 11:33:40.
