data_PCOD9148556
_publ_section_title
;
Structure prediction by ZEFSAII (Michael W. Deem and Ramdas Pophale) SiO2 
 PCOD9148556
Probable space group: P 2/M
;
_chemical_formula_sum "Si O2"
_cell_formula_units_Z 32
_cell_length_a 24.240466
_cell_length_b 14.170123
_cell_length_c 9.725875
_cell_angle_alpha 90.000000
_cell_angle_beta 152.067841
_cell_angle_gamma 90.000000
_cell_volume 1564.890873
_symmetry_space_group_name_H-M "P 2/M"
_symmetry_group_IT_number 10
_symmetry_cell_setting 'monoclinic'
loop_
_space_group_symop_operation_xyz
x,y,z
-x,y,-z
-x,-y,-z
x,-y,z
loop_
_atom_site_type_symbol
_atom_site_label
_atom_site_fract_x
_atom_site_fract_y
_atom_site_fract_z
Si Si1 0.053276 0.606035 0.265329
Si Si2 0.600077 0.386750 0.817863
Si Si3 0.253395 0.393284 0.117102
Si Si4 0.104735 0.888743 0.122787
Si Si5 0.690168 0.606973 0.286381
Si Si6 0.369643 0.105341 0.643230
Si Si7 0.946219 0.249429 0.236374
Si Si8 0.605041 0.688139 0.346038
O O1 0.991674 0.500000 0.800793
O O2 0.190091 0.599103 0.533354
O O3 0.027660 0.679314 0.328218
O O4 0.000000 0.633980 0.000000
O O5 0.500000 0.345590 0.500000
O O6 0.580985 0.500000 0.793487
O O7 0.712474 0.379669 0.966222
O O8 0.609117 0.345419 0.990340
O O9 0.209726 0.500000 0.038413
O O10 0.368209 0.379607 0.467581
O O11 0.164409 0.314167 0.968191
O O12 0.248215 0.880392 0.466574
O O13 0.085122 0.000000 0.060825
O O14 0.085665 0.833438 0.938717
O O15 0.000000 0.858663 0.000000
O O16 0.650603 0.500000 0.234710
O O17 0.709987 0.662560 0.469344
O O18 0.382784 0.202481 0.586839
O O19 0.354574 0.000000 0.546769
O O20 0.500000 0.102356 0.000000
O O21 0.000000 0.217264 0.500000
O O22 0.500000 0.672210 0.000000
#
# Coordination Sequence:
#
# PCOD9148556 Si02
#       8
#     4   4   4   4   4   4   4   4
#     4  10  21  36  54  76 108 153 198 242 290 342
#     4   9  18  33  50  68 101 148 188 225 273 332
#     4  11  22  36  53  79 115 154 200 241 287 348
#     4  10  22  42  68  95 121 152 196 250 306 364
#     4  10  20  33  49  74 107 146 186 228 280 331
#     4   9  19  38  63  90 120 151 188 240 303 366
#     4  12  24  37  57  84 119 157 198 246 304 355
#     4  11  21  33  55  86 112 142 189 245 300 349
#
# _framework density 20.448710999999999
#
# number of rings (size 3 to 8) (size 9 to 14) (size 15 to 20)
#    0.000    1.750    1.250    3.375    1.750    5.250 
#    0.000    0.000    0.000    0.000    0.000    0.875 
#    0.000   10.500    0.000    0.000    0.000    0.000 
#
# Total GULP energy -178148.770053 kJ/mol
# GULP energy per Si atom -5567.149064 kJ/mol
# Density = 2.040217 g / cm^3
# Si number density = 20.448711 Si / 1000 Ang^3
#
#
#
# Elastic Constant Matrix: (Units=GPa)
#
#
# Indices 1 2 3 4 5 6 
#
# 1 75.3946 9.6611 33.6974 0.0000 -16.6756 0.0000
# 2 9.6611 81.4868 3.4017 0.0000 -9.7925 0.0000
# 3 33.6974 3.4017 86.9699 0.0000 -4.6064 0.0000
# 4 0.0000 0.0000 0.0000 17.2080 0.0000 -8.3527
# 5 -16.6756 -9.7925 -4.6064 0.0000 41.3181 0.0000
# 6 0.0000 0.0000 0.0000 -8.3527 0.0000 -40.1612
#
#
#
# Elastic Compliance Matrix: (Units=1/GPa)
#
#
# Indices 1 2 3 4 5 6 
#
# 1 0.017655 -0.001084 -0.006473 0.000000 0.006147 0.000000
# 2 -0.001084 0.012708 0.000060 0.000000 0.002581 0.000000
# 3 -0.006473 0.000060 0.013949 0.000000 -0.001043 0.000000
# 4 0.000000 0.000000 0.000000 0.052784 0.000000 -0.010978
# 5 0.006147 0.002581 -0.001043 0.000000 0.027179 0.000000
# 6 0.000000 0.000000 0.000000 -0.010978 0.000000 -0.022616
#
#
# Mechanical properties :
#
#
# Convention : Reuss Voigt Hill
#
# Bulk Modulus (GPa) = 34.10952 37.48573 35.79763
# Shear Modulus (GPa) = 39.54931 16.81239 28.18085
#
# Velocity S-wave (km/s) = 4.40258 2.87047 3.71634
# Velocity P-wave (km/s) = 6.52383 5.41826 5.99658
#
# Compressibility (1/GPa) = 0.02931733
#
# Stress axis : x y z
#
# Youngs Moduli (GPa) = 56.64138 78.68966 71.69219
#
# Poissons Ratio (x) = 0.08532 0.46404
# Poissons Ratio (y) = 0.06142 -0.00429
# Poissons Ratio (z) = 0.36662 -0.00470
#
# Static dielectric constant tensor:
#      x y z
#    x 1.825260 0.000000 0.155960 
#    y 0.000000 1.704900 0.000000 
#    z 0.155960 0.000000 2.035040 
# 
# From -- ./inp_files/36408.got.cif
#   From: 2010.05.17/outbox.cif.g08.bks.cpg/sg10_19_cif.got.tgz:36408.got - 2010.06.03 11:33:40.
