data_PCOD9148537
_publ_section_title
;
Structure prediction by ZEFSAII (Michael W. Deem and Ramdas Pophale) SiO2 
 PCOD9148537
Probable space group: P 2/M
;
_chemical_formula_sum "Si O2"
_cell_formula_units_Z 32
_cell_length_a 22.089213
_cell_length_b 9.263326
_cell_length_c 19.519029
_cell_angle_alpha 90.000000
_cell_angle_beta 159.030853
_cell_angle_gamma 90.000000
_cell_volume 1429.304764
_symmetry_space_group_name_H-M "P 2/M"
_symmetry_group_IT_number 10
_symmetry_cell_setting 'monoclinic'
loop_
_space_group_symop_operation_xyz
x,y,z
-x,y,-z
-x,-y,-z
x,-y,z
loop_
_atom_site_type_symbol
_atom_site_label
_atom_site_fract_x
_atom_site_fract_y
_atom_site_fract_z
Si Si1 0.583133 0.332862 0.285254
Si Si2 0.833087 0.666490 0.373067
Si Si3 0.376334 0.834183 0.955997
Si Si4 0.250316 0.665990 0.029371
Si Si5 0.041964 0.834903 0.700648
Si Si6 0.845395 0.167462 0.946628
Si Si7 0.656127 0.174429 0.618055
Si Si8 0.228787 0.169369 0.403837
O O1 0.622178 0.500000 0.313118
O O2 0.728002 0.253681 0.481527
O O3 0.516423 0.252780 0.146866
O O4 0.421571 0.327113 0.166286
O O5 0.785406 0.500000 0.333231
O O6 0.688604 0.754410 0.180718
O O7 0.000000 0.665953 0.500000
O O8 0.898012 0.745081 0.509848
O O9 0.206350 0.837607 0.823972
O O10 0.426462 0.000000 0.997663
O O11 0.197260 0.500000 0.977483
O O12 0.111953 0.758022 0.841738
O O13 0.263862 0.734955 0.118214
O O14 0.990312 0.000000 0.658952
O O15 0.037067 0.178520 0.174572
O O16 0.792268 0.000000 0.898760
O O17 0.815252 0.204946 0.835614
O O18 0.500000 0.221535 0.500000
O O19 0.669147 0.228745 0.554544
O O20 0.647176 0.000000 0.601370
O O21 0.269546 0.000000 0.458337
#
# Coordination Sequence:
#
# PCOD9148537 Si02
#       8
#     4   4   4   4   4   4   4   4
#     4  10  20  33  49  71 100 134 172 214 260 308
#     4   9  15  23  37  61  96 133 166 205 256 309
#     4   9  16  26  42  65  94 129 169 212 257 305
#     4  10  20  33  49  71 100 134 172 214 260 308
#     4   9  16  26  42  65  94 129 169 212 257 305
#     4  10  20  34  53  77 104 134 169 209 253 303
#     4   9  17  31  54  81 106 133 166 206 252 301
#     4  10  20  34  53  77 104 134 169 209 253 303
#
# _framework density 22.388508000000002
#
# number of rings (size 3 to 8) (size 9 to 14) (size 15 to 20)
#    0.000    2.500    0.000    3.000    0.000    9.000 
#    0.000    0.625    0.000    3.750    0.000    0.875 
#    0.000    7.000    0.000    0.000    0.000    0.000 
#
# Total GULP energy -178943.433211 kJ/mol
# GULP energy per Si atom -5591.982288 kJ/mol
# Density = 2.233755 g / cm^3
# Si number density = 22.388508 Si / 1000 Ang^3
#
#
#
# Elastic Constant Matrix: (Units=GPa)
#
#
# Indices 1 2 3 4 5 6 
#
# 1 84.9032 16.1232 22.5359 0.0000 -12.7026 0.0000
# 2 16.1232 128.7102 66.1956 0.0000 -16.8622 0.0000
# 3 22.5359 66.1956 136.0545 0.0000 -30.8527 0.0000
# 4 0.0000 0.0000 0.0000 -72.2050 0.0000 -15.7663
# 5 -12.7026 -16.8622 -30.8527 0.0000 34.0770 0.0000
# 6 0.0000 0.0000 0.0000 -15.7663 0.0000 9.4027
#
#
#
# Elastic Compliance Matrix: (Units=1/GPa)
#
#
# Indices 1 2 3 4 5 6 
#
# 1 0.012687 -0.000611 -0.001007 0.000000 0.003515 0.000000
# 2 -0.000611 0.010405 -0.004839 0.000000 0.000540 0.000000
# 3 -0.001007 -0.004839 0.011631 0.000000 0.007761 0.000000
# 4 0.000000 0.000000 0.000000 -0.010138 0.000000 -0.016999
# 5 0.003515 0.000540 0.007761 0.000000 0.037949 0.000000
# 6 0.000000 0.000000 0.000000 -0.016999 0.000000 0.077849
#
#
# Mechanical properties :
#
#
# Convention : Reuss Voigt Hill
#
# Bulk Modulus (GPa) = 45.85088 62.15304 54.00196
# Shear Modulus (GPa) = 31.13947 10.57582 20.85764
#
# Velocity S-wave (km/s) = 3.73348 2.17578 3.05556
# Velocity P-wave (km/s) = 6.25374 5.84238 6.05156
#
# Compressibility (1/GPa) = 0.02180983
#
# Stress axis : x y z
#
# Youngs Moduli (GPa) = 78.81855 96.10463 85.97707
#
# Poissons Ratio (x) = 0.05870 0.08660
# Poissons Ratio (y) = 0.04814 0.41604
# Poissons Ratio (z) = 0.07939 0.46504
#
# Static dielectric constant tensor:
#      x y z
#    x 1.860300 0.000000 0.061180 
#    y 0.000000 1.758180 0.000000 
#    z 0.061180 0.000000 1.825500 
# 
# From -- ./inp_files/87046.got.cif
#   From: 2010.05.17/outbox.cif.g08.bks.cpg/sg10_44_cif.got.tgz:87046.got - 2010.06.03 11:33:40.
