data_PCOD9148886
_publ_section_title
;
Structure prediction by ZEFSAII (Michael W. Deem and Ramdas Pophale) SiO2 
 PCOD9148886
Probable space group: P 2/M
;
_chemical_formula_sum "Si O2"
_cell_formula_units_Z 32
_cell_length_a 21.090461
_cell_length_b 13.721887
_cell_length_c 9.770274
_cell_angle_alpha 90.000000
_cell_angle_beta 37.824536
_cell_angle_gamma 90.000000
_cell_volume 1733.967414
_symmetry_space_group_name_H-M "P 2/M"
_symmetry_group_IT_number 10
_symmetry_cell_setting 'monoclinic'
loop_
_space_group_symop_operation_xyz
x,y,z
-x,y,-z
-x,-y,-z
x,-y,z
loop_
_atom_site_type_symbol
_atom_site_label
_atom_site_fract_x
_atom_site_fract_y
_atom_site_fract_z
Si Si1 0.728168 0.890310 0.300783
Si Si2 0.405270 0.112487 0.737815
Si Si3 0.267158 0.387772 0.530438
Si Si4 0.387934 0.801637 0.260707
Si Si5 0.117397 0.739986 0.328758
Si Si6 0.851630 0.706535 0.036382
Si Si7 0.925663 0.614533 0.344335
Si Si8 0.728553 0.882985 0.791891
O O1 0.686447 0.889661 0.216435
O O2 0.633470 0.856667 0.559617
O O3 0.819529 0.811735 0.152069
O O4 0.758855 0.000000 0.284041
O O5 0.500000 0.162768 0.500000
O O6 0.435892 0.000000 0.715196
O O7 0.364498 0.151645 0.949399
O O8 0.297756 0.500000 0.461823
O O9 0.355162 0.310404 0.340733
O O10 0.226130 0.366032 0.753380
O O11 0.166709 0.368969 0.605402
O O12 0.303321 0.849309 0.303516
O O13 0.500000 0.812924 0.000000
O O14 0.112735 0.649355 0.441125
O O15 0.174740 0.826281 0.310561
O O16 0.000000 0.770627 0.500000
O O17 0.162520 0.711686 0.103612
O O18 0.969262 0.674009 0.864167
O O19 0.951054 0.500000 0.299671
O O20 0.739160 0.000000 0.782049
#
# Coordination Sequence:
#
# PCOD9148886 Si02
#       8
#     4   4   4   4   4   4   4   4
#     4  10  20  35  53  79 113 149 188 228 276 331
#     4   9  17  30  51  75 100 139 187 229 270 319
#     4  10  21  38  61  85 112 147 188 237 290 342
#     4  11  23  38  59  85 113 150 191 241 286 337
#     4  10  21  36  55  85 115 149 188 230 279 338
#     4  10  20  33  57  85 115 145 185 232 277 338
#     4  10  20  37  60  84 112 146 188 236 286 343
#     4  11  21  36  56  81 115 150 189 232 277 333
#
# _framework density 18.454788000000001
#
# number of rings (size 3 to 8) (size 9 to 14) (size 15 to 20)
#    0.000    1.875    2.500    1.875    0.000    6.250 
#    0.000    1.875    0.000    1.500    0.000    0.875 
#    0.000    0.000    0.000    0.000    0.000    0.000 
#
# Total GULP energy -178409.199827 kJ/mol
# GULP energy per Si atom -5575.287495 kJ/mol
# Density = 1.841278 g / cm^3
# Si number density = 18.454788 Si / 1000 Ang^3
#
#
#
# Elastic Constant Matrix: (Units=GPa)
#
#
# Indices 1 2 3 4 5 6 
#
# 1 51.7187 14.1907 9.3390 0.0000 6.5447 0.0000
# 2 14.1907 89.9941 21.3060 0.0000 -8.9871 0.0000
# 3 9.3390 21.3060 75.1191 0.0000 10.1179 0.0000
# 4 0.0000 0.0000 0.0000 17.1683 0.0000 -0.2838
# 5 6.5447 -8.9871 10.1179 0.0000 23.0038 0.0000
# 6 0.0000 0.0000 0.0000 -0.2838 0.0000 19.1119
#
#
#
# Elastic Compliance Matrix: (Units=1/GPa)
#
#
# Indices 1 2 3 4 5 6 
#
# 1 0.021471 -0.004002 -0.000532 0.000000 -0.007438 0.000000
# 2 -0.004002 0.013657 -0.004515 0.000000 0.008460 0.000000
# 3 -0.000532 -0.004515 0.015813 0.000000 -0.008568 0.000000
# 4 0.000000 0.000000 0.000000 0.058261 0.000000 0.000865
# 5 -0.007438 0.008460 -0.008568 0.000000 0.052661 0.000000
# 6 0.000000 0.000000 0.000000 0.000865 0.000000 0.052336
#
#
# Mechanical properties :
#
#
# Convention : Reuss Voigt Hill
#
# Bulk Modulus (GPa) = 30.45007 34.05594 32.25301
# Shear Modulus (GPa) = 20.55529 23.32321 21.93925
#
# Velocity S-wave (km/s) = 3.34101 3.55886 3.45165
# Velocity P-wave (km/s) = 5.60525 5.94820 5.77927
#
# Compressibility (1/GPa) = 0.03284064
#
# Stress axis : x y z
#
# Youngs Moduli (GPa) = 46.57458 73.22339 63.23882
#
# Poissons Ratio (x) = 0.29307 0.03366
# Poissons Ratio (y) = 0.18641 0.28555
# Poissons Ratio (z) = 0.02479 0.33063
#
# Static dielectric constant tensor:
#      x y z
#    x 1.638940 0.000000 0.001460 
#    y 0.000000 1.621270 0.000000 
#    z 0.001460 0.000000 1.675110 
# 
# From -- ./inp_files/35104.got.cif
#   From: 2010.05.17/outbox.cif.g08.bks.cpg/sg10_18_cif.got.tgz:35104.got - 2010.06.03 11:33:40.
