data_PCOD9148077
_publ_section_title
;
Structure prediction by ZEFSAII (Michael W. Deem and Ramdas Pophale) SiO2 
 PCOD9148077
Probable space group: P 2/M
;
_chemical_formula_sum "Si O2"
_cell_formula_units_Z 32
_cell_length_a 12.131707
_cell_length_b 17.581598
_cell_length_c 14.634751
_cell_angle_alpha 90.000000
_cell_angle_beta 148.360959
_cell_angle_gamma 90.000000
_cell_volume 1637.441734
_symmetry_space_group_name_H-M "P 2/M"
_symmetry_group_IT_number 10
_symmetry_cell_setting 'monoclinic'
loop_
_space_group_symop_operation_xyz
x,y,z
-x,y,-z
-x,-y,-z
x,-y,z
loop_
_atom_site_type_symbol
_atom_site_label
_atom_site_fract_x
_atom_site_fract_y
_atom_site_fract_z
Si Si1 0.705817 0.911830 0.709022
Si Si2 0.439199 0.831866 0.213735
Si Si3 0.116059 0.407775 0.368224
Si Si4 0.795328 0.413224 0.289504
Si Si5 0.061477 0.408873 0.944228
Si Si6 0.520407 0.344905 0.244392
Si Si7 0.897365 0.909471 0.142350
Si Si8 0.892424 0.091549 0.519211
O O1 0.500000 0.906579 0.500000
O O2 0.676141 0.857739 0.774501
O O3 0.907353 0.895752 0.788577
O O4 0.721161 0.000000 0.752278
O O5 0.470582 0.742497 0.227033
O O6 0.666237 0.871262 0.372006
O O7 0.300146 0.863556 0.032926
O O8 0.134913 0.500000 0.385835
O O9 0.312315 0.373709 0.561434
O O10 0.897994 0.388550 0.266743
O O11 0.086439 0.381916 0.243191
O O12 0.714332 0.500000 0.225558
O O13 0.628558 0.360977 0.222720
O O14 0.000000 0.415822 0.500000
O O15 0.037348 0.500000 0.928845
O O16 0.303366 0.390243 0.096715
O O17 0.000000 0.377822 0.000000
O O18 0.967104 0.888866 0.293763
O O19 0.853602 0.000000 0.109077
O O20 0.000000 0.114577 0.500000
O O21 0.867376 0.000000 0.501154
#
# Coordination Sequence:
#
# PCOD9148077 Si02
#       8
#     4   4   4   4   4   4   4   4
#     4  10  19  38  67  91 112 147 201 258 302 346
#     4  12  24  37  57  91 126 159 192 241 312 375
#     4   9  19  39  66  89 111 151 207 259 299 341
#     4   8  15  33  62  88 110 142 196 252 292 340
#     4  10  22  40  59  83 116 157 206 248 285 349
#     4  11  23  37  56  87 123 159 185 239 307 363
#     4  10  21  39  65  89 115 153 199 256 302 347
#     4  10  22  41  62  84 115 159 209 251 288 348
#
# _framework density 19.542680000000001
#
# number of rings (size 3 to 8) (size 9 to 14) (size 15 to 20)
#    0.000    2.000    1.250    3.375    0.000    6.000 
#    2.250    6.875    0.000    0.000    0.000    0.000 
#    0.000    0.000    0.000    0.000    0.000    0.000 
#
# Total GULP energy -178751.732756 kJ/mol
# GULP energy per Si atom -5585.991649 kJ/mol
# Density = 1.949820 g / cm^3
# Si number density = 19.542680 Si / 1000 Ang^3
#
#
#
# Elastic Constant Matrix: (Units=GPa)
#
#
# Indices 1 2 3 4 5 6 
#
# 1 70.0414 25.1660 20.0191 0.0000 -21.5919 0.0000
# 2 25.1660 26.6863 15.6911 0.0000 -11.8698 0.0000
# 3 20.0191 15.6911 89.4666 0.0000 -18.4456 0.0000
# 4 0.0000 0.0000 0.0000 352.9082 0.0000 280.2450
# 5 -21.5919 -11.8698 -18.4456 0.0000 21.2703 0.0000
# 6 0.0000 0.0000 0.0000 280.2450 0.0000 271.5901
#
#
#
# Elastic Compliance Matrix: (Units=1/GPa)
#
#
# Indices 1 2 3 4 5 6 
#
# 1 0.025330 -0.016772 0.000786 0.000000 0.017035 0.000000
# 2 -0.016772 0.061955 -0.004256 0.000000 0.013857 0.000000
# 3 0.000786 -0.004256 0.013910 0.000000 0.010485 0.000000
# 4 0.000000 0.000000 0.000000 0.015691 0.000000 -0.016191
# 5 0.017035 0.013857 0.010485 0.000000 0.081132 0.000000
# 6 0.000000 0.000000 0.000000 -0.016191 0.000000 0.020389
#
#
# Mechanical properties :
#
#
# Convention : Reuss Voigt Hill
#
# Bulk Modulus (GPa) = 16.47169 34.21633 25.34401
# Shear Modulus (GPa) = 17.91289 137.50826 77.71058
#
# Velocity S-wave (km/s) = 3.03083 8.39737 6.31275
# Velocity P-wave (km/s) = 4.54915 10.56256 8.13211
#
# Compressibility (1/GPa) = 0.06071021
#
# Stress axis : x y z
#
# Youngs Moduli (GPa) = 39.47819 16.14067 71.89220
#
# Poissons Ratio (x) = 0.27072 -0.05649
# Poissons Ratio (y) = 0.66214 0.30598
# Poissons Ratio (z) = -0.03102 0.06870
#
# Static dielectric constant tensor:
#      x y z
#    x 1.703980 0.000000 -0.024520 
#    y 0.000000 1.660830 0.000000 
#    z -0.024520 0.000000 1.669320 
# 
# From -- ./inp_files/65410.got.cif
#   From: 2010.05.17/outbox.cif.g08.bks.cpg/sg10_33_cif.got.tgz:65410.got - 2010.06.03 11:33:40.
