data_PCOD9148563
_publ_section_title
;
Structure prediction by ZEFSAII (Michael W. Deem and Ramdas Pophale) SiO2 
 PCOD9148563
Probable space group: P 2/M
;
_chemical_formula_sum "Si O2"
_cell_formula_units_Z 32
_cell_length_a 12.383228
_cell_length_b 17.726878
_cell_length_c 12.099440
_cell_angle_alpha 90.000000
_cell_angle_beta 140.262293
_cell_angle_gamma 90.000000
_cell_volume 1697.924821
_symmetry_space_group_name_H-M "P 2/M"
_symmetry_group_IT_number 10
_symmetry_cell_setting 'monoclinic'
loop_
_space_group_symop_operation_xyz
x,y,z
-x,y,-z
-x,-y,-z
x,-y,z
loop_
_atom_site_type_symbol
_atom_site_label
_atom_site_fract_x
_atom_site_fract_y
_atom_site_fract_z
Si Si1 0.709692 0.320521 0.700059
Si Si2 0.833543 0.585793 0.613748
Si Si3 0.007319 0.278893 0.634044
Si Si4 0.533202 0.785227 0.725569
Si Si5 0.825745 0.817039 0.649478
Si Si6 0.623161 0.323172 0.994385
Si Si7 0.190299 0.582718 0.023046
Si Si8 0.679832 0.085460 0.708281
O O1 0.696387 0.384886 0.595071
O O2 0.562341 0.277459 0.652146
O O3 0.812335 0.254447 0.720981
O O4 0.809595 0.357889 0.879326
O O5 0.799548 0.500000 0.546872
O O6 0.872355 0.653283 0.556754
O O7 0.011832 0.582920 0.820010
O O8 0.193042 0.305566 0.812231
O O9 0.000000 0.262049 0.500000
O O10 0.970961 0.205404 0.679964
O O11 0.344284 0.815124 0.558885
O O12 0.658395 0.853478 0.789363
O O13 0.563863 0.744516 0.866034
O O14 0.816190 0.887482 0.724360
O O15 0.500000 0.335734 0.000000
O O16 0.660391 0.394091 0.943613
O O17 0.219500 0.500000 0.092750
O O18 0.500000 0.089118 0.500000
O O19 0.706956 0.000000 0.766092
#
# Coordination Sequence:
#
# PCOD9148563 Si02
#       8
#     4   4   4   4   4   4   4   4
#     4   9  15  24  43  66  91 121 153 184 225 275
#     4   9  17  28  43  65  92 121 154 196 245 288
#     4  10  20  33  50  68  89 121 161 201 237 276
#     4   9  17  30  49  72  99 126 153 188 226 272
#     4   9  17  30  49  72  99 126 153 188 226 272
#     4  10  20  33  50  68  89 121 161 201 237 276
#     4   9  17  28  43  65  92 121 154 196 245 288
#     4   8  14  27  51  81 106 127 150 179 222 273
#
# _framework density 18.846536
#
# number of rings (size 3 to 8) (size 9 to 14) (size 15 to 20)
#    0.000    2.875    0.000    2.625    0.000    2.500 
#    0.000    1.875    0.000   40.500    0.000    0.000 
#    0.000    0.000    0.000    0.000    0.000    0.000 
#
# Total GULP energy -178207.039097 kJ/mol
# GULP energy per Si atom -5568.969972 kJ/mol
# Density = 1.880364 g / cm^3
# Si number density = 18.846536 Si / 1000 Ang^3
#
#
#
# Elastic Constant Matrix: (Units=GPa)
#
#
# Indices 1 2 3 4 5 6 
#
# 1 89.2871 6.3817 2.6402 0.0000 -5.8363 0.0000
# 2 6.3817 66.3829 0.6567 0.0000 1.8334 0.0000
# 3 2.6402 0.6567 19.6479 0.0000 -12.3505 0.0000
# 4 0.0000 0.0000 0.0000 12.8447 0.0000 -2.4490
# 5 -5.8363 1.8334 -12.3505 0.0000 22.6593 0.0000
# 6 0.0000 0.0000 0.0000 -2.4490 0.0000 15.0752
#
#
#
# Elastic Compliance Matrix: (Units=1/GPa)
#
#
# Indices 1 2 3 4 5 6 
#
# 1 0.011490 -0.001205 0.000636 0.000000 0.003403 0.000000
# 2 -0.001205 0.015273 -0.002009 0.000000 -0.002641 0.000000
# 3 0.000636 -0.002009 0.077706 0.000000 0.042680 0.000000
# 4 0.000000 0.000000 0.000000 0.080342 0.000000 0.013052
# 5 0.003403 -0.002641 0.042680 0.000000 0.068485 0.000000
# 6 0.000000 0.000000 0.000000 0.013052 0.000000 0.068455
#
#
# Mechanical properties :
#
#
# Convention : Reuss Voigt Hill
#
# Bulk Modulus (GPa) = 10.06918 21.63055 15.84987
# Shear Modulus (GPa) = 13.88853 21.15846 17.52349
#
# Velocity S-wave (km/s) = 2.71759 3.35426 3.05257
# Velocity P-wave (km/s) = 3.89889 5.14816 4.56645
#
# Compressibility (1/GPa) = 0.09931293
#
# Stress axis : x y z
#
# Youngs Moduli (GPa) = 87.03524 65.47607 12.86900
#
# Poissons Ratio (x) = 0.07889 -0.00818
# Poissons Ratio (y) = 0.10486 0.02585
# Poissons Ratio (z) = -0.05532 0.13151
#
# Static dielectric constant tensor:
#      x y z
#    x 1.697890 0.000000 0.047120 
#    y 0.000000 1.665130 0.000000 
#    z 0.047120 0.000000 1.711020 
# 
# From -- ./inp_files/47830.got.cif
#   From: 2010.05.17/outbox.cif.g08.bks.cpg/sg10_24_cif.got.tgz:47830.got - 2010.06.03 11:33:40.
