data_PCOD9148473
_publ_section_title
;
Structure prediction by ZEFSAII (Michael W. Deem and Ramdas Pophale) SiO2 
 PCOD9148473
Probable space group: P 2/M
;
_chemical_formula_sum "Si O2"
_cell_formula_units_Z 28
_cell_length_a 12.319910
_cell_length_b 7.610199
_cell_length_c 14.447823
_cell_angle_alpha 90.000000
_cell_angle_beta 106.415360
_cell_angle_gamma 90.000000
_cell_volume 1299.368843
_symmetry_space_group_name_H-M "P 2/M"
_symmetry_group_IT_number 10
_symmetry_cell_setting 'monoclinic'
loop_
_space_group_symop_operation_xyz
x,y,z
-x,y,-z
-x,-y,-z
x,-y,z
loop_
_atom_site_type_symbol
_atom_site_label
_atom_site_fract_x
_atom_site_fract_y
_atom_site_fract_z
Si Si1 0.382560 0.208665 0.432696
Si Si2 0.664414 0.290917 0.791241
Si Si3 0.224130 0.212079 0.857161
Si Si4 0.929071 0.785882 0.343786
Si Si5 0.836039 0.785075 0.517007
Si Si6 0.521435 0.709210 0.107887
Si Si7 0.869080 0.211065 0.969610
O O1 0.500000 0.281595 0.500000
O O2 0.359904 0.229616 0.318452
O O3 0.278008 0.281349 0.465679
O O4 0.384198 0.000000 0.451176
O O5 0.655100 0.500000 0.787075
O O6 0.567142 0.220542 0.838006
O O7 0.788443 0.248783 0.862609
O O8 0.126353 0.274025 0.764325
O O9 0.345572 0.262644 0.844898
O O10 0.222265 0.000000 0.859703
O O11 0.197730 0.276125 0.954711
O O12 0.856478 0.732743 0.416022
O O13 0.056364 0.729695 0.396052
O O14 0.929467 0.000000 0.341710
O O15 0.836499 0.000000 0.517555
O O16 0.501701 0.500000 0.099319
O O17 0.500000 0.783208 0.000000
O O18 0.875960 0.000000 0.978096
O O19 0.000000 0.274817 0.000000
#
# Coordination Sequence:
#
# PCOD9148473 Si02
#       7
#     4   4   4   4   4   4   4
#     4  10  22  37  58  86 114 146 187 238 292 341
#     4  11  24  41  60  81 111 157 198 234 283 340
#     4  10  20  32  56  88 112 140 183 233 281 332
#     4   8  15  28  50  80 109 139 176 221 273 334
#     4   8  15  30  51  76 110 144 175 220 280 334
#     4  10  21  39  57  75 108 149 186 226 276 331
#     4  10  22  38  58  88 122 152 186 234 289 341
#
# _framework density 21.548922999999998
#
# number of rings (size 3 to 8) (size 9 to 14) (size 15 to 20)
#    0.000    2.429    1.429    1.286    4.000    2.000 
#    0.000    0.000    0.000    0.000    0.000    2.000 
#    0.000    0.000    0.000    0.000    0.000    0.000 
#
# Total GULP energy -156307.385081 kJ/mol
# GULP energy per Si atom -5582.406610 kJ/mol
# Density = 2.149988 g / cm^3
# Si number density = 21.548923 Si / 1000 Ang^3
#
#
#
# Elastic Constant Matrix: (Units=GPa)
#
#
# Indices 1 2 3 4 5 6 
#
# 1 160.4248 -1.2220 61.6641 0.0000 3.9102 0.0000
# 2 -1.2220 38.3157 -12.6573 0.0000 -2.9678 0.0000
# 3 61.6641 -12.6573 122.9067 0.0000 23.4451 0.0000
# 4 0.0000 0.0000 0.0000 18.0787 0.0000 13.8050
# 5 3.9102 -2.9678 23.4451 0.0000 17.8223 0.0000
# 6 0.0000 0.0000 0.0000 13.8050 0.0000 22.7836
#
#
#
# Elastic Compliance Matrix: (Units=1/GPa)
#
#
# Indices 1 2 3 4 5 6 
#
# 1 0.008049 -0.001045 -0.005041 0.000000 0.004691 0.000000
# 2 -0.001045 0.027171 0.003225 0.000000 0.000512 0.000000
# 3 -0.005041 0.003225 0.014263 0.000000 -0.017120 0.000000
# 4 0.000000 0.000000 0.000000 0.102944 0.000000 -0.062376
# 5 0.004691 0.000512 -0.017120 0.000000 0.077687 0.000000
# 6 0.000000 0.000000 0.000000 -0.062376 0.000000 0.081686
#
#
# Mechanical properties :
#
#
# Convention : Reuss Voigt Hill
#
# Bulk Modulus (GPa) = 22.85159 46.35741 34.60450
# Shear Modulus (GPa) = 15.05536 29.99443 22.52490
#
# Velocity S-wave (km/s) = 2.64608 3.73490 3.23660
# Velocity P-wave (km/s) = 4.46802 6.33708 5.48278
#
# Compressibility (1/GPa) = 0.04376064
#
# Stress axis : x y z
#
# Youngs Moduli (GPa) = 124.24459 36.80458 70.11142
#
# Poissons Ratio (x) = 0.03846 0.35340
# Poissons Ratio (y) = 0.12984 -0.22610
# Poissons Ratio (z) = 0.62626 -0.11869
#
# Static dielectric constant tensor:
#      x y z
#    x 1.797090 0.000000 0.003580 
#    y 0.000000 1.807200 0.000000 
#    z 0.003580 0.000000 1.761820 
# 
# From -- ./inp_files/63516.got.cif
#   From: 2010.05.17/outbox.cif.g08.bks.cpg/sg10_32_cif.got.tgz:63516.got - 2010.06.03 11:33:40.
