data_PCOD9148829
_publ_section_title
;
Structure prediction by ZEFSAII (Michael W. Deem and Ramdas Pophale) SiO2 
 PCOD9148829
Probable space group: P 2/M
;
_chemical_formula_sum "Si O2"
_cell_formula_units_Z 32
_cell_length_a 15.123530
_cell_length_b 22.036631
_cell_length_c 14.941144
_cell_angle_alpha 90.000000
_cell_angle_beta 19.235535
_cell_angle_gamma 90.000000
_cell_volume 1640.494397
_symmetry_space_group_name_H-M "P 2/M"
_symmetry_group_IT_number 10
_symmetry_cell_setting 'monoclinic'
loop_
_space_group_symop_operation_xyz
x,y,z
-x,y,-z
-x,-y,-z
x,-y,z
loop_
_atom_site_type_symbol
_atom_site_label
_atom_site_fract_x
_atom_site_fract_y
_atom_site_fract_z
Si Si1 0.119220 0.764238 0.791082
Si Si2 0.338257 0.353605 0.515640
Si Si3 0.576534 0.146886 0.622171
Si Si4 0.895356 0.930801 0.867295
Si Si5 0.213525 0.245136 0.225998
Si Si6 0.216089 0.897087 0.223134
Si Si7 0.643263 0.736997 0.102315
Si Si8 0.131181 0.429572 0.973159
O O1 0.270139 0.699812 0.650936
O O2 0.323575 0.814447 0.558428
O O3 0.000000 0.780875 0.000000
O O4 0.877298 0.752357 0.950922
O O5 0.447737 0.314889 0.326562
O O6 0.066596 0.392791 0.771618
O O7 0.581049 0.397850 0.307482
O O8 0.526731 0.200305 0.742402
O O9 0.816941 0.101440 0.413663
O O10 0.303210 0.108675 0.880767
O O11 0.779630 0.928150 0.877246
O O12 0.916163 0.000000 0.877646
O O13 0.146635 0.174009 0.273067
O O14 0.000000 0.270258 0.500000
O O15 0.500000 0.247389 0.000000
O O16 0.228767 0.276499 0.115287
O O17 0.000000 0.921924 0.500000
O O18 0.500000 0.900404 0.000000
O O19 0.154772 0.500000 0.975909
O O20 0.000000 0.426596 0.000000
#
# Coordination Sequence:
#
# PCOD9148829 Si02
#       8
#     4   4   4   4   4   4   4   4
#     4  11  24  40  67  95 122 161 197 265 317 364
#     4  11  23  36  60  90 128 163 217 254 294 345
#     4  11  23  41  61  84 117 147 203 245 315 375
#     4  12  24  40  61  82 113 156 202 253 309 377
#     4  10  22  34  59  86 120 162 195 237 312 380
#     4  10  20  33  54  82 114 150 191 241 298 375
#     4  11  23  39  64  93 127 157 204 262 308 370
#     4  11  23  38  57  86 133 185 220 243 285 355
#
# _framework density 19.506315000000001
#
# number of rings (size 3 to 8) (size 9 to 14) (size 15 to 20)
#    0.000    1.125    3.750    2.250    8.750    3.000 
#    0.000    0.000    0.000    2.250    0.000    0.000 
#    0.000   10.000    0.000    0.000    0.000    0.000 
#
# Total GULP energy -178891.361435 kJ/mol
# GULP energy per Si atom -5590.355045 kJ/mol
# Density = 1.946192 g / cm^3
# Si number density = 19.506315 Si / 1000 Ang^3
#
#
#
# Elastic Constant Matrix: (Units=GPa)
#
#
# Indices 1 2 3 4 5 6 
#
# 1 54.9762 7.2981 24.7022 0.0000 17.3864 0.0000
# 2 7.2981 108.2491 35.2868 0.0000 2.9084 0.0000
# 3 24.7022 35.2868 128.7956 0.0000 16.4075 0.0000
# 4 0.0000 0.0000 0.0000 27.1053 0.0000 3.0310
# 5 17.3864 2.9084 16.4075 0.0000 40.4961 0.0000
# 6 0.0000 0.0000 0.0000 3.0310 0.0000 32.3567
#
#
#
# Elastic Compliance Matrix: (Units=1/GPa)
#
#
# Indices 1 2 3 4 5 6 
#
# 1 0.022249 -0.000253 -0.003146 0.000000 -0.008259 0.000000
# 2 -0.000253 0.010154 -0.002799 0.000000 0.000513 0.000000
# 3 -0.003146 -0.002799 0.009423 0.000000 -0.002266 0.000000
# 4 0.000000 0.000000 0.000000 0.037284 0.000000 -0.003493
# 5 -0.008259 0.000513 -0.002266 0.000000 0.029121 0.000000
# 6 0.000000 0.000000 0.000000 -0.003493 0.000000 0.031233
#
#
# Mechanical properties :
#
#
# Convention : Reuss Voigt Hill
#
# Bulk Modulus (GPa) = 33.97766 47.39945 40.68856
# Shear Modulus (GPa) = 30.92765 34.97386 32.95075
#
# Velocity S-wave (km/s) = 3.98618 4.23892 4.11449
# Velocity P-wave (km/s) = 6.21633 6.95055 6.59367
#
# Compressibility (1/GPa) = 0.02943110
#
# Stress axis : x y z
#
# Youngs Moduli (GPa) = 44.94628 98.48795 106.12255
#
# Poissons Ratio (x) = 0.02488 0.33384
# Poissons Ratio (y) = 0.01136 0.29701
# Poissons Ratio (z) = 0.14139 0.27564
#
# Static dielectric constant tensor:
#      x y z
#    x 1.694430 0.000000 0.002180 
#    y 0.000000 1.692820 0.000000 
#    z 0.002180 0.000000 1.758650 
# 
# From -- ./inp_files/67934.got.cif
#   From: 2010.05.17/outbox.cif.g08.bks.cpg/sg10_34_cif.got.tgz:67934.got - 2010.06.03 11:33:40.
