data_PCOD9148422
_publ_section_title
;
Structure prediction by ZEFSAII (Michael W. Deem and Ramdas Pophale) SiO2 
 PCOD9148422
Probable space group: P 2/M
;
_chemical_formula_sum "Si O2"
_cell_formula_units_Z 32
_cell_length_a 26.422566
_cell_length_b 7.500925
_cell_length_c 10.994218
_cell_angle_alpha 90.000000
_cell_angle_beta 38.945612
_cell_angle_gamma 90.000000
_cell_volume 1369.671367
_symmetry_space_group_name_H-M "P 2/M"
_symmetry_group_IT_number 10
_symmetry_cell_setting 'monoclinic'
loop_
_space_group_symop_operation_xyz
x,y,z
-x,y,-z
-x,-y,-z
x,-y,z
loop_
_atom_site_type_symbol
_atom_site_label
_atom_site_fract_x
_atom_site_fract_y
_atom_site_fract_z
Si Si1 0.774389 0.786986 0.286491
Si Si2 0.036447 0.208479 0.557487
Si Si3 0.043173 0.218874 0.043593
Si Si4 0.376394 0.285008 0.047091
Si Si5 0.615912 0.790285 0.695585
Si Si6 0.224137 0.715813 0.200717
Si Si7 0.678986 0.713242 0.217364
Si Si8 0.478385 0.296688 0.366383
O O1 0.708088 0.725493 0.507682
O O2 0.734213 0.746750 0.231798
O O3 0.780102 0.000000 0.287929
O O4 0.864457 0.718907 0.128821
O O5 0.132934 0.221011 0.377515
O O6 0.000000 0.285517 0.500000
O O7 0.000326 0.280545 0.751220
O O8 0.013521 0.000000 0.600108
O O9 0.041910 0.000000 0.046358
O O10 0.000000 0.274616 0.000000
O O11 0.378295 0.500000 0.036882
O O12 0.407554 0.233718 0.121391
O O13 0.284647 0.228134 0.195280
O O14 0.435466 0.216445 0.830000
O O15 0.565263 0.699053 0.684289
O O16 0.611788 0.000000 0.674474
O O17 0.220490 0.500000 0.205412
O O18 0.271105 0.777053 0.991655
O O19 0.669709 0.500000 0.220614
O O20 0.588943 0.782518 0.417583
O O21 0.493062 0.500000 0.377715
#
# Coordination Sequence:
#
# PCOD9148422 Si02
#       8
#     4   4   4   4   4   4   4   4
#     4   9  18  33  54  78 102 132 172 217 262 310
#     4  10  21  37  59  83 106 140 185 226 267 325
#     4   9  18  32  53  78 105 136 174 220 265 316
#     4  10  21  35  51  74 107 143 178 216 261 314
#     4  10  20  32  52  80 108 138 175 218 265 317
#     4  10  22  37  54  79 109 140 174 219 270 317
#     4   9  18  34  55  77 101 134 176 217 261 311
#     4   9  18  34  55  76 101 139 181 219 260 310
#
# _framework density 23.36327
#
# number of rings (size 3 to 8) (size 9 to 14) (size 15 to 20)
#    0.000    2.500    0.000    1.500    1.750    5.250 
#    0.000    3.125    0.000    0.750    0.000    5.250 
#    0.000    0.000    0.000    0.000    0.000    0.000 
#
# Total GULP energy -178741.975409 kJ/mol
# GULP energy per Si atom -5585.686732 kJ/mol
# Density = 2.331009 g / cm^3
# Si number density = 23.363270 Si / 1000 Ang^3
#
#
#
# Elastic Constant Matrix: (Units=GPa)
#
#
# Indices 1 2 3 4 5 6 
#
# 1 114.8633 -3.7701 60.8022 0.0000 -3.4418 0.0000
# 2 -3.7701 44.3445 12.4197 0.0000 -10.3969 0.0000
# 3 60.8022 12.4197 140.2411 0.0000 1.6155 0.0000
# 4 0.0000 0.0000 0.0000 17.5824 0.0000 -6.2788
# 5 -3.4418 -10.3969 1.6155 0.0000 37.7798 0.0000
# 6 0.0000 0.0000 0.0000 -6.2788 0.0000 6.6526
#
#
#
# Elastic Compliance Matrix: (Units=1/GPa)
#
#
# Indices 1 2 3 4 5 6 
#
# 1 0.011708 0.002995 -0.005366 0.000000 0.002120 0.000000
# 2 0.002995 0.025579 -0.003650 0.000000 0.007468 0.000000
# 3 -0.005366 -0.003650 0.009802 0.000000 -0.001912 0.000000
# 4 0.000000 0.000000 0.000000 0.085790 0.000000 0.080970
# 5 0.002120 0.007468 -0.001912 0.000000 0.028799 0.000000
# 6 0.000000 0.000000 0.000000 0.080970 0.000000 0.226737
#
#
# Mechanical properties :
#
#
# Convention : Reuss Voigt Hill
#
# Bulk Modulus (GPa) = 28.53209 48.70582 38.61896
# Shear Modulus (GPa) = 12.13183 27.73612 19.93397
#
# Velocity S-wave (km/s) = 2.28122 3.44927 2.92416
# Velocity P-wave (km/s) = 4.37921 6.06265 5.28835
#
# Compressibility (1/GPa) = 0.03504825
#
# Stress axis : x y z
#
# Youngs Moduli (GPa) = 85.40989 39.09528 102.01754
#
# Poissons Ratio (x) = -0.11711 0.54741
# Poissons Ratio (y) = -0.25584 0.37235
# Poissons Ratio (z) = 0.45830 0.14269
#
# Static dielectric constant tensor:
#      x y z
#    x 1.862020 0.000000 0.007470 
#    y 0.000000 1.910530 0.000000 
#    z 0.007470 0.000000 1.885840 
# 
# From -- ./inp_files/58141.got.cif
#   From: 2010.05.17/outbox.cif.g08.bks.cpg/sg10_30_cif.got.tgz:58141.got - 2010.06.03 11:33:40.
