data_PCOD9148557
_publ_section_title
;
Structure prediction by ZEFSAII (Michael W. Deem and Ramdas Pophale) SiO2 
 PCOD9148557
Probable space group: P 2/M
;
_chemical_formula_sum "Si O2"
_cell_formula_units_Z 32
_cell_length_a 17.826484
_cell_length_b 7.992421
_cell_length_c 12.168947
_cell_angle_alpha 90.000000
_cell_angle_beta 47.005916
_cell_angle_gamma 90.000000
_cell_volume 1268.137430
_symmetry_space_group_name_H-M "P 2/M"
_symmetry_group_IT_number 10
_symmetry_cell_setting 'monoclinic'
loop_
_space_group_symop_operation_xyz
x,y,z
-x,y,-z
-x,-y,-z
x,-y,z
loop_
_atom_site_type_symbol
_atom_site_label
_atom_site_fract_x
_atom_site_fract_y
_atom_site_fract_z
Si Si1 0.689466 0.806570 0.708415
Si Si2 0.803885 0.794333 0.383892
Si Si3 0.888714 0.307435 0.622887
Si Si4 0.023979 0.798417 0.100362
Si Si5 0.339273 0.810077 0.658034
Si Si6 0.788693 0.687320 0.952911
Si Si7 0.496645 0.689399 0.668216
Si Si8 0.407378 0.806713 0.972952
O O1 0.723693 0.731255 0.556760
O O2 0.800667 0.799162 0.655429
O O3 0.659651 0.000000 0.721010
O O4 0.617233 0.735829 0.880025
O O5 0.923388 0.744060 0.272164
O O6 0.758716 0.745215 0.310222
O O7 0.800658 0.000000 0.391249
O O8 0.885514 0.500000 0.582427
O O9 0.866021 0.318332 0.773395
O O10 0.000000 0.233348 0.500000
O O11 0.136731 0.742301 0.024855
O O12 0.024832 0.000000 0.103381
O O13 0.000000 0.746269 0.000000
O O14 0.388696 0.713719 0.710780
O O15 0.426638 0.807158 0.475417
O O16 0.320484 0.000000 0.712952
O O17 0.747504 0.500000 0.009681
O O18 0.696907 0.795822 0.994601
O O19 0.530352 0.500000 0.617248
O O20 0.487050 0.726443 0.807336
O O21 0.432448 0.000000 0.962037
#
# Coordination Sequence:
#
# PCOD9148557 Si02
#       8
#     4   4   4   4   4   4   4   4
#     4   9  18  33  53  78 106 140 185 232 274 322
#     4   9  19  36  57  82 113 147 187 232 276 327
#     4   9  17  29  46  69 100 138 180 223 271 321
#     4  10  21  35  52  77 110 150 191 230 274 332
#     4  10  20  37  62  87 112 149 188 226 276 336
#     4  10  20  33  49  75 108 143 183 230 276 321
#     4  11  22  38  59  86 117 142 179 235 284 333
#     4  10  20  35  58  83 109 146 189 233 282 334
#
# _framework density 25.233858000000001
#
# number of rings (size 3 to 8) (size 9 to 14) (size 15 to 20)
#    0.000    2.250    0.000    3.750    1.750    1.500 
#    0.000    3.125    0.000    3.750    0.000    0.000 
#    0.000    0.000    0.000    0.000    0.000    0.000 
#
# Total GULP energy -178752.466604 kJ/mol
# GULP energy per Si atom -5586.014581 kJ/mol
# Density = 2.517642 g / cm^3
# Si number density = 25.233858 Si / 1000 Ang^3
#
#
#
# Elastic Constant Matrix: (Units=GPa)
#
#
# Indices 1 2 3 4 5 6 
#
# 1 120.0046 13.3996 23.7636 0.0000 13.9090 0.0000
# 2 13.3996 53.4061 6.6539 0.0000 2.4588 0.0000
# 3 23.7636 6.6539 147.3556 0.0000 13.9394 0.0000
# 4 0.0000 0.0000 0.0000 19.4980 0.0000 -0.9619
# 5 13.9090 2.4588 13.9394 0.0000 43.6942 0.0000
# 6 0.0000 0.0000 0.0000 -0.9619 0.0000 29.2405
#
#
#
# Elastic Compliance Matrix: (Units=1/GPa)
#
#
# Indices 1 2 3 4 5 6 
#
# 1 0.009064 -0.002021 -0.001143 0.000000 -0.002407 0.000000
# 2 -0.002021 0.019309 -0.000520 0.000000 -0.000277 0.000000
# 3 -0.001143 -0.000520 0.007173 0.000000 -0.001895 0.000000
# 4 0.000000 0.000000 0.000000 0.051371 0.000000 0.001690
# 5 -0.002407 -0.000277 -0.001895 0.000000 0.024273 0.000000
# 6 0.000000 0.000000 0.000000 0.001690 0.000000 0.034255
#
#
# Mechanical properties :
#
#
# Convention : Reuss Voigt Hill
#
# Bulk Modulus (GPa) = 35.48687 45.37782 40.43234
# Shear Modulus (GPa) = 30.82524 36.94982 33.88753
#
# Velocity S-wave (km/s) = 3.49891 3.83076 3.66859
# Velocity P-wave (km/s) = 5.51515 6.13093 5.83117
#
# Compressibility (1/GPa) = 0.02817944
#
# Stress axis : x y z
#
# Youngs Moduli (GPa) = 110.32721 51.78917 139.40459
#
# Poissons Ratio (x) = 0.10466 0.15931
# Poissons Ratio (y) = 0.22297 0.07245
# Poissons Ratio (z) = 0.12608 0.02692
#
# Static dielectric constant tensor:
#      x y z
#    x 2.026400 0.000000 -0.018680 
#    y 0.000000 1.934420 0.000000 
#    z -0.018680 0.000000 2.070490 
# 
# From -- ./inp_files/55288.got.cif
#   From: 2010.05.17/outbox.cif.g08.bks.cpg/sg10_28_cif.got.tgz:55288.got - 2010.06.03 11:33:40.
