data_PCOD9148581
_publ_section_title
;
Structure prediction by ZEFSAII (Michael W. Deem and Ramdas Pophale) SiO2 
 PCOD9148581
Probable space group: P 2/M
;
_chemical_formula_sum "Si O2"
_cell_formula_units_Z 28
_cell_length_a 22.312662
_cell_length_b 9.402151
_cell_length_c 18.030440
_cell_angle_alpha 90.000000
_cell_angle_beta 25.455283
_cell_angle_gamma 90.000000
_cell_volume 1625.765667
_symmetry_space_group_name_H-M "P 2/M"
_symmetry_group_IT_number 10
_symmetry_cell_setting 'monoclinic'
loop_
_space_group_symop_operation_xyz
x,y,z
-x,y,-z
-x,-y,-z
x,-y,z
loop_
_atom_site_type_symbol
_atom_site_label
_atom_site_fract_x
_atom_site_fract_y
_atom_site_fract_z
Si Si1 0.595314 0.168792 0.552725
Si Si2 0.417940 0.335531 0.285100
Si Si3 0.960591 0.158693 0.631341
Si Si4 0.161887 0.169824 0.840508
Si Si5 0.781282 0.662104 0.632928
Si Si6 0.304324 0.670007 0.106925
Si Si7 0.622126 0.334822 0.300932
O O1 0.624559 0.237651 0.599511
O O2 0.730347 0.191176 0.348680
O O3 0.456686 0.245969 0.675066
O O4 0.571445 0.000000 0.582944
O O5 0.434100 0.500000 0.292662
O O6 0.312668 0.336954 0.334143
O O7 0.560226 0.283079 0.088439
O O8 0.091971 0.232421 0.521220
O O9 0.000000 0.152305 0.500000
O O10 0.827396 0.257751 0.783392
O O11 0.933906 0.000000 0.687957
O O12 0.240056 0.258562 0.818739
O O13 0.162370 0.000000 0.857573
O O14 0.000000 0.207511 0.000000
O O15 0.833033 0.500000 0.587809
O O16 0.700215 0.702628 0.799613
O O17 0.297804 0.500000 0.108932
O O18 0.500000 0.336202 0.500000
O O19 0.650410 0.500000 0.249438
#
# Coordination Sequence:
#
# PCOD9148581 Si02
#       7
#     4   4   4   4   4   4   4
#     4  10  20  34  52  74 102 135 167 200 246 301
#     4  10  20  33  50  73 101 130 164 210 256 297
#     4   9  17  29  46  69  95 122 157 204 252 297
#     4   9  18  34  56  80 104 131 165 203 242 290
#     4   9  17  31  51  72  95 129 171 211 253 299
#     4   9  17  31  51  72  94 126 170 213 252 298
#     4   9  17  31  53  78 102 129 162 199 238 284
#
# _framework density 17.222655
#
# number of rings (size 3 to 8) (size 9 to 14) (size 15 to 20)
#    0.000    2.714    0.000    1.714    0.000    7.143 
#    0.000    1.429    0.000    7.714    0.000    0.000 
#    0.000    0.000    0.000    0.000    0.000    0.000 
#
# Total GULP energy -155903.204029 kJ/mol
# GULP energy per Si atom -5567.971572 kJ/mol
# Density = 1.718346 g / cm^3
# Si number density = 17.222655 Si / 1000 Ang^3
#
#
#
# Elastic Constant Matrix: (Units=GPa)
#
#
# Indices 1 2 3 4 5 6 
#
# 1 213.4080 76.1577 -19.6697 0.0000 -31.3765 0.0000
# 2 76.1577 50.9533 17.5263 0.0000 -4.8842 0.0000
# 3 -19.6697 17.5263 83.4388 0.0000 -7.3912 0.0000
# 4 0.0000 0.0000 0.0000 -14.1022 0.0000 32.0127
# 5 -31.3765 -4.8842 -7.3912 0.0000 27.9102 0.0000
# 6 0.0000 0.0000 0.0000 32.0127 0.0000 -7.5594
#
#
#
# Elastic Compliance Matrix: (Units=1/GPa)
#
#
# Indices 1 2 3 4 5 6 
#
# 1 0.022474 -0.036561 0.015001 0.000000 0.022839 0.000000
# 2 -0.036561 0.080817 -0.028655 0.000000 -0.034547 0.000000
# 3 0.015001 -0.028655 0.023132 0.000000 0.017975 0.000000
# 4 0.000000 0.000000 0.000000 0.008233 0.000000 0.034864
# 5 0.022839 -0.034547 0.017975 0.000000 0.060219 0.000000
# 6 0.000000 0.000000 0.000000 0.034864 0.000000 0.015358
#
#
# Mechanical properties :
#
#
# Convention : Reuss Voigt Hill
#
# Bulk Modulus (GPa) = 38.47220 55.09209 46.78214
# Shear Modulus (GPa) = 15.65789 19.50211 17.58000
#
# Velocity S-wave (km/s) = 3.01847 3.36869 3.19838
# Velocity P-wave (km/s) = 5.87664 6.86938 6.39231
#
# Compressibility (1/GPa) = 0.02599280
#
# Stress axis : x y z
#
# Youngs Moduli (GPa) = 44.49630 12.37367 43.22958
#
# Poissons Ratio (x) = 0.45239 -0.64848
# Poissons Ratio (y) = 1.62683 1.23873
# Poissons Ratio (z) = -0.66748 0.35456
#
# Static dielectric constant tensor:
#      x y z
#    x 1.582100 0.000000 0.000560 
#    y 0.000000 1.586090 0.000000 
#    z 0.000560 0.000000 1.580580 
# 
# From -- ./inp_files/37047.got.cif
#   From: 2010.05.17/outbox.cif.g08.bks.cpg/sg10_19_cif.got.tgz:37047.got - 2010.06.03 11:33:40.
