data_PCOD9148614
_publ_section_title
;
Structure prediction by ZEFSAII (Michael W. Deem and Ramdas Pophale) SiO2 
 PCOD9148614
Probable space group: P 2/M
;
_chemical_formula_sum "Si O2"
_cell_formula_units_Z 24
_cell_length_a 8.916135
_cell_length_b 11.837863
_cell_length_c 23.119593
_cell_angle_alpha 90.000000
_cell_angle_beta 147.224434
_cell_angle_gamma 90.000000
_cell_volume 1321.015850
_symmetry_space_group_name_H-M "P 2/M"
_symmetry_group_IT_number 10
_symmetry_cell_setting 'monoclinic'
loop_
_space_group_symop_operation_xyz
x,y,z
-x,y,-z
-x,-y,-z
x,-y,z
loop_
_atom_site_type_symbol
_atom_site_label
_atom_site_fract_x
_atom_site_fract_y
_atom_site_fract_z
Si Si1 0.881871 0.740284 0.181479
Si Si2 0.646718 0.131337 0.947920
Si Si3 0.816585 0.135714 0.618517
Si Si4 0.292447 0.500000 0.123375
Si Si5 0.627290 0.500000 0.109824
Si Si6 0.345442 0.871444 0.725022
Si Si7 0.177577 0.270539 0.155015
O O1 0.597042 0.813753 0.092079
O O2 0.794243 0.614847 0.169408
O O3 0.086281 0.800150 0.292777
O O4 0.029995 0.722758 0.168708
O O5 0.510334 0.132330 0.839927
O O6 0.703583 0.000000 0.981854
O O7 0.927961 0.204670 0.040317
O O8 0.500000 0.157512 0.500000
O O9 0.037046 0.169429 0.640136
O O10 0.852964 0.000000 0.638619
O O11 0.467497 0.500000 0.120374
O O12 0.284217 0.386348 0.159849
O O13 0.000000 0.500000 0.000000
O O14 0.500000 0.500000 0.000000
O O15 0.544263 0.802184 0.748493
O O16 0.328056 0.000000 0.699681
#
# Coordination Sequence:
#
# PCOD9148614 Si02
#       7
#     4   4   4   2   2   4   4
#     4  11  22  36  55  81 111 147 195 235 277 339
#     4  10  20  33  50  75 112 154 187 219 269 339
#     4   9  19  39  63  83 109 149 196 243 288 336
#     4  12  22  34  52  74 109 152 190 223 273 328
#     4  12  24  40  59  82 115 156 196 231 269 334
#     4   9  18  32  51  77 107 141 181 222 275 338
#     4  12  22  32  51  81 116 148 181 231 286 340
#
# _framework density 18.167836999999999
#
# number of rings (size 3 to 8) (size 9 to 14) (size 15 to 20)
#    0.000    1.500    0.000    9.500    0.000    4.667 
#    0.000    1.250    0.000    3.000    0.000    3.500 
#    0.000    0.000    0.000    0.000    0.000    0.000 
#
# Total GULP energy -133655.774779 kJ/mol
# GULP energy per Si atom -5568.990616 kJ/mol
# Density = 1.812649 g / cm^3
# Si number density = 18.167837 Si / 1000 Ang^3
#
#
#
# Elastic Constant Matrix: (Units=GPa)
#
#
# Indices 1 2 3 4 5 6 
#
# 1 159.7455 55.9638 31.3855 0.0000 29.9482 0.0000
# 2 55.9638 95.7647 38.9671 0.0000 14.0929 0.0000
# 3 31.3855 38.9671 83.1237 0.0000 25.5593 0.0000
# 4 0.0000 0.0000 0.0000 15.3030 0.0000 6.4144
# 5 29.9482 14.0929 25.5593 0.0000 28.5976 0.0000
# 6 0.0000 0.0000 0.0000 6.4144 0.0000 34.3061
#
#
#
# Elastic Compliance Matrix: (Units=1/GPa)
#
#
# Indices 1 2 3 4 5 6 
#
# 1 0.009245 -0.004688 0.001342 0.000000 -0.008572 0.000000
# 2 -0.004688 0.015316 -0.006341 0.000000 0.003029 0.000000
# 3 0.001342 -0.006341 0.019261 0.000000 -0.015495 0.000000
# 4 0.000000 0.000000 0.000000 0.070904 0.000000 -0.013257
# 5 -0.008572 0.003029 -0.015495 0.000000 0.056301 0.000000
# 6 0.000000 0.000000 0.000000 -0.013257 0.000000 0.031628
#
#
# Mechanical properties :
#
#
# Convention : Reuss Voigt Hill
#
# Bulk Modulus (GPa) = 40.90176 65.69629 53.29903
# Shear Modulus (GPa) = 21.72233 29.79585 25.75909
#
# Velocity S-wave (km/s) = 3.46156 4.05413 3.76951
# Velocity P-wave (km/s) = 6.20796 7.62587 6.95315
#
# Compressibility (1/GPa) = 0.02444882
#
# Stress axis : x y z
#
# Youngs Moduli (GPa) = 108.16135 65.28977 51.91926
#
# Poissons Ratio (x) = 0.30606 -0.06969
# Poissons Ratio (y) = 0.50703 0.32924
# Poissons Ratio (z) = -0.14519 0.41403
#
# Static dielectric constant tensor:
#      x y z
#    x 1.642280 0.000000 -0.000930 
#    y 0.000000 1.624370 0.000000 
#    z -0.000930 0.000000 1.608550 
# 
# From -- ./inp_files/88134.got.cif
#   From: 2010.05.17/outbox.cif.g08.bks.cpg/sg10_45_cif.got.tgz:88134.got - 2010.06.03 11:33:40.
