data_PCOD9148435
_publ_section_title
;
Structure prediction by ZEFSAII (Michael W. Deem and Ramdas Pophale) SiO2 
 PCOD9148435
Probable space group: P 2/M
;
_chemical_formula_sum "Si O2"
_cell_formula_units_Z 26
_cell_length_a 5.080630
_cell_length_b 27.310192
_cell_length_c 8.717786
_cell_angle_alpha 90.000000
_cell_angle_beta 90.237381
_cell_angle_gamma 90.000000
_cell_volume 1209.608412
_symmetry_space_group_name_H-M "P 2/M"
_symmetry_group_IT_number 10
_symmetry_cell_setting 'monoclinic'
loop_
_space_group_symop_operation_xyz
x,y,z
-x,y,-z
-x,-y,-z
x,-y,z
loop_
_atom_site_type_symbol
_atom_site_label
_atom_site_fract_x
_atom_site_fract_y
_atom_site_fract_z
Si Si1 0.250785 0.295865 0.612042
Si Si2 0.744908 0.056304 0.607974
Si Si3 0.754301 0.500000 0.390426
Si Si4 0.581077 0.191775 0.319506
Si Si5 0.587048 0.602772 0.324362
Si Si6 0.757684 0.555840 0.894595
Si Si7 0.083499 0.142252 0.179088
O O1 0.500000 0.297685 0.500000
O O2 0.299772 0.246200 0.705329
O O3 0.260697 0.346946 0.704372
O O4 0.000000 0.292550 0.500000
O O5 0.500000 0.071723 0.500000
O O6 0.800637 0.091801 0.750678
O O7 0.000000 0.057269 0.500000
O O8 0.696941 0.000000 0.656288
O O9 0.500000 0.500000 0.500000
O O10 0.741790 0.551502 0.301816
O O11 0.000000 0.500000 0.500000
O O12 0.500000 0.187681 0.500000
O O13 0.320345 0.180250 0.219411
O O14 0.820940 0.156330 0.273697
O O15 0.500000 0.603041 0.500000
O O16 0.318969 0.595461 0.230920
O O17 0.792613 0.500000 0.834031
O O18 0.500000 0.554275 0.000000
O O19 0.000000 0.569031 0.000000
O O20 0.000000 0.140503 0.000000
#
# Coordination Sequence:
#
# PCOD9148435 Si02
#       7
#     4   4   2   4   4   4   4
#     4  10  21  37  60  90 117 147 197 258 306 359
#     4  10  21  38  62  92 127 171 218 258 304 374
#     4  10  20  32  52  84 114 140 175 232 297 352
#     4  11  22  41  65  88 119 169 217 259 313 382
#     4  10  21  39  61  90 115 148 193 247 299 359
#     4  10  22  39  56  79 113 151 185 223 278 351
#     4  12  24  39  63  96 131 164 210 269 323 366
#
# _framework density 21.494561000000001
#
# number of rings (size 3 to 8) (size 9 to 14) (size 15 to 20)
#    0.000    1.538    0.769    5.538    0.000    5.231 
#    0.000    2.308    0.000    4.615    0.000    0.000 
#    0.000    0.000    0.000    0.000    0.000    0.000 
#
# Total GULP energy -145294.834899 kJ/mol
# GULP energy per Si atom -5588.262881 kJ/mol
# Density = 2.144564 g / cm^3
# Si number density = 21.494561 Si / 1000 Ang^3
#
#
#
# Elastic Constant Matrix: (Units=GPa)
#
#
# Indices 1 2 3 4 5 6 
#
# 1 157.1685 43.9701 57.3105 0.0000 41.3678 0.0000
# 2 43.9701 167.0512 69.6465 0.0000 29.4554 0.0000
# 3 57.3105 69.6465 139.5519 0.0000 43.5750 0.0000
# 4 0.0000 0.0000 0.0000 365.7879 0.0000 128.5460
# 5 41.3678 29.4554 43.5750 0.0000 47.8190 0.0000
# 6 0.0000 0.0000 0.0000 128.5460 0.0000 71.5050
#
#
#
# Elastic Compliance Matrix: (Units=1/GPa)
#
#
# Indices 1 2 3 4 5 6 
#
# 1 0.008565 -0.000661 -0.001399 0.000000 -0.005727 0.000000
# 2 -0.000661 0.007711 -0.003176 0.000000 -0.001284 0.000000
# 3 -0.001399 -0.003176 0.011652 0.000000 -0.007451 0.000000
# 4 0.000000 0.000000 0.000000 0.007424 0.000000 -0.013346
# 5 -0.005727 -0.001284 -0.007451 0.000000 0.033448 0.000000
# 6 0.000000 0.000000 0.000000 -0.013346 0.000000 0.037978
#
#
# Mechanical properties :
#
#
# Convention : Reuss Voigt Hill
#
# Bulk Modulus (GPa) = 57.28858 89.51400 73.40129
# Shear Modulus (GPa) = 40.62788 116.54535 78.58662
#
# Velocity S-wave (km/s) = 4.35230 7.37147 6.05314
# Velocity P-wave (km/s) = 7.20882 10.68582 9.11466
#
# Compressibility (1/GPa) = 0.01745549
#
# Stress axis : x y z
#
# Youngs Moduli (GPa) = 116.75028 129.69137 85.82231
#
# Poissons Ratio (x) = 0.08576 0.12008
# Poissons Ratio (y) = 0.07720 0.27255
# Poissons Ratio (z) = 0.16335 0.41187
#
# Static dielectric constant tensor:
#      x y z
#    x 0.841490 0.000000 -0.218440 
#    y 0.000000 1.890700 0.000000 
#    z -0.218440 0.000000 1.738270 
# 
# From -- ./inp_files/15748.got.cif
#   From: 2010.05.17/outbox.cif.g08.bks.cpg/sg10_8_cif.got.tgz:15748.got - 2010.06.03 11:33:40.
