data_PCOD9148087
_publ_section_title
;
Structure prediction by ZEFSAII (Michael W. Deem and Ramdas Pophale) SiO2 
 PCOD9148087
Probable space group: P 2/M
;
_chemical_formula_sum "Si O2"
_cell_formula_units_Z 32
_cell_length_a 12.157942
_cell_length_b 14.121271
_cell_length_c 13.073154
_cell_angle_alpha 90.000000
_cell_angle_beta 43.099619
_cell_angle_gamma 90.000000
_cell_volume 1533.578097
_symmetry_space_group_name_H-M "P 2/M"
_symmetry_group_IT_number 10
_symmetry_cell_setting 'monoclinic'
loop_
_space_group_symop_operation_xyz
x,y,z
-x,y,-z
-x,-y,-z
x,-y,z
loop_
_atom_site_type_symbol
_atom_site_label
_atom_site_fract_x
_atom_site_fract_y
_atom_site_fract_z
Si Si1 0.606193 0.610579 0.325772
Si Si2 0.139218 0.758026 0.822814
Si Si3 0.375244 0.105157 0.775860
Si Si4 0.718251 0.106504 0.603575
Si Si5 0.877677 0.399006 0.490446
Si Si6 0.635763 0.186145 0.985640
Si Si7 0.433949 0.304980 0.244800
Si Si8 0.006216 0.793749 0.692733
O O1 0.500000 0.618472 0.500000
O O2 0.614542 0.500000 0.290405
O O3 0.777320 0.655610 0.238485
O O4 0.526880 0.671904 0.287570
O O5 0.278296 0.826974 0.768590
O O6 0.064360 0.795654 0.769578
O O7 0.000000 0.755826 0.000000
O O8 0.567891 0.105319 0.626002
O O9 0.355356 0.132651 0.910223
O O10 0.312681 0.000000 0.805145
O O11 0.666647 0.205028 0.693828
O O12 0.892359 0.128429 0.438926
O O13 0.715013 0.000000 0.653206
O O14 0.876247 0.500000 0.434881
O O15 0.704173 0.382215 0.659742
O O16 0.000000 0.403082 0.500000
O O17 0.932274 0.308711 0.388237
O O18 0.566951 0.289364 0.067463
O O19 0.500000 0.146188 0.000000
O O20 0.814280 0.192680 0.818547
#
# Coordination Sequence:
#
# PCOD9148087 Si02
#       8
#     4   4   4   4   4   4   4   4
#     4  11  22  37  62  92 121 162 208 252 312 380
#     4  12  23  41  60  89 132 168 203 256 316 375
#     4  10  22  42  64  91 126 168 212 257 315 380
#     4   9  19  37  62  89 120 159 204 255 308 369
#     4  10  21  39  63  91 124 165 213 267 321 372
#     4  11  22  41  65  89 124 170 210 257 317 374
#     4  10  19  39  61  86 125 163 207 258 310 376
#     4  11  23  38  63  95 129 160 211 264 316 376
#
# _framework density 20.866232
#
# number of rings (size 3 to 8) (size 9 to 14) (size 15 to 20)
#    0.000    1.500    3.750    2.625    0.000    3.250 
#    0.000    3.750    0.000   22.125    0.000    0.000 
#    0.000    0.000    0.000    0.000    0.000    0.000 
#
# Total GULP energy -178309.029499 kJ/mol
# GULP energy per Si atom -5572.157172 kJ/mol
# Density = 2.081874 g / cm^3
# Si number density = 20.866232 Si / 1000 Ang^3
#
#
#
# Elastic Constant Matrix: (Units=GPa)
#
#
# Indices 1 2 3 4 5 6 
#
# 1 88.6611 20.1908 11.4057 0.0000 -11.7822 0.0000
# 2 20.1908 96.0568 13.1896 0.0000 -4.1507 0.0000
# 3 11.4057 13.1896 86.4603 0.0000 -28.7919 0.0000
# 4 0.0000 0.0000 0.0000 18.7428 0.0000 11.0712
# 5 -11.7822 -4.1507 -28.7919 0.0000 34.4866 0.0000
# 6 0.0000 0.0000 0.0000 11.0712 0.0000 5.4222
#
#
#
# Elastic Compliance Matrix: (Units=1/GPa)
#
#
# Indices 1 2 3 4 5 6 
#
# 1 0.012354 -0.002434 0.000069 0.000000 0.003985 0.000000
# 2 -0.002434 0.011113 -0.001670 0.000000 -0.000888 0.000000
# 3 0.000069 -0.001670 0.016278 0.000000 0.013413 0.000000
# 4 0.000000 0.000000 0.000000 -0.258887 0.000000 0.528601
# 5 0.003985 -0.000888 0.013413 0.000000 0.041449 0.000000
# 6 0.000000 0.000000 0.000000 0.528601 0.000000 -0.894883
#
#
# Mechanical properties :
#
#
# Convention : Reuss Voigt Hill
#
# Bulk Modulus (GPa) = 31.57116 40.08337 35.82726
# Shear Modulus (GPa) = -4.74407 26.82312 11.03952
#
# Velocity S-wave (km/s) = -1.50947 3.58925 2.30263
# Velocity P-wave (km/s) = 3.48211 6.03559 4.92714
#
# Compressibility (1/GPa) = 0.03167448
#
# Stress axis : x y z
#
# Youngs Moduli (GPa) = 80.94584 89.98427 61.43168
#
# Poissons Ratio (x) = 0.21902 -0.00422
# Poissons Ratio (y) = 0.19702 0.10259
# Poissons Ratio (z) = -0.00556 0.15028
#
# Static dielectric constant tensor:
#      x y z
#    x 1.812950 0.000000 -0.044190 
#    y 0.000000 1.803640 0.000000 
#    z -0.044190 0.000000 1.814320 
# 
# From -- ./inp_files/65060.got.cif
#   From: 2010.05.17/outbox.cif.g08.bks.cpg/sg10_33_cif.got.tgz:65060.got - 2010.06.03 11:33:40.
