data_PCOD9148194
_publ_section_title
;
Structure prediction by ZEFSAII (Michael W. Deem and Ramdas Pophale) SiO2 
 PCOD9148194
Probable space group: P 2/M
;
_chemical_formula_sum "Si O2"
_cell_formula_units_Z 22
_cell_length_a 15.040589
_cell_length_b 13.566210
_cell_length_c 14.050095
_cell_angle_alpha 90.000000
_cell_angle_beta 153.773684
_cell_angle_gamma 90.000000
_cell_volume 1266.905585
_symmetry_space_group_name_H-M "P 2/M"
_symmetry_group_IT_number 10
_symmetry_cell_setting 'monoclinic'
loop_
_space_group_symop_operation_xyz
x,y,z
-x,y,-z
-x,-y,-z
x,-y,z
loop_
_atom_site_type_symbol
_atom_site_label
_atom_site_fract_x
_atom_site_fract_y
_atom_site_fract_z
Si Si1 0.785199 0.109211 0.181310
Si Si2 0.500000 0.730469 0.000000
Si Si3 0.485014 0.890841 0.268291
Si Si4 0.903716 0.883343 0.010075
Si Si5 0.162780 0.615841 0.570701
Si Si6 0.112527 0.212581 0.387621
O O1 0.009939 0.141204 0.368352
O O2 0.777680 0.000000 0.218142
O O3 0.672602 0.195231 0.128929
O O4 0.661690 0.104424 0.963656
O O5 0.622414 0.661107 0.190201
O O6 0.657754 0.814934 0.410437
O O7 0.575677 0.000000 0.369356
O O8 0.336749 0.868616 0.213497
O O9 0.002186 0.812880 0.183249
O O10 0.936798 0.000000 0.066383
O O11 0.000000 0.866787 0.000000
O O12 0.179543 0.500000 0.567510
O O13 0.091851 0.679329 0.411927
O O14 0.000000 0.628278 0.500000
#
# Coordination Sequence:
#
# PCOD9148194 Si02
#       6
#     4   2   4   4   4   4
#     4  10  20  31  48  78 111 142 175 213 258 327
#     4  12  20  38  52  76 106 144 178 228 274 318
#     4   9  17  30  50  75 109 145 175 208 258 321
#     4   9  19  34  53  83 117 145 177 214 261 332
#     4  11  24  40  57  77 103 142 193 238 275 316
#     4  11  19  35  55  77 108 143 182 223 273 316
#
# _framework density 17.365145999999999
#
# number of rings (size 3 to 8) (size 9 to 14) (size 15 to 20)
#    0.000    1.818    3.636    3.273    0.000    0.727 
#    0.000    3.636    0.000    0.545    0.000    1.273 
#    0.000    0.000    0.000    0.000    0.000    0.000 
#
# Total GULP energy -122656.604243 kJ/mol
# GULP energy per Si atom -5575.300193 kJ/mol
# Density = 1.732562 g / cm^3
# Si number density = 17.365146 Si / 1000 Ang^3
#
#
#
# Elastic Constant Matrix: (Units=GPa)
#
#
# Indices 1 2 3 4 5 6 
#
# 1 94.4996 67.9167 29.5303 0.0000 13.8418 0.0000
# 2 67.9167 134.1632 36.8543 0.0000 3.5484 0.0000
# 3 29.5303 36.8543 50.6332 0.0000 10.0955 0.0000
# 4 0.0000 0.0000 0.0000 21.1558 0.0000 0.5756
# 5 13.8418 3.5484 10.0955 0.0000 24.3008 0.0000
# 6 0.0000 0.0000 0.0000 0.5756 0.0000 15.2112
#
#
#
# Elastic Compliance Matrix: (Units=1/GPa)
#
#
# Indices 1 2 3 4 5 6 
#
# 1 0.018853 -0.008443 -0.003222 0.000000 -0.008167 0.000000
# 2 -0.008443 0.013154 -0.005698 0.000000 0.005256 0.000000
# 3 -0.003222 -0.005698 0.027524 0.000000 -0.008768 0.000000
# 4 0.000000 0.000000 0.000000 0.047317 0.000000 -0.001791
# 5 -0.008167 0.005256 -0.008768 0.000000 0.048678 0.000000
# 6 0.000000 0.000000 0.000000 -0.001791 0.000000 0.065809
#
#
# Mechanical properties :
#
#
# Convention : Reuss Voigt Hill
#
# Bulk Modulus (GPa) = 40.31289 60.87763 50.59526
# Shear Modulus (GPa) = 18.91580 21.79987 20.35783
#
# Velocity S-wave (km/s) = 3.30403 3.54698 3.42766
# Velocity P-wave (km/s) = 6.14985 7.20474 6.69809
#
# Compressibility (1/GPa) = 0.02480596
#
# Stress axis : x y z
#
# Youngs Moduli (GPa) = 53.04196 76.02345 36.33138
#
# Poissons Ratio (x) = 0.64185 0.11705
# Poissons Ratio (y) = 0.44782 0.20702
# Poissons Ratio (z) = 0.17089 0.43319
#
# Static dielectric constant tensor:
#      x y z
#    x 1.618460 0.000000 0.006950 
#    y 0.000000 1.580380 0.000000 
#    z 0.006950 0.000000 1.628620 
# 
# From -- ./inp_files/58946.got.cif
#   From: 2010.05.17/outbox.cif.g08.bks.cpg/sg10_30_cif.got.tgz:58946.got - 2010.06.03 11:33:40.
