data_PCOD9148207
_publ_section_title
;
Structure prediction by ZEFSAII (Michael W. Deem and Ramdas Pophale) SiO2 
 PCOD9148207
Probable space group: P 2/M
;
_chemical_formula_sum "Si O2"
_cell_formula_units_Z 32
_cell_length_a 16.026196
_cell_length_b 14.832760
_cell_length_c 12.257383
_cell_angle_alpha 90.000000
_cell_angle_beta 33.884892
_cell_angle_gamma 90.000000
_cell_volume 1624.484154
_symmetry_space_group_name_H-M "P 2/M"
_symmetry_group_IT_number 10
_symmetry_cell_setting 'monoclinic'
loop_
_space_group_symop_operation_xyz
x,y,z
-x,y,-z
-x,-y,-z
x,-y,z
loop_
_atom_site_type_symbol
_atom_site_label
_atom_site_fract_x
_atom_site_fract_y
_atom_site_fract_z
Si Si1 0.823534 0.102609 0.223603
Si Si2 0.218199 0.396330 0.028276
Si Si3 0.078367 0.832427 0.654259
Si Si4 0.573426 0.110153 0.100857
Si Si5 0.073719 0.656221 0.533285
Si Si6 0.747186 0.204862 0.096860
Si Si7 0.359762 0.604567 0.095978
Si Si8 0.289118 0.896525 0.265783
O O1 0.828593 0.137209 0.341511
O O2 0.767048 0.000000 0.279651
O O3 0.742689 0.165883 0.223888
O O4 0.000000 0.101157 0.000000
O O5 0.252473 0.500000 0.957444
O O6 0.235539 0.313871 0.925173
O O7 0.318619 0.362483 0.021046
O O8 0.053542 0.397692 0.263402
O O9 0.119099 0.733603 0.567246
O O10 0.128809 0.890173 0.495872
O O11 0.903640 0.832038 0.874198
O O12 0.617014 0.162989 0.162998
O O13 0.690241 0.140824 0.878097
O O14 0.578704 0.000000 0.114651
O O15 0.414843 0.134977 0.216284
O O16 0.219256 0.607411 0.329643
O O17 0.000000 0.692381 0.500000
O O18 0.395790 0.500000 0.036365
O O19 0.500000 0.650953 0.000000
O O20 0.328433 0.000000 0.207821
#
# Coordination Sequence:
#
# PCOD9148207 Si02
#       8
#     4   4   4   4   4   4   4   4
#     4   9  18  34  53  73 100 132 168 218 266 295
#     4   9  18  32  49  72 103 135 167 209 260 306
#     4  10  20  31  51  74 102 131 173 209 252 301
#     4   9  19  34  49  72 105 137 165 204 259 312
#     4   9  18  30  47  71 103 135 168 205 254 303
#     4  10  20  33  54  76  97 131 180 215 252 303
#     4   9  17  29  47  72 100 132 168 205 252 309
#     4   9  19  33  48  70 105 138 161 201 265 312
#
# _framework density 19.698560000000001
#
# number of rings (size 3 to 8) (size 9 to 14) (size 15 to 20)
#    0.000    2.750    0.000    1.875    5.250    4.000 
#    0.000    1.875    0.000   12.375    0.000    0.000 
#    0.000    4.000    0.000    0.000    0.000    0.000 
#
# Total GULP energy -178153.259761 kJ/mol
# GULP energy per Si atom -5567.289368 kJ/mol
# Density = 1.965373 g / cm^3
# Si number density = 19.698560 Si / 1000 Ang^3
#
#
#
# Elastic Constant Matrix: (Units=GPa)
#
#
# Indices 1 2 3 4 5 6 
#
# 1 64.8765 37.8592 0.2037 0.0000 3.8295 0.0000
# 2 37.8592 97.9462 6.7400 0.0000 9.4073 0.0000
# 3 0.2037 6.7400 19.3754 0.0000 7.4691 0.0000
# 4 0.0000 0.0000 0.0000 38.0795 0.0000 2.5498
# 5 3.8295 9.4073 7.4691 0.0000 20.8247 0.0000
# 6 0.0000 0.0000 0.0000 2.5498 0.0000 20.6715
#
#
#
# Elastic Compliance Matrix: (Units=1/GPa)
#
#
# Indices 1 2 3 4 5 6 
#
# 1 0.020051 -0.007839 0.002985 0.000000 -0.001217 0.000000
# 2 -0.007839 0.013815 -0.003334 0.000000 -0.003603 0.000000
# 3 0.002985 -0.003334 0.060774 0.000000 -0.020840 0.000000
# 4 0.000000 0.000000 0.000000 0.026480 0.000000 -0.003266
# 5 -0.001217 -0.003603 -0.020840 0.000000 0.057346 0.000000
# 6 0.000000 0.000000 0.000000 -0.003266 0.000000 0.048779
#
#
# Mechanical properties :
#
#
# Convention : Reuss Voigt Hill
#
# Bulk Modulus (GPa) = 12.77728 30.20043 21.48886
# Shear Modulus (GPa) = 18.53856 25.07482 21.80669
#
# Velocity S-wave (km/s) = 3.07108 3.57168 3.33080
# Velocity P-wave (km/s) = 4.36760 5.68980 5.07197
#
# Compressibility (1/GPa) = 0.07826390
#
# Stress axis : x y z
#
# Youngs Moduli (GPa) = 49.87352 72.38436 16.45442
#
# Poissons Ratio (x) = 0.56740 -0.04912
# Poissons Ratio (y) = 0.39095 0.05486
# Poissons Ratio (z) = -0.14888 0.24135
#
# Static dielectric constant tensor:
#      x y z
#    x 1.720550 0.000000 -0.036160 
#    y 0.000000 1.738640 0.000000 
#    z -0.036160 0.000000 1.723260 
# 
# From -- ./inp_files/43284.got.cif
#   From: 2010.05.17/outbox.cif.g08.bks.cpg/sg10_22_cif.got.tgz:43284.got - 2010.06.03 11:33:40.
