data_PCOD9148218
_publ_section_title
;
Structure prediction by ZEFSAII (Michael W. Deem and Ramdas Pophale) SiO2 
 PCOD9148218
Probable space group: P 2/M
;
_chemical_formula_sum "Si O2"
_cell_formula_units_Z 32
_cell_length_a 9.615185
_cell_length_b 13.904776
_cell_length_c 15.586980
_cell_angle_alpha 90.000000
_cell_angle_beta 52.681704
_cell_angle_gamma 90.000000
_cell_volume 1657.309592
_symmetry_space_group_name_H-M "P 2/M"
_symmetry_group_IT_number 10
_symmetry_cell_setting 'monoclinic'
loop_
_space_group_symop_operation_xyz
x,y,z
-x,y,-z
-x,-y,-z
x,-y,z
loop_
_atom_site_type_symbol
_atom_site_label
_atom_site_fract_x
_atom_site_fract_y
_atom_site_fract_z
Si Si1 0.826630 0.388120 0.957951
Si Si2 0.508577 0.388889 0.622373
Si Si3 0.894671 0.109255 0.900116
Si Si4 0.733290 0.890936 0.152283
Si Si5 0.672955 0.739627 0.886391
Si Si6 0.900787 0.382454 0.450457
Si Si7 0.874761 0.617102 0.272592
Si Si8 0.445425 0.295106 0.814201
O O1 0.827332 0.500000 0.979691
O O2 0.717234 0.362973 0.913121
O O3 0.019767 0.357388 0.853775
O O4 0.725074 0.328411 0.067746
O O5 0.513525 0.500000 0.594438
O O6 0.698851 0.349103 0.529730
O O7 0.325898 0.349042 0.654592
O O8 0.488753 0.377864 0.731452
O O9 0.822186 0.186088 0.859552
O O10 0.096066 0.122027 0.852254
O O11 0.870528 0.000000 0.877572
O O12 0.793388 0.116032 0.029581
O O13 0.601014 0.804148 0.215488
O O14 0.667876 0.000000 0.189494
O O15 0.609040 0.724771 0.814630
O O16 0.500000 0.777815 0.000000
O O17 0.904133 0.500000 0.451471
O O18 0.961968 0.354447 0.331133
O O19 0.000000 0.350519 0.500000
O O20 0.873517 0.500000 0.271860
#
# Coordination Sequence:
#
# PCOD9148218 Si02
#       8
#     4   4   4   4   4   4   4   4
#     4  10  21  34  48  68 103 147 181 206 247 301
#     4  10  21  34  51  76 104 138 176 216 255 299
#     4   9  17  31  50  67  88 128 172 212 258 300
#     4   9  18  32  50  69  94 130 168 210 259 310
#     4  10  20  32  43  67  96 136 175 207 248 296
#     4   9  18  34  54  73  96 130 175 223 263 298
#     4   9  19  34  52  71  94 134 180 219 257 296
#     4  11  22  33  49  76 108 138 175 210 257 301
#
# _framework density 19.308402999999998
#
# number of rings (size 3 to 8) (size 9 to 14) (size 15 to 20)
#    0.000    2.375    2.500    1.500    3.500    5.500 
#    0.000    1.875    0.000    0.000    0.000    0.000 
#    0.000    4.500    0.000    0.000    0.000    0.250 
#
# Total GULP energy -178259.387321 kJ/mol
# GULP energy per Si atom -5570.605854 kJ/mol
# Density = 1.926446 g / cm^3
# Si number density = 19.308403 Si / 1000 Ang^3
#
#
#
# Elastic Constant Matrix: (Units=GPa)
#
#
# Indices 1 2 3 4 5 6 
#
# 1 94.6845 21.3296 24.7483 0.0000 15.1416 0.0000
# 2 21.3296 69.6391 2.9887 0.0000 0.9611 0.0000
# 3 24.7483 2.9887 69.7240 0.0000 4.7580 0.0000
# 4 0.0000 0.0000 0.0000 3.0641 0.0000 3.4585
# 5 15.1416 0.9611 4.7580 0.0000 26.7236 0.0000
# 6 0.0000 0.0000 0.0000 3.4585 0.0000 26.6500
#
#
#
# Elastic Compliance Matrix: (Units=1/GPa)
#
#
# Indices 1 2 3 4 5 6 
#
# 1 0.013632 -0.003901 -0.004205 0.000000 -0.006835 0.000000
# 2 -0.003901 0.015507 0.000615 0.000000 0.001543 0.000000
# 3 -0.004205 0.000615 0.015840 0.000000 -0.000460 0.000000
# 4 0.000000 0.000000 0.000000 0.382363 0.000000 -0.049621
# 5 -0.006835 0.001543 -0.000460 0.000000 0.041319 0.000000
# 6 0.000000 0.000000 0.000000 -0.049621 0.000000 0.043963
#
#
# Mechanical properties :
#
#
# Convention : Reuss Voigt Hill
#
# Bulk Modulus (GPa) = 33.33715 36.90897 35.12306
# Shear Modulus (GPa) = 9.30050 23.61963 16.46006
#
# Velocity S-wave (km/s) = 2.19710 3.50134 2.92290
# Velocity P-wave (km/s) = 4.87232 5.95843 5.44253
#
# Compressibility (1/GPa) = 0.02999656
#
# Stress axis : x y z
#
# Youngs Moduli (GPa) = 73.35561 64.48792 63.13187
#
# Poissons Ratio (x) = 0.25154 0.26547
# Poissons Ratio (y) = 0.28613 -0.03880
# Poissons Ratio (z) = 0.30847 -0.03963
#
# Static dielectric constant tensor:
#      x y z
#    x 1.739200 0.000000 -0.022590 
#    y 0.000000 1.682550 0.000000 
#    z -0.022590 0.000000 1.734130 
# 
# From -- ./inp_files/61841.got.cif
#   From: 2010.05.17/outbox.cif.g08.bks.cpg/sg10_31_cif.got.tgz:61841.got - 2010.06.03 11:33:40.
