data_PCOD9148838
_publ_section_title
;
Structure prediction by ZEFSAII (Michael W. Deem and Ramdas Pophale) SiO2 
 PCOD9148838
Probable space group: P 2/M
;
_chemical_formula_sum "Si O2"
_cell_formula_units_Z 28
_cell_length_a 15.395912
_cell_length_b 8.688202
_cell_length_c 10.359700
_cell_angle_alpha 90.000000
_cell_angle_beta 63.767181
_cell_angle_gamma 90.000000
_cell_volume 1243.018326
_symmetry_space_group_name_H-M "P 2/M"
_symmetry_group_IT_number 10
_symmetry_cell_setting 'monoclinic'
loop_
_space_group_symop_operation_xyz
x,y,z
-x,y,-z
-x,-y,-z
x,-y,z
loop_
_atom_site_type_symbol
_atom_site_label
_atom_site_fract_x
_atom_site_fract_y
_atom_site_fract_z
Si Si1 0.183800 0.178122 0.783059
Si Si2 0.094036 0.673524 0.487660
Si Si3 0.715029 0.685281 0.529064
Si Si4 0.994796 0.671736 0.826131
Si Si5 0.585751 0.683935 0.041176
Si Si6 0.212169 0.177911 0.064078
Si Si7 0.492330 0.816837 0.354364
O O1 0.247807 0.271704 0.639040
O O2 0.224421 0.186744 0.900324
O O3 0.072887 0.237697 0.862065
O O4 0.182863 0.000000 0.741522
O O5 0.098500 0.500000 0.424759
O O6 0.201305 0.737199 0.425495
O O7 0.000000 0.762498 0.500000
O O8 0.062298 0.655242 0.656061
O O9 0.705103 0.500000 0.546545
O O10 0.615624 0.771120 0.616731
O O11 0.971112 0.500000 0.887726
O O12 0.894255 0.748664 0.848173
O O13 0.586782 0.500000 0.036665
O O14 0.693527 0.743031 0.937610
O O15 0.559892 0.738712 0.203175
O O16 0.500000 0.737481 0.000000
O O17 0.208489 0.000000 0.104425
O O18 0.500000 0.766543 0.500000
O O19 0.508721 0.000000 0.340761
#
# Coordination Sequence:
#
# PCOD9148838 Si02
#       7
#     4   4   4   4   4   4   4
#     4  10  20  35  55  83 120 156 192 239 298 362
#     4   8  16  32  52  76 108 143 180 225 277 336
#     4  10  20  34  57  87 115 149 194 245 300 353
#     4  10  20  33  54  84 114 149 193 239 291 354
#     4  11  26  46  66  90 121 160 209 262 313 368
#     4  11  23  38  58  83 114 155 196 240 300 364
#     4  11  24  42  65  93 124 160 203 253 312 373
#
# _framework density 22.525815000000001
#
# number of rings (size 3 to 8) (size 9 to 14) (size 15 to 20)
#    0.000    1.857    0.000    4.714    0.000   10.857 
#    0.000    2.857    0.000   14.571    0.000    0.000 
#    0.000    0.000    0.000    0.000    0.000    0.000 
#
# Total GULP energy -156264.591554 kJ/mol
# GULP energy per Si atom -5580.878270 kJ/mol
# Density = 2.247455 g / cm^3
# Si number density = 22.525815 Si / 1000 Ang^3
#
#
#
# Elastic Constant Matrix: (Units=GPa)
#
#
# Indices 1 2 3 4 5 6 
#
# 1 159.2294 37.6390 12.7435 0.0000 -25.1722 0.0000
# 2 37.6390 69.1748 9.3686 0.0000 -3.1896 0.0000
# 3 12.7435 9.3686 59.4276 0.0000 -17.1799 0.0000
# 4 0.0000 0.0000 0.0000 76.5833 0.0000 30.9945
# 5 -25.1722 -3.1896 -17.1799 0.0000 34.7198 0.0000
# 6 0.0000 0.0000 0.0000 30.9945 0.0000 71.0218
#
#
#
# Elastic Compliance Matrix: (Units=1/GPa)
#
#
# Indices 1 2 3 4 5 6 
#
# 1 0.008157 -0.004252 0.000604 0.000000 0.005823 0.000000
# 2 -0.004252 0.016989 -0.002575 0.000000 -0.002796 0.000000
# 3 0.000604 -0.002575 0.020026 0.000000 0.010111 0.000000
# 4 0.000000 0.000000 0.000000 0.015859 0.000000 -0.006921
# 5 0.005823 -0.002796 0.010111 0.000000 0.037770 0.000000
# 6 0.000000 0.000000 0.000000 -0.006921 0.000000 0.017100
#
#
# Mechanical properties :
#
#
# Convention : Reuss Voigt Hill
#
# Bulk Modulus (GPa) = 30.55446 45.25932 37.90689
# Shear Modulus (GPa) = 35.90491 51.67037 43.78764
#
# Velocity S-wave (km/s) = 3.99676 4.79459 4.41374
# Velocity P-wave (km/s) = 5.90698 7.12647 6.54519
#
# Compressibility (1/GPa) = 0.03272844
#
# Stress axis : x y z
#
# Youngs Moduli (GPa) = 122.58717 58.85999 49.93385
#
# Poissons Ratio (x) = 0.25027 -0.03018
# Poissons Ratio (y) = 0.52123 0.12857
# Poissons Ratio (z) = -0.07408 0.15156
#
# Static dielectric constant tensor:
#      x y z
#    x 1.906960 0.000000 0.037340 
#    y 0.000000 1.794810 0.000000 
#    z 0.037340 0.000000 1.901660 
# 
# From -- ./inp_files/49637.got.cif
#   From: 2010.05.17/outbox.cif.g08.bks.cpg/sg10_25_cif.got.tgz:49637.got - 2010.06.03 11:33:40.
