data_PCOD9148989
_publ_section_title
;
Structure prediction by ZEFSAII (Michael W. Deem and Ramdas Pophale) SiO2 
 PCOD9148989
Probable space group: P 2/M
;
_chemical_formula_sum "Si O2"
_cell_formula_units_Z 28
_cell_length_a 17.581670
_cell_length_b 7.655093
_cell_length_c 11.239366
_cell_angle_alpha 90.000000
_cell_angle_beta 121.938569
_cell_angle_gamma 90.000000
_cell_volume 1283.699906
_symmetry_space_group_name_H-M "P 2/M"
_symmetry_group_IT_number 10
_symmetry_cell_setting 'monoclinic'
loop_
_space_group_symop_operation_xyz
x,y,z
-x,y,-z
-x,-y,-z
x,-y,z
loop_
_atom_site_type_symbol
_atom_site_label
_atom_site_fract_x
_atom_site_fract_y
_atom_site_fract_z
Si Si1 0.511179 0.214434 0.372778
Si Si2 0.768180 0.785846 0.215209
Si Si3 0.946370 0.789272 0.242401
Si Si4 0.309987 0.199172 0.604029
Si Si5 0.325963 0.212397 0.106811
Si Si6 0.862058 0.303246 0.660761
Si Si7 0.146108 0.789064 0.079391
O O1 0.500000 0.270172 0.500000
O O2 0.603601 0.275973 0.389769
O O3 0.424035 0.270116 0.226258
O O4 0.512501 0.000000 0.375952
O O5 0.870587 0.730812 0.272947
O O6 0.725410 0.721308 0.301946
O O7 0.770421 0.000000 0.220225
O O8 0.708690 0.734478 0.051947
O O9 0.048558 0.733546 0.340167
O O10 0.946126 0.000000 0.242494
O O11 0.911033 0.732216 0.082493
O O12 0.224004 0.193171 0.447156
O O13 0.336285 0.000000 0.655729
O O14 0.248611 0.263692 0.136319
O O15 0.326488 0.000000 0.106885
O O16 0.833586 0.500000 0.617761
O O17 0.883973 0.275452 0.817576
O O18 0.141574 0.000000 0.078592
#
# Coordination Sequence:
#
# PCOD9148989 Si02
#       7
#     4   4   4   4   4   4   4
#     4   9  16  26  46  78 109 134 161 198 246 296
#     4   8  16  31  51  76 101 128 166 210 251 293
#     4   9  18  34  55  76  99 129 166 207 252 303
#     4  10  20  34  52  73 100 135 173 208 245 294
#     4   8  14  27  50  80 108 128 157 206 254 295
#     4  12  24  34  47  71 103 136 170 211 255 294
#     4   9  17  32  55  78 101 131 164 201 250 306
#
# _framework density 21.811952000000002
#
# number of rings (size 3 to 8) (size 9 to 14) (size 15 to 20)
#    0.000    2.714    0.000    4.286    0.000    5.714 
#    0.000    6.429    0.000    4.714    0.000    1.000 
#    0.000    0.000    0.000    0.000    0.000    0.000 
#
# Total GULP energy -156309.329258 kJ/mol
# GULP energy per Si atom -5582.476045 kJ/mol
# Density = 2.176231 g / cm^3
# Si number density = 21.811952 Si / 1000 Ang^3
#
#
#
# Elastic Constant Matrix: (Units=GPa)
#
#
# Indices 1 2 3 4 5 6 
#
# 1 192.7093 8.6327 52.9045 0.0000 6.1566 0.0000
# 2 8.6327 43.1516 0.1344 0.0000 -1.9202 0.0000
# 3 52.9045 0.1344 27.7578 0.0000 5.7403 0.0000
# 4 0.0000 0.0000 0.0000 -34.9431 0.0000 22.8792
# 5 6.1566 -1.9202 5.7403 0.0000 41.8242 0.0000
# 6 0.0000 0.0000 0.0000 22.8792 0.0000 -60.5719
#
#
#
# Elastic Compliance Matrix: (Units=1/GPa)
#
#
# Indices 1 2 3 4 5 6 
#
# 1 0.011139 -0.002108 -0.021471 0.000000 0.001210 0.000000
# 2 -0.002108 0.023624 0.003720 0.000000 0.000884 0.000000
# 3 -0.021471 0.003720 0.078468 0.000000 -0.007438 0.000000
# 4 0.000000 0.000000 0.000000 -0.038021 0.000000 -0.014361
# 5 0.001210 0.000884 -0.007438 0.000000 0.024793 0.000000
# 6 0.000000 0.000000 0.000000 -0.014361 0.000000 -0.021934
#
#
# Mechanical properties :
#
#
# Convention : Reuss Voigt Hill
#
# Bulk Modulus (GPa) = 13.60287 42.99575 28.29931
# Shear Modulus (GPa) = 35.13918 2.72498 18.93208
#
# Velocity S-wave (km/s) = 4.01809 1.11894 2.94933
# Velocity P-wave (km/s) = 5.27036 4.62862 4.95988
#
# Compressibility (1/GPa) = 0.07351392
#
# Stress axis : x y z
#
# Youngs Moduli (GPa) = 89.77200 42.33065 12.74398
#
# Poissons Ratio (x) = 0.08922 0.27363
# Poissons Ratio (y) = 0.18922 -0.04741
# Poissons Ratio (z) = 1.92749 -0.15747
#
# Static dielectric constant tensor:
#      x y z
#    x 1.782940 0.000000 -0.003470 
#    y 0.000000 1.857100 0.000000 
#    z -0.003470 0.000000 1.776880 
# 
# From -- ./inp_files/49405.got.cif
#   From: 2010.05.17/outbox.cif.g08.bks.cpg/sg10_25_cif.got.tgz:49405.got - 2010.06.03 11:33:40.
