data_PCOD9148916
_publ_section_title
;
Structure prediction by ZEFSAII (Michael W. Deem and Ramdas Pophale) SiO2 
 PCOD9148916
Probable space group: P 2/M
;
_chemical_formula_sum "Si O2"
_cell_formula_units_Z 32
_cell_length_a 20.629613
_cell_length_b 7.369505
_cell_length_c 25.668458
_cell_angle_alpha 90.000000
_cell_angle_beta 159.438249
_cell_angle_gamma 90.000000
_cell_volume 1370.579768
_symmetry_space_group_name_H-M "P 2/M"
_symmetry_group_IT_number 10
_symmetry_cell_setting 'monoclinic'
loop_
_space_group_symop_operation_xyz
x,y,z
-x,y,-z
-x,-y,-z
x,-y,z
loop_
_atom_site_type_symbol
_atom_site_label
_atom_site_fract_x
_atom_site_fract_y
_atom_site_fract_z
Si Si1 0.149350 0.788382 0.868740
Si Si2 0.289417 0.719644 0.683781
Si Si3 0.519523 0.722797 0.758299
Si Si4 0.880387 0.281066 0.338360
Si Si5 0.682170 0.278170 0.606413
Si Si6 0.742993 0.718942 0.533766
Si Si7 0.920649 0.297550 0.067707
Si Si8 0.641974 0.208767 0.067223
O O1 0.121532 0.691608 0.902194
O O2 0.307897 0.711622 0.950737
O O3 0.955699 0.775622 0.692766
O O4 0.185025 0.000000 0.906143
O O5 0.299160 0.500000 0.692018
O O6 0.442734 0.780882 0.757466
O O7 0.264745 0.777346 0.725565
O O8 0.088195 0.770154 0.509308
O O9 0.524250 0.500000 0.762741
O O10 0.379861 0.778805 0.607424
O O11 0.728541 0.784893 0.903320
O O12 0.877832 0.500000 0.335057
O O13 0.822954 0.209330 0.239465
O O14 0.500000 0.222941 0.500000
O O15 0.690884 0.500000 0.613367
O O16 0.675509 0.223390 0.540695
O O17 0.874160 0.214868 0.777652
O O18 0.739682 0.500000 0.530301
O O19 0.935865 0.500000 0.056404
O O20 0.588188 0.000000 0.018212
O O21 0.500000 0.299299 0.000000
#
# Coordination Sequence:
#
# PCOD9148916 Si02
#       8
#     4   4   4   4   4   4   4   4
#     4  10  20  34  50  67  93 128 164 202 241 285
#     4   8  15  27  44  66  92 114 140 194 248 279
#     4   9  16  27  46  72  99 122 154 201 245 280
#     4   9  17  30  47  66  84 112 155 194 236 284
#     4   8  14  27  47  72 103 134 160 188 225 276
#     4   9  17  31  53  76  96 125 161 196 236 283
#     4   9  18  31  50  74  98 126 161 198 239 285
#     4  10  22  35  44  59  90 124 153 193 242 282
#
# _framework density 23.347784999999998
#
# number of rings (size 3 to 8) (size 9 to 14) (size 15 to 20)
#    0.000    3.000    0.000    2.625    1.750    2.250 
#    0.000    2.500    0.000   11.250    0.000    0.000 
#    0.000    8.000    0.000    0.000    0.000    0.000 
#
# Total GULP energy -178609.180506 kJ/mol
# GULP energy per Si atom -5581.536891 kJ/mol
# Density = 2.329464 g / cm^3
# Si number density = 23.347785 Si / 1000 Ang^3
#
#
#
# Elastic Constant Matrix: (Units=GPa)
#
#
# Indices 1 2 3 4 5 6 
#
# 1 75.2122 2.3799 13.7217 0.0000 23.0304 0.0000
# 2 2.3799 92.9249 5.9742 0.0000 1.7448 0.0000
# 3 13.7217 5.9742 88.7306 0.0000 4.2779 0.0000
# 4 0.0000 0.0000 0.0000 15.1168 0.0000 -3.9339
# 5 23.0304 1.7448 4.2779 0.0000 44.1475 0.0000
# 6 0.0000 0.0000 0.0000 -3.9339 0.0000 -6.4158
#
#
#
# Elastic Compliance Matrix: (Units=1/GPa)
#
#
# Indices 1 2 3 4 5 6 
#
# 1 0.016208 -0.000125 -0.002100 0.000000 -0.008247 0.000000
# 2 -0.000125 0.010815 -0.000695 0.000000 -0.000295 0.000000
# 3 -0.002100 -0.000695 0.011642 0.000000 -0.000005 0.000000
# 4 0.000000 0.000000 0.000000 0.057049 0.000000 -0.034980
# 5 -0.008247 -0.000295 -0.000005 0.000000 0.026966 0.000000
# 6 0.000000 0.000000 0.000000 -0.034980 0.000000 -0.134417
#
#
# Mechanical properties :
#
#
# Convention : Reuss Voigt Hill
#
# Bulk Modulus (GPa) = 30.46529 33.44657 31.95593
# Shear Modulus (GPa) = 991.23416 26.22250 508.72833
#
# Velocity S-wave (km/s) = 20.62701 3.35494 14.77716
# Velocity P-wave (km/s) = 24.09097 5.41886 17.46051
#
# Compressibility (1/GPa) = 0.03282424
#
# Stress axis : x y z
#
# Youngs Moduli (GPa) = 61.69762 92.46614 85.89666
#
# Poissons Ratio (x) = 0.01158 0.18042
# Poissons Ratio (y) = 0.00773 0.05966
# Poissons Ratio (z) = 0.12959 0.06422
#
# Static dielectric constant tensor:
#      x y z
#    x 1.839540 0.000000 0.007480 
#    y 0.000000 1.936210 0.000000 
#    z 0.007480 0.000000 1.934320 
# 
# From -- ./inp_files/93666.got.cif
#   From: 2010.05.17/outbox.cif.g08.bks.cpg/sg10_47_cif.got.tgz:93666.got - 2010.06.03 11:33:40.
