data_PCOD9148088
_publ_section_title
;
Structure prediction by ZEFSAII (Michael W. Deem and Ramdas Pophale) SiO2 
 PCOD9148088
Probable space group: P 2/M
;
_chemical_formula_sum "Si O2"
_cell_formula_units_Z 30
_cell_length_a 14.346408
_cell_length_b 12.463667
_cell_length_c 8.123801
_cell_angle_alpha 90.000000
_cell_angle_beta 54.071200
_cell_angle_gamma 90.000000
_cell_volume 1176.244292
_symmetry_space_group_name_H-M "P 2/M"
_symmetry_group_IT_number 10
_symmetry_cell_setting 'monoclinic'
loop_
_space_group_symop_operation_xyz
x,y,z
-x,y,-z
-x,-y,-z
x,-y,z
loop_
_atom_site_type_symbol
_atom_site_label
_atom_site_fract_x
_atom_site_fract_y
_atom_site_fract_z
Si Si1 0.970007 0.117702 0.725514
Si Si2 0.186990 0.385113 0.165906
Si Si3 0.043100 0.342838 0.771315
Si Si4 0.739378 0.500000 0.427819
Si Si5 0.743940 0.835935 0.801269
Si Si6 0.727669 0.116076 0.454436
Si Si7 0.452169 0.122366 0.765018
Si Si8 0.683422 0.695123 0.290084
O O1 0.026613 0.215088 0.762462
O O2 0.831206 0.128365 0.855373
O O3 0.000000 0.126613 0.500000
O O4 0.999193 0.000000 0.757721
O O5 0.221266 0.500000 0.197884
O O6 0.052202 0.381111 0.263969
O O7 0.232863 0.290555 0.231409
O O8 0.246479 0.364827 0.926896
O O9 0.161801 0.406553 0.630064
O O10 0.000000 0.369758 0.000000
O O11 0.654091 0.598373 0.445006
O O12 0.772493 0.881754 0.594379
O O13 0.617081 0.865557 0.992652
O O14 0.589395 0.128032 0.626342
O O15 0.758274 0.215103 0.307652
O O16 0.752767 0.000000 0.355202
O O17 0.405845 0.224935 0.710072
O O18 0.425549 0.000000 0.732765
#
# Coordination Sequence:
#
# PCOD9148088 Si02
#       8
#     4   4   4   2   4   4   4   4
#     4  10  23  40  57  89 135 166 190 241 313 368
#     4  10  19  39  62  88 122 165 208 260 297 353
#     4  11  20  37  64  88 114 160 215 253 290 350
#     4  12  23  40  62  90 121 162 215 254 300 362
#     4  10  22  38  65  91 125 165 210 250 307 364
#     4  11  23  41  64  94 126 159 202 258 314 376
#     4  10  21  41  67  92 119 158 210 258 309 371
#     4  11  22  36  62  91 124 155 196 256 318 358
#
# _framework density 25.504905999999998
#
# number of rings (size 3 to 8) (size 9 to 14) (size 15 to 20)
#    0.000    1.467    2.667    2.600    1.867    2.400 
#    1.200    3.000    0.000    1.600    0.000    0.000 
#    0.000    0.000    0.000    0.000    0.000    0.000 
#
# Total GULP energy -167272.745604 kJ/mol
# GULP energy per Si atom -5575.758187 kJ/mol
# Density = 2.544686 g / cm^3
# Si number density = 25.504906 Si / 1000 Ang^3
#
#
#
# Elastic Constant Matrix: (Units=GPa)
#
#
# Indices 1 2 3 4 5 6 
#
# 1 106.8023 27.6525 -6.8658 0.0000 -9.9967 0.0000
# 2 27.6525 251.6097 3.5917 0.0000 5.7678 0.0000
# 3 -6.8658 3.5917 69.3207 0.0000 5.2332 0.0000
# 4 0.0000 0.0000 0.0000 38.1782 0.0000 -27.2227
# 5 -9.9967 5.7678 5.2332 0.0000 22.8491 0.0000
# 6 0.0000 0.0000 0.0000 -27.2227 0.0000 40.6944
#
#
#
# Elastic Compliance Matrix: (Units=1/GPa)
#
#
# Indices 1 2 3 4 5 6 
#
# 1 0.010158 -0.001232 0.000723 0.000000 0.004590 0.000000
# 2 -0.001232 0.004148 -0.000221 0.000000 -0.001535 0.000000
# 3 0.000723 -0.000221 0.014735 0.000000 -0.003003 0.000000
# 4 0.000000 0.000000 0.000000 0.050082 0.000000 0.033502
# 5 0.004590 -0.001535 -0.003003 0.000000 0.046849 0.000000
# 6 0.000000 0.000000 0.000000 0.033502 0.000000 0.046985
#
#
# Mechanical properties :
#
#
# Convention : Reuss Voigt Hill
#
# Bulk Modulus (GPa) = 36.25453 52.94327 44.59890
# Shear Modulus (GPa) = 27.23157 47.23462 37.23310
#
# Velocity S-wave (km/s) = 3.27111 4.30813 3.82493
# Velocity P-wave (km/s) = 5.33971 6.74906 6.08532
#
# Compressibility (1/GPa) = 0.02758276
#
# Stress axis : x y z
#
# Youngs Moduli (GPa) = 98.44311 241.07094 67.86345
#
# Poissons Ratio (x) = 0.29698 -0.04910
# Poissons Ratio (y) = 0.12128 0.01500
# Poissons Ratio (z) = -0.07122 0.05328
#
# Static dielectric constant tensor:
#      x y z
#    x 2.084880 0.000000 -0.018750 
#    y 0.000000 2.012770 0.000000 
#    z -0.018750 0.000000 2.035370 
# 
# From -- ./inp_files/28549.got.cif
#   From: 2010.05.17/outbox.cif.g08.bks.cpg/sg10_15_cif.got.tgz:28549.got - 2010.06.03 11:33:40.
