data_PCOD9148930
_publ_section_title
;
Structure prediction by ZEFSAII (Michael W. Deem and Ramdas Pophale) SiO2 
 PCOD9148930
Probable space group: P 2/M
;
_chemical_formula_sum "Si O2"
_cell_formula_units_Z 32
_cell_length_a 12.563722
_cell_length_b 8.452114
_cell_length_c 22.551455
_cell_angle_alpha 90.000000
_cell_angle_beta 46.823181
_cell_angle_gamma 90.000000
_cell_volume 1746.352879
_symmetry_space_group_name_H-M "P 2/M"
_symmetry_group_IT_number 10
_symmetry_cell_setting 'monoclinic'
loop_
_space_group_symop_operation_xyz
x,y,z
-x,y,-z
-x,-y,-z
x,-y,z
loop_
_atom_site_type_symbol
_atom_site_label
_atom_site_fract_x
_atom_site_fract_y
_atom_site_fract_z
Si Si1 0.548698 0.190553 0.716891
Si Si2 0.881967 0.190284 0.592090
Si Si3 0.172303 0.176629 0.939918
Si Si4 0.717843 0.317224 0.985472
Si Si5 0.560529 0.812392 0.850562
Si Si6 0.005965 0.306804 0.196705
Si Si7 0.882352 0.687782 0.722556
Si Si8 0.732959 0.310983 0.221503
O O1 0.715656 0.242912 0.643199
O O2 0.515858 0.231296 0.799212
O O3 0.437062 0.263451 0.711971
O O4 0.540018 0.000000 0.716287
O O5 0.917085 0.236021 0.646171
O O6 0.000000 0.250540 0.500000
O O7 0.879947 0.000000 0.589512
O O8 0.212622 0.298281 0.975690
O O9 0.224136 0.229663 0.856348
O O10 0.229777 0.000000 0.933543
O O11 0.000000 0.167422 0.000000
O O12 0.691611 0.500000 0.980347
O O13 0.562329 0.233259 0.054736
O O14 0.845994 0.252851 0.893808
O O15 0.714456 0.728025 0.802489
O O16 0.584996 0.000000 0.841721
O O17 0.010107 0.500000 0.192661
O O18 0.019558 0.257706 0.259696
O O19 0.854895 0.258425 0.222708
O O20 0.896293 0.500000 0.711462
O O21 0.743483 0.500000 0.213007
#
# Coordination Sequence:
#
# PCOD9148930 Si02
#       8
#     4   4   4   4   4   4   4   4
#     4   9  18  32  51  78 109 133 162 211 266 311
#     4   9  19  38  63  87 110 133 159 203 264 321
#     4  11  21  31  44  68 101 136 179 233 278 305
#     4  11  20  32  50  70  96 139 190 229 268 310
#     4  10  20  34  50  73 106 138 176 228 276 311
#     4   9  21  36  49  71 104 143 183 225 262 302
#     4  10  20  37  57  77 105 138 175 215 260 315
#     4  11  20  32  51  73 101 140 183 218 260 311
#
# _framework density 18.323903999999999
#
# number of rings (size 3 to 8) (size 9 to 14) (size 15 to 20)
#    0.000    2.000    2.500    2.625    0.000    3.250 
#    0.000    7.500    0.000    0.750    0.000    5.250 
#    0.000    0.000    0.000    0.000    0.000    0.000 
#
# Total GULP energy -178422.001585 kJ/mol
# GULP energy per Si atom -5575.687550 kJ/mol
# Density = 1.828220 g / cm^3
# Si number density = 18.323904 Si / 1000 Ang^3
#
#
#
# Elastic Constant Matrix: (Units=GPa)
#
#
# Indices 1 2 3 4 5 6 
#
# 1 95.0089 -2.5186 52.8618 0.0000 2.6569 0.0000
# 2 -2.5186 14.8347 7.7153 0.0000 -5.5603 0.0000
# 3 52.8618 7.7153 105.3020 0.0000 -7.1058 0.0000
# 4 0.0000 0.0000 0.0000 18.9742 0.0000 -0.2189
# 5 2.6569 -5.5603 -7.1058 0.0000 14.3709 0.0000
# 6 0.0000 0.0000 0.0000 -0.2189 0.0000 42.9729
#
#
#
# Elastic Compliance Matrix: (Units=1/GPa)
#
#
# Indices 1 2 3 4 5 6 
#
# 1 0.015550 0.005167 -0.008528 0.000000 -0.005093 0.000000
# 2 0.005167 0.082096 -0.006755 0.000000 0.027469 0.000000
# 3 -0.008528 -0.006755 0.014693 0.000000 0.006228 0.000000
# 4 0.000000 0.000000 0.000000 0.052706 0.000000 0.000268
# 5 -0.005093 0.027469 0.006228 0.000000 0.084234 0.000000
# 6 0.000000 0.000000 0.000000 0.000268 0.000000 0.023272
#
#
# Mechanical properties :
#
#
# Convention : Reuss Voigt Hill
#
# Bulk Modulus (GPa) = 10.85718 36.80694 23.83206
# Shear Modulus (GPa) = 15.45665 25.73607 20.59636
#
# Velocity S-wave (km/s) = 2.90750 3.75174 3.35627
# Velocity P-wave (km/s) = 4.14842 6.23682 5.29657
#
# Compressibility (1/GPa) = 0.09210493
#
# Stress axis : x y z
#
# Youngs Moduli (GPa) = 64.31006 12.18092 68.06040
#
# Poissons Ratio (x) = -0.06293 0.58043
# Poissons Ratio (y) = -0.33226 0.45975
# Poissons Ratio (z) = 0.54845 0.08228
#
# Static dielectric constant tensor:
#      x y z
#    x 1.686760 0.000000 -0.048750 
#    y 0.000000 1.643620 0.000000 
#    z -0.048750 0.000000 1.649990 
# 
# From -- ./inp_files/88536.got.cif
#   From: 2010.05.17/outbox.cif.g08.bks.cpg/sg10_45_cif.got.tgz:88536.got - 2010.06.03 11:33:40.
