data_PCOD9148991
_publ_section_title
;
Structure prediction by ZEFSAII (Michael W. Deem and Ramdas Pophale) SiO2 
 PCOD9148991
Probable space group: P 2/M
;
_chemical_formula_sum "Si O2"
_cell_formula_units_Z 28
_cell_length_a 16.518419
_cell_length_b 15.433320
_cell_length_c 9.750631
_cell_angle_alpha 90.000000
_cell_angle_beta 149.053088
_cell_angle_gamma 90.000000
_cell_volume 1278.290281
_symmetry_space_group_name_H-M "P 2/M"
_symmetry_group_IT_number 10
_symmetry_cell_setting 'monoclinic'
loop_
_space_group_symop_operation_xyz
x,y,z
-x,y,-z
-x,-y,-z
x,-y,z
loop_
_atom_site_type_symbol
_atom_site_label
_atom_site_fract_x
_atom_site_fract_y
_atom_site_fract_z
Si Si1 0.031650 0.101654 0.698191
Si Si2 0.140949 0.853301 0.296516
Si Si3 0.486726 0.604978 0.328544
Si Si4 0.670051 0.105351 0.685393
Si Si5 0.136601 0.395579 0.801919
Si Si6 0.358837 0.602708 0.706040
Si Si7 0.034841 0.657427 0.197541
O O1 0.000000 0.139354 0.500000
O O2 0.881979 0.109504 0.583863
O O3 0.064024 0.000000 0.725732
O O4 0.186035 0.135510 0.005278
O O5 0.289875 0.863952 0.412355
O O6 0.094477 0.753604 0.252868
O O7 0.000000 0.894089 0.000000
O O8 0.500000 0.640343 0.500000
O O9 0.500153 0.500000 0.358145
O O10 0.618534 0.636164 0.415680
O O11 0.314742 0.622664 0.016123
O O12 0.500000 0.131091 0.500000
O O13 0.672933 0.000000 0.685132
O O14 0.124901 0.500000 0.802705
O O15 0.000000 0.367769 0.500000
O O16 0.109291 0.351742 0.909510
O O17 0.383687 0.500000 0.738271
O O18 0.180930 0.615457 0.489935
O O19 0.500000 0.640993 0.000000
O O20 0.000000 0.614693 0.000000
#
# Coordination Sequence:
#
# PCOD9148991 Si02
#       7
#     4   4   4   4   4   4   4
#     4   9  17  32  56  82 107 140 181 221 262 311
#     4   9  19  35  52  76 111 146 179 214 264 327
#     4   9  17  30  48  69  91 116 152 200 250 296
#     4   9  17  33  58  83 107 140 182 224 265 312
#     4  10  20  34  52  73  96 126 168 216 262 308
#     4  10  20  35  53  72  97 130 169 213 261 312
#     4  11  22  35  52  76 104 136 175 216 261 316
#
# _framework density 21.904256
#
# number of rings (size 3 to 8) (size 9 to 14) (size 15 to 20)
#    0.000    2.429    0.000    2.571    0.000    6.857 
#    0.000    7.143    0.000    3.429    0.000    0.000 
#    0.000    0.000    0.000    0.000    0.000    0.000 
#
# Total GULP energy -156072.170613 kJ/mol
# GULP energy per Si atom -5574.006093 kJ/mol
# Density = 2.185440 g / cm^3
# Si number density = 21.904256 Si / 1000 Ang^3
#
#
#
# Elastic Constant Matrix: (Units=GPa)
#
#
# Indices 1 2 3 4 5 6 
#
# 1 147.9798 7.1417 29.6039 0.0000 0.4224 0.0000
# 2 7.1417 27.2969 3.1522 0.0000 -2.0030 0.0000
# 3 29.6039 3.1522 70.6609 0.0000 -8.5547 0.0000
# 4 0.0000 0.0000 0.0000 3.6728 0.0000 8.8044
# 5 0.4224 -2.0030 -8.5547 0.0000 36.3517 0.0000
# 6 0.0000 0.0000 0.0000 8.8044 0.0000 -1.1855
#
#
#
# Elastic Compliance Matrix: (Units=1/GPa)
#
#
# Indices 1 2 3 4 5 6 
#
# 1 0.007474 -0.001657 -0.003169 0.000000 -0.000924 0.000000
# 2 -0.001657 0.037293 -0.000739 0.000000 0.001900 0.000000
# 3 -0.003169 -0.000739 0.015967 0.000000 0.003754 0.000000
# 4 0.000000 0.000000 0.000000 0.014480 0.000000 0.107539
# 5 -0.000924 0.001900 0.003754 0.000000 0.028508 0.000000
# 6 0.000000 0.000000 0.000000 0.107539 0.000000 -0.044860
#
#
# Mechanical properties :
#
#
# Convention : Reuss Voigt Hill
#
# Bulk Modulus (GPa) = 20.16033 36.19258 28.17645
# Shear Modulus (GPa) = 57.78451 21.50379 39.64415
#
# Velocity S-wave (km/s) = 5.14177 3.13664 4.25889
# Velocity P-wave (km/s) = 6.66890 5.44765 6.08897
#
# Compressibility (1/GPa) = 0.04960236
#
# Stress axis : x y z
#
# Youngs Moduli (GPa) = 133.79100 26.81502 62.62783
#
# Poissons Ratio (x) = 0.04444 0.19849
# Poissons Ratio (y) = 0.22173 0.04630
# Poissons Ratio (z) = 0.42403 0.01982
#
# Static dielectric constant tensor:
#      x y z
#    x 1.828590 0.000000 -0.030860 
#    y 0.000000 1.810000 0.000000 
#    z -0.030860 0.000000 1.848260 
# 
# From -- ./inp_files/30201.got.cif
#   From: 2010.05.17/outbox.cif.g08.bks.cpg/sg10_16_cif.got.tgz:30201.got - 2010.06.03 11:33:40.
