data_PCOD9148926
_publ_section_title
;
Structure prediction by ZEFSAII (Michael W. Deem and Ramdas Pophale) SiO2 
 PCOD9148926
Probable space group: P 2/M
;
_chemical_formula_sum "Si O2"
_cell_formula_units_Z 26
_cell_length_a 19.346621
_cell_length_b 10.145492
_cell_length_c 13.682745
_cell_angle_alpha 90.000000
_cell_angle_beta 146.957865
_cell_angle_gamma 90.000000
_cell_volume 1464.372746
_symmetry_space_group_name_H-M "P 2/M"
_symmetry_group_IT_number 10
_symmetry_cell_setting 'monoclinic'
loop_
_space_group_symop_operation_xyz
x,y,z
-x,y,-z
-x,-y,-z
x,-y,z
loop_
_atom_site_type_symbol
_atom_site_label
_atom_site_fract_x
_atom_site_fract_y
_atom_site_fract_z
Si Si1 0.744302 0.148249 0.599604
Si Si2 0.435791 0.647002 0.529358
Si Si3 0.090268 0.345374 0.908316
Si Si4 0.191598 0.345367 0.496258
Si Si5 0.681657 0.656361 0.953672
Si Si6 0.634368 0.340918 0.115004
Si Si7 0.000000 0.786423 0.000000
O O1 0.659407 0.232768 0.572894
O O2 0.750630 0.242731 0.512394
O O3 0.884658 0.140555 0.811133
O O4 0.698257 0.000000 0.525959
O O5 0.500000 0.647467 0.500000
O O6 0.377451 0.500000 0.473888
O O7 0.546859 0.664243 0.740323
O O8 0.115190 0.500000 0.950752
O O9 0.960028 0.330400 0.692383
O O10 0.063281 0.292353 0.984789
O O11 0.208186 0.288145 0.986457
O O12 0.220090 0.500000 0.505573
O O13 0.253780 0.318593 0.674723
O O14 0.711291 0.500000 0.999427
O O15 0.667947 0.711125 0.047008
O O16 0.620493 0.500000 0.088886
O O17 0.500000 0.293040 0.000000
#
# Coordination Sequence:
#
# PCOD9148926 Si02
#       7
#     4   4   4   4   4   4   2
#     4  11  22  35  52  74 101 133 170 211 254 302
#     4  10  20  34  53  76 103 136 171 208 254 306
#     4   9  17  29  48  76 105 132 167 212 256 299
#     4   9  18  32  51  75 100 130 169 210 252 300
#     4   9  17  29  48  76 106 133 166 210 257 303
#     4   9  16  27  46  72 102 135 169 208 255 303
#     4  10  20  34  50  70  99 138 173 204 251 310
#
# _framework density 17.755043000000001
#
# number of rings (size 3 to 8) (size 9 to 14) (size 15 to 20)
#    0.000    2.462    0.000    2.769    0.000    6.462 
#    0.000    3.077    0.000    5.077    0.000    4.308 
#    0.000    0.000    0.000    0.000    0.000    0.000 
#
# Total GULP energy -144810.747908 kJ/mol
# GULP energy per Si atom -5569.644150 kJ/mol
# Density = 1.771463 g / cm^3
# Si number density = 17.755043 Si / 1000 Ang^3
#
#
#
# Elastic Constant Matrix: (Units=GPa)
#
#
# Indices 1 2 3 4 5 6 
#
# 1 116.9569 32.5095 43.5836 0.0000 -6.8711 0.0000
# 2 32.5095 74.5551 28.4714 0.0000 3.8613 0.0000
# 3 43.5836 28.4714 54.7329 0.0000 -18.5748 0.0000
# 4 0.0000 0.0000 0.0000 -8.5090 0.0000 32.6522
# 5 -6.8711 3.8613 -18.5748 0.0000 30.3619 0.0000
# 6 0.0000 0.0000 0.0000 32.6522 0.0000 -64.7000
#
#
#
# Elastic Compliance Matrix: (Units=1/GPa)
#
#
# Indices 1 2 3 4 5 6 
#
# 1 0.012644 -0.001306 -0.010553 0.000000 -0.003428 0.000000
# 2 -0.001306 0.019313 -0.012545 0.000000 -0.010426 0.000000
# 3 -0.010553 -0.012545 0.041559 0.000000 0.024632 0.000000
# 4 0.000000 0.000000 0.000000 0.125476 0.000000 0.063324
# 5 -0.003428 -0.010426 0.024632 0.000000 0.048556 0.000000
# 6 0.000000 0.000000 0.000000 0.063324 0.000000 0.016502
#
#
# Mechanical properties :
#
#
# Convention : Reuss Voigt Hill
#
# Bulk Modulus (GPa) = 40.47124 50.59709 45.53416
# Shear Modulus (GPa) = 15.57185 0.87594 8.22389
#
# Velocity S-wave (km/s) = 2.96470 0.70315 2.15451
# Velocity P-wave (km/s) = 5.87902 5.40540 5.64718
#
# Compressibility (1/GPa) = 0.02470891
#
# Stress axis : x y z
#
# Youngs Moduli (GPa) = 79.08791 51.77847 24.06242
#
# Poissons Ratio (x) = 0.06762 0.25392
# Poissons Ratio (y) = 0.10329 0.30186
# Poissons Ratio (z) = 0.83458 0.64955
#
# Static dielectric constant tensor:
#      x y z
#    x 1.638350 0.000000 0.014240 
#    y 0.000000 1.594540 0.000000 
#    z 0.014240 0.000000 1.613930 
# 
# From -- ./inp_files/70085.got.cif
#   From: 2010.05.17/outbox.cif.g08.bks.cpg/sg10_36_cif.got.tgz:70085.got - 2010.06.03 11:33:40.
