data_PCOD9148263
_publ_section_title
;
Structure prediction by ZEFSAII (Michael W. Deem and Ramdas Pophale) SiO2 
 PCOD9148263
Probable space group: P 2/M
;
_chemical_formula_sum "Si O2"
_cell_formula_units_Z 24
_cell_length_a 16.666431
_cell_length_b 8.042536
_cell_length_c 6.825924
_cell_angle_alpha 90.000000
_cell_angle_beta 88.962599
_cell_angle_gamma 90.000000
_cell_volume 914.799418
_symmetry_space_group_name_H-M "P 2/M"
_symmetry_group_IT_number 10
_symmetry_cell_setting 'monoclinic'
loop_
_space_group_symop_operation_xyz
x,y,z
-x,y,-z
-x,-y,-z
x,-y,z
loop_
_atom_site_type_symbol
_atom_site_label
_atom_site_fract_x
_atom_site_fract_y
_atom_site_fract_z
Si Si1 0.411354 0.816698 0.428393
Si Si2 0.902371 0.693393 0.302933
Si Si3 0.262522 0.700460 0.567957
Si Si4 0.236733 0.195930 0.111204
Si Si5 0.926777 0.196693 0.746508
Si Si6 0.410557 0.681918 0.026838
O O1 0.500000 0.823178 0.500000
O O2 0.350225 0.773406 0.603040
O O3 0.408100 0.680051 0.262799
O O4 0.391640 0.000000 0.345305
O O5 0.904799 0.500000 0.250476
O O6 0.811117 0.760317 0.294748
O O7 0.915254 0.709658 0.539773
O O8 0.979579 0.781337 0.208600
O O9 0.261832 0.500000 0.569780
O O10 0.249268 0.765874 0.345169
O O11 0.143198 0.256630 0.102030
O O12 0.316709 0.265129 0.002395
O O13 0.236677 0.000000 0.076499
O O14 0.913904 0.000000 0.712404
O O15 0.419027 0.500000 0.934640
O O16 0.500000 0.768831 0.000000
#
# Coordination Sequence:
#
# PCOD9148263 Si02
#       6
#     4   4   4   4   4   4
#     4  10  20  32  47  67  89 116 150 184 221 264
#     4   9  15  21  31  49  73 103 137 169 205 250
#     4   9  16  25  38  56  79 109 142 175 214 257
#     4   9  16  25  38  56  79 109 142 175 214 257
#     4   9  15  21  31  49  73 103 137 169 205 250
#     4  10  20  32  47  67  89 116 150 184 221 264
#
# _framework density 26.235258999999999
#
# number of rings (size 3 to 8) (size 9 to 14) (size 15 to 20)
#    0.000    2.667    0.000    6.000    0.000    6.667 
#    0.000    0.000    0.000    0.000    0.000    0.000 
#    0.000    1.333    0.000   14.667    0.000   16.333 
#
# Total GULP energy -133835.707842 kJ/mol
# GULP energy per Si atom -5576.487827 kJ/mol
# Density = 2.617555 g / cm^3
# Si number density = 26.235259 Si / 1000 Ang^3
#
#
#
# Elastic Constant Matrix: (Units=GPa)
#
#
# Indices 1 2 3 4 5 6 
#
# 1 250.4846 23.0754 35.9973 0.0000 -75.7409 0.0000
# 2 23.0754 97.5835 -2.1119 0.0000 -10.8238 0.0000
# 3 35.9973 -2.1119 115.7104 0.0000 -46.7013 0.0000
# 4 0.0000 0.0000 0.0000 18.8329 0.0000 -8.6518
# 5 -75.7409 -10.8238 -46.7013 0.0000 58.6203 0.0000
# 6 0.0000 0.0000 0.0000 -8.6518 0.0000 35.7802
#
#
#
# Elastic Compliance Matrix: (Units=1/GPa)
#
#
# Indices 1 2 3 4 5 6 
#
# 1 0.006910 -0.000423 0.002085 0.000000 0.010511 0.000000
# 2 -0.000423 0.010651 0.001325 0.000000 0.002476 0.000000
# 3 0.002085 0.001325 0.013566 0.000000 0.013746 0.000000
# 4 0.000000 0.000000 0.000000 0.059734 0.000000 0.014444
# 5 0.010511 0.002476 0.013746 0.000000 0.042048 0.000000
# 6 0.000000 0.000000 0.000000 0.014444 0.000000 0.031441
#
#
# Mechanical properties :
#
#
# Convention : Reuss Voigt Hill
#
# Bulk Modulus (GPa) = 26.95362 64.18892 45.57127
# Shear Modulus (GPa) = 29.28389 49.76784 39.52587
#
# Velocity S-wave (km/s) = 3.34459 4.36016 3.88570
# Velocity P-wave (km/s) = 5.02107 7.06171 6.12695
#
# Compressibility (1/GPa) = 0.03710077
#
# Stress axis : x y z
#
# Youngs Moduli (GPa) = 144.72147 93.88821 73.71486
#
# Poissons Ratio (x) = 0.03971 -0.15368
# Poissons Ratio (y) = 0.06122 -0.09769
# Poissons Ratio (z) = -0.30172 -0.12443
#
# Static dielectric constant tensor:
#      x y z
#    x 2.342370 0.000000 0.074740 
#    y 0.000000 1.975380 0.000000 
#    z 0.074740 0.000000 2.161470 
# 
# From -- ./inp_files/48673.got.cif
#   From: 2010.05.17/outbox.cif.g08.bks.cpg/sg10_25_cif.got.tgz:48673.got - 2010.06.03 11:33:40.
