data_PCOD9148345
_publ_section_title
;
Structure prediction by ZEFSAII (Michael W. Deem and Ramdas Pophale) SiO2 
 PCOD9148345
Probable space group: P 2/M
;
_chemical_formula_sum "Si O2"
_cell_formula_units_Z 32
_cell_length_a 10.920539
_cell_length_b 7.299267
_cell_length_c 17.839596
_cell_angle_alpha 90.000000
_cell_angle_beta 110.901218
_cell_angle_gamma 90.000000
_cell_volume 1328.454721
_symmetry_space_group_name_H-M "P 2/M"
_symmetry_group_IT_number 10
_symmetry_cell_setting 'monoclinic'
loop_
_space_group_symop_operation_xyz
x,y,z
-x,y,-z
-x,-y,-z
x,-y,z
loop_
_atom_site_type_symbol
_atom_site_label
_atom_site_fract_x
_atom_site_fract_y
_atom_site_fract_z
Si Si1 0.202871 0.276349 0.896878
Si Si2 0.445603 0.722459 0.854933
Si Si3 0.550308 0.278533 0.311504
Si Si4 0.251020 0.277164 0.069016
Si Si5 0.077812 0.212709 0.446739
Si Si6 0.995235 0.278991 0.728093
Si Si7 0.248064 0.277347 0.234018
Si Si8 0.365727 0.791542 0.505696
O O1 0.199492 0.500000 0.897106
O O2 0.345031 0.220760 0.896723
O O3 0.099443 0.216634 0.812213
O O4 0.181953 0.216493 0.977744
O O5 0.446384 0.500000 0.855099
O O6 0.402524 0.777273 0.761295
O O7 0.595577 0.776664 0.900981
O O8 0.556781 0.500000 0.315750
O O9 0.397262 0.222905 0.280958
O O10 0.619419 0.208928 0.400968
O O11 0.246531 0.500000 0.068222
O O12 0.203855 0.219864 0.140874
O O13 0.988842 0.221182 0.353612
O O14 0.222119 0.292382 0.459878
O O15 0.000000 0.293161 0.500000
O O16 0.103992 0.000000 0.471114
O O17 0.998742 0.500000 0.729049
O O18 0.853687 0.216209 0.726421
O O19 0.248302 0.500000 0.234123
O O20 0.500000 0.709151 0.500000
O O21 0.362730 0.000000 0.475494
#
# Coordination Sequence:
#
# PCOD9148345 Si02
#       8
#     4   4   4   4   4   4   4   4
#     4   9  16  24  39  67  99 129 163 200 236 280
#     4   8  14  24  39  63  95 127 160 197 235 279
#     4   9  17  29  49  72  96 126 160 199 244 294
#     4   8  13  23  40  63  97 137 163 189 237 287
#     4  10  23  41  56  71  98 134 167 200 248 311
#     4  10  20  32  49  74 102 127 160 208 250 286
#     4   8  15  28  44  69 104 135 161 194 242 294
#     4  10  21  36  54  75  96 121 162 211 248 289
#
# _framework density 24.088135999999999
#
# number of rings (size 3 to 8) (size 9 to 14) (size 15 to 20)
#    0.000    3.000    0.000    2.625    1.750    3.000 
#    0.000    2.500    0.000    0.000    0.000    5.250 
#    0.000    5.000    0.000    0.000    0.000    0.000 
#
# Total GULP energy -178744.186420 kJ/mol
# GULP energy per Si atom -5585.755826 kJ/mol
# Density = 2.403331 g / cm^3
# Si number density = 24.088136 Si / 1000 Ang^3
#
#
#
# Elastic Constant Matrix: (Units=GPa)
#
#
# Indices 1 2 3 4 5 6 
#
# 1 45.3671 3.4398 22.0506 0.0000 -5.9755 0.0000
# 2 3.4398 100.3165 -8.5583 0.0000 -0.1958 0.0000
# 3 22.0506 -8.5583 172.9287 0.0000 -3.6339 0.0000
# 4 0.0000 0.0000 0.0000 28.0129 0.0000 -0.0445
# 5 -5.9755 -0.1958 -3.6339 0.0000 29.2818 0.0000
# 6 0.0000 0.0000 0.0000 -0.0445 0.0000 -24.7040
#
#
#
# Elastic Compliance Matrix: (Units=1/GPa)
#
#
# Indices 1 2 3 4 5 6 
#
# 1 0.024204 -0.001081 -0.003044 0.000000 0.004554 0.000000
# 2 -0.001081 0.010059 0.000634 0.000000 -0.000075 0.000000
# 3 -0.003044 0.000634 0.006205 0.000000 0.000153 0.000000
# 4 0.000000 0.000000 0.000000 0.035698 0.000000 -0.000064
# 5 0.004554 -0.000075 0.000153 0.000000 0.035099 0.000000
# 6 0.000000 0.000000 0.000000 -0.000064 0.000000 -0.040479
#
#
# Mechanical properties :
#
#
# Convention : Reuss Voigt Hill
#
# Bulk Modulus (GPa) = 29.86210 39.16405 34.51308
# Shear Modulus (GPa) = 56.22404 26.63016 41.42710
#
# Velocity S-wave (km/s) = 4.83649 3.32856 4.15156
# Velocity P-wave (km/s) = 6.60400 5.57372 6.11061
#
# Compressibility (1/GPa) = 0.03348726
#
# Stress axis : x y z
#
# Youngs Moduli (GPa) = 41.31588 99.40893 161.14773
#
# Poissons Ratio (x) = 0.10744 0.49054
# Poissons Ratio (y) = 0.04465 -0.10218
# Poissons Ratio (z) = 0.12577 -0.06303
#
# Static dielectric constant tensor:
#      x y z
#    x 1.905650 0.000000 0.005250 
#    y 0.000000 1.952430 0.000000 
#    z 0.005250 0.000000 1.881900 
# 
# From -- ./inp_files/64406.got.cif
#   From: 2010.05.17/outbox.cif.g08.bks.cpg/sg10_33_cif.got.tgz:64406.got - 2010.06.03 11:33:40.
