data_PCOD9148425
_publ_section_title
;
Structure prediction by ZEFSAII (Michael W. Deem and Ramdas Pophale) SiO2 
 PCOD9148425
Probable space group: P 2/M
;
_chemical_formula_sum "Si O2"
_cell_formula_units_Z 26
_cell_length_a 12.920143
_cell_length_b 8.287730
_cell_length_c 15.968036
_cell_angle_alpha 90.000000
_cell_angle_beta 61.373802
_cell_angle_gamma 90.000000
_cell_volume 1500.832361
_symmetry_space_group_name_H-M "P 2/M"
_symmetry_group_IT_number 10
_symmetry_cell_setting 'monoclinic'
loop_
_space_group_symop_operation_xyz
x,y,z
-x,y,-z
-x,-y,-z
x,-y,z
loop_
_atom_site_type_symbol
_atom_site_label
_atom_site_fract_x
_atom_site_fract_y
_atom_site_fract_z
Si Si1 0.643096 0.678093 0.944662
Si Si2 0.036740 0.813159 0.579564
Si Si3 0.618957 0.321273 0.656204
Si Si4 0.272149 0.318955 0.565693
Si Si5 0.607403 0.000000 0.028885
Si Si6 0.475370 0.000000 0.748360
Si Si7 0.805448 0.317075 0.722691
Si Si8 0.377997 0.000000 0.602811
O O1 0.682535 0.500000 0.958011
O O2 0.702498 0.707098 0.831049
O O3 0.500000 0.671607 0.000000
O O4 0.675253 0.833856 0.985806
O O5 0.141349 0.711813 0.579975
O O6 0.000000 0.759295 0.500000
O O7 0.917436 0.797857 0.680116
O O8 0.075338 0.000000 0.558608
O O9 0.569991 0.500000 0.697290
O O10 0.642716 0.316061 0.548481
O O11 0.547178 0.166167 0.711212
O O12 0.742024 0.307110 0.657758
O O13 0.280411 0.500000 0.599845
O O14 0.309830 0.164864 0.605401
O O15 0.569368 0.000000 0.139464
O O16 0.500000 0.000000 0.000000
O O17 0.396451 0.000000 0.695388
O O18 0.849529 0.500000 0.716760
O O19 0.500000 0.000000 0.500000
#
# Coordination Sequence:
#
# PCOD9148425 Si02
#       8
#     4   4   4   4   2   2   4   2
#     4   9  18  33  50  75 113 146 180 225 270 330
#     4  11  22  33  53  84 120 156 193 238 285 343
#     4  10  20  32  52  81 111 149 194 230 275 331
#     4  11  22  38  57  78 113 157 195 239 285 322
#     4  10  20  34  53  80 105 143 178 226 287 339
#     4  12  24  36  59  78 113 153 193 237 286 341
#     4  10  20  32  52  82 117 157 190 225 282 348
#     4  12  24  42  55  79 116 149 203 248 275 335
#
# _framework density 17.323720000000002
#
# number of rings (size 3 to 8) (size 9 to 14) (size 15 to 20)
#    0.000    1.538    3.846    2.308    2.154    3.385 
#    0.000    0.000    0.000    0.000    0.000    2.154 
#    0.000    3.692    0.000    0.000    0.000    0.000 
#
# Total GULP energy -144841.498715 kJ/mol
# GULP energy per Si atom -5570.826874 kJ/mol
# Density = 1.728429 g / cm^3
# Si number density = 17.323720 Si / 1000 Ang^3
#
#
#
# Elastic Constant Matrix: (Units=GPa)
#
#
# Indices 1 2 3 4 5 6 
#
# 1 48.6350 39.8683 20.9157 0.0000 7.0446 0.0000
# 2 39.8683 151.1635 29.0085 0.0000 10.1759 0.0000
# 3 20.9157 29.0085 68.5386 0.0000 6.8730 0.0000
# 4 0.0000 0.0000 0.0000 24.0716 0.0000 -7.9518
# 5 7.0446 10.1759 6.8730 0.0000 18.9345 0.0000
# 6 0.0000 0.0000 0.0000 -7.9518 0.0000 23.4075
#
#
#
# Elastic Compliance Matrix: (Units=1/GPa)
#
#
# Indices 1 2 3 4 5 6 
#
# 1 0.028812 -0.006154 -0.005650 0.000000 -0.005361 0.000000
# 2 -0.006154 0.008668 -0.001612 0.000000 -0.001784 0.000000
# 3 -0.005650 -0.001612 0.017330 0.000000 -0.003322 0.000000
# 4 0.000000 0.000000 0.000000 0.046794 0.000000 0.015896
# 5 -0.005361 -0.001784 -0.003322 0.000000 0.056973 0.000000
# 6 0.000000 0.000000 0.000000 0.015896 0.000000 0.048121
#
#
# Mechanical properties :
#
#
# Convention : Reuss Voigt Hill
#
# Bulk Modulus (GPa) = 35.74220 49.76914 42.75567
# Shear Modulus (GPa) = 20.58830 25.18570 22.88700
#
# Velocity S-wave (km/s) = 3.45112 3.81705 3.63869
# Velocity P-wave (km/s) = 6.04624 6.94390 6.51056
#
# Compressibility (1/GPa) = 0.02797813
#
# Stress axis : x y z
#
# Youngs Moduli (GPa) = 34.70722 115.37011 57.70358
#
# Poissons Ratio (x) = 0.70997 0.32605
# Poissons Ratio (y) = 0.21358 0.09300
# Poissons Ratio (z) = 0.19611 0.18595
#
# Static dielectric constant tensor:
#      x y z
#    x 1.626700 0.000000 0.052450 
#    y 0.000000 1.653630 0.000000 
#    z 0.052450 0.000000 1.690880 
# 
# From -- ./inp_files/49049.got.cif
#   From: 2010.05.17/outbox.cif.g08.bks.cpg/sg10_25_cif.got.tgz:49049.got - 2010.06.03 11:33:40.
