data_PCOD9148150
_publ_section_title
;
Structure prediction by ZEFSAII (Michael W. Deem and Ramdas Pophale) SiO2 
 PCOD9148150
Probable space group: P 2/M
;
_chemical_formula_sum "Si O2"
_cell_formula_units_Z 26
_cell_length_a 16.458381
_cell_length_b 17.929810
_cell_length_c 5.478400
_cell_angle_alpha 90.000000
_cell_angle_beta 105.761298
_cell_angle_gamma 90.000000
_cell_volume 1555.868600
_symmetry_space_group_name_H-M "P 2/M"
_symmetry_group_IT_number 10
_symmetry_cell_setting 'monoclinic'
loop_
_space_group_symop_operation_xyz
x,y,z
-x,y,-z
-x,-y,-z
x,-y,z
loop_
_atom_site_type_symbol
_atom_site_label
_atom_site_fract_x
_atom_site_fract_y
_atom_site_fract_z
Si Si1 0.898069 0.414657 0.909797
Si Si2 0.459165 0.910718 0.215994
Si Si3 0.730884 0.914047 0.791481
Si Si4 0.000000 0.815754 0.000000
Si Si5 0.896949 0.328754 0.408291
Si Si6 0.839555 0.190638 0.597943
Si Si7 0.104647 0.083444 0.734719
O O1 0.867501 0.500000 0.898775
O O2 0.875501 0.369389 0.136840
O O3 0.876016 0.378670 0.629743
O O4 0.000000 0.416649 0.000000
O O5 0.500000 0.881120 0.500000
O O6 0.358606 0.902255 0.152570
O O7 0.476029 0.000000 0.228729
O O8 0.500000 0.880700 0.000000
O O9 0.754428 0.841673 0.645370
O O10 0.728024 0.000000 0.679674
O O11 0.807963 0.914453 0.044325
O O12 0.914445 0.777243 0.834565
O O13 0.038515 0.864587 0.815619
O O14 0.842764 0.252774 0.391419
O O15 0.000000 0.314254 0.500000
O O16 0.875187 0.114115 0.514007
O O17 0.073986 0.000000 0.712738
#
# Coordination Sequence:
#
# PCOD9148150 Si02
#       7
#     4   4   4   2   4   4   4
#     4   9  18  32  49  68  88 114 151 197 242 282
#     4   9  18  32  52  73  91 114 151 199 246 291
#     4   9  20  34  48  67  92 122 160 204 246 290
#     4  10  21  32  42  58  83 118 172 204 247 276
#     4  10  20  30  49  67  92 119 156 198 238 282
#     4  11  22  31  46  63  90 124 161 203 248 284
#     4  10  20  32  45  59  85 120 163 208 244 279
#
# _framework density 16.710925
#
# number of rings (size 3 to 8) (size 9 to 14) (size 15 to 20)
#    0.000    2.308    0.000    2.538    9.692    4.308 
#    0.000    0.000    0.000    0.000    0.000    0.000 
#    0.000    0.000    0.000    0.000    0.000   15.385 
#
# Total GULP energy -144765.799212 kJ/mol
# GULP energy per Si atom -5567.915354 kJ/mol
# Density = 1.667289 g / cm^3
# Si number density = 16.710925 Si / 1000 Ang^3
#
#
#
# Elastic Constant Matrix: (Units=GPa)
#
#
# Indices 1 2 3 4 5 6 
#
# 1 64.9370 21.3065 30.6331 0.0000 -14.8449 0.0000
# 2 21.3065 69.2419 27.4689 0.0000 -16.3384 0.0000
# 3 30.6331 27.4689 79.9173 0.0000 -23.4734 0.0000
# 4 0.0000 0.0000 0.0000 25.9869 0.0000 -0.8541
# 5 -14.8449 -16.3384 -23.4734 0.0000 19.2820 0.0000
# 6 0.0000 0.0000 0.0000 -0.8541 0.0000 34.0759
#
#
#
# Elastic Compliance Matrix: (Units=1/GPa)
#
#
# Indices 1 2 3 4 5 6 
#
# 1 0.020176 -0.002555 -0.004559 0.000000 0.007818 0.000000
# 2 -0.002555 0.018747 -0.002142 0.000000 0.011310 0.000000
# 3 -0.004559 -0.002142 0.020909 0.000000 0.020129 0.000000
# 4 0.000000 0.000000 0.000000 0.038513 0.000000 0.000965
# 5 0.007818 0.011310 0.020129 0.000000 0.091969 0.000000
# 6 0.000000 0.000000 0.000000 0.000965 0.000000 0.029370
#
#
# Mechanical properties :
#
#
# Convention : Reuss Voigt Hill
#
# Bulk Modulus (GPa) = 24.20182 41.43479 32.81831
# Shear Modulus (GPa) = 19.84366 24.84812 22.34589
#
# Velocity S-wave (km/s) = 3.44970 3.86027 3.66075
# Velocity P-wave (km/s) = 5.51193 6.68713 6.12777
#
# Compressibility (1/GPa) = 0.04131920
#
# Stress axis : x y z
#
# Youngs Moduli (GPa) = 49.56442 53.34220 47.82598
#
# Poissons Ratio (x) = 0.13629 0.21804
# Poissons Ratio (y) = 0.12663 0.10246
# Poissons Ratio (z) = 0.22597 0.11427
#
# Static dielectric constant tensor:
#      x y z
#    x 1.558480 0.000000 -0.003420 
#    y 0.000000 1.611510 0.000000 
#    z -0.003420 0.000000 1.658180 
# 
# From -- ./inp_files/9507.got.cif
#   From: 2010.05.17/outbox.cif.g08.bks.cpg/sg10_5_cif.got.tgz:9507.got - 2010.06.03 11:33:40.
