data_PCOD9148229
_publ_section_title
;
Structure prediction by ZEFSAII (Michael W. Deem and Ramdas Pophale) SiO2 
 PCOD9148229
Probable space group: P 2/M
;
_chemical_formula_sum "Si O2"
_cell_formula_units_Z 28
_cell_length_a 7.543352
_cell_length_b 7.342409
_cell_length_c 28.365264
_cell_angle_alpha 90.000000
_cell_angle_beta 130.873506
_cell_angle_gamma 90.000000
_cell_volume 1187.958482
_symmetry_space_group_name_H-M "P 2/M"
_symmetry_group_IT_number 10
_symmetry_cell_setting 'monoclinic'
loop_
_space_group_symop_operation_xyz
x,y,z
-x,y,-z
-x,-y,-z
x,-y,z
loop_
_atom_site_type_symbol
_atom_site_label
_atom_site_fract_x
_atom_site_fract_y
_atom_site_fract_z
Si Si1 0.447695 0.221213 0.299555
Si Si2 0.812879 0.796638 0.431499
Si Si3 0.844754 0.222419 0.929003
Si Si4 0.570436 0.711302 0.563244
Si Si5 0.690373 0.222398 0.170417
Si Si6 0.955092 0.217891 0.694147
Si Si7 0.082570 0.221898 0.163297
O O1 0.696059 0.286094 0.363984
O O2 0.241604 0.268899 0.300934
O O3 0.331243 0.277382 0.230066
O O4 0.468006 0.000000 0.302294
O O5 0.584834 0.810657 0.425091
O O6 0.000000 0.709275 0.500000
O O7 0.904493 0.000000 0.435915
O O8 0.573964 0.280314 0.884360
O O9 0.940104 0.279102 0.894479
O O10 0.845978 0.000000 0.929799
O O11 0.000000 0.283006 0.000000
O O12 0.500000 0.780957 0.500000
O O13 0.501655 0.500000 0.553313
O O14 0.841850 0.722077 0.625322
O O15 0.803381 0.280027 0.240213
O O16 0.868999 0.277831 0.159981
O O17 0.690365 0.000000 0.170962
O O18 0.966362 0.000000 0.693435
O O19 0.083806 0.000000 0.164297
#
# Coordination Sequence:
#
# PCOD9148229 Si02
#       7
#     4   4   4   4   4   4   4
#     4   7  11  22  39  55  75 104 138 179 224 263
#     4   9  17  30  47  68  91 116 154 199 237 280
#     4   9  16  23  32  53  85 116 147 179 215 274
#     4  10  20  32  45  64  93 126 155 188 236 290
#     4   8  14  25  39  56  78 109 148 185 228 272
#     4   8  14  27  46  62  80 112 153 194 229 270
#     4   8  13  22  35  49  73 111 145 178 219 263
#
# _framework density 23.569845999999998
#
# number of rings (size 3 to 8) (size 9 to 14) (size 15 to 20)
#    0.000    3.571    0.000    3.000    0.000    2.000 
#    2.571    2.857    0.000    0.000    0.000    0.000 
#    0.000    0.571    0.000   14.143    0.000   24.429 
#
# Total GULP energy -156084.315245 kJ/mol
# GULP energy per Si atom -5574.439830 kJ/mol
# Density = 2.351620 g / cm^3
# Si number density = 23.569846 Si / 1000 Ang^3
#
#
#
# Elastic Constant Matrix: (Units=GPa)
#
#
# Indices 1 2 3 4 5 6 
#
# 1 69.1086 -2.1106 50.5173 0.0000 8.6997 0.0000
# 2 -2.1106 87.3700 1.1092 0.0000 1.1339 0.0000
# 3 50.5173 1.1092 237.1384 0.0000 9.4398 0.0000
# 4 0.0000 0.0000 0.0000 115.8858 0.0000 -24.0414
# 5 8.6997 1.1339 9.4398 0.0000 35.2125 0.0000
# 6 0.0000 0.0000 0.0000 -24.0414 0.0000 -0.2535
#
#
#
# Elastic Compliance Matrix: (Units=1/GPa)
#
#
# Indices 1 2 3 4 5 6 
#
# 1 0.017548 0.000514 -0.003606 0.000000 -0.003385 0.000000
# 2 0.000514 0.011466 -0.000145 0.000000 -0.000457 0.000000
# 3 -0.003606 -0.000145 0.005004 0.000000 -0.000446 0.000000
# 4 0.000000 0.000000 0.000000 0.000417 0.000000 -0.039583
# 5 -0.003385 -0.000457 -0.000446 0.000000 0.029370 0.000000
# 6 0.000000 0.000000 0.000000 -0.039583 0.000000 -0.190800
#
#
# Mechanical properties :
#
#
# Convention : Reuss Voigt Hill
#
# Bulk Modulus (GPa) = 36.30712 54.73875 45.52294
# Shear Modulus (GPa) = -44.90686 53.10903 4.10109
#
# Velocity S-wave (km/s) = -4.36967 4.75200 1.32051
# Velocity P-wave (km/s) = 3.16563 7.30638 4.65628
#
# Compressibility (1/GPa) = 0.02754281
#
# Stress axis : x y z
#
# Youngs Moduli (GPa) = 56.98793 87.21620 199.85994
#
# Poissons Ratio (x) = -0.04479 0.72065
# Poissons Ratio (y) = -0.02927 0.02895
# Poissons Ratio (z) = 0.20549 0.01263
#
# Static dielectric constant tensor:
#      x y z
#    x 1.872250 0.000000 -0.004060 
#    y 0.000000 1.919520 0.000000 
#    z -0.004060 0.000000 1.942060 
# 
# From -- ./inp_files/94545.got.cif
#   From: 2010.05.17/outbox.cif.g08.bks.cpg/sg10_48_cif.got.tgz:94545.got - 2010.06.03 11:33:40.
