data_PCOD9148213
_publ_section_title
;
Structure prediction by ZEFSAII (Michael W. Deem and Ramdas Pophale) SiO2 
 PCOD9148213
Probable space group: P 2/M
;
_chemical_formula_sum "Si O2"
_cell_formula_units_Z 26
_cell_length_a 12.353334
_cell_length_b 16.335392
_cell_length_c 10.954506
_cell_angle_alpha 90.000000
_cell_angle_beta 40.330694
_cell_angle_gamma 90.000000
_cell_volume 1430.684529
_symmetry_space_group_name_H-M "P 2/M"
_symmetry_group_IT_number 10
_symmetry_cell_setting 'monoclinic'
loop_
_space_group_symop_operation_xyz
x,y,z
-x,y,-z
-x,-y,-z
x,-y,z
loop_
_atom_site_type_symbol
_atom_site_label
_atom_site_fract_x
_atom_site_fract_y
_atom_site_fract_z
Si Si1 0.000000 0.348207 0.500000
Si Si2 0.864708 0.409009 0.367995
Si Si3 0.312487 0.722415 0.620794
Si Si4 0.112590 0.906912 0.282149
Si Si5 0.833723 0.317464 0.001799
Si Si6 0.685626 0.744111 0.894656
Si Si7 0.955127 0.851169 0.171359
O O1 0.923660 0.400398 0.456267
O O2 0.843514 0.295164 0.685442
O O3 0.804608 0.500000 0.391829
O O4 0.731218 0.337802 0.452776
O O5 0.034050 0.386290 0.148594
O O6 0.500000 0.733659 0.500000
O O7 0.228587 0.811140 0.672607
O O8 0.231703 0.675763 0.806215
O O9 0.258502 0.839346 0.145303
O O10 0.000000 0.890799 0.500000
O O11 0.000515 0.899215 0.254939
O O12 0.175079 0.000000 0.237508
O O13 0.695441 0.302037 0.017025
O O14 0.934475 0.231675 0.914867
O O15 0.500000 0.735776 0.000000
O O16 0.000000 0.889062 0.000000
#
# Coordination Sequence:
#
# PCOD9148213 Si02
#       7
#     2   4   4   4   4   4   4
#     4  10  21  38  57  82 104 140 196 220 259 330
#     4  10  20  35  55  74 105 145 175 222 280 326
#     4  10  20  31  53  80 107 135 181 231 266 317
#     4  10  20  33  52  82 113 140 178 227 277 326
#     4   8  18  34  50  77 102 132 185 222 257 323
#     4  10  20  34  60  80 106 143 182 227 269 319
#     4   8  16  34  52  71 100 144 182 216 260 321
#
# _framework density 18.173120000000001
#
# number of rings (size 3 to 8) (size 9 to 14) (size 15 to 20)
#    0.000    2.615    0.769    2.538    2.154    2.154 
#    0.000    0.000    0.000    2.769    0.000    0.000 
#    0.000    0.000    0.000    0.000    0.000    0.000 
#
# Total GULP energy -144746.616888 kJ/mol
# GULP energy per Si atom -5567.177573 kJ/mol
# Density = 1.813176 g / cm^3
# Si number density = 18.173120 Si / 1000 Ang^3
#
#
#
# Elastic Constant Matrix: (Units=GPa)
#
#
# Indices 1 2 3 4 5 6 
#
# 1 123.8854 10.3326 31.7377 0.0000 -9.0938 0.0000
# 2 10.3326 50.1815 6.1567 0.0000 -3.3797 0.0000
# 3 31.7377 6.1567 28.8314 0.0000 0.5526 0.0000
# 4 0.0000 0.0000 0.0000 3.3975 0.0000 -3.8165
# 5 -9.0938 -3.3797 0.5526 0.0000 40.5078 0.0000
# 6 0.0000 0.0000 0.0000 -3.8165 0.0000 4.6307
#
#
#
# Elastic Compliance Matrix: (Units=1/GPa)
#
#
# Indices 1 2 3 4 5 6 
#
# 1 0.011564 -0.000647 -0.012644 0.000000 0.002715 0.000000
# 2 -0.000647 0.020627 -0.003724 0.000000 0.001627 0.000000
# 3 -0.012644 -0.003724 0.049471 0.000000 -0.003824 0.000000
# 4 0.000000 0.000000 0.000000 3.968073 0.000000 3.270385
# 5 0.002715 0.001627 -0.003824 0.000000 0.025484 0.000000
# 6 0.000000 0.000000 0.000000 3.270385 0.000000 2.911318
#
#
# Mechanical properties :
#
#
# Convention : Reuss Voigt Hill
#
# Bulk Modulus (GPa) = 20.99359 33.26137 27.12748
# Shear Modulus (GPa) = 0.71059 20.01862 10.36460
#
# Velocity S-wave (km/s) = 0.62599 3.32256 2.39074
# Velocity P-wave (km/s) = 3.47844 5.74991 4.75190
#
# Compressibility (1/GPa) = 0.04763359
#
# Stress axis : x y z
#
# Youngs Moduli (GPa) = 86.47213 48.47946 20.21373
#
# Poissons Ratio (x) = 0.03137 0.25558
# Poissons Ratio (y) = 0.05595 0.07527
# Poissons Ratio (z) = 1.09335 0.18052
#
# Static dielectric constant tensor:
#      x y z
#    x 1.683980 0.000000 0.018070 
#    y 0.000000 1.614650 0.000000 
#    z 0.018070 0.000000 1.656270 
# 
# From -- ./inp_files/47795.got.cif
#   From: 2010.05.17/outbox.cif.g08.bks.cpg/sg10_24_cif.got.tgz:47795.got - 2010.06.03 11:33:40.
