data_PCOD9148122
_publ_section_title
;
Structure prediction by ZEFSAII (Michael W. Deem and Ramdas Pophale) SiO2 
 PCOD9148122
Probable space group: P 2/M
;
_chemical_formula_sum "Si O2"
_cell_formula_units_Z 24
_cell_length_a 10.240794
_cell_length_b 11.097492
_cell_length_c 14.507190
_cell_angle_alpha 90.000000
_cell_angle_beta 136.486596
_cell_angle_gamma 90.000000
_cell_volume 1135.170282
_symmetry_space_group_name_H-M "P 2/M"
_symmetry_group_IT_number 10
_symmetry_cell_setting 'monoclinic'
loop_
_space_group_symop_operation_xyz
x,y,z
-x,y,-z
-x,-y,-z
x,-y,z
loop_
_atom_site_type_symbol
_atom_site_label
_atom_site_fract_x
_atom_site_fract_y
_atom_site_fract_z
Si Si1 0.907786 0.000000 0.853871
Si Si2 0.548432 0.354301 0.875473
Si Si3 0.456353 0.500000 0.584999
Si Si4 0.108529 0.500000 0.149271
Si Si5 0.809870 0.355621 0.188966
Si Si6 0.489318 0.746986 0.649463
Si Si7 0.884086 0.250104 0.749253
Si Si8 0.470182 0.000000 0.595078
O O1 0.955074 0.876716 0.825191
O O2 0.679889 0.000000 0.746890
O O3 0.000000 0.000000 0.000000
O O4 0.562386 0.500000 0.868897
O O5 0.335693 0.330017 0.802787
O O6 0.578173 0.278126 0.796702
O O7 0.688076 0.327876 0.032773
O O8 0.500000 0.500000 0.500000
O O9 0.665038 0.500000 0.736639
O O10 0.368610 0.626574 0.568033
O O11 0.058024 0.374054 0.170048
O O12 0.000000 0.500000 0.000000
O O13 0.847810 0.500000 0.210658
O O14 0.001010 0.276720 0.285250
O O15 0.658655 0.751662 0.658281
O O16 0.383839 0.873418 0.582995
O O17 0.500000 0.000000 0.500000
#
# Coordination Sequence:
#
# PCOD9148122 Si02
#       8
#     2   4   2   2   4   4   4   2
#     4  10  22  34  49  81 113 137 169 229 279 309
#     4   9  18  31  46  77 111 145 179 218 274 319
#     4  10  20  32  49  79 107 131 171 229 269 301
#     4  10  20  28  49  79  97 129 179 217 249 321
#     4   9  18  29  48  74 115 147 173 218 272 333
#     4  10  20  33  54  77 102 142 184 220 261 327
#     4  10  20  30  49  77 105 143 168 216 268 319
#     4  10  22  38  53  77 113 151 179 217 273 329
#
# _framework density 21.142204
#
# number of rings (size 3 to 8) (size 9 to 14) (size 15 to 20)
#    0.000    2.333    1.667    2.000    9.333    0.000 
#    0.000    0.833    0.000    2.000    0.000   28.000 
#    0.000    0.000    0.000    0.000    0.000    0.000 
#
# Total GULP energy -133666.668085 kJ/mol
# GULP energy per Si atom -5569.444504 kJ/mol
# Density = 2.109408 g / cm^3
# Si number density = 21.142204 Si / 1000 Ang^3
#
#
#
# Elastic Constant Matrix: (Units=GPa)
#
#
# Indices 1 2 3 4 5 6 
#
# 1 88.0095 13.3111 16.6125 0.0000 9.0194 0.0000
# 2 13.3111 175.4576 18.5781 0.0000 -0.5406 0.0000
# 3 16.6125 18.5781 73.3577 0.0000 -3.4706 0.0000
# 4 0.0000 0.0000 0.0000 16.9923 0.0000 -3.6412
# 5 9.0194 -0.5406 -3.4706 0.0000 19.3395 0.0000
# 6 0.0000 0.0000 0.0000 -3.6412 0.0000 18.2345
#
#
#
# Elastic Compliance Matrix: (Units=1/GPa)
#
#
# Indices 1 2 3 4 5 6 
#
# 1 0.012696 -0.000664 -0.003013 0.000000 -0.006480 0.000000
# 2 -0.000664 0.005891 -0.001330 0.000000 0.000236 0.000000
# 3 -0.003013 -0.001330 0.014842 0.000000 0.004032 0.000000
# 4 0.000000 0.000000 0.000000 0.061481 0.000000 0.012277
# 5 -0.006480 0.000236 0.004032 0.000000 0.055460 0.000000
# 6 0.000000 0.000000 0.000000 0.012277 0.000000 0.057293
#
#
# Mechanical properties :
#
#
# Convention : Reuss Voigt Hill
#
# Bulk Modulus (GPa) = 42.71121 48.20313 45.45717
# Shear Modulus (GPa) = 22.17461 30.13480 26.15470
#
# Velocity S-wave (km/s) = 3.24208 3.77946 3.52104
# Velocity P-wave (km/s) = 5.85325 6.47262 6.17071
#
# Compressibility (1/GPa) = 0.02341306
#
# Stress axis : x y z
#
# Youngs Moduli (GPa) = 78.76633 169.74002 67.37661
#
# Poissons Ratio (x) = 0.11272 0.20304
# Poissons Ratio (y) = 0.05231 0.08964
# Poissons Ratio (z) = 0.23736 0.22584
#
# Static dielectric constant tensor:
#      x y z
#    x 1.868230 0.000000 0.081990 
#    y 0.000000 1.826950 0.000000 
#    z 0.081990 0.000000 1.962240 
# 
# From -- ./inp_files/64180.got.cif
#   From: 2010.05.17/outbox.cif.g08.bks.cpg/sg10_33_cif.got.tgz:64180.got - 2010.06.03 11:33:40.
