data_PCOD9148894
_publ_section_title
;
Structure prediction by ZEFSAII (Michael W. Deem and Ramdas Pophale) SiO2 
 PCOD9148894
Probable space group: P 2/M
;
_chemical_formula_sum "Si O2"
_cell_formula_units_Z 26
_cell_length_a 5.309501
_cell_length_b 16.524963
_cell_length_c 16.720465
_cell_angle_alpha 90.000000
_cell_angle_beta 61.244575
_cell_angle_gamma 90.000000
_cell_volume 1286.128174
_symmetry_space_group_name_H-M "P 2/M"
_symmetry_group_IT_number 10
_symmetry_cell_setting 'monoclinic'
loop_
_space_group_symop_operation_xyz
x,y,z
-x,y,-z
-x,-y,-z
x,-y,z
loop_
_atom_site_type_symbol
_atom_site_label
_atom_site_fract_x
_atom_site_fract_y
_atom_site_fract_z
Si Si1 0.061950 0.820929 0.821199
Si Si2 0.347439 0.595094 0.441891
Si Si3 0.426183 0.690921 0.268819
Si Si4 0.944839 0.187784 0.595671
Si Si5 0.000000 0.818204 0.000000
Si Si6 0.361516 0.905336 0.639123
Si Si7 0.466370 0.303901 0.091010
O O1 0.331821 0.760128 0.773161
O O2 0.024531 0.864057 0.912832
O O3 0.120616 0.885437 0.743578
O O4 0.798133 0.758476 0.860214
O O5 0.500000 0.626985 0.500000
O O6 0.422890 0.500000 0.424746
O O7 0.454986 0.638007 0.344249
O O8 0.000000 0.599338 0.500000
O O9 0.135475 0.742047 0.329540
O O10 0.449364 0.648941 0.178160
O O11 0.666033 0.130647 0.622950
O O12 0.000000 0.224269 0.500000
O O13 0.217998 0.138939 0.585256
O O14 0.266325 0.756944 0.955134
O O15 0.391653 0.000000 0.620515
O O16 0.500000 0.348704 0.000000
#
# Coordination Sequence:
#
# PCOD9148894 Si02
#       7
#     4   4   4   4   2   4   4
#     4   9  18  32  53  80 106 143 187 233 279 334
#     4  10  23  40  59  87 124 160 190 226 280 334
#     4  10  20  33  58  85 113 145 192 237 276 328
#     4  11  23  37  55  80 106 144 193 235 278 329
#     4   8  16  30  51  78 109 136 176 238 282 332
#     4  11  23  38  54  75 110 148 186 232 286 338
#     4   9  16  31  54  82 111 140 182 234 285 333
#
# _framework density 20.215712
#
# number of rings (size 3 to 8) (size 9 to 14) (size 15 to 20)
#    0.000    2.154    1.538    1.385    2.154    4.308 
#    0.000    0.385    0.000    4.615    0.000   18.308 
#    0.000    0.000    0.000    0.000    0.000    0.000 
#
# Total GULP energy -144739.143442 kJ/mol
# GULP energy per Si atom -5566.890132 kJ/mol
# Density = 2.016970 g / cm^3
# Si number density = 20.215712 Si / 1000 Ang^3
#
#
#
# Elastic Constant Matrix: (Units=GPa)
#
#
# Indices 1 2 3 4 5 6 
#
# 1 74.5771 4.3406 33.0891 0.0000 3.5887 0.0000
# 2 4.3406 46.3958 27.4871 0.0000 10.4510 0.0000
# 3 33.0891 27.4871 186.1283 0.0000 29.3116 0.0000
# 4 0.0000 0.0000 0.0000 10.6412 0.0000 10.7276
# 5 3.5887 10.4510 29.3116 0.0000 43.5740 0.0000
# 6 0.0000 0.0000 0.0000 10.7276 0.0000 7.4435
#
#
#
# Elastic Compliance Matrix: (Units=1/GPa)
#
#
# Indices 1 2 3 4 5 6 
#
# 1 0.014572 0.000102 -0.002699 0.000000 0.000591 0.000000
# 2 0.000102 0.024170 -0.002990 0.000000 -0.003794 0.000000
# 3 -0.002699 -0.002990 0.006874 0.000000 -0.003685 0.000000
# 4 0.000000 0.000000 0.000000 -0.207489 0.000000 0.299036
# 5 0.000591 -0.003794 -0.003685 0.000000 0.026290 0.000000
# 6 0.000000 0.000000 0.000000 0.299036 0.000000 -0.296628
#
#
# Mechanical properties :
#
#
# Convention : Reuss Voigt Hill
#
# Bulk Modulus (GPa) = 29.03281 48.54831 38.79056
# Shear Modulus (GPa) = -12.20829 28.47735 8.13453
#
# Velocity S-wave (km/s) = -2.46011 3.75730 2.00813
# Velocity P-wave (km/s) = 2.51459 6.54907 4.96052
#
# Compressibility (1/GPa) = 0.03444380
#
# Stress axis : x y z
#
# Youngs Moduli (GPa) = 68.62501 41.37315 145.47009
#
# Poissons Ratio (x) = -0.00424 0.39258
# Poissons Ratio (y) = -0.00703 0.43498
# Poissons Ratio (z) = 0.18520 0.12371
#
# Static dielectric constant tensor:
#      x y z
#    x 1.915540 0.000000 -0.065820 
#    y 0.000000 1.678020 0.000000 
#    z -0.065820 0.000000 2.018770 
# 
# From -- ./inp_files/59290.got.cif
#   From: 2010.05.17/outbox.cif.g08.bks.cpg/sg10_30_cif.got.tgz:59290.got - 2010.06.03 11:33:40.
