data_PCOD9148054
_publ_section_title
;
Structure prediction by ZEFSAII (Michael W. Deem and Ramdas Pophale) SiO2 
 PCOD9148054
Probable space group: P 2/M
;
_chemical_formula_sum "Si O2"
_cell_formula_units_Z 28
_cell_length_a 27.817137
_cell_length_b 8.852952
_cell_length_c 9.420186
_cell_angle_alpha 90.000000
_cell_angle_beta 37.923088
_cell_angle_gamma 90.000000
_cell_volume 1425.787418
_symmetry_space_group_name_H-M "P 2/M"
_symmetry_group_IT_number 10
_symmetry_cell_setting 'monoclinic'
loop_
_space_group_symop_operation_xyz
x,y,z
-x,y,-z
-x,-y,-z
x,-y,z
loop_
_atom_site_type_symbol
_atom_site_label
_atom_site_fract_x
_atom_site_fract_y
_atom_site_fract_z
Si Si1 0.875112 0.681773 0.442876
Si Si2 0.013844 0.181843 0.304228
Si Si3 0.730624 0.683455 0.978609
Si Si4 0.703447 0.319721 0.359340
Si Si5 0.536210 0.170887 0.760207
Si Si6 0.432704 0.326733 0.775506
Si Si7 0.836132 0.819645 0.228029
O O1 0.877461 0.500000 0.429574
O O2 0.951949 0.742882 0.342231
O O3 0.802166 0.728798 0.712639
O O4 0.862882 0.747901 0.314469
O O5 0.000000 0.229976 0.500000
O O6 0.003946 0.000000 0.321980
O O7 0.099644 0.217460 0.042924
O O8 0.729056 0.500000 0.985840
O O9 0.735760 0.732467 0.130056
O O10 0.647906 0.730529 0.103929
O O11 0.711426 0.500000 0.351528
O O12 0.612429 0.275533 0.574005
O O13 0.753257 0.243158 0.367480
O O14 0.467921 0.226441 0.816555
O O15 0.560280 0.000000 0.667863
O O16 0.500000 0.173645 0.000000
O O17 0.500000 0.330434 0.500000
O O18 0.420419 0.500000 0.853577
O O19 0.832928 0.000000 0.250911
#
# Coordination Sequence:
#
# PCOD9148054 Si02
#       7
#     4   4   4   4   4   4   4
#     4  11  23  39  62  93 125 159 200 247 297 353
#     4  10  22  42  66  90 121 162 202 242 298 359
#     4   9  20  38  60  89 120 151 197 253 302 352
#     4  11  22  41  65  88 116 156 203 249 300 355
#     4  11  25  41  57  86 125 159 199 248 301 357
#     4  10  19  38  64  87 114 155 204 251 300 351
#     4  11  24  41  61  89 126 160 196 246 300 355
#
# _framework density 19.638271
#
# number of rings (size 3 to 8) (size 9 to 14) (size 15 to 20)
#    0.000    1.571    1.429    3.000    2.000    4.571 
#    0.000    2.857    0.000    0.000    0.000    0.000 
#    0.000    0.000    0.000    0.000    0.000    0.000 
#
# Total GULP energy -156469.019832 kJ/mol
# GULP energy per Si atom -5588.179280 kJ/mol
# Density = 1.959357 g / cm^3
# Si number density = 19.638271 Si / 1000 Ang^3
#
#
#
# Elastic Constant Matrix: (Units=GPa)
#
#
# Indices 1 2 3 4 5 6 
#
# 1 123.3145 25.1430 7.3249 0.0000 6.4555 0.0000
# 2 25.1430 37.3434 11.2193 0.0000 8.2852 0.0000
# 3 7.3249 11.2193 44.3858 0.0000 4.1182 0.0000
# 4 0.0000 0.0000 0.0000 26.0889 0.0000 -6.0350
# 5 6.4555 8.2852 4.1182 0.0000 37.5796 0.0000
# 6 0.0000 0.0000 0.0000 -6.0350 0.0000 42.3581
#
#
#
# Elastic Compliance Matrix: (Units=1/GPa)
#
#
# Indices 1 2 3 4 5 6 
#
# 1 0.009402 -0.006297 0.000062 0.000000 -0.000234 0.000000
# 2 -0.006297 0.034432 -0.007133 0.000000 -0.005728 0.000000
# 3 0.000062 -0.007133 0.024426 0.000000 -0.001115 0.000000
# 4 0.000000 0.000000 0.000000 0.039637 0.000000 0.005647
# 5 -0.000234 -0.005728 -0.001115 0.000000 0.028035 0.000000
# 6 0.000000 0.000000 0.000000 0.005647 0.000000 0.024413
#
#
# Mechanical properties :
#
#
# Convention : Reuss Voigt Hill
#
# Bulk Modulus (GPa) = 24.08247 32.49090 28.28668
# Shear Modulus (GPa) = 24.88537 31.96242 28.42389
#
# Velocity S-wave (km/s) = 3.56362 4.03868 3.80856
# Velocity P-wave (km/s) = 5.40575 6.19100 5.81165
#
# Compressibility (1/GPa) = 0.04152399
#
# Stress axis : x y z
#
# Youngs Moduli (GPa) = 106.36271 29.04293 40.94023
#
# Poissons Ratio (x) = 0.18288 -0.00253
# Poissons Ratio (y) = 0.66975 0.29201
# Poissons Ratio (z) = -0.00657 0.20715
#
# Static dielectric constant tensor:
#      x y z
#    x 1.585860 0.000000 -0.006190 
#    y 0.000000 1.673200 0.000000 
#    z -0.006190 0.000000 1.682090 
# 
# From -- ./inp_files/36694.got.cif
#   From: 2010.05.17/outbox.cif.g08.bks.cpg/sg10_19_cif.got.tgz:36694.got - 2010.06.03 11:33:40.
