data_PCOD9148017
_publ_section_title
;
Structure prediction by ZEFSAII (Michael W. Deem and Ramdas Pophale) SiO2 
 PCOD9148017
Probable space group: P 2/M
;
_chemical_formula_sum "Si O2"
_cell_formula_units_Z 28
_cell_length_a 13.948833
_cell_length_b 16.291469
_cell_length_c 14.272427
_cell_angle_alpha 90.000000
_cell_angle_beta 30.179243
_cell_angle_gamma 90.000000
_cell_volume 1630.462131
_symmetry_space_group_name_H-M "P 2/M"
_symmetry_group_IT_number 10
_symmetry_cell_setting 'monoclinic'
loop_
_space_group_symop_operation_xyz
x,y,z
-x,y,-z
-x,-y,-z
x,-y,z
loop_
_atom_site_type_symbol
_atom_site_label
_atom_site_fract_x
_atom_site_fract_y
_atom_site_fract_z
Si Si1 0.126911 0.348461 0.115557
Si Si2 0.297094 0.599457 0.786239
Si Si3 0.419130 0.089960 0.962841
Si Si4 0.700527 0.764358 0.698022
Si Si5 0.274274 0.402130 0.588074
Si Si6 0.491841 0.590903 0.119885
Si Si7 0.105526 0.201267 0.266547
O O1 0.145089 0.260364 0.146413
O O2 0.909064 0.375044 0.314135
O O3 0.166330 0.356987 0.972184
O O4 0.292515 0.402059 0.023762
O O5 0.272353 0.500000 0.815053
O O6 0.516488 0.621494 0.624052
O O7 0.262281 0.622652 0.707861
O O8 0.537616 0.166652 0.820756
O O9 0.445363 0.000000 0.896530
O O10 0.500000 0.084489 0.000000
O O11 0.197424 0.114446 0.161525
O O12 0.623606 0.671660 0.749200
O O13 0.772817 0.769046 0.745361
O O14 0.885763 0.790144 0.481592
O O15 0.274414 0.500000 0.589980
O O16 0.415272 0.500000 0.211804
O O17 0.500000 0.594486 0.000000
#
# Coordination Sequence:
#
# PCOD9148017 Si02
#       7
#     4   4   4   4   4   4   4
#     4  12  20  31  49  72  94 134 173 211 249 300
#     4   9  19  35  51  68  94 123 164 224 271 306
#     4   9  17  33  56  76  96 127 168 213 264 312
#     4  10  19  38  49  66 104 142 172 214 257 287
#     4   9  19  34  50  70  93 122 166 220 272 310
#     4  11  21  34  48  65  99 144 186 218 244 282
#     4  10  21  32  52  71 101 134 171 213 254 299
#
# _framework density 17.173045999999999
#
# number of rings (size 3 to 8) (size 9 to 14) (size 15 to 20)
#    0.000    2.000    2.857    3.000    2.000    1.714 
#    0.000    5.714    0.000    0.000    0.000    0.000 
#    0.000    2.286    0.000    8.571    0.000    0.571 
#
# Total GULP energy -156028.519166 kJ/mol
# GULP energy per Si atom -5572.447113 kJ/mol
# Density = 1.713396 g / cm^3
# Si number density = 17.173046 Si / 1000 Ang^3
#
#
#
# Elastic Constant Matrix: (Units=GPa)
#
#
# Indices 1 2 3 4 5 6 
#
# 1 33.8572 10.4975 20.3512 0.0000 -16.2718 0.0000
# 2 10.4975 109.8374 51.2627 0.0000 -11.2223 0.0000
# 3 20.3512 51.2627 86.4119 0.0000 -20.8815 0.0000
# 4 0.0000 0.0000 0.0000 14.1117 0.0000 -1.9244
# 5 -16.2718 -11.2223 -20.8815 0.0000 30.3920 0.0000
# 6 0.0000 0.0000 0.0000 -1.9244 0.0000 8.6089
#
#
#
# Elastic Compliance Matrix: (Units=1/GPa)
#
#
# Indices 1 2 3 4 5 6 
#
# 1 0.041729 0.000554 -0.005645 0.000000 0.018667 0.000000
# 2 0.000554 0.012606 -0.007689 0.000000 -0.000332 0.000000
# 3 -0.005645 -0.007689 0.019242 0.000000 0.007359 0.000000
# 4 0.000000 0.000000 0.000000 0.073091 0.000000 0.016339
# 5 0.018667 -0.000332 0.007359 0.000000 0.047831 0.000000
# 6 0.000000 0.000000 0.000000 0.016339 0.000000 0.119811
#
#
# Mechanical properties :
#
#
# Convention : Reuss Voigt Hill
#
# Bulk Modulus (GPa) = 20.82640 43.81435 32.32037
# Shear Modulus (GPa) = 14.04982 20.48887 17.26935
#
# Velocity S-wave (km/s) = 2.86340 3.45785 3.17457
# Velocity P-wave (km/s) = 4.80477 6.44291 5.68317
#
# Compressibility (1/GPa) = 0.04801598
#
# Stress axis : x y z
#
# Youngs Moduli (GPa) = 23.96413 79.32668 51.97060
#
# Poissons Ratio (x) = -0.04394 0.29339
# Poissons Ratio (y) = -0.01327 0.39960
# Poissons Ratio (z) = 0.13529 0.60994
#
# Static dielectric constant tensor:
#      x y z
#    x 1.618730 0.000000 -0.027760 
#    y 0.000000 1.586620 0.000000 
#    z -0.027760 0.000000 1.638550 
# 
# From -- ./inp_files/67553.got.cif
#   From: 2010.05.17/outbox.cif.g08.bks.cpg/sg10_34_cif.got.tgz:67553.got - 2010.06.03 11:33:40.
