data_PCOD9148212
_publ_section_title
;
Structure prediction by ZEFSAII (Michael W. Deem and Ramdas Pophale) SiO2 
 PCOD9148212
Probable space group: P 2/M
;
_chemical_formula_sum "Si O2"
_cell_formula_units_Z 32
_cell_length_a 12.829130
_cell_length_b 9.721867
_cell_length_c 12.200287
_cell_angle_alpha 90.000000
_cell_angle_beta 85.554969
_cell_angle_gamma 90.000000
_cell_volume 1517.080641
_symmetry_space_group_name_H-M "P 2/M"
_symmetry_group_IT_number 10
_symmetry_cell_setting 'monoclinic'
loop_
_space_group_symop_operation_xyz
x,y,z
-x,y,-z
-x,-y,-z
x,-y,z
loop_
_atom_site_type_symbol
_atom_site_label
_atom_site_fract_x
_atom_site_fract_y
_atom_site_fract_z
Si Si1 0.773359 0.164349 0.247724
Si Si2 0.831280 0.337911 0.034777
Si Si3 0.609011 0.344639 0.929694
Si Si4 0.647411 0.349271 0.582474
Si Si5 0.083580 0.156593 0.161604
Si Si6 0.691625 0.150003 0.746872
Si Si7 0.043071 0.165770 0.613844
Si Si8 0.405276 0.346966 0.666715
O O1 0.830086 0.246218 0.144626
O O2 0.838171 0.190903 0.355295
O O3 0.657828 0.229566 0.265888
O O4 0.772094 0.000000 0.228596
O O5 0.856010 0.500000 0.049080
O O6 0.711654 0.331682 0.997627
O O7 0.904613 0.263616 0.938539
O O8 0.611047 0.500000 0.884428
O O9 0.500000 0.326445 0.000000
O O10 0.618055 0.236979 0.831816
O O11 0.686058 0.500000 0.612854
O O12 0.711996 0.229935 0.633042
O O13 0.528725 0.331974 0.637268
O O14 0.639367 0.346053 0.453229
O O15 0.201179 0.140514 0.196198
O O16 0.022289 0.209738 0.273498
O O17 0.046411 0.000000 0.135009
O O18 0.648606 0.000000 0.727123
O O19 0.000000 0.218662 0.500000
O O20 0.030598 0.000000 0.610704
O O21 0.385829 0.500000 0.716947
#
# Coordination Sequence:
#
# PCOD9148212 Si02
#       8
#     4   4   4   4   4   4   4   4
#     4  11  23  37  60  90 118 149 190 244 294 343
#     4  10  21  38  59  83 117 155 194 239 288 344
#     4   9  19  35  54  76 105 152 200 229 268 339
#     4   9  19  36  56  76 107 155 198 227 271 346
#     4   9  19  38  61  84 114 151 195 241 284 340
#     4  10  20  31  52  85 113 142 181 239 293 325
#     4   9  20  39  63  88 115 153 193 230 287 357
#     4   9  20  38  56  77 110 153 195 232 277 337
#
# _framework density 21.093143000000001
#
# number of rings (size 3 to 8) (size 9 to 14) (size 15 to 20)
#    0.000    2.500    0.000    1.875    3.500    2.750 
#    0.000    5.000    0.000    1.875    0.000    0.000 
#    0.000    0.000    0.000    0.000    0.000    0.000 
#
# Total GULP energy -178506.900629 kJ/mol
# GULP energy per Si atom -5578.340645 kJ/mol
# Density = 2.104513 g / cm^3
# Si number density = 21.093143 Si / 1000 Ang^3
#
#
#
# Elastic Constant Matrix: (Units=GPa)
#
#
# Indices 1 2 3 4 5 6 
#
# 1 42.1383 24.4076 17.4845 0.0000 -12.9479 0.0000
# 2 24.4076 116.3626 49.8994 0.0000 1.1356 0.0000
# 3 17.4845 49.8994 85.5477 0.0000 4.4188 0.0000
# 4 0.0000 0.0000 0.0000 24.2624 0.0000 0.0873
# 5 -12.9479 1.1356 4.4188 0.0000 28.5006 0.0000
# 6 0.0000 0.0000 0.0000 0.0873 0.0000 18.7878
#
#
#
# Elastic Compliance Matrix: (Units=1/GPa)
#
#
# Indices 1 2 3 4 5 6 
#
# 1 0.033684 -0.005217 -0.004680 0.000000 0.016236 0.000000
# 2 -0.005217 0.012278 -0.005996 0.000000 -0.001930 0.000000
# 3 -0.004680 -0.005996 0.016372 0.000000 -0.004426 0.000000
# 4 0.000000 0.000000 0.000000 0.041217 0.000000 -0.000191
# 5 0.016236 -0.001930 -0.004426 0.000000 0.043226 0.000000
# 6 0.000000 0.000000 0.000000 -0.000191 0.000000 0.053227
#
#
# Mechanical properties :
#
#
# Convention : Reuss Voigt Hill
#
# Bulk Modulus (GPa) = 32.73504 47.51464 40.12484
# Shear Modulus (GPa) = 20.66353 24.46063 22.56208
#
# Velocity S-wave (km/s) = 3.13330 3.40906 3.27408
# Velocity P-wave (km/s) = 5.35192 6.17013 5.77554
#
# Compressibility (1/GPa) = 0.03054831
#
# Stress axis : x y z
#
# Youngs Moduli (GPa) = 29.68768 81.44591 61.08054
#
# Poissons Ratio (x) = 0.42489 0.28586
# Poissons Ratio (y) = 0.15488 0.36623
# Poissons Ratio (z) = 0.13894 0.48833
#
# Static dielectric constant tensor:
#      x y z
#    x 1.809510 0.000000 0.015610 
#    y 0.000000 1.759660 0.000000 
#    z 0.015610 0.000000 1.775860 
# 
# From -- ./inp_files/49974.got.cif
#   From: 2010.05.17/outbox.cif.g08.bks.cpg/sg10_25_cif.got.tgz:49974.got - 2010.06.03 11:33:40.
