data_PCOD9148815
_publ_section_title
;
Structure prediction by ZEFSAII (Michael W. Deem and Ramdas Pophale) SiO2 
 PCOD9148815
Probable space group: P 2/M
;
_chemical_formula_sum "Si O2"
_cell_formula_units_Z 30
_cell_length_a 12.758484
_cell_length_b 7.826143
_cell_length_c 16.310852
_cell_angle_alpha 90.000000
_cell_angle_beta 131.356039
_cell_angle_gamma 90.000000
_cell_volume 1222.482409
_symmetry_space_group_name_H-M "P 2/M"
_symmetry_group_IT_number 10
_symmetry_cell_setting 'monoclinic'
loop_
_space_group_symop_operation_xyz
x,y,z
-x,y,-z
-x,-y,-z
x,-y,z
loop_
_atom_site_type_symbol
_atom_site_label
_atom_site_fract_x
_atom_site_fract_y
_atom_site_fract_z
Si Si1 0.663104 0.301019 0.516983
Si Si2 0.824209 0.178369 0.345915
Si Si3 0.278392 0.792746 0.276719
Si Si4 0.560048 0.300941 0.116314
Si Si5 0.016108 0.693825 0.325660
Si Si6 0.673422 0.000000 0.414872
Si Si7 0.957982 0.801145 0.125860
Si Si8 0.314586 0.208607 0.109524
O O1 0.650298 0.500000 0.484612
O O2 0.643762 0.288528 0.605224
O O3 0.827007 0.236974 0.593339
O O4 0.595888 0.152388 0.428147
O O5 0.694620 0.205838 0.218769
O O6 0.942077 0.305407 0.375676
O O7 0.900426 0.000000 0.366741
O O8 0.750926 0.147518 0.394826
O O9 0.325794 0.746034 0.210252
O O10 0.114681 0.734294 0.194447
O O11 0.278399 0.000000 0.286514
O O12 0.597845 0.500000 0.124469
O O13 0.440373 0.282403 0.121994
O O14 0.500000 0.233535 0.000000
O O15 0.027797 0.500000 0.304018
O O16 0.930176 0.784382 0.208782
O O17 0.965329 0.000000 0.107026
O O18 0.831367 0.731594 0.006271
O O19 0.323085 0.000000 0.108863
#
# Coordination Sequence:
#
# PCOD9148815 Si02
#       8
#     4   4   4   4   4   2   4   4
#     4  10  21  37  60  89 121 156 196 241 299 361
#     4  10  23  38  58  82 109 148 198 241 294 343
#     4   9  17  33  57  85 121 158 192 241 292 350
#     4  11  24  41  60  83 117 157 195 241 290 344
#     4  10  20  33  53  84 121 159 193 235 289 352
#     4  10  24  41  63  87 115 156 196 249 304 355
#     4   9  17  30  52  83 121 161 195 229 283 347
#     4  10  20  33  56  87 117 153 200 241 285 346
#
# _framework density 24.540229
#
# number of rings (size 3 to 8) (size 9 to 14) (size 15 to 20)
#    0.400    1.733    0.667    2.400    1.867    8.000 
#    0.000    1.333    0.000    5.600    0.000    1.867 
#    0.000    0.000    0.000    0.000    0.000    0.000 
#
# Total GULP energy -167079.344022 kJ/mol
# GULP energy per Si atom -5569.311467 kJ/mol
# Density = 2.448437 g / cm^3
# Si number density = 24.540229 Si / 1000 Ang^3
#
#
#
# Elastic Constant Matrix: (Units=GPa)
#
#
# Indices 1 2 3 4 5 6 
#
# 1 96.9045 8.2334 41.9975 0.0000 -21.4305 0.0000
# 2 8.2334 53.9815 22.5043 0.0000 -7.2106 0.0000
# 3 41.9975 22.5043 112.8875 0.0000 -12.1628 0.0000
# 4 0.0000 0.0000 0.0000 0.1374 0.0000 -4.0777
# 5 -21.4305 -7.2106 -12.1628 0.0000 45.5970 0.0000
# 6 0.0000 0.0000 0.0000 -4.0777 0.0000 18.5950
#
#
#
# Elastic Compliance Matrix: (Units=1/GPa)
#
#
# Indices 1 2 3 4 5 6 
#
# 1 0.013378 0.000537 -0.004528 0.000000 0.005165 0.000000
# 2 0.000537 0.020439 -0.004014 0.000000 0.002414 0.000000
# 3 -0.004528 -0.004014 0.011372 0.000000 0.000271 0.000000
# 4 0.000000 0.000000 0.000000 -1.321415 0.000000 -0.289773
# 5 0.005165 0.002414 0.000271 0.000000 0.024813 0.000000
# 6 0.000000 0.000000 0.000000 -0.289773 0.000000 -0.009767
#
#
# Mechanical properties :
#
#
# Convention : Reuss Voigt Hill
#
# Bulk Modulus (GPa) = 34.27062 45.47155 39.87108
# Shear Modulus (GPa) = -4.04713 25.60178 10.77732
#
# Velocity S-wave (km/s) = -1.28560 3.23345 2.09791
# Velocity P-wave (km/s) = 3.43391 5.70175 4.70646
#
# Compressibility (1/GPa) = 0.02917951
#
# Stress axis : x y z
#
# Youngs Moduli (GPa) = 74.74787 48.92637 87.93364
#
# Poissons Ratio (x) = -0.02627 0.39814
# Poissons Ratio (y) = -0.04014 0.35298
# Poissons Ratio (z) = 0.33843 0.19640
#
# Static dielectric constant tensor:
#      x y z
#    x 1.986500 0.000000 0.065750 
#    y 0.000000 1.949440 0.000000 
#    z 0.065750 0.000000 2.027620 
# 
# From -- ./inp_files/63882.got.cif
#   From: 2010.05.17/outbox.cif.g08.bks.cpg/sg10_32_cif.got.tgz:63882.got - 2010.06.03 11:33:40.
