data_PCOD9148635
_publ_section_title
;
Structure prediction by ZEFSAII (Michael W. Deem and Ramdas Pophale) SiO2 
 PCOD9148635
Probable space group: P 2/M
;
_chemical_formula_sum "Si O2"
_cell_formula_units_Z 28
_cell_length_a 30.537496
_cell_length_b 7.602436
_cell_length_c 9.509769
_cell_angle_alpha 90.000000
_cell_angle_beta 141.306774
_cell_angle_gamma 90.000000
_cell_volume 1380.195684
_symmetry_space_group_name_H-M "P 2/M"
_symmetry_group_IT_number 10
_symmetry_cell_setting 'monoclinic'
loop_
_space_group_symop_operation_xyz
x,y,z
-x,y,-z
-x,-y,-z
x,-y,z
loop_
_atom_site_type_symbol
_atom_site_label
_atom_site_fract_x
_atom_site_fract_y
_atom_site_fract_z
Si Si1 0.717663 0.708558 0.438244
Si Si2 0.869374 0.294475 0.857692
Si Si3 0.281615 0.200109 0.883221
Si Si4 0.565767 0.788121 0.075596
Si Si5 0.870700 0.214815 0.531025
Si Si6 0.006524 0.202945 0.361584
Si Si7 0.567722 0.215916 0.756459
O O1 0.724976 0.500000 0.429831
O O2 0.789997 0.767597 0.691135
O O3 0.714157 0.800377 0.277078
O O4 0.643204 0.739485 0.324439
O O5 0.873962 0.500000 0.903658
O O6 0.878570 0.272014 0.712635
O O7 0.932035 0.205313 0.097535
O O8 0.204812 0.277585 0.717032
O O9 0.280010 0.000000 0.932172
O O10 0.356849 0.277900 0.113622
O O11 0.562585 0.000000 0.066243
O O12 0.500000 0.722840 0.000000
O O13 0.561112 0.727656 0.902105
O O14 0.934497 0.277693 0.594645
O O15 0.869286 0.000000 0.531466
O O16 0.000000 0.284082 0.500000
O O17 0.028545 0.000000 0.437864
O O18 0.500000 0.270697 0.500000
O O19 0.569920 0.000000 0.760904
#
# Coordination Sequence:
#
# PCOD9148635 Si02
#       7
#     4   4   4   4   4   4   4
#     4   9  17  29  46  68  92 118 151 190 231 274
#     4  10  20  33  51  74  95 120 160 203 240 283
#     4   8  14  26  45  66  88 116 151 191 232 270
#     4   9  17  29  45  67  93 120 152 188 226 269
#     4   9  17  31  51  72  93 121 159 200 239 281
#     4  10  21  35  49  69  99 130 158 192 239 293
#     4   8  13  23  41  64  88 113 143 181 221 260
#
# _framework density 20.286978999999999
#
# number of rings (size 3 to 8) (size 9 to 14) (size 15 to 20)
#    0.000    3.000    0.000    2.143    0.000    4.571 
#    0.000    1.429    0.000   12.000    0.000    4.000 
#    0.000    0.000    0.000    0.000    0.000    0.000 
#
# Total GULP energy -155986.698632 kJ/mol
# GULP energy per Si atom -5570.953523 kJ/mol
# Density = 2.024081 g / cm^3
# Si number density = 20.286979 Si / 1000 Ang^3
#
#
#
# Elastic Constant Matrix: (Units=GPa)
#
#
# Indices 1 2 3 4 5 6 
#
# 1 117.8527 -3.0011 72.0246 0.0000 36.8138 0.0000
# 2 -3.0011 46.5697 -6.6502 0.0000 -0.2276 0.0000
# 3 72.0246 -6.6502 139.4127 0.0000 38.1765 0.0000
# 4 0.0000 0.0000 0.0000 61.9587 0.0000 -24.9927
# 5 36.8138 -0.2276 38.1765 0.0000 32.2355 0.0000
# 6 0.0000 0.0000 0.0000 -24.9927 0.0000 16.6612
#
#
#
# Elastic Compliance Matrix: (Units=1/GPa)
#
#
# Indices 1 2 3 4 5 6 
#
# 1 0.014877 0.000263 -0.004471 0.000000 -0.011693 0.000000
# 2 0.000263 0.021680 0.001389 0.000000 -0.001792 0.000000
# 3 -0.004471 0.001389 0.012059 0.000000 -0.009165 0.000000
# 4 0.000000 0.000000 0.000000 0.040869 0.000000 0.061306
# 5 -0.011693 -0.001792 -0.009165 0.000000 0.055217 0.000000
# 6 0.000000 0.000000 0.000000 0.061306 0.000000 0.151983
#
#
# Mechanical properties :
#
#
# Convention : Reuss Voigt Hill
#
# Bulk Modulus (GPa) = 23.26814 47.62018 35.44416
# Shear Modulus (GPa) = 15.79033 38.26850 27.02942
#
# Velocity S-wave (km/s) = 2.79292 4.34793 3.65410
# Velocity P-wave (km/s) = 4.67920 6.98071 5.94244
#
# Compressibility (1/GPa) = 0.04297721
#
# Stress axis : x y z
#
# Youngs Moduli (GPa) = 67.21793 46.12595 82.92498
#
# Poissons Ratio (x) = -0.01213 0.37080
# Poissons Ratio (y) = -0.01768 -0.11519
# Poissons Ratio (z) = 0.30056 -0.06407
#
# Static dielectric constant tensor:
#      x y z
#    x 1.736030 0.000000 0.051260 
#    y 0.000000 1.761870 0.000000 
#    z 0.051260 0.000000 1.720370 
# 
# From -- ./inp_files/38031.got.cif
#   From: 2010.05.17/outbox.cif.g08.bks.cpg/sg10_20_cif.got.tgz:38031.got - 2010.06.03 11:33:40.
