data_PCOD9148203
_publ_section_title
;
Structure prediction by ZEFSAII (Michael W. Deem and Ramdas Pophale) SiO2 
 PCOD9148203
Probable space group: P 2/M
;
_chemical_formula_sum "Si O2"
_cell_formula_units_Z 32
_cell_length_a 24.281791
_cell_length_b 7.536069
_cell_length_c 15.686771
_cell_angle_alpha 90.000000
_cell_angle_beta 151.447281
_cell_angle_gamma 90.000000
_cell_volume 1372.009795
_symmetry_space_group_name_H-M "P 2/M"
_symmetry_group_IT_number 10
_symmetry_cell_setting 'monoclinic'
loop_
_space_group_symop_operation_xyz
x,y,z
-x,y,-z
-x,-y,-z
x,-y,z
loop_
_atom_site_type_symbol
_atom_site_label
_atom_site_fract_x
_atom_site_fract_y
_atom_site_fract_z
Si Si1 0.003972 0.800011 0.728788
Si Si2 0.122983 0.202272 0.147071
Si Si3 0.429710 0.784622 0.279174
Si Si4 0.795769 0.704587 0.563668
Si Si5 0.161812 0.292057 0.642834
Si Si6 0.666408 0.783080 0.665401
Si Si7 0.205122 0.214817 0.893237
Si Si8 0.369872 0.283836 0.811707
O O1 0.917871 0.713305 0.679220
O O2 0.931708 0.804232 0.542169
O O3 0.124995 0.721154 0.862364
O O4 0.024191 0.000000 0.787176
O O5 0.190880 0.199683 0.328736
O O6 0.209469 0.282493 0.195703
O O7 0.098561 0.000000 0.086255
O O8 0.000000 0.288704 0.000000
O O9 0.561886 0.724908 0.461135
O O10 0.373683 0.736944 0.294314
O O11 0.433592 0.000000 0.281112
O O12 0.337119 0.724850 0.083785
O O13 0.769924 0.500000 0.546752
O O14 0.698634 0.774511 0.366427
O O15 0.146995 0.500000 0.602714
O O16 0.155534 0.267352 0.734640
O O17 0.287111 0.235906 0.778024
O O18 0.670817 0.000000 0.668676
O O19 0.202770 0.000000 0.894344
O O20 0.372947 0.500000 0.812304
O O21 0.500000 0.220724 0.000000
#
# Coordination Sequence:
#
# PCOD9148203 Si02
#       8
#     4   4   4   4   4   4   4   4
#     4  10  20  34  53  74 103 137 172 212 257 306
#     4  10  21  34  54  81 109 140 179 221 264 314
#     4   8  15  29  50  75 101 133 173 216 262 306
#     4  10  21  36  54  78 107 139 175 214 265 318
#     4  10  20  33  50  74 105 138 172 208 254 307
#     4   8  15  30  51  74 103 135 170 216 263 306
#     4  10  20  31  50  77 102 131 172 216 258 305
#     4   8  16  33  54  73  97 135 177 211 250 308
#
# _framework density 23.323447000000002
#
# number of rings (size 3 to 8) (size 9 to 14) (size 15 to 20)
#    0.000    2.750    0.000    3.000    1.750    3.750 
#    0.000    0.000    0.000   12.750    0.000    1.750 
#    0.000    0.000    0.000    0.000    0.000    0.000 
#
# Total GULP energy -178679.534888 kJ/mol
# GULP energy per Si atom -5583.735465 kJ/mol
# Density = 2.327036 g / cm^3
# Si number density = 23.323447 Si / 1000 Ang^3
#
#
#
# Elastic Constant Matrix: (Units=GPa)
#
#
# Indices 1 2 3 4 5 6 
#
# 1 72.2185 -1.0284 25.0164 0.0000 13.8031 0.0000
# 2 -1.0284 65.2319 0.7978 0.0000 2.1599 0.0000
# 3 25.0164 0.7978 67.1120 0.0000 14.8983 0.0000
# 4 0.0000 0.0000 0.0000 -11.0191 0.0000 17.1454
# 5 13.8031 2.1599 14.8983 0.0000 45.1708 0.0000
# 6 0.0000 0.0000 0.0000 17.1454 0.0000 -13.1906
#
#
#
# Elastic Compliance Matrix: (Units=1/GPa)
#
#
# Indices 1 2 3 4 5 6 
#
# 1 0.016334 0.000430 -0.005375 0.000000 -0.003239 0.000000
# 2 0.000430 0.015366 -0.000163 0.000000 -0.000813 0.000000
# 3 -0.005375 -0.000163 0.017846 0.000000 -0.004236 0.000000
# 4 0.000000 0.000000 0.000000 0.088757 0.000000 0.115367
# 5 -0.003239 -0.000813 -0.004236 0.000000 0.024564 0.000000
# 6 0.000000 0.000000 0.000000 0.115367 0.000000 0.074145
#
#
# Mechanical properties :
#
#
# Convention : Reuss Voigt Hill
#
# Bulk Modulus (GPa) = 25.42465 28.23713 26.83089
# Shear Modulus (GPa) = 19.20599 16.17733 17.69166
#
# Velocity S-wave (km/s) = 2.87272 2.63650 2.75714
# Velocity P-wave (km/s) = 4.68272 4.62615 4.65452
#
# Compressibility (1/GPa) = 0.03933191
#
# Stress axis : x y z
#
# Youngs Moduli (GPa) = 61.22259 65.08043 56.03455
#
# Poissons Ratio (x) = -0.02802 0.30116
# Poissons Ratio (y) = -0.02636 0.00912
# Poissons Ratio (z) = 0.32905 0.01059
#
# Static dielectric constant tensor:
#      x y z
#    x 1.866000 0.000000 0.031930 
#    y 0.000000 1.894880 0.000000 
#    z 0.031930 0.000000 1.891080 
# 
# From -- ./inp_files/71635.got.cif
#   From: 2010.05.17/outbox.cif.g08.bks.cpg/sg10_36_cif.got.tgz:71635.got - 2010.06.03 11:33:40.
