data_PCOD9148183
_publ_section_title
;
Structure prediction by ZEFSAII (Michael W. Deem and Ramdas Pophale) SiO2 
 PCOD9148183
Probable space group: P 2/M
;
_chemical_formula_sum "Si O2"
_cell_formula_units_Z 28
_cell_length_a 19.620615
_cell_length_b 8.232223
_cell_length_c 12.062653
_cell_angle_alpha 90.000000
_cell_angle_beta 51.086195
_cell_angle_gamma 90.000000
_cell_volume 1516.014756
_symmetry_space_group_name_H-M "P 2/M"
_symmetry_group_IT_number 10
_symmetry_cell_setting 'monoclinic'
loop_
_space_group_symop_operation_xyz
x,y,z
-x,y,-z
-x,-y,-z
x,-y,z
loop_
_atom_site_type_symbol
_atom_site_label
_atom_site_fract_x
_atom_site_fract_y
_atom_site_fract_z
Si Si1 0.675160 0.304776 0.914701
Si Si2 0.484399 0.805958 0.767279
Si Si3 0.625327 0.188396 0.321468
Si Si4 0.752279 0.307824 0.367911
Si Si5 0.669561 0.305294 0.670333
Si Si6 0.779278 0.309135 0.012630
Si Si7 0.906427 0.192330 0.052651
O O1 0.662739 0.500000 0.922856
O O2 0.680098 0.242014 0.784439
O O3 0.760827 0.274453 0.902905
O O4 0.592947 0.235591 0.067014
O O5 0.453952 0.749759 0.674972
O O6 0.572924 0.731668 0.723592
O O7 0.493374 0.000000 0.751405
O O8 0.662188 0.277763 0.391434
O O9 0.610159 0.000000 0.364946
O O10 0.708205 0.204280 0.152956
O O11 0.768870 0.500000 0.351820
O O12 0.736591 0.244762 0.508026
O O13 0.831666 0.226325 0.220815
O O14 0.680132 0.500000 0.663675
O O15 0.758586 0.500000 0.052861
O O16 0.871572 0.272318 0.974791
O O17 0.912638 0.000000 0.028188
O O18 0.000000 0.253279 0.000000
#
# Coordination Sequence:
#
# PCOD9148183 Si02
#       7
#     4   4   4   4   4   4   4
#     4   9  18  33  50  68  95 130 165 200 238 276
#     4  10  20  31  46  70  95 125 169 211 241 273
#     4   9  17  30  46  65  95 128 157 197 244 283
#     4  10  20  33  50  72  96 124 160 196 234 285
#     4  10  21  34  47  66  96 132 164 199 241 279
#     4   9  16  28  50  75  95 120 156 194 231 275
#     4  10  20  34  54  78 101 122 145 182 236 292
#
# _framework density 18.469476
#
# number of rings (size 3 to 8) (size 9 to 14) (size 15 to 20)
#    0.000    2.429    0.000    4.286    0.000    7.429 
#    0.000    2.857    0.000    0.857    0.000    6.000 
#    0.000    0.000    0.000    0.000    0.000    0.000 
#
# Total GULP energy -156122.589737 kJ/mol
# GULP energy per Si atom -5575.806776 kJ/mol
# Density = 1.842744 g / cm^3
# Si number density = 18.469476 Si / 1000 Ang^3
#
#
#
# Elastic Constant Matrix: (Units=GPa)
#
#
# Indices 1 2 3 4 5 6 
#
# 1 117.7936 0.6641 49.7806 0.0000 4.7420 0.0000
# 2 0.6641 19.0517 1.9320 0.0000 2.0849 0.0000
# 3 49.7806 1.9320 75.2011 0.0000 19.9798 0.0000
# 4 0.0000 0.0000 0.0000 8.3058 0.0000 -1.3923
# 5 4.7420 2.0849 19.9798 0.0000 26.5067 0.0000
# 6 0.0000 0.0000 0.0000 -1.3923 0.0000 24.7209
#
#
#
# Elastic Compliance Matrix: (Units=1/GPa)
#
#
# Indices 1 2 3 4 5 6 
#
# 1 0.012278 -0.000009 -0.009433 0.000000 0.004915 0.000000
# 2 -0.000009 0.052951 -0.000310 0.000000 -0.003929 0.000000
# 3 -0.009433 -0.000310 0.023877 0.000000 -0.016286 0.000000
# 4 0.000000 0.000000 0.000000 0.121546 0.000000 0.006845
# 5 0.004915 -0.003929 -0.016286 0.000000 0.049432 0.000000
# 6 0.000000 0.000000 0.000000 0.006845 0.000000 0.040837
#
#
# Mechanical properties :
#
#
# Convention : Reuss Voigt Hill
#
# Bulk Modulus (GPa) = 14.36777 35.19997 24.78387
# Shear Modulus (GPa) = 14.55070 22.55132 18.55101
#
# Velocity S-wave (km/s) = 2.80987 3.49808 3.17269
# Velocity P-wave (km/s) = 4.28056 5.95107 5.18355
#
# Compressibility (1/GPa) = 0.06960021
#
# Stress axis : x y z
#
# Youngs Moduli (GPa) = 81.44504 18.88553 41.88130
#
# Poissons Ratio (x) = 0.00017 0.39508
# Poissons Ratio (y) = 0.00075 0.01300
# Poissons Ratio (z) = 0.76829 0.00586
#
# Static dielectric constant tensor:
#      x y z
#    x 1.670110 0.000000 0.027130 
#    y 0.000000 1.637960 0.000000 
#    z 0.027130 0.000000 1.653520 
# 
# From -- ./inp_files/54653.got.cif
#   From: 2010.05.17/outbox.cif.g08.bks.cpg/sg10_28_cif.got.tgz:54653.got - 2010.06.03 11:33:40.
