data_PCOD9148398
_publ_section_title
;
Structure prediction by ZEFSAII (Michael W. Deem and Ramdas Pophale) SiO2 
 PCOD9148398
Probable space group: P 2/M
;
_chemical_formula_sum "Si O2"
_cell_formula_units_Z 32
_cell_length_a 13.058347
_cell_length_b 14.056827
_cell_length_c 19.091636
_cell_angle_alpha 90.000000
_cell_angle_beta 150.113627
_cell_angle_gamma 90.000000
_cell_volume 1746.197869
_symmetry_space_group_name_H-M "P 2/M"
_symmetry_group_IT_number 10
_symmetry_cell_setting 'monoclinic'
loop_
_space_group_symop_operation_xyz
x,y,z
-x,y,-z
-x,-y,-z
x,-y,z
loop_
_atom_site_type_symbol
_atom_site_label
_atom_site_fract_x
_atom_site_fract_y
_atom_site_fract_z
Si Si1 0.059689 0.254702 0.903747
Si Si2 0.215977 0.703661 0.589797
Si Si3 0.340892 0.889439 0.583308
Si Si4 0.774024 0.105336 0.899138
Si Si5 0.762430 0.605727 0.807827
Si Si6 0.381105 0.610501 0.115232
Si Si7 0.729277 0.795622 0.604941
Si Si8 0.706540 0.392845 0.512246
O O1 0.900745 0.310252 0.860302
O O2 0.916122 0.190554 0.769211
O O3 0.214824 0.186453 0.037092
O O4 0.213947 0.336505 0.967612
O O5 0.257253 0.811923 0.588709
O O6 0.401778 0.664067 0.747765
O O7 0.219196 0.640919 0.520337
O O8 0.000000 0.696053 0.500000
O O9 0.589432 0.877984 0.735280
O O10 0.264869 0.858732 0.461541
O O11 0.292705 0.000000 0.569015
O O12 0.737808 0.000000 0.907601
O O13 0.000000 0.105818 0.000000
O O14 0.851181 0.500000 0.846948
O O15 0.713761 0.613648 0.861509
O O16 0.541323 0.609722 0.639796
O O17 0.410327 0.500000 0.114861
O O18 0.500000 0.806495 0.500000
O O19 0.763235 0.685991 0.602060
O O20 0.771610 0.500000 0.566679
#
# Coordination Sequence:
#
# PCOD9148398 Si02
#       8
#     4   4   4   4   4   4   4   4
#     4  12  20  30  51  78 116 149 182 225 263 324
#     4  10  20  37  61  86 106 136 184 247 298 330
#     4  10  22  41  59  80 112 145 186 235 283 338
#     4  10  20  33  53  77 105 144 183 225 276 331
#     4   9  17  29  48  73 107 150 185 220 261 312
#     4  10  20  32  50  82 115 145 184 226 278 330
#     4  11  22  33  51  81 118 162 190 217 262 323
#     4   9  19  34  50  76 113 150 191 224 263 323
#
# _framework density 18.325529
#
# number of rings (size 3 to 8) (size 9 to 14) (size 15 to 20)
#    0.000    1.875    2.500    3.375    1.750    4.250 
#    0.000    0.000    0.000    3.000    0.000    5.250 
#    0.000    0.000    0.000    0.000    0.000    0.000 
#
# Total GULP energy -178504.802004 kJ/mol
# GULP energy per Si atom -5578.275063 kJ/mol
# Density = 1.828382 g / cm^3
# Si number density = 18.325529 Si / 1000 Ang^3
#
#
#
# Elastic Constant Matrix: (Units=GPa)
#
#
# Indices 1 2 3 4 5 6 
#
# 1 33.1737 15.0144 20.8219 0.0000 19.6638 0.0000
# 2 15.0144 109.0465 27.5675 0.0000 5.5525 0.0000
# 3 20.8219 27.5675 84.7118 0.0000 6.0168 0.0000
# 4 0.0000 0.0000 0.0000 23.1079 0.0000 0.2797
# 5 19.6638 5.5525 6.0168 0.0000 22.6601 0.0000
# 6 0.0000 0.0000 0.0000 0.2797 0.0000 5.4588
#
#
#
# Elastic Compliance Matrix: (Units=1/GPa)
#
#
# Indices 1 2 3 4 5 6 
#
# 1 0.077522 -0.004128 -0.013255 0.000000 -0.062740 0.000000
# 2 -0.004128 0.010271 -0.002450 0.000000 0.001716 0.000000
# 3 -0.013255 -0.002450 0.015289 0.000000 0.008043 0.000000
# 4 0.000000 0.000000 0.000000 0.043302 0.000000 -0.002219
# 5 -0.062740 0.001716 0.008043 0.000000 0.096018 0.000000
# 6 0.000000 0.000000 0.000000 -0.002219 0.000000 0.183305
#
#
# Mechanical properties :
#
#
# Convention : Reuss Voigt Hill
#
# Bulk Modulus (GPa) = 15.76905 39.30443 27.53674
# Shear Modulus (GPa) = 10.27727 21.14724 15.71226
#
# Velocity S-wave (km/s) = 2.37073 3.40071 2.93131
# Velocity P-wave (km/s) = 4.01465 6.07571 5.14935
#
# Compressibility (1/GPa) = 0.06341536
#
# Stress axis : x y z
#
# Youngs Moduli (GPa) = 12.89964 97.36455 65.40810
#
# Poissons Ratio (x) = 0.40195 0.86698
# Poissons Ratio (y) = 0.05325 0.16022
# Poissons Ratio (z) = 0.17098 0.23850
#
# Static dielectric constant tensor:
#      x y z
#    x 1.605760 0.000000 -0.023720 
#    y 0.000000 1.683200 0.000000 
#    z -0.023720 0.000000 1.661220 
# 
# From -- ./inp_files/77043.got.cif
#   From: 2010.05.17/outbox.cif.g08.bks.cpg/sg10_39_cif.got.tgz:77043.got - 2010.06.03 11:33:40.
