data_PCOD9148052
_publ_section_title
;
Structure prediction by ZEFSAII (Michael W. Deem and Ramdas Pophale) SiO2 
 PCOD9148052
Probable space group: P 2/M
;
_chemical_formula_sum "Si O2"
_cell_formula_units_Z 28
_cell_length_a 11.445424
_cell_length_b 17.733439
_cell_length_c 19.307435
_cell_angle_alpha 90.000000
_cell_angle_beta 23.173525
_cell_angle_gamma 90.000000
_cell_volume 1542.102016
_symmetry_space_group_name_H-M "P 2/M"
_symmetry_group_IT_number 10
_symmetry_cell_setting 'monoclinic'
loop_
_space_group_symop_operation_xyz
x,y,z
-x,y,-z
-x,-y,-z
x,-y,z
loop_
_atom_site_type_symbol
_atom_site_label
_atom_site_fract_x
_atom_site_fract_y
_atom_site_fract_z
Si Si1 0.627575 0.229976 0.268791
Si Si2 0.286493 0.085715 0.683607
Si Si3 0.300336 0.269639 0.925023
Si Si4 0.283174 0.413692 0.298240
Si Si5 0.824323 0.414616 0.804701
Si Si6 0.254916 0.831513 0.079811
Si Si7 0.775508 0.718366 0.400160
O O1 0.635286 0.148230 0.301406
O O2 0.612332 0.228912 0.194488
O O3 0.354176 0.273749 0.452307
O O4 0.939436 0.270595 0.119654
O O5 0.500000 0.093473 0.500000
O O6 0.952591 0.104881 0.840945
O O7 0.311933 0.000000 0.694772
O O8 0.459117 0.350918 0.837920
O O9 0.381396 0.220812 0.948651
O O10 0.381378 0.500000 0.261645
O O11 0.169188 0.415125 0.281559
O O12 0.000000 0.394827 0.500000
O O13 0.840035 0.500000 0.823069
O O14 0.081958 0.362298 0.691895
O O15 0.500000 0.383047 0.000000
O O16 0.028144 0.778708 0.246251
O O17 0.500000 0.858864 0.000000
O O18 0.500000 0.732535 0.500000
#
# Coordination Sequence:
#
# PCOD9148052 Si02
#       7
#     4   4   4   4   4   4   4
#     4  10  20  36  55  84 114 138 190 235 274 340
#     4  10  19  38  64  86 112 151 187 225 279 339
#     4  10  20  35  54  82 114 147 183 243 284 318
#     4  10  20  36  54  75 107 151 198 229 277 343
#     4  10  22  36  52  77 110 147 188 238 289 333
#     4  11  21  36  57  87 116 147 189 233 282 338
#     4  12  19  34  57  78 110 147 194 237 277 337
#
# _framework density 18.157033999999999
#
# number of rings (size 3 to 8) (size 9 to 14) (size 15 to 20)
#    0.000    1.571    4.286    3.000    0.000    0.571 
#    0.000    7.857    0.000    0.000    0.000    2.000 
#    0.000    0.000    0.000    0.000    0.000    0.000 
#
# Total GULP energy -156228.663267 kJ/mol
# GULP energy per Si atom -5579.595117 kJ/mol
# Density = 1.811571 g / cm^3
# Si number density = 18.157034 Si / 1000 Ang^3
#
#
#
# Elastic Constant Matrix: (Units=GPa)
#
#
# Indices 1 2 3 4 5 6 
#
# 1 43.7765 -0.4909 9.0076 0.0000 6.4416 0.0000
# 2 -0.4909 101.1981 33.9619 0.0000 -10.8571 0.0000
# 3 9.0076 33.9619 66.3648 0.0000 14.6651 0.0000
# 4 0.0000 0.0000 0.0000 5.1939 0.0000 76.0102
# 5 6.4416 -10.8571 14.6651 0.0000 29.3698 0.0000
# 6 0.0000 0.0000 0.0000 76.0102 0.0000 -281.7083
#
#
#
# Elastic Compliance Matrix: (Units=1/GPa)
#
#
# Indices 1 2 3 4 5 6 
#
# 1 0.023957 0.000666 -0.002794 0.000000 -0.003613 0.000000
# 2 0.000666 0.014120 -0.009484 0.000000 0.009809 0.000000
# 3 -0.002794 -0.009484 0.023537 0.000000 -0.014646 0.000000
# 4 0.000000 0.000000 0.000000 0.038906 0.000000 0.010498
# 5 -0.003613 0.009809 -0.014646 0.000000 0.045780 0.000000
# 6 0.000000 0.000000 0.000000 0.010498 0.000000 -0.000717
#
#
# Mechanical properties :
#
#
# Convention : Reuss Voigt Hill
#
# Bulk Modulus (GPa) = 26.04788 32.92187 29.48488
# Shear Modulus (GPa) = 27.53244 -38.17153 -5.31955
#
# Velocity S-wave (km/s) = 3.89826 -4.59006 -1.71351
# Velocity P-wave (km/s) = 5.88549 3.14967 3.51557
#
# Compressibility (1/GPa) = 0.03839084
#
# Stress axis : x y z
#
# Youngs Moduli (GPa) = 41.74081 70.82164 42.48599
#
# Poissons Ratio (x) = -0.04719 0.11872
# Poissons Ratio (y) = -0.02782 0.40293
# Poissons Ratio (z) = 0.11664 0.67166
#
# Static dielectric constant tensor:
#      x y z
#    x 1.638080 0.000000 0.018750 
#    y 0.000000 1.632080 0.000000 
#    z 0.018750 0.000000 1.634940 
# 
# From -- ./inp_files/30095.got.cif
#   From: 2010.05.17/outbox.cif.g08.bks.cpg/sg10_16_cif.got.tgz:30095.got - 2010.06.03 11:33:40.
