data_PCOD9148567
_publ_section_title
;
Structure prediction by ZEFSAII (Michael W. Deem and Ramdas Pophale) SiO2 
 PCOD9148567
Probable space group: P 2/M
;
_chemical_formula_sum "Si O2"
_cell_formula_units_Z 32
_cell_length_a 23.999462
_cell_length_b 7.741189
_cell_length_c 21.491820
_cell_angle_alpha 90.000000
_cell_angle_beta 156.151144
_cell_angle_gamma 90.000000
_cell_volume 1614.408091
_symmetry_space_group_name_H-M "P 2/M"
_symmetry_group_IT_number 10
_symmetry_cell_setting 'monoclinic'
loop_
_space_group_symop_operation_xyz
x,y,z
-x,y,-z
-x,-y,-z
x,-y,z
loop_
_atom_site_type_symbol
_atom_site_label
_atom_site_fract_x
_atom_site_fract_y
_atom_site_fract_z
Si Si1 0.341891 0.711853 0.333803
Si Si2 0.291740 0.202282 0.823629
Si Si3 0.094086 0.700361 0.158679
Si Si4 0.052824 0.289216 0.666905
Si Si5 0.162339 0.712562 0.031406
Si Si6 0.462641 0.200330 0.115403
Si Si7 0.741208 0.699005 0.348695
Si Si8 0.234899 0.297420 0.969061
O O1 0.500000 0.767060 0.500000
O O2 0.340014 0.500000 0.333623
O O3 0.240643 0.773264 0.286076
O O4 0.269543 0.762871 0.195023
O O5 0.304121 0.288088 0.769538
O O6 0.138925 0.225180 0.695582
O O7 0.322878 0.000000 0.846200
O O8 0.390701 0.273883 0.979187
O O9 0.118970 0.500000 0.200953
O O10 0.000000 0.700990 0.000000
O O11 0.991101 0.773101 0.105496
O O12 0.054030 0.500000 0.665040
O O13 0.895726 0.228747 0.509078
O O14 0.136023 0.229819 0.813153
O O15 0.159930 0.500000 0.029957
O O16 0.207733 0.773552 0.009802
O O17 0.624834 0.217503 0.272494
O O18 0.424820 0.000000 0.078405
O O19 0.389529 0.279634 0.100723
O O20 0.748540 0.500000 0.374877
O O21 0.203231 0.500000 0.940786
#
# Coordination Sequence:
#
# PCOD9148567 Si02
#       8
#     4   4   4   4   4   4   4   4
#     4   8  12  18  30  54  88 118 143 177 220 261
#     4  10  20  33  50  71  92 117 151 188 229 280
#     4   7  10  17  29  47  74 106 138 170 206 249
#     4   9  19  33  47  66  92 120 151 190 232 273
#     4   8  13  22  38  57  79 115 154 181 214 264
#     4  10  21  35  49  67  92 120 152 189 229 277
#     4  11  21  32  48  70  94 119 149 188 236 282
#     4   9  17  32  50  65  87 121 159 193 226 269
#
# _framework density 19.821507
#
# number of rings (size 3 to 8) (size 9 to 14) (size 15 to 20)
#    0.000    3.000    0.000    3.375    0.000    5.500 
#    0.000    1.250    0.000    6.000    0.000    0.000 
#    0.000    5.000    0.000    0.000    0.000    0.125 
#
# Total GULP energy -178350.861690 kJ/mol
# GULP energy per Si atom -5573.464428 kJ/mol
# Density = 1.977639 g / cm^3
# Si number density = 19.821507 Si / 1000 Ang^3
#
#
#
# Elastic Constant Matrix: (Units=GPa)
#
#
# Indices 1 2 3 4 5 6 
#
# 1 135.1651 -3.0153 52.8724 0.0000 29.8349 0.0000
# 2 -3.0153 27.1932 -0.3849 0.0000 -2.2723 0.0000
# 3 52.8724 -0.3849 100.0991 0.0000 40.2851 0.0000
# 4 0.0000 0.0000 0.0000 -31.7592 0.0000 -68.0003
# 5 29.8349 -2.2723 40.2851 0.0000 26.4514 0.0000
# 6 0.0000 0.0000 0.0000 -68.0003 0.0000 -126.2060
#
#
#
# Elastic Compliance Matrix: (Units=1/GPa)
#
#
# Indices 1 2 3 4 5 6 
#
# 1 0.009995 0.000389 -0.001949 0.000000 -0.008272 0.000000
# 2 0.000389 0.037393 -0.003043 0.000000 0.007408 0.000000
# 3 -0.001949 -0.003043 0.026425 0.000000 -0.038308 0.000000
# 4 0.000000 0.000000 0.000000 0.204929 0.000000 -0.110417
# 5 -0.008272 0.007408 -0.038308 0.000000 0.106115 0.000000
# 6 0.000000 0.000000 0.000000 -0.110417 0.000000 0.051569
#
#
# Mechanical properties :
#
#
# Convention : Reuss Voigt Hill
#
# Bulk Modulus (GPa) = 15.47786 40.15573 27.81679
# Shear Modulus (GPa) = 10.70279 -12.10372 -0.70047
#
# Velocity S-wave (km/s) = 2.32622 -2.47379 -0.59511
# Velocity P-wave (km/s) = 3.87823 3.48470 3.68672
#
# Compressibility (1/GPa) = 0.06460842
#
# Stress axis : x y z
#
# Youngs Moduli (GPa) = 100.04680 26.74293 37.84298
#
# Poissons Ratio (x) = -0.01042 0.07375
# Poissons Ratio (y) = -0.03897 0.11516
# Poissons Ratio (z) = 0.19497 0.08138
#
# Static dielectric constant tensor:
#      x y z
#    x 1.694930 0.000000 0.019890 
#    y 0.000000 1.730210 0.000000 
#    z 0.019890 0.000000 1.715690 
# 
# From -- ./inp_files/90638.got.cif
#   From: 2010.05.17/outbox.cif.g08.bks.cpg/sg10_46_cif.got.tgz:90638.got - 2010.06.03 11:33:40.
