data_PCOD9148313
_publ_section_title
;
Structure prediction by ZEFSAII (Michael W. Deem and Ramdas Pophale) SiO2 
 PCOD9148313
Probable space group: P 2/M
;
_chemical_formula_sum "Si O2"
_cell_formula_units_Z 30
_cell_length_a 15.331681
_cell_length_b 21.959111
_cell_length_c 14.982387
_cell_angle_alpha 90.000000
_cell_angle_beta 18.978605
_cell_angle_gamma 90.000000
_cell_volume 1640.424291
_symmetry_space_group_name_H-M "P 2/M"
_symmetry_group_IT_number 10
_symmetry_cell_setting 'monoclinic'
loop_
_space_group_symop_operation_xyz
x,y,z
-x,y,-z
-x,-y,-z
x,-y,z
loop_
_atom_site_type_symbol
_atom_site_label
_atom_site_fract_x
_atom_site_fract_y
_atom_site_fract_z
Si Si1 0.543266 0.849439 0.170150
Si Si2 0.770166 0.000000 0.296019
Si Si3 0.079195 0.885949 0.729429
Si Si4 0.759050 0.430242 0.803645
Si Si5 0.238085 0.781391 0.201797
Si Si6 0.241382 0.775772 0.700047
Si Si7 0.050796 0.326784 0.251589
Si Si8 0.489893 0.286904 0.302584
O O1 0.256017 0.878308 0.468671
O O2 0.521043 0.781881 0.234843
O O3 0.646924 0.836038 0.970537
O O4 0.768605 0.887666 0.004068
O O5 0.500000 0.000000 0.500000
O O6 0.811509 0.941402 0.318494
O O7 0.000000 0.000000 0.000000
O O8 0.120574 0.825324 0.748991
O O9 0.704028 0.500000 0.885559
O O10 0.849407 0.387153 0.796197
O O11 0.000000 0.430829 0.500000
O O12 0.500000 0.407309 0.000000
O O13 0.121574 0.729299 0.249427
O O14 0.000000 0.798076 0.500000
O O15 0.500000 0.756978 0.000000
O O16 0.500000 0.804043 0.500000
O O17 0.375278 0.721875 0.512575
O O18 0.000000 0.758900 0.000000
O O19 0.737506 0.321863 0.533538
O O20 0.224221 0.316635 0.993915
#
# Coordination Sequence:
#
# PCOD9148313 Si02
#       8
#     4   2   4   4   4   4   4   4
#     4  10  20  35  50  71 102 135 166 200 252 307
#     4  12  24  38  56  84 106 128 172 212 238 288
#     4  11  21  36  53  73 103 137 163 197 246 300
#     4  10  20  33  49  72 103 141 180 211 243 290
#     4  11  19  29  48  75  99 126 166 209 249 292
#     4  11  19  31  49  71  99 130 158 193 247 303
#     4  11  19  32  48  70 105 137 165 207 253 295
#     4  10  20  32  48  71  99 133 168 203 247 307
#
# _framework density 18.287951
#
# number of rings (size 3 to 8) (size 9 to 14) (size 15 to 20)
#    0.000    1.333    0.000   11.200    0.000    0.000 
#    0.000    0.000    0.000    0.000    0.000    9.333 
#    0.000   10.667    0.000    0.000    0.000    0.000 
#
# Total GULP energy -167452.172274 kJ/mol
# GULP energy per Si atom -5581.739076 kJ/mol
# Density = 1.824633 g / cm^3
# Si number density = 18.287951 Si / 1000 Ang^3
#
#
#
# Elastic Constant Matrix: (Units=GPa)
#
#
# Indices 1 2 3 4 5 6 
#
# 1 42.0013 8.4874 22.7943 0.0000 13.2083 0.0000
# 2 8.4874 49.6252 6.6355 0.0000 11.6302 0.0000
# 3 22.7943 6.6355 119.9928 0.0000 13.4524 0.0000
# 4 0.0000 0.0000 0.0000 22.1865 0.0000 -0.8278
# 5 13.2083 11.6302 13.4524 0.0000 48.7944 0.0000
# 6 0.0000 0.0000 0.0000 -0.8278 0.0000 28.1453
#
#
#
# Elastic Compliance Matrix: (Units=1/GPa)
#
#
# Indices 1 2 3 4 5 6 
#
# 1 0.028749 -0.002936 -0.004649 0.000000 -0.005801 0.000000
# 2 -0.002936 0.021689 -0.000156 0.000000 -0.004332 0.000000
# 3 -0.004649 -0.000156 0.009370 0.000000 -0.001288 0.000000
# 4 0.000000 0.000000 0.000000 0.045122 0.000000 0.001327
# 5 -0.005801 -0.004332 -0.001288 0.000000 0.023452 0.000000
# 6 0.000000 0.000000 0.000000 0.001327 0.000000 0.035569
#
#
# Mechanical properties :
#
#
# Convention : Reuss Voigt Hill
#
# Bulk Modulus (GPa) = 22.55953 31.93930 27.24942
# Shear Modulus (GPa) = 25.74562 31.40538 28.57550
#
# Velocity S-wave (km/s) = 3.75612 4.14849 3.95718
# Velocity P-wave (km/s) = 5.58335 6.35997 5.98427
#
# Compressibility (1/GPa) = 0.04432717
#
# Stress axis : x y z
#
# Youngs Moduli (GPa) = 34.78376 46.10573 106.72476
#
# Poissons Ratio (x) = 0.13536 0.49612
# Poissons Ratio (y) = 0.10212 0.01665
# Poissons Ratio (z) = 0.16170 0.00719
#
# Static dielectric constant tensor:
#      x y z
#    x 1.674800 0.000000 0.014080 
#    y 0.000000 1.624980 0.000000 
#    z 0.014080 0.000000 1.652490 
# 
# From -- ./inp_files/67862.got.cif
#   From: 2010.05.17/outbox.cif.g08.bks.cpg/sg10_34_cif.got.tgz:67862.got - 2010.06.03 11:33:40.
