data_PCOD9148609
_publ_section_title
;
Structure prediction by ZEFSAII (Michael W. Deem and Ramdas Pophale) SiO2 
 PCOD9148609
Probable space group: P 2/M
;
_chemical_formula_sum "Si O2"
_cell_formula_units_Z 28
_cell_length_a 15.045624
_cell_length_b 7.611626
_cell_length_c 13.093994
_cell_angle_alpha 90.000000
_cell_angle_beta 122.522794
_cell_angle_gamma 90.000000
_cell_volume 1264.383606
_symmetry_space_group_name_H-M "P 2/M"
_symmetry_group_IT_number 10
_symmetry_cell_setting 'monoclinic'
loop_
_space_group_symop_operation_xyz
x,y,z
-x,y,-z
-x,-y,-z
x,-y,z
loop_
_atom_site_type_symbol
_atom_site_label
_atom_site_fract_x
_atom_site_fract_y
_atom_site_fract_z
Si Si1 0.828818 0.284853 0.216194
Si Si2 0.236412 0.299907 0.264213
Si Si3 0.414724 0.202147 0.229952
Si Si4 0.602090 0.701979 0.009364
Si Si5 0.809186 0.287550 0.436855
Si Si6 0.949170 0.285189 0.716618
Si Si7 0.377024 0.203983 0.539961
O O1 0.830404 0.500000 0.213594
O O2 0.838856 0.233834 0.341197
O O3 0.930287 0.227433 0.214343
O O4 0.716105 0.221134 0.106526
O O5 0.218871 0.500000 0.220430
O O6 0.302869 0.210034 0.216918
O O7 0.126260 0.224346 0.238016
O O8 0.312463 0.297843 0.410849
O O9 0.412707 0.296161 0.120812
O O10 0.506975 0.271615 0.361364
O O11 0.442868 0.000000 0.227057
O O12 0.607206 0.500000 0.050116
O O13 0.500000 0.783885 0.000000
O O14 0.804391 0.500000 0.434841
O O15 0.892628 0.234079 0.575216
O O16 0.695766 0.219672 0.404358
O O17 0.946393 0.500000 0.718491
O O18 0.384880 0.000000 0.512805
#
# Coordination Sequence:
#
# PCOD9148609 Si02
#       7
#     4   4   4   4   4   4   4
#     4   9  16  29  51  77 105 135 169 213 258 298
#     4  10  20  34  55  80 103 130 168 213 255 300
#     4  11  23  37  53  73 102 140 174 207 254 308
#     4  10  21  36  55  79 104 132 171 216 254 292
#     4   9  16  28  51  80 106 134 169 209 252 301
#     4   8  15  28  49  79 107 131 164 207 257 306
#     4  10  20  33  50  75 107 139 168 203 254 311
#
# _framework density 22.14518
#
# number of rings (size 3 to 8) (size 9 to 14) (size 15 to 20)
#    0.000    2.429    0.000    3.857    0.000    7.143 
#    0.000    1.429    0.000   16.286    0.000    0.000 
#    0.000    0.000    0.000    0.000    0.000    0.000 
#
# Total GULP energy -156353.035194 kJ/mol
# GULP energy per Si atom -5584.036971 kJ/mol
# Density = 2.209478 g / cm^3
# Si number density = 22.145180 Si / 1000 Ang^3
#
#
#
# Elastic Constant Matrix: (Units=GPa)
#
#
# Indices 1 2 3 4 5 6 
#
# 1 198.1723 0.3090 45.1589 0.0000 12.7416 0.0000
# 2 0.3090 46.8080 -2.3899 0.0000 5.0208 0.0000
# 3 45.1589 -2.3899 30.1154 0.0000 6.4517 0.0000
# 4 0.0000 0.0000 0.0000 107.5743 0.0000 -44.1158
# 5 12.7416 5.0208 6.4517 0.0000 32.7997 0.0000
# 6 0.0000 0.0000 0.0000 -44.1158 0.0000 55.7756
#
#
#
# Elastic Compliance Matrix: (Units=1/GPa)
#
#
# Indices 1 2 3 4 5 6 
#
# 1 0.007698 -0.000565 -0.011448 0.000000 -0.000652 0.000000
# 2 -0.000565 0.021950 0.003406 0.000000 -0.003810 0.000000
# 3 -0.011448 0.003406 0.051993 0.000000 -0.006301 0.000000
# 4 0.000000 0.000000 0.000000 0.013759 0.000000 0.010883
# 5 -0.000652 -0.003810 -0.006301 0.000000 0.032564 0.000000
# 6 0.000000 0.000000 0.000000 0.010883 0.000000 0.026537
#
#
# Mechanical properties :
#
#
# Convention : Reuss Voigt Hill
#
# Bulk Modulus (GPa) = 15.52177 40.13909 27.83043
# Shear Modulus (GPa) = 25.88127 54.69776 40.28952
#
# Velocity S-wave (km/s) = 3.42235 4.97526 4.26999
# Velocity P-wave (km/s) = 4.75825 7.15326 6.07495
#
# Compressibility (1/GPa) = 0.06442566
#
# Stress axis : x y z
#
# Youngs Moduli (GPa) = 129.90946 45.55765 19.23350
#
# Poissons Ratio (x) = 0.02576 0.22019
# Poissons Ratio (y) = 0.07345 -0.06551
# Poissons Ratio (z) = 1.48722 -0.15517
#
# Static dielectric constant tensor:
#      x y z
#    x 1.827100 0.000000 0.019750 
#    y 0.000000 1.808780 0.000000 
#    z 0.019750 0.000000 1.772200 
# 
# From -- ./inp_files/49494.got.cif
#   From: 2010.05.17/outbox.cif.g08.bks.cpg/sg10_25_cif.got.tgz:49494.got - 2010.06.03 11:33:40.
