data_PCOD9148772
_publ_section_title
;
Structure prediction by ZEFSAII (Michael W. Deem and Ramdas Pophale) SiO2 
 PCOD9148772
Probable space group: P 2/M
;
_chemical_formula_sum "Si O2"
_cell_formula_units_Z 32
_cell_length_a 9.839078
_cell_length_b 7.343849
_cell_length_c 23.561156
_cell_angle_alpha 90.000000
_cell_angle_beta 54.549386
_cell_angle_gamma 90.000000
_cell_volume 1386.843772
_symmetry_space_group_name_H-M "P 2/M"
_symmetry_group_IT_number 10
_symmetry_cell_setting 'monoclinic'
loop_
_space_group_symop_operation_xyz
x,y,z
-x,y,-z
-x,-y,-z
x,-y,z
loop_
_atom_site_type_symbol
_atom_site_label
_atom_site_fract_x
_atom_site_fract_y
_atom_site_fract_z
Si Si1 0.744504 0.778760 0.903215
Si Si2 0.935987 0.285831 0.329612
Si Si3 0.115156 0.219134 0.783392
Si Si4 0.394455 0.777659 0.941145
Si Si5 0.283585 0.720419 0.283910
Si Si6 0.817349 0.278908 0.565096
Si Si7 0.663849 0.791266 0.166544
Si Si8 0.327253 0.277434 0.515090
O O1 0.587773 0.720757 0.902584
O O2 0.926621 0.715885 0.840983
O O3 0.745766 0.000000 0.901689
O O4 0.701287 0.725428 0.978342
O O5 0.952667 0.500000 0.336829
O O6 0.846377 0.265437 0.291046
O O7 0.825185 0.214467 0.408293
O O8 0.126719 0.216876 0.283636
O O9 0.239826 0.286669 0.802273
O O10 0.115322 0.000000 0.785302
O O11 0.316015 0.711380 0.901357
O O12 0.395124 0.000000 0.939472
O O13 0.296840 0.500000 0.278397
O O14 0.234723 0.777258 0.359698
O O15 0.465452 0.790802 0.224644
O O16 0.821632 0.500000 0.566053
O O17 0.693959 0.222754 0.544825
O O18 0.000000 0.220638 0.500000
O O19 0.722890 0.000000 0.148170
O O20 0.500000 0.218223 0.500000
O O21 0.324667 0.500000 0.516461
#
# Coordination Sequence:
#
# PCOD9148772 Si02
#       8
#     4   4   4   4   4   4   4   4
#     4   8  14  27  49  74  97 126 165 206 245 288
#     4  10  20  34  52  76 102 130 168 209 249 298
#     4  10  21  34  49  73 106 139 167 199 247 300
#     4   8  14  27  49  74  97 125 166 208 243 285
#     4  10  20  33  53  77 100 130 168 210 252 295
#     4   9  15  28  48  71  97 122 158 209 253 290
#     4  10  21  34  49  74 106 137 167 202 246 297
#     4   9  17  28  46  73  99 124 159 204 252 297
#
# _framework density 23.073976999999999
#
# number of rings (size 3 to 8) (size 9 to 14) (size 15 to 20)
#    0.000    2.750    1.250    1.500    1.750    2.500 
#    0.000    2.500    0.000    2.250    0.000    5.250 
#    0.000    0.000    0.000    0.000    0.000    0.000 
#
# Total GULP energy -178744.074806 kJ/mol
# GULP energy per Si atom -5585.752338 kJ/mol
# Density = 2.302146 g / cm^3
# Si number density = 23.073977 Si / 1000 Ang^3
#
#
#
# Elastic Constant Matrix: (Units=GPa)
#
#
# Indices 1 2 3 4 5 6 
#
# 1 104.7836 -5.2855 15.2681 0.0000 33.1676 0.0000
# 2 -5.2855 86.7116 -9.6616 0.0000 -1.1105 0.0000
# 3 15.2681 -9.6616 58.4281 0.0000 23.7569 0.0000
# 4 0.0000 0.0000 0.0000 3.6991 0.0000 -1.2301
# 5 33.1676 -1.1105 23.7569 0.0000 42.1710 0.0000
# 6 0.0000 0.0000 0.0000 -1.2301 0.0000 3.5294
#
#
#
# Elastic Compliance Matrix: (Units=1/GPa)
#
#
# Indices 1 2 3 4 5 6 
#
# 1 0.012799 0.000769 0.001125 0.000000 -0.010680 0.000000
# 2 0.000769 0.011829 0.002431 0.000000 -0.001663 0.000000
# 3 0.001125 0.002431 0.022773 0.000000 -0.013650 0.000000
# 4 0.000000 0.000000 0.000000 0.305770 0.000000 0.106568
# 5 -0.010680 -0.001663 -0.013650 0.000000 0.039759 0.000000
# 6 0.000000 0.000000 0.000000 0.106568 0.000000 0.320477
#
#
# Mechanical properties :
#
#
# Convention : Reuss Voigt Hill
#
# Bulk Modulus (GPa) = 17.84090 27.84060 22.84075
# Shear Modulus (GPa) = 6.91142 26.52004 16.71573
#
# Velocity S-wave (km/s) = 1.73258 3.39388 2.69446
# Velocity P-wave (km/s) = 3.42801 5.23927 4.42726
#
# Compressibility (1/GPa) = 0.05605099
#
# Stress axis : x y z
#
# Youngs Moduli (GPa) = 78.13189 84.53841 43.91122
#
# Poissons Ratio (x) = -0.06499 -0.04940
# Poissons Ratio (y) = -0.06006 -0.10676
# Poissons Ratio (z) = -0.08790 -0.20553
#
# Static dielectric constant tensor:
#      x y z
#    x 1.848210 0.000000 0.016020 
#    y 0.000000 1.929330 0.000000 
#    z 0.016020 0.000000 1.822720 
# 
# From -- ./inp_files/82484.got.cif
#   From: 2010.05.17/outbox.cif.g08.bks.cpg/sg10_42_cif.got.tgz:82484.got - 2010.06.03 11:33:40.
