data_PCOD9148523
_publ_section_title
;
Structure prediction by ZEFSAII (Michael W. Deem and Ramdas Pophale) SiO2 
 PCOD9148523
Probable space group: P 2/M
;
_chemical_formula_sum "Si O2"
_cell_formula_units_Z 28
_cell_length_a 25.004675
_cell_length_b 7.418869
_cell_length_c 22.334023
_cell_angle_alpha 90.000000
_cell_angle_beta 18.233280
_cell_angle_gamma 90.000000
_cell_volume 1296.322064
_symmetry_space_group_name_H-M "P 2/M"
_symmetry_group_IT_number 10
_symmetry_cell_setting 'monoclinic'
loop_
_space_group_symop_operation_xyz
x,y,z
-x,y,-z
-x,-y,-z
x,-y,z
loop_
_atom_site_type_symbol
_atom_site_label
_atom_site_fract_x
_atom_site_fract_y
_atom_site_fract_z
Si Si1 0.199973 0.719221 0.300027
Si Si2 0.330695 0.712341 0.866175
Si Si3 0.907188 0.782536 0.158921
Si Si4 0.455005 0.719059 0.134983
Si Si5 0.615041 0.721327 0.654875
Si Si6 0.473296 0.782534 0.460595
Si Si7 0.972432 0.287660 0.224437
O O1 0.192014 0.500000 0.307986
O O2 0.297089 0.772873 0.259009
O O3 0.000000 0.777527 0.500000
O O4 0.353188 0.772871 0.090716
O O5 0.320229 0.500000 0.890083
O O6 0.470691 0.785717 0.762480
O O7 0.391006 0.729789 0.733488
O O8 0.142684 0.791128 0.071943
O O9 0.711596 0.721121 0.365211
O O10 0.984500 0.729788 0.139993
O O11 0.090574 0.000000 0.845467
O O12 0.000000 0.718820 0.000000
O O13 0.456231 0.500000 0.131307
O O14 0.420031 0.775434 0.239905
O O15 0.615563 0.500000 0.653307
O O16 0.796135 0.785719 0.437035
O O17 0.500000 0.718823 0.500000
O O18 0.473387 0.000000 0.462654
O O19 0.969456 0.500000 0.240855
#
# Coordination Sequence:
#
# PCOD9148523 Si02
#       7
#     4   4   4   4   4   4   4
#     4   8  13  21  34  55  83 114 155 197 229 269
#     4  10  20  33  49  69  93 124 159 195 239 288
#     4  10  20  34  52  72  93 119 153 195 244 293
#     4   8  14  23  36  55  81 118 156 194 236 270
#     4   9  17  30  44  61  91 124 160 202 238 284
#     4  10  20  34  52  72  93 119 153 195 244 293
#     4  10  20  33  49  69  93 124 159 195 239 288
#
# _framework density 21.599568999999999
#
# number of rings (size 3 to 8) (size 9 to 14) (size 15 to 20)
#    0.000    2.714    1.429    1.714    0.000    3.429 
#    0.000    5.714    0.000    0.000    0.000    0.000 
#    0.000    0.000    0.000   10.286    0.000   33.714 
#
# Total GULP energy -156189.107652 kJ/mol
# GULP energy per Si atom -5578.182416 kJ/mol
# Density = 2.155041 g / cm^3
# Si number density = 21.599569 Si / 1000 Ang^3
#
#
#
# Elastic Constant Matrix: (Units=GPa)
#
#
# Indices 1 2 3 4 5 6 
#
# 1 160.5320 0.0843 127.4759 0.0000 -6.7427 0.0000
# 2 0.0843 70.2535 7.0538 0.0000 -6.5909 0.0000
# 3 127.4759 7.0538 199.7798 0.0000 -30.3919 0.0000
# 4 0.0000 0.0000 0.0000 146.8476 0.0000 -82.1798
# 5 -6.7427 -6.5909 -30.3919 0.0000 42.4613 0.0000
# 6 0.0000 0.0000 0.0000 -82.1798 0.0000 60.0300
#
#
#
# Elastic Compliance Matrix: (Units=1/GPa)
#
#
# Indices 1 2 3 4 5 6 
#
# 1 0.013357 0.000496 -0.009209 0.000000 -0.004393 0.000000
# 2 0.000496 0.014469 -0.000532 0.000000 0.001944 0.000000
# 3 -0.009209 -0.000532 0.011968 0.000000 0.007022 0.000000
# 4 0.000000 0.000000 0.000000 0.029116 0.000000 0.039859
# 5 -0.004393 0.001944 0.007022 0.000000 0.028181 0.000000
# 6 0.000000 0.000000 0.000000 0.039859 0.000000 0.071225
#
#
# Mechanical properties :
#
#
# Convention : Reuss Voigt Hill
#
# Bulk Modulus (GPa) = 46.93424 77.75480 62.34452
# Shear Modulus (GPa) = 25.78559 69.59788 47.69173
#
# Velocity S-wave (km/s) = 3.45889 5.68259 4.70403
# Velocity P-wave (km/s) = 6.14234 8.89563 7.64397
#
# Compressibility (1/GPa) = 0.02130641
#
# Stress axis : x y z
#
# Youngs Moduli (GPa) = 74.86732 69.11149 83.55374
#
# Poissons Ratio (x) = -0.03431 0.76942
# Poissons Ratio (y) = -0.03717 0.04444
# Poissons Ratio (z) = 0.68943 0.03676
#
# Static dielectric constant tensor:
#      x y z
#    x 1.761530 0.000000 -0.019930 
#    y 0.000000 1.817150 0.000000 
#    z -0.019930 0.000000 1.782600 
# 
# From -- ./inp_files/86442.got.cif
#   From: 2010.05.17/outbox.cif.g08.bks.cpg/sg10_44_cif.got.tgz:86442.got - 2010.06.03 11:33:40.
