data_PCOD9148249
_publ_section_title
;
Structure prediction by ZEFSAII (Michael W. Deem and Ramdas Pophale) SiO2 
 PCOD9148249
Probable space group: P 2/M
;
_chemical_formula_sum "Si O2"
_cell_formula_units_Z 32
_cell_length_a 14.854767
_cell_length_b 7.534402
_cell_length_c 21.467523
_cell_angle_alpha 90.000000
_cell_angle_beta 136.745103
_cell_angle_gamma 90.000000
_cell_volume 1646.427447
_symmetry_space_group_name_H-M "P 2/M"
_symmetry_group_IT_number 10
_symmetry_cell_setting 'monoclinic'
loop_
_space_group_symop_operation_xyz
x,y,z
-x,y,-z
-x,-y,-z
x,-y,z
loop_
_atom_site_type_symbol
_atom_site_label
_atom_site_fract_x
_atom_site_fract_y
_atom_site_fract_z
Si Si1 0.590587 0.286005 0.225568
Si Si2 0.578415 0.282416 0.977458
Si Si3 0.864753 0.789331 0.303726
Si Si4 0.857887 0.294373 0.156680
Si Si5 0.846246 0.206180 0.539040
Si Si6 0.432611 0.704254 0.649744
Si Si7 0.578753 0.282901 0.601432
Si Si8 0.147161 0.715840 0.311993
O O1 0.581232 0.500000 0.222183
O O2 0.498794 0.223494 0.122788
O O3 0.741517 0.244206 0.285437
O O4 0.551343 0.216101 0.273660
O O5 0.579957 0.500000 0.978236
O O6 0.500000 0.228976 0.000000
O O7 0.728375 0.218765 0.059208
O O8 0.837496 0.712034 0.221297
O O9 0.006486 0.723648 0.399327
O O10 0.841373 0.000000 0.518443
O O11 0.864292 0.500000 0.140991
O O12 0.003292 0.218730 0.219005
O O13 0.722031 0.294851 0.444443
O O14 0.829886 0.223288 0.605484
O O15 0.120574 0.000000 0.697964
O O16 0.476781 0.500000 0.676176
O O17 0.510042 0.782387 0.629821
O O18 0.500000 0.226244 0.500000
O O19 0.572705 0.500000 0.598703
O O20 0.730206 0.231593 0.668511
O O21 0.143877 0.500000 0.312695
#
# Coordination Sequence:
#
# PCOD9148249 Si02
#       8
#     4   4   4   4   4   4   4   4
#     4  10  20  33  49  68  91 123 160 193 226 271
#     4   9  15  27  48  71  93 117 150 195 235 264
#     4  10  20  32  46  67  97 127 153 187 232 275
#     4   9  16  28  49  72  93 121 157 191 225 272
#     4  10  20  32  46  67  97 127 153 187 232 275
#     4  10  20  33  49  68  91 123 160 193 226 271
#     4   9  15  27  48  71  93 117 150 195 235 264
#     4   9  16  28  49  72  93 121 157 191 225 272
#
# _framework density 19.436019999999999
#
# number of rings (size 3 to 8) (size 9 to 14) (size 15 to 20)
#    0.000    2.500    2.500    0.750    0.000    2.500 
#    0.000    5.000    0.000    0.750    0.000    5.250 
#    0.000    0.000    0.000    8.500    0.000    9.000 
#
# Total GULP energy -178528.792036 kJ/mol
# GULP energy per Si atom -5579.024751 kJ/mol
# Density = 1.939178 g / cm^3
# Si number density = 19.436020 Si / 1000 Ang^3
#
#
#
# Elastic Constant Matrix: (Units=GPa)
#
#
# Indices 1 2 3 4 5 6 
#
# 1 148.8887 -0.5986 89.3382 0.0000 1.3525 0.0000
# 2 -0.5986 50.8250 -0.0450 0.0000 0.4687 0.0000
# 3 89.3382 -0.0450 121.2832 0.0000 2.2824 0.0000
# 4 0.0000 0.0000 0.0000 -48.9151 0.0000 25.3744
# 5 1.3525 0.4687 2.2824 0.0000 25.3057 0.0000
# 6 0.0000 0.0000 0.0000 25.3744 0.0000 -26.6106
#
#
#
# Elastic Compliance Matrix: (Units=1/GPa)
#
#
# Indices 1 2 3 4 5 6 
#
# 1 0.012038 0.000133 -0.008870 0.000000 0.000154 0.000000
# 2 0.000133 0.019680 -0.000083 0.000000 -0.000364 0.000000
# 3 -0.008870 -0.000083 0.014795 0.000000 -0.000859 0.000000
# 4 0.000000 0.000000 0.000000 -0.040454 0.000000 -0.038575
# 5 0.000154 -0.000364 -0.000859 0.000000 0.039593 0.000000
# 6 0.000000 0.000000 0.000000 -0.038575 0.000000 -0.074362
#
#
# Mechanical properties :
#
#
# Convention : Reuss Voigt Hill
#
# Bulk Modulus (GPa) = 34.63669 55.37623 45.00646
# Shear Modulus (GPa) = -3461.65960 5.44284 -1728.10838
#
# Velocity S-wave (km/s) = -42.24832 1.67525 -29.85058
# Velocity P-wave (km/s) = 48.60076 5.68290 34.13018
#
# Compressibility (1/GPa) = 0.02887112
#
# Stress axis : x y z
#
# Youngs Moduli (GPa) = 83.07112 50.81253 67.59022
#
# Poissons Ratio (x) = -0.00673 0.59953
# Poissons Ratio (y) = -0.01101 0.00564
# Poissons Ratio (z) = 0.73684 0.00424
#
# Static dielectric constant tensor:
#      x y z
#    x 1.676430 0.000000 0.021190 
#    y 0.000000 1.728660 0.000000 
#    z 0.021190 0.000000 1.676810 
# 
# From -- ./inp_files/66096.got.cif
#   From: 2010.05.17/outbox.cif.g08.bks.cpg/sg10_34_cif.got.tgz:66096.got - 2010.06.03 11:33:40.
