data_PCOD9148134
_publ_section_title
;
Structure prediction by ZEFSAII (Michael W. Deem and Ramdas Pophale) SiO2 
 PCOD9148134
Probable space group: P 2/M
;
_chemical_formula_sum "Si O2"
_cell_formula_units_Z 30
_cell_length_a 28.232689
_cell_length_b 8.879034
_cell_length_c 17.584057
_cell_angle_alpha 90.000000
_cell_angle_beta 156.843554
_cell_angle_gamma 90.000000
_cell_volume 1733.397488
_symmetry_space_group_name_H-M "P 2/M"
_symmetry_group_IT_number 10
_symmetry_cell_setting 'monoclinic'
loop_
_space_group_symop_operation_xyz
x,y,z
-x,y,-z
-x,-y,-z
x,-y,z
loop_
_atom_site_type_symbol
_atom_site_label
_atom_site_fract_x
_atom_site_fract_y
_atom_site_fract_z
Si Si1 0.000000 0.754967 0.000000
Si Si2 0.494883 0.680963 0.716150
Si Si3 0.801465 0.318234 0.921340
Si Si4 0.260347 0.829380 0.329123
Si Si5 0.437711 0.682810 0.022136
Si Si6 0.406148 0.179974 0.293242
Si Si7 0.058547 0.326544 0.256463
Si Si8 0.313046 0.684120 0.688597
O O1 0.126573 0.833885 0.166881
O O2 0.031853 0.674538 0.126691
O O3 0.492343 0.500000 0.707294
O O4 0.358406 0.741886 0.523656
O O5 0.570179 0.727936 0.901850
O O6 0.546727 0.750154 0.715494
O O7 0.798157 0.500000 0.917549
O O8 0.747740 0.259261 0.762246
O O9 0.720680 0.250760 0.868568
O O10 0.940163 0.262901 0.123128
O O11 0.301780 0.000000 0.376454
O O12 0.437593 0.500000 0.021162
O O13 0.568570 0.730955 0.183464
O O14 0.338470 0.729125 0.813619
O O15 0.500000 0.215128 0.500000
O O16 0.397375 0.000000 0.274302
O O17 0.064260 0.500000 0.288935
O O18 0.187448 0.258871 0.468782
O O19 0.312752 0.500000 0.684733
#
# Coordination Sequence:
#
# PCOD9148134 Si02
#       8
#     2   4   4   4   4   4   4   4
#     4  10  20  30  44  68 101 138 173 202 231 288
#     4  11  21  32  51  77 101 126 164 213 256 293
#     4  10  20  33  50  73  98 128 166 206 248 294
#     4  11  21  33  46  67  99 137 170 198 240 295
#     4   8  15  26  45  75 103 131 165 202 246 294
#     4  11  22  36  53  72  97 132 169 204 252 308
#     4   9  17  28  46  73 104 134 164 205 252 296
#     4   8  13  26  46  70 106 139 162 195 245 298
#
# _framework density 17.307051999999999
#
# number of rings (size 3 to 8) (size 9 to 14) (size 15 to 20)
#    0.000    2.267    1.333    3.600    0.000    3.200 
#    0.000    0.000    0.000    0.800    0.000   32.667 
#    0.000    0.000    0.000    0.000    0.000    0.000 
#
# Total GULP energy -167092.627508 kJ/mol
# GULP energy per Si atom -5569.754250 kJ/mol
# Density = 1.726766 g / cm^3
# Si number density = 17.307052 Si / 1000 Ang^3
#
#
#
# Elastic Constant Matrix: (Units=GPa)
#
#
# Indices 1 2 3 4 5 6 
#
# 1 103.6008 24.4379 47.8567 0.0000 -4.5668 0.0000
# 2 24.4379 41.0727 14.5499 0.0000 -0.2205 0.0000
# 3 47.8567 14.5499 105.4820 0.0000 -4.5709 0.0000
# 4 0.0000 0.0000 0.0000 1.9212 0.0000 6.6488
# 5 -4.5668 -0.2205 -4.5709 0.0000 28.8087 0.0000
# 6 0.0000 0.0000 0.0000 6.6488 0.0000 0.7049
#
#
#
# Elastic Compliance Matrix: (Units=1/GPa)
#
#
# Indices 1 2 3 4 5 6 
#
# 1 0.013607 -0.006226 -0.005259 0.000000 0.001275 0.000000
# 2 -0.006226 0.028451 -0.001141 0.000000 -0.000950 0.000000
# 3 -0.005259 -0.001141 0.012070 0.000000 0.001073 0.000000
# 4 0.000000 0.000000 0.000000 -0.016449 0.000000 0.155157
# 5 0.001275 -0.000950 0.001073 0.000000 0.035077 0.000000
# 6 0.000000 0.000000 0.000000 0.155157 0.000000 -0.044833
#
#
# Mechanical properties :
#
#
# Convention : Reuss Voigt Hill
#
# Bulk Modulus (GPa) = 34.63168 47.09384 40.86276
# Shear Modulus (GPa) = 79.61852 17.17434 48.39643
#
# Velocity S-wave (km/s) = 6.78995 3.15355 5.29378
# Velocity P-wave (km/s) = 9.02911 6.36629 7.81199
#
# Compressibility (1/GPa) = 0.02887529
#
# Stress axis : x y z
#
# Youngs Moduli (GPa) = 73.49341 35.14874 82.84837
#
# Poissons Ratio (x) = 0.21883 0.43572
# Poissons Ratio (y) = 0.45756 0.09452
# Poissons Ratio (z) = 0.38652 0.04010
#
# Static dielectric constant tensor:
#      x y z
#    x 1.593020 0.000000 0.009430 
#    y 0.000000 1.590550 0.000000 
#    z 0.009430 0.000000 1.620640 
# 
# From -- ./inp_files/80742.got.cif
#   From: 2010.05.17/outbox.cif.g08.bks.cpg/sg10_41_cif.got.tgz:80742.got - 2010.06.03 11:33:40.
