data_PCOD9148006
_publ_section_title
;
Structure prediction by ZEFSAII (Michael W. Deem and Ramdas Pophale) SiO2 
 PCOD9148006
Probable space group: P 2/M
;
_chemical_formula_sum "Si O2"
_cell_formula_units_Z 18
_cell_length_a 11.351431
_cell_length_b 8.355549
_cell_length_c 9.756925
_cell_angle_alpha 90.000000
_cell_angle_beta 70.810730
_cell_angle_gamma 90.000000
_cell_volume 874.001135
_symmetry_space_group_name_H-M "P 2/M"
_symmetry_group_IT_number 10
_symmetry_cell_setting 'monoclinic'
loop_
_space_group_symop_operation_xyz
x,y,z
-x,y,-z
-x,-y,-z
x,-y,z
loop_
_atom_site_type_symbol
_atom_site_label
_atom_site_fract_x
_atom_site_fract_y
_atom_site_fract_z
Si Si1 0.191412 0.672812 0.691943
Si Si2 0.464971 0.751643 0.661686
Si Si3 0.805459 0.000000 0.783911
Si Si4 0.741003 0.675765 0.643489
Si Si5 0.600559 0.000000 0.082252
Si Si6 0.061913 0.000000 0.827424
O O1 0.133146 0.500000 0.752976
O O2 0.337570 0.662626 0.674121
O O3 0.186818 0.688977 0.528739
O O4 0.138255 0.835515 0.776699
O O5 0.500000 0.828469 0.500000
O O6 0.594038 0.673520 0.660968
O O7 0.424511 0.855381 0.806393
O O8 0.767142 0.163652 0.719969
O O9 0.951592 0.000000 0.757656
O O10 0.732360 0.000000 0.956490
O O11 0.771543 0.500000 0.694045
O O12 0.500000 0.000000 0.000000
O O13 0.000000 0.000000 0.000000
#
# Coordination Sequence:
#
# PCOD9148006 Si02
#       6
#     4   4   2   4   2   2
#     4  10  22  41  67  94 122 165 216 256 304 373
#     4  10  19  37  65  95 128 165 206 258 315 376
#     4  12  25  41  60  90 129 166 205 259 317 372
#     4  10  21  39  65  98 128 157 201 261 322 377
#     4  12  21  36  60  92 132 164 205 255 317 377
#     4  12  27  45  62  83 124 171 217 261 307 364
#
# _framework density 20.594936000000001
#
# number of rings (size 3 to 8) (size 9 to 14) (size 15 to 20)
#    0.000    1.333    2.222    3.667    0.000    9.333 
#    0.000    7.778    0.000    0.000    0.000    0.000 
#    0.000    0.000    0.000    0.000    0.000    0.000 
#
# Total GULP energy -100295.202121 kJ/mol
# GULP energy per Si atom -5571.955673 kJ/mol
# Density = 2.054806 g / cm^3
# Si number density = 20.594936 Si / 1000 Ang^3
#
#
#
# Elastic Constant Matrix: (Units=GPa)
#
#
# Indices 1 2 3 4 5 6 
#
# 1 93.5604 50.6242 13.0140 0.0000 2.7277 0.0000
# 2 50.6242 217.8070 87.8123 0.0000 -2.8294 0.0000
# 3 13.0140 87.8123 114.2206 0.0000 6.3813 0.0000
# 4 0.0000 0.0000 0.0000 -3.8241 0.0000 -6.5286
# 5 2.7277 -2.8294 6.3813 0.0000 31.5421 0.0000
# 6 0.0000 0.0000 0.0000 -6.5286 0.0000 -18.9264
#
#
#
# Elastic Compliance Matrix: (Units=1/GPa)
#
#
# Indices 1 2 3 4 5 6 
#
# 1 0.012414 -0.003440 0.001322 0.000000 -0.001650 0.000000
# 2 -0.003440 0.007693 -0.005641 0.000000 0.002129 0.000000
# 3 0.001322 -0.005641 0.013124 0.000000 -0.003276 0.000000
# 4 0.000000 0.000000 0.000000 -0.636106 0.000000 0.219423
# 5 -0.001650 0.002129 -0.003276 0.000000 0.032700 0.000000
# 6 0.000000 0.000000 0.000000 0.219423 0.000000 -0.128526
#
#
# Mechanical properties :
#
#
# Convention : Reuss Voigt Hill
#
# Bulk Modulus (GPa) = 56.45476 80.94321 68.69898
# Shear Modulus (GPa) = -7.38248 20.03418 6.32585
#
# Velocity S-wave (km/s) = -1.89536 3.12231 1.75449
# Velocity P-wave (km/s) = 4.76252 7.23783 6.12649
#
# Compressibility (1/GPa) = 0.01771330
#
# Stress axis : x y z
#
# Youngs Moduli (GPa) = 80.55630 129.99384 76.19525
#
# Poissons Ratio (x) = 0.44715 -0.10075
# Poissons Ratio (y) = 0.27710 0.42983
# Poissons Ratio (z) = -0.10652 0.73331
#
# Static dielectric constant tensor:
#      x y z
#    x 1.750550 0.000000 -0.006110 
#    y 0.000000 1.811370 0.000000 
#    z -0.006110 0.000000 1.690000 
# 
# From -- ./inp_files/22046.got.cif
#   From: 2010.05.17/outbox.cif.g08.bks.cpg/sg10_12_cif.got.tgz:22046.got - 2010.06.03 11:33:40.
