data_PCOD9148457
_publ_section_title
;
Structure prediction by ZEFSAII (Michael W. Deem and Ramdas Pophale) SiO2 
 PCOD9148457
Probable space group: P 2/M
;
_chemical_formula_sum "Si O2"
_cell_formula_units_Z 22
_cell_length_a 10.589721
_cell_length_b 19.036374
_cell_length_c 5.196458
_cell_angle_alpha 90.000000
_cell_angle_beta 61.466321
_cell_angle_gamma 90.000000
_cell_volume 920.313874
_symmetry_space_group_name_H-M "P 2/M"
_symmetry_group_IT_number 10
_symmetry_cell_setting 'monoclinic'
loop_
_space_group_symop_operation_xyz
x,y,z
-x,y,-z
-x,-y,-z
x,-y,z
loop_
_atom_site_type_symbol
_atom_site_label
_atom_site_fract_x
_atom_site_fract_y
_atom_site_fract_z
Si Si1 0.829094 0.641633 0.606096
Si Si2 0.597313 0.582378 0.162567
Si Si3 0.582795 0.915359 0.174481
Si Si4 0.101269 0.500000 0.655446
Si Si5 0.101095 0.217848 0.655911
Si Si6 0.833888 0.922405 0.594410
O O1 0.808814 0.571495 0.454659
O O2 0.799399 0.714581 0.491771
O O3 0.000000 0.643681 0.500000
O O4 0.735945 0.628645 0.951985
O O5 0.500000 0.603364 0.500000
O O6 0.639947 0.500000 0.153421
O O7 0.500000 0.586437 0.000000
O O8 0.500000 0.886129 0.500000
O O9 0.572058 0.000000 0.199377
O O10 0.500000 0.891723 0.000000
O O11 0.747421 0.902965 0.936602
O O12 0.000000 0.500000 0.500000
O O13 0.000000 0.500000 0.000000
O O14 0.179681 0.142691 0.584789
O O15 0.000000 0.213062 0.500000
O O16 0.000000 0.228600 0.000000
O O17 0.000000 0.929934 0.500000
O O18 0.782930 0.000000 0.549728
#
# Coordination Sequence:
#
# PCOD9148457 Si02
#       6
#     4   4   4   2   4   4
#     4  10  21  40  62  89 116 156 201 246 286 347
#     4  10  22  39  58  86 123 158 191 239 297 348
#     4   9  18  33  53  79 111 144 181 231 286 337
#     4  10  20  32  54  86 110 138 187 238 275 326
#     4  10  22  38  57  86 121 151 189 249 302 339
#     4   9  19  37  61  87 115 154 199 242 294 358
#
# _framework density 23.904889000000001
#
# number of rings (size 3 to 8) (size 9 to 14) (size 15 to 20)
#    0.000    2.364    0.909    0.545    0.000    9.091 
#    0.000    7.273    0.000    0.000    0.000    0.000 
#    0.000    0.000    0.000    0.000    0.000    0.000 
#
# Total GULP energy -122915.884841 kJ/mol
# GULP energy per Si atom -5587.085675 kJ/mol
# Density = 2.385048 g / cm^3
# Si number density = 23.904889 Si / 1000 Ang^3
#
#
#
# Elastic Constant Matrix: (Units=GPa)
#
#
# Indices 1 2 3 4 5 6 
#
# 1 67.2136 -6.7473 57.7742 0.0000 -9.2647 0.0000
# 2 -6.7473 180.9613 66.6530 0.0000 -0.7405 0.0000
# 3 57.7742 66.6530 282.1711 0.0000 -9.7672 0.0000
# 4 0.0000 0.0000 0.0000 17.4963 0.0000 6.4887
# 5 -9.2647 -0.7405 -9.7672 0.0000 49.1927 0.0000
# 6 0.0000 0.0000 0.0000 6.4887 0.0000 -0.9298
#
#
#
# Elastic Compliance Matrix: (Units=1/GPa)
#
#
# Indices 1 2 3 4 5 6 
#
# 1 0.019289 0.002355 -0.004409 0.000000 0.002793 0.000000
# 2 0.002355 0.006342 -0.001975 0.000000 0.000147 0.000000
# 3 -0.004409 -0.001975 0.004917 0.000000 0.000116 0.000000
# 4 0.000000 0.000000 0.000000 0.015929 0.000000 0.111164
# 5 0.002793 0.000147 0.000116 0.000000 0.020879 0.000000
# 6 0.000000 0.000000 0.000000 0.111164 0.000000 -0.299745
#
#
# Mechanical properties :
#
#
# Convention : Reuss Voigt Hill
#
# Bulk Modulus (GPa) = 44.46559 85.07843 64.77201
# Shear Modulus (GPa) = -23.05917 40.66293 8.80188
#
# Velocity S-wave (km/s) = -3.10920 4.12883 1.92095
# Velocity P-wave (km/s) = 2.39831 7.64181 5.66344
#
# Compressibility (1/GPa) = 0.02248930
#
# Stress axis : x y z
#
# Youngs Moduli (GPa) = 51.84303 157.68127 203.36636
#
# Poissons Ratio (x) = -0.37127 0.89662
# Poissons Ratio (y) = -0.12207 0.40166
# Poissons Ratio (z) = 0.22857 0.31143
#
# Static dielectric constant tensor:
#      x y z
#    x 1.933190 0.000000 0.020620 
#    y 0.000000 2.033760 0.000000 
#    z 0.020620 0.000000 1.903820 
# 
# From -- ./inp_files/10030.got.cif
#   From: 2010.05.17/outbox.cif.g08.bks.cpg/sg10_6_cif.got.tgz:10030.got - 2010.06.03 11:33:40.
