data_PCOD9148018
_publ_section_title
;
Structure prediction by ZEFSAII (Michael W. Deem and Ramdas Pophale) SiO2 
 PCOD9148018
Probable space group: P 2/M
;
_chemical_formula_sum "Si O2"
_cell_formula_units_Z 32
_cell_length_a 19.867848
_cell_length_b 16.264097
_cell_length_c 16.862657
_cell_angle_alpha 90.000000
_cell_angle_beta 21.251526
_cell_angle_gamma 90.000000
_cell_volume 1975.014575
_symmetry_space_group_name_H-M "P 2/M"
_symmetry_group_IT_number 10
_symmetry_cell_setting 'monoclinic'
loop_
_space_group_symop_operation_xyz
x,y,z
-x,y,-z
-x,-y,-z
x,-y,z
loop_
_atom_site_type_symbol
_atom_site_label
_atom_site_fract_x
_atom_site_fract_y
_atom_site_fract_z
Si Si1 0.625734 0.200998 0.980224
Si Si2 0.871769 0.599330 0.971632
Si Si3 0.061599 0.090156 0.340646
Si Si4 0.329051 0.651934 0.957393
Si Si5 0.026512 0.591159 0.565939
Si Si6 0.781789 0.764687 0.633895
Si Si7 0.713601 0.401760 0.484685
Si Si8 0.702034 0.402478 0.317727
O O1 0.680172 0.260240 0.991994
O O2 0.407192 0.209599 0.203514
O O3 0.721155 0.114411 0.895669
O O4 0.727467 0.230383 0.787252
O O5 0.839562 0.500000 0.003011
O O6 0.079140 0.617025 0.714825
O O7 0.729971 0.643344 0.069094
O O8 0.844177 0.625242 0.093329
O O9 0.000000 0.084824 0.500000
O O10 0.938677 0.166540 0.443967
O O11 0.029136 0.000000 0.340003
O O12 0.543302 0.626107 0.724935
O O13 0.176876 0.598049 0.171000
O O14 0.105108 0.500000 0.499612
O O15 0.000000 0.595083 0.500000
O O16 0.144678 0.671874 0.460480
O O17 0.698258 0.500000 0.496984
O O18 0.702427 0.368699 0.406214
O O19 0.500000 0.393448 0.500000
O O20 0.739249 0.500000 0.285734
#
# Coordination Sequence:
#
# PCOD9148018 Si02
#       8
#     4   4   4   4   4   4   4   4
#     4  10  21  33  53  69  98 127 159 205 255 301
#     4  10  20  32  47  65  88 121 163 210 255 296
#     4   9  17  33  57  79  96 116 151 202 258 312
#     4  12  21  33  45  66  93 126 164 214 247 283
#     4  11  21  35  50  62  89 135 180 218 252 283
#     4  10  19  38  52  69  94 129 169 207 254 300
#     4  10  20  31  45  66  89 119 164 209 253 298
#     4   9  15  29  48  64  87 117 150 201 259 304
#
# _framework density 16.202413
#
# number of rings (size 3 to 8) (size 9 to 14) (size 15 to 20)
#    0.000    1.875    3.750    1.875    1.750    2.000 
#    0.000    5.000    0.000    0.000    0.000    0.000 
#    0.000    0.000    0.000    2.250    0.000   10.750 
#
# Total GULP energy -178259.957390 kJ/mol
# GULP energy per Si atom -5570.623668 kJ/mol
# Density = 1.616554 g / cm^3
# Si number density = 16.202413 Si / 1000 Ang^3
#
#
#
# Elastic Constant Matrix: (Units=GPa)
#
#
# Indices 1 2 3 4 5 6 
#
# 1 37.9751 17.3447 13.2347 0.0000 -2.5890 0.0000
# 2 17.3447 90.0658 37.6510 0.0000 -21.0175 0.0000
# 3 13.2347 37.6510 99.0560 0.0000 -3.7537 0.0000
# 4 0.0000 0.0000 0.0000 16.5079 0.0000 0.1627
# 5 -2.5890 -21.0175 -3.7537 0.0000 2.9182 0.0000
# 6 0.0000 0.0000 0.0000 0.1627 0.0000 7.8652
#
#
#
# Elastic Compliance Matrix: (Units=1/GPa)
#
#
# Indices 1 2 3 4 5 6 
#
# 1 0.028793 -0.001114 -0.002901 0.000000 0.013792 0.000000
# 2 -0.001114 -0.015956 0.001915 0.000000 -0.113444 0.000000
# 3 -0.002901 0.001915 0.010702 0.000000 0.024983 0.000000
# 4 0.000000 0.000000 0.000000 0.060589 0.000000 -0.001254
# 5 0.013792 -0.113444 0.024983 0.000000 -0.430005 0.000000
# 6 0.000000 0.000000 0.000000 -0.001254 0.000000 0.127168
#
#
# Mechanical properties :
#
#
# Convention : Reuss Voigt Hill
#
# Bulk Modulus (GPa) = 51.70921 40.39531 46.05226
# Shear Modulus (GPa) = -24.03131 16.04935 -3.99098
#
# Velocity S-wave (km/s) = -3.85540 3.15072 -1.57116
# Velocity P-wave (km/s) = 3.48783 6.18238 5.01930
#
# Compressibility (1/GPa) = 0.01933892
#
# Stress axis : x y z
#
# Youngs Moduli (GPa) = 34.73059 -62.67237 93.44221
#
# Poissons Ratio (x) = -0.06980 0.27108
# Poissons Ratio (y) = 0.03868 -0.17892
# Poissons Ratio (z) = 0.10075 0.12000
#
# Static dielectric constant tensor:
#      x y z
#    x 1.581270 0.000000 -0.013090 
#    y 0.000000 1.538130 0.000000 
#    z -0.013090 0.000000 1.604770 
# 
# From -- ./inp_files/79721.got.cif
#   From: 2010.05.17/outbox.cif.g08.bks.cpg/sg10_40_cif.got.tgz:79721.got - 2010.06.03 11:33:40.
