data_PCOD9148947
_publ_section_title
;
Structure prediction by ZEFSAII (Michael W. Deem and Ramdas Pophale) SiO2 
 PCOD9148947
Probable space group: P 2/M
;
_chemical_formula_sum "Si O2"
_cell_formula_units_Z 24
_cell_length_a 6.470708
_cell_length_b 17.402488
_cell_length_c 7.286618
_cell_angle_alpha 90.000000
_cell_angle_beta 91.495005
_cell_angle_gamma 90.000000
_cell_volume 820.240652
_symmetry_space_group_name_H-M "P 2/M"
_symmetry_group_IT_number 10
_symmetry_cell_setting 'monoclinic'
loop_
_space_group_symop_operation_xyz
x,y,z
-x,y,-z
-x,-y,-z
x,-y,z
loop_
_atom_site_type_symbol
_atom_site_label
_atom_site_fract_x
_atom_site_fract_y
_atom_site_fract_z
Si Si1 0.740408 0.000000 0.440988
Si Si2 0.746253 0.667611 0.447027
Si Si3 0.802491 0.000000 0.860962
Si Si4 0.811651 0.668801 0.854130
Si Si5 0.739844 0.166279 0.440517
Si Si6 0.678981 0.500000 0.352679
Si Si7 0.746518 0.500000 0.950853
Si Si8 0.197739 0.166156 0.139231
O O1 0.500000 0.000000 0.500000
O O2 0.767986 0.083109 0.347706
O O3 0.145072 0.000000 0.357086
O O4 0.500000 0.664672 0.500000
O O5 0.866149 0.674327 0.641826
O O6 0.761858 0.750323 0.346874
O O7 0.788490 0.582488 0.372700
O O8 0.696647 0.916881 0.886408
O O9 0.000000 0.000000 0.000000
O O10 0.714115 0.584319 0.862728
O O11 0.697581 0.750343 0.886169
O O12 0.000000 0.667751 0.000000
O O13 0.500000 0.165952 0.500000
O O14 0.855063 0.165617 0.642540
O O15 0.500000 0.500000 0.500000
O O16 0.628383 0.500000 0.139630
O O17 0.000000 0.500000 0.000000
O O18 0.000000 0.166527 0.000000
#
# Coordination Sequence:
#
# PCOD9148947 Si02
#       8
#     2   4   2   4   4   2   2   4
#     4   8  12  18  28  52  85 112 146 191 228 271
#     4   9  16  30  49  68  94 130 164 199 245 299
#     4   8  12  20  36  62  94 128 161 191 231 293
#     4  10  20  35  54  79 108 135 167 215 264 304
#     4   8  13  20  35  57  84 118 153 189 233 280
#     4  10  20  34  51  71  94 124 165 211 249 294
#     4  12  23  36  56  79 101 136 178 215 258 316
#     4   8  14  24  41  66  98 130 160 197 244 294
#
# _framework density 29.259702999999998
#
# number of rings (size 3 to 8) (size 9 to 14) (size 15 to 20)
#    0.000    3.000    0.000    2.750    0.000    0.000 
#    0.000    1.667    0.000    0.000    0.000    1.750 
#    0.000    0.000    0.000   38.500    0.000    7.167 
#
# Total GULP energy -134031.542571 kJ/mol
# GULP energy per Si atom -5584.647607 kJ/mol
# Density = 2.919311 g / cm^3
# Si number density = 29.259703 Si / 1000 Ang^3
#
#
#
# Elastic Constant Matrix: (Units=GPa)
#
#
# Indices 1 2 3 4 5 6 
#
# 1 64.2784 60.4365 7.9356 0.0000 -7.4106 0.0000
# 2 60.4365 479.9300 23.0452 0.0000 -3.3769 0.0000
# 3 7.9356 23.0452 169.5017 0.0000 -13.0682 0.0000
# 4 0.0000 0.0000 0.0000 22.8248 0.0000 7.8166
# 5 -7.4106 -3.3769 -13.0682 0.0000 39.5597 0.0000
# 6 0.0000 0.0000 0.0000 7.8166 0.0000 11.5782
#
#
#
# Elastic Compliance Matrix: (Units=1/GPa)
#
#
# Indices 1 2 3 4 5 6 
#
# 1 0.018055 -0.002237 -0.000303 0.000000 0.003091 0.000000
# 2 -0.002237 0.002375 -0.000241 0.000000 -0.000296 0.000000
# 3 -0.000303 -0.000241 0.006096 0.000000 0.001936 0.000000
# 4 0.000000 0.000000 0.000000 0.056987 0.000000 -0.038473
# 5 0.003091 -0.000296 0.001936 0.000000 0.026472 0.000000
# 6 0.000000 0.000000 0.000000 -0.038473 0.000000 0.112343
#
#
# Mechanical properties :
#
#
# Convention : Reuss Voigt Hill
#
# Bulk Modulus (GPa) = 47.70230 99.61607 73.65919
# Shear Modulus (GPa) = 21.28775 56.27873 38.78324
#
# Velocity S-wave (km/s) = 2.70023 4.39044 3.64467
# Velocity P-wave (km/s) = 5.10491 7.73438 6.55289
#
# Compressibility (1/GPa) = 0.02096335
#
# Stress axis : x y z
#
# Youngs Moduli (GPa) = 55.38738 421.07704 164.04529
#
# Poissons Ratio (x) = 0.94207 0.04967
# Poissons Ratio (y) = 0.12392 0.03953
# Poissons Ratio (z) = 0.01677 0.10146
#
# Static dielectric constant tensor:
#      x y z
#    x 2.728690 0.000000 0.244600 
#    y 0.000000 2.172700 0.000000 
#    z 0.244600 0.000000 2.357120 
# 
# From -- ./inp_files/47728.got.cif
#   From: 2010.05.17/outbox.cif.g08.bks.cpg/sg10_24_cif.got.tgz:47728.got - 2010.06.03 11:33:40.
