data_PCOD9148127
_publ_section_title
;
Structure prediction by ZEFSAII (Michael W. Deem and Ramdas Pophale) SiO2 
 PCOD9148127
Probable space group: P 2/M
;
_chemical_formula_sum "Si O2"
_cell_formula_units_Z 32
_cell_length_a 12.790514
_cell_length_b 7.634546
_cell_length_c 24.871340
_cell_angle_alpha 90.000000
_cell_angle_beta 39.670207
_cell_angle_gamma 90.000000
_cell_volume 1550.391117
_symmetry_space_group_name_H-M "P 2/M"
_symmetry_group_IT_number 10
_symmetry_cell_setting 'monoclinic'
loop_
_space_group_symop_operation_xyz
x,y,z
-x,y,-z
-x,-y,-z
x,-y,z
loop_
_atom_site_type_symbol
_atom_site_label
_atom_site_fract_x
_atom_site_fract_y
_atom_site_fract_z
Si Si1 0.444263 0.799578 0.965721
Si Si2 0.601625 0.785509 0.408185
Si Si3 0.234267 0.199511 0.234636
Si Si4 0.056503 0.708475 0.857430
Si Si5 0.532968 0.791232 0.768267
Si Si6 0.434402 0.204788 0.694796
Si Si7 0.979249 0.788253 0.249611
Si Si8 0.219938 0.696566 0.961513
O O1 0.608421 0.813588 0.866133
O O2 0.317200 0.696601 0.979871
O O3 0.381802 0.000000 0.999277
O O4 0.500000 0.722858 0.000000
O O5 0.500000 0.727593 0.500000
O O6 0.534157 0.723040 0.377171
O O7 0.792137 0.734453 0.334503
O O8 0.599150 0.000000 0.408488
O O9 0.318222 0.281688 0.254348
O O10 0.095301 0.279721 0.251461
O O11 0.179839 0.000000 0.269720
O O12 0.069152 0.500000 0.859561
O O13 0.238798 0.784276 0.782040
O O14 0.979808 0.739066 0.828272
O O15 0.951035 0.777785 0.950048
O O16 0.519611 0.717565 0.713616
O O17 0.354774 0.773288 0.867677
O O18 0.560148 0.000000 0.755103
O O19 0.478841 0.000000 0.675396
O O20 0.988878 0.000000 0.247005
O O21 0.188678 0.500000 0.954684
#
# Coordination Sequence:
#
# PCOD9148127 Si02
#       8
#     4   4   4   4   4   4   4   4
#     4   9  16  26  41  59  81 114 155 196 231 261
#     4   8  14  26  47  74  96 112 137 177 223 269
#     4   8  14  25  42  63  85 112 148 187 219 251
#     4  10  20  31  43  63  92 120 148 190 234 265
#     4   9  18  32  47  63  85 117 159 196 220 253
#     4   9  18  32  50  68  86 116 153 184 220 270
#     4   9  16  28  48  69  89 118 152 181 218 269
#     4  10  20  30  40  59  88 121 154 189 232 271
#
# _framework density 20.639953999999999
#
# number of rings (size 3 to 8) (size 9 to 14) (size 15 to 20)
#    0.000    3.000    0.000    3.000    0.000    4.250 
#    0.000    6.250    0.000    6.750    0.000    5.250 
#    0.000    0.000    0.000   13.500    0.000   15.000 
#
# Total GULP energy -178251.771847 kJ/mol
# GULP energy per Si atom -5570.367870 kJ/mol
# Density = 2.059298 g / cm^3
# Si number density = 20.639954 Si / 1000 Ang^3
#
#
#
# Elastic Constant Matrix: (Units=GPa)
#
#
# Indices 1 2 3 4 5 6 
#
# 1 128.2198 1.2894 41.4534 0.0000 36.0713 0.0000
# 2 1.2894 45.4732 2.3969 0.0000 1.7216 0.0000
# 3 41.4534 2.3969 82.3263 0.0000 20.5023 0.0000
# 4 0.0000 0.0000 0.0000 63.6749 0.0000 -43.8195
# 5 36.0713 1.7216 20.5023 0.0000 26.3986 0.0000
# 6 0.0000 0.0000 0.0000 -43.8195 0.0000 6.1440
#
#
#
# Elastic Compliance Matrix: (Units=1/GPa)
#
#
# Indices 1 2 3 4 5 6 
#
# 1 0.013128 0.000370 -0.002663 0.000000 -0.015894 0.000000
# 2 0.000370 0.022064 -0.000427 0.000000 -0.001613 0.000000
# 3 -0.002663 -0.000427 0.015605 0.000000 -0.008453 0.000000
# 4 0.000000 0.000000 0.000000 -0.004019 0.000000 -0.028660
# 5 -0.015894 -0.001613 -0.008453 0.000000 0.066269 0.000000
# 6 0.000000 0.000000 0.000000 -0.028660 0.000000 -0.041647
#
#
# Mechanical properties :
#
#
# Convention : Reuss Voigt Hill
#
# Bulk Modulus (GPa) = 22.04731 38.47765 30.26248
# Shear Modulus (GPa) = 54.37213 33.30213 43.83713
#
# Velocity S-wave (km/s) = 5.13813 4.02117 4.61358
# Velocity P-wave (km/s) = 6.77536 6.34370 6.56308
#
# Compressibility (1/GPa) = 0.04535701
#
# Stress axis : x y z
#
# Youngs Moduli (GPa) = 76.17583 45.32255 64.08126
#
# Poissons Ratio (x) = -0.01676 0.17063
# Poissons Ratio (y) = -0.02817 0.02736
# Poissons Ratio (z) = 0.20283 0.01935
#
# Static dielectric constant tensor:
#      x y z
#    x 1.818920 0.000000 0.026860 
#    y 0.000000 1.784470 0.000000 
#    z 0.026860 0.000000 1.717900 
# 
# From -- ./inp_files/88522.got.cif
#   From: 2010.05.17/outbox.cif.g08.bks.cpg/sg10_45_cif.got.tgz:88522.got - 2010.06.03 11:33:40.
