data_PCOD9148798
_publ_section_title
;
Structure prediction by ZEFSAII (Michael W. Deem and Ramdas Pophale) SiO2 
 PCOD9148798
Probable space group: P 2/M
;
_chemical_formula_sum "Si O2"
_cell_formula_units_Z 30
_cell_length_a 12.284350
_cell_length_b 13.353282
_cell_length_c 20.311705
_cell_angle_alpha 90.000000
_cell_angle_beta 148.180046
_cell_angle_gamma 90.000000
_cell_volume 1756.728360
_symmetry_space_group_name_H-M "P 2/M"
_symmetry_group_IT_number 10
_symmetry_cell_setting 'monoclinic'
loop_
_space_group_symop_operation_xyz
x,y,z
-x,y,-z
-x,-y,-z
x,-y,z
loop_
_atom_site_type_symbol
_atom_site_label
_atom_site_fract_x
_atom_site_fract_y
_atom_site_fract_z
Si Si1 0.245221 0.796034 0.117302
Si Si2 0.807011 0.114005 0.050678
Si Si3 0.296959 0.681889 0.938675
Si Si4 0.302174 0.883981 0.287866
Si Si5 0.500000 0.745288 0.500000
Si Si6 0.077449 0.378726 0.610439
Si Si7 0.111190 0.380325 0.349993
Si Si8 0.553397 0.615451 0.846355
O O1 0.325386 0.848733 0.224283
O O2 0.354900 0.690627 0.159994
O O3 0.268212 0.861009 0.062378
O O4 0.000000 0.780074 0.000000
O O5 0.721102 0.199992 0.054062
O O6 0.056587 0.123367 0.177460
O O7 0.753908 0.000000 0.040919
O O8 0.092765 0.644850 0.797039
O O9 0.500000 0.660369 0.000000
O O10 0.319328 0.628773 0.020929
O O11 0.426126 0.814570 0.401656
O O12 0.361878 0.000000 0.325277
O O13 0.691908 0.676959 0.576721
O O14 0.065969 0.500000 0.604089
O O15 0.942086 0.346310 0.602872
O O16 0.000000 0.341922 0.500000
O O17 0.318271 0.353999 0.742036
O O18 0.144058 0.500000 0.366307
O O19 0.554541 0.500000 0.825563
#
# Coordination Sequence:
#
# PCOD9148798 Si02
#       8
#     4   4   4   4   2   4   4   4
#     4   9  19  34  54  81 110 141 182 226 283 339
#     4   9  18  35  57  81 109 140 184 236 282 331
#     4  11  20  35  57  83 112 146 187 231 279 332
#     4  10  20  37  59  80 107 144 189 234 278 334
#     4  12  24  38  56  86 116 150 188 230 286 342
#     4   9  19  35  54  77 104 147 198 228 263 320
#     4  11  23  39  57  81 117 155 189 230 278 337
#     4  10  20  33  53  81 112 147 186 229 275 328
#
# _framework density 17.077199
#
# number of rings (size 3 to 8) (size 9 to 14) (size 15 to 20)
#    0.000    2.000    2.667    1.200    1.867    2.667 
#    0.000    0.667    0.000    0.000    0.000    0.933 
#    0.000    0.000    0.000    0.000    0.000    0.000 
#
# Total GULP energy -167378.844462 kJ/mol
# GULP energy per Si atom -5579.294815 kJ/mol
# Density = 1.703833 g / cm^3
# Si number density = 17.077199 Si / 1000 Ang^3
#
#
#
# Elastic Constant Matrix: (Units=GPa)
#
#
# Indices 1 2 3 4 5 6 
#
# 1 77.0289 33.8116 49.3846 0.0000 -3.1824 0.0000
# 2 33.8116 97.1418 37.0338 0.0000 3.8054 0.0000
# 3 49.3846 37.0338 104.9760 0.0000 -9.5411 0.0000
# 4 0.0000 0.0000 0.0000 10.7625 0.0000 -5.6180
# 5 -3.1824 3.8054 -9.5411 0.0000 24.5455 0.0000
# 6 0.0000 0.0000 0.0000 -5.6180 0.0000 13.0069
#
#
#
# Elastic Compliance Matrix: (Units=1/GPa)
#
#
# Indices 1 2 3 4 5 6 
#
# 1 0.019762 -0.003859 -0.007928 0.000000 0.000079 0.000000
# 2 -0.003859 0.012963 -0.003095 0.000000 -0.003713 0.000000
# 3 -0.007928 -0.003095 0.014821 0.000000 0.005213 0.000000
# 4 0.000000 0.000000 0.000000 0.119962 0.000000 0.051814
# 5 0.000079 -0.003713 0.005213 0.000000 0.043353 0.000000
# 6 0.000000 0.000000 0.000000 0.051814 0.000000 0.099262
#
#
# Mechanical properties :
#
#
# Convention : Reuss Voigt Hill
#
# Bulk Modulus (GPa) = 56.23794 57.73408 56.98601
# Shear Modulus (GPa) = 14.45858 20.25743 17.35800
#
# Velocity S-wave (km/s) = 2.91290 3.44790 3.19163
# Velocity P-wave (km/s) = 6.65706 7.05208 6.85741
#
# Compressibility (1/GPa) = 0.01778159
#
# Stress axis : x y z
#
# Youngs Moduli (GPa) = 50.60126 77.14352 67.46958
#
# Poissons Ratio (x) = 0.29770 0.53492
# Poissons Ratio (y) = 0.19528 0.20882
# Poissons Ratio (z) = 0.40119 0.23877
#
# Static dielectric constant tensor:
#      x y z
#    x 1.567190 0.000000 -0.012320 
#    y 0.000000 1.564510 0.000000 
#    z -0.012320 0.000000 1.568180 
# 
# From -- ./inp_files/46768.got.cif
#   From: 2010.05.17/outbox.cif.g08.bks.cpg/sg10_24_cif.got.tgz:46768.got - 2010.06.03 11:33:40.
