data_PCOD9148507
_publ_section_title
;
Structure prediction by ZEFSAII (Michael W. Deem and Ramdas Pophale) SiO2 
 PCOD9148507
Probable space group: P 2/M
;
_chemical_formula_sum "Si O2"
_cell_formula_units_Z 24
_cell_length_a 16.416762
_cell_length_b 7.730041
_cell_length_c 16.270726
_cell_angle_alpha 90.000000
_cell_angle_beta 37.013931
_cell_angle_gamma 90.000000
_cell_volume 1243.023531
_symmetry_space_group_name_H-M "P 2/M"
_symmetry_group_IT_number 10
_symmetry_cell_setting 'monoclinic'
loop_
_space_group_symop_operation_xyz
x,y,z
-x,y,-z
-x,-y,-z
x,-y,z
loop_
_atom_site_type_symbol
_atom_site_label
_atom_site_fract_x
_atom_site_fract_y
_atom_site_fract_z
Si Si1 0.248807 0.204414 0.514746
Si Si2 0.464205 0.296443 0.773018
Si Si3 0.866161 0.793716 0.564078
Si Si4 0.194550 0.711846 0.903361
Si Si5 0.098780 0.291431 0.802861
Si Si6 0.574748 0.709675 0.857621
O O1 0.400287 0.278717 0.390211
O O2 0.168186 0.274534 0.499747
O O3 0.169899 0.235413 0.662239
O O4 0.264724 0.000000 0.490177
O O5 0.438292 0.500000 0.805677
O O6 0.331042 0.224602 0.836424
O O7 0.502082 0.225682 0.832723
O O8 0.731211 0.762427 0.725667
O O9 0.000000 0.722284 0.500000
O O10 0.885608 0.000000 0.540013
O O11 0.196921 0.500000 0.900645
O O12 0.176223 0.766237 0.823276
O O13 0.057552 0.764039 0.061169
O O14 0.098633 0.500000 0.803785
O O15 0.571361 0.500000 0.859310
O O16 0.500000 0.769181 0.000000
#
# Coordination Sequence:
#
# PCOD9148507 Si02
#       6
#     4   4   4   4   4   4
#     4  10  20  33  48  70  98 124 155 195 235 276
#     4   9  17  32  51  69  94 128 160 190 230 279
#     4   9  19  35  51  67  92 127 162 192 226 277
#     4   8  16  31  51  72  93 122 161 197 227 274
#     4   9  17  32  52  72  94 122 158 196 234 276
#     4   9  18  31  48  73 100 122 151 195 240 278
#
# _framework density 19.307759000000001
#
# number of rings (size 3 to 8) (size 9 to 14) (size 15 to 20)
#    0.000    3.000    0.000    1.500    0.000    3.333 
#    0.000    8.333    0.000    0.000    0.000    0.000 
#    0.000    0.000    0.000    0.000    0.000    0.000 
#
# Total GULP energy -133810.988782 kJ/mol
# GULP energy per Si atom -5575.457866 kJ/mol
# Density = 1.926381 g / cm^3
# Si number density = 19.307759 Si / 1000 Ang^3
#
#
#
# Elastic Constant Matrix: (Units=GPa)
#
#
# Indices 1 2 3 4 5 6 
#
# 1 161.3202 1.2857 106.6087 0.0000 -33.8341 0.0000
# 2 1.2857 23.0912 -18.1609 0.0000 -3.8576 0.0000
# 3 106.6087 -18.1609 137.7215 0.0000 3.8132 0.0000
# 4 0.0000 0.0000 0.0000 126.7995 0.0000 -10.7891
# 5 -33.8341 -3.8576 3.8132 0.0000 30.7667 0.0000
# 6 0.0000 0.0000 0.0000 -10.7891 0.0000 10.7575
#
#
#
# Elastic Compliance Matrix: (Units=1/GPa)
#
#
# Indices 1 2 3 4 5 6 
#
# 1 0.035262 -0.019633 -0.030996 0.000000 0.040157 0.000000
# 2 -0.019633 0.060121 0.023596 0.000000 -0.016976 0.000000
# 3 -0.030996 0.023596 0.035350 0.000000 -0.035510 0.000000
# 4 0.000000 0.000000 0.000000 0.008622 0.000000 0.008648
# 5 0.040157 -0.016976 -0.035510 0.000000 0.078936 0.000000
# 6 0.000000 0.000000 0.000000 0.008648 0.000000 0.101631
#
#
# Mechanical properties :
#
#
# Convention : Reuss Voigt Hill
#
# Bulk Modulus (GPa) = 13.04376 55.73333 34.38854
# Shear Modulus (GPa) = 12.51425 49.15804 30.83614
#
# Velocity S-wave (km/s) = 2.54863 5.05129 4.00069
# Velocity P-wave (km/s) = 3.92824 7.93405 6.26020
#
# Compressibility (1/GPa) = 0.07666500
#
# Stress axis : x y z
#
# Youngs Moduli (GPa) = 28.35942 16.63310 28.28880
#
# Poissons Ratio (x) = 0.32656 0.87685
# Poissons Ratio (y) = 0.55678 -0.66749
# Poissons Ratio (z) = 0.87904 -0.39247
#
# Static dielectric constant tensor:
#      x y z
#    x 1.690800 0.000000 0.001250 
#    y 0.000000 1.714290 0.000000 
#    z 0.001250 0.000000 1.630980 
# 
# From -- ./inp_files/33737.got.cif
#   From: 2010.05.17/outbox.cif.g08.bks.cpg/sg10_17_cif.got.tgz:33737.got - 2010.06.03 11:33:40.
