data_PCOD9148674
_publ_section_title
;
Structure prediction by ZEFSAII (Michael W. Deem and Ramdas Pophale) SiO2 
 PCOD9148674
Probable space group: P 2/M
;
_chemical_formula_sum "Si O2"
_cell_formula_units_Z 20
_cell_length_a 15.907483
_cell_length_b 7.429632
_cell_length_c 8.376676
_cell_angle_alpha 90.000000
_cell_angle_beta 129.404948
_cell_angle_gamma 90.000000
_cell_volume 764.961293
_symmetry_space_group_name_H-M "P 2/M"
_symmetry_group_IT_number 10
_symmetry_cell_setting 'monoclinic'
loop_
_space_group_symop_operation_xyz
x,y,z
-x,y,-z
-x,-y,-z
x,-y,z
loop_
_atom_site_type_symbol
_atom_site_label
_atom_site_fract_x
_atom_site_fract_y
_atom_site_fract_z
Si Si1 0.460848 0.212302 0.194200
Si Si2 0.668801 0.218016 0.274702
Si Si3 0.265248 0.715954 0.154831
Si Si4 0.941610 0.280006 0.268968
Si Si5 0.866546 0.706296 0.704369
O O1 0.582651 0.279824 0.308428
O O2 0.389004 0.236059 0.264809
O O3 0.471139 0.000000 0.182964
O O4 0.386037 0.278707 0.956592
O O5 0.787055 0.291902 0.455416
O O6 0.677859 0.000000 0.284173
O O7 0.264742 0.500000 0.159977
O O8 0.207447 0.787347 0.245005
O O9 0.181830 0.775345 0.914202
O O10 0.943446 0.500000 0.273035
O O11 0.000000 0.217764 0.500000
O O12 0.981682 0.219872 0.785986
O O13 0.886943 0.500000 0.776092
#
# Coordination Sequence:
#
# PCOD9148674 Si02
#       5
#     4   4   4   4   4
#     4   9  19  36  55  74  99 133 172 212 253 297
#     4   9  19  36  55  74  99 133 172 212 253 297
#     4  10  20  33  51  77 107 135 165 205 252 301
#     4   9  17  31  52  75 100 133 170 206 248 297
#     4  10  20  33  51  77 107 135 165 205 252 301
#
# _framework density 26.145112999999998
#
# number of rings (size 3 to 8) (size 9 to 14) (size 15 to 20)
#    0.000    2.600    0.000    3.000    0.000    7.200 
#    0.000    7.000    0.000    6.000    0.000    0.000 
#    0.000    0.000    0.000    0.000    0.000    0.000 
#
# Total GULP energy -111806.660452 kJ/mol
# GULP energy per Si atom -5590.333023 kJ/mol
# Density = 2.608561 g / cm^3
# Si number density = 26.145113 Si / 1000 Ang^3
#
#
#
# Elastic Constant Matrix: (Units=GPa)
#
#
# Indices 1 2 3 4 5 6 
#
# 1 162.2293 -7.1375 7.8069 0.0000 16.8535 0.0000
# 2 -7.1375 87.7199 -4.8367 0.0000 1.7052 0.0000
# 3 7.8069 -4.8367 67.9471 0.0000 16.7830 0.0000
# 4 0.0000 0.0000 0.0000 -5.3640 0.0000 -17.0241
# 5 16.8535 1.7052 16.7830 0.0000 50.3371 0.0000
# 6 0.0000 0.0000 0.0000 -17.0241 0.0000 2.9130
#
#
#
# Elastic Compliance Matrix: (Units=1/GPa)
#
#
# Indices 1 2 3 4 5 6 
#
# 1 0.006416 0.000553 -0.000177 0.000000 -0.002108 0.000000
# 2 0.000553 0.011516 0.000979 0.000000 -0.000902 0.000000
# 3 -0.000177 0.000979 0.016129 0.000000 -0.005352 0.000000
# 4 0.000000 0.000000 0.000000 -0.009537 0.000000 -0.055735
# 5 -0.002108 -0.000902 -0.005352 0.000000 0.022387 0.000000
# 6 0.000000 0.000000 0.000000 -0.055735 0.000000 0.017561
#
#
# Mechanical properties :
#
#
# Convention : Reuss Voigt Hill
#
# Bulk Modulus (GPa) = 27.19481 34.39573 30.79527
# Shear Modulus (GPa) = 67.54948 31.04811 49.29880
#
# Velocity S-wave (km/s) = 5.08846 3.44979 4.34704
# Velocity P-wave (km/s) = 6.70428 5.39003 6.08275
#
# Compressibility (1/GPa) = 0.03677172
#
# Stress axis : x y z
#
# Youngs Moduli (GPa) = 155.86137 86.83232 61.99930
#
# Poissons Ratio (x) = -0.04804 0.01098
# Poissons Ratio (y) = -0.08623 -0.06069
# Poissons Ratio (z) = 0.02761 -0.08500
#
# Static dielectric constant tensor:
#      x y z
#    x 2.065840 0.000000 -0.084780 
#    y 0.000000 1.988090 0.000000 
#    z -0.084780 0.000000 2.047000 
# 
# From -- ./inp_files/31690.got.cif
#   From: 2010.05.17/outbox.cif.g08.bks.cpg/sg10_16_cif.got.tgz:31690.got - 2010.06.03 11:33:40.
