data_PCOD9148125
_publ_section_title
;
Structure prediction by ZEFSAII (Michael W. Deem and Ramdas Pophale) SiO2 
 PCOD9148125
Probable space group: P 2/M
;
_chemical_formula_sum "Si O2"
_cell_formula_units_Z 32
_cell_length_a 15.916733
_cell_length_b 7.380465
_cell_length_c 12.549851
_cell_angle_alpha 90.000000
_cell_angle_beta 76.036503
_cell_angle_gamma 90.000000
_cell_volume 1430.702173
_symmetry_space_group_name_H-M "P 2/M"
_symmetry_group_IT_number 10
_symmetry_cell_setting 'monoclinic'
loop_
_space_group_symop_operation_xyz
x,y,z
-x,y,-z
-x,-y,-z
x,-y,z
loop_
_atom_site_type_symbol
_atom_site_label
_atom_site_fract_x
_atom_site_fract_y
_atom_site_fract_z
Si Si1 0.744377 0.221770 0.011979
Si Si2 0.337950 0.220644 0.741437
Si Si3 0.861593 0.718264 0.529323
Si Si4 0.320726 0.788225 0.512148
Si Si5 0.013180 0.281756 0.326083
Si Si6 0.061527 0.787664 0.072956
Si Si7 0.461267 0.778669 0.307624
Si Si8 0.412692 0.779276 0.088154
O O1 0.715152 0.279840 0.139037
O O2 0.743028 0.000000 0.009999
O O3 0.840873 0.285555 0.956403
O O4 0.672214 0.280636 0.949061
O O5 0.305140 0.283656 0.635897
O O6 0.438556 0.274323 0.719387
O O7 0.334867 0.000000 0.746141
O O8 0.862429 0.500000 0.529701
O O9 0.764671 0.774748 0.533451
O O10 0.904802 0.778596 0.627218
O O11 0.927156 0.778322 0.415364
O O12 0.403177 0.713401 0.423635
O O13 0.340178 0.000000 0.521619
O O14 0.012749 0.500000 0.328231
O O15 0.020205 0.226062 0.202233
O O16 0.071668 0.000000 0.044523
O O17 0.000000 0.709707 0.000000
O O18 0.419269 0.722331 0.208554
O O19 0.460739 0.000000 0.309460
O O20 0.412490 0.000000 0.087532
O O21 0.500000 0.723791 0.000000
#
# Coordination Sequence:
#
# PCOD9148125 Si02
#       8
#     4   4   4   4   4   4   4   4
#     4   9  17  28  43  66 101 141 169 197 249 311
#     4   9  16  28  44  65 103 145 172 199 246 308
#     4   9  20  39  58  75  98 134 176 219 266 312
#     4  10  20  29  49  80 105 130 167 215 262 304
#     4   9  20  40  60  74  97 136 179 217 258 314
#     4  10  22  35  52  81 115 140 163 209 268 316
#     4   9  16  26  41  68 104 135 169 209 249 297
#     4   9  14  23  40  62  93 136 174 203 243 298
#
# _framework density 22.366638999999999
#
# number of rings (size 3 to 8) (size 9 to 14) (size 15 to 20)
#    0.000    2.750    1.250    1.125    3.500    2.750 
#    0.000    1.250    0.000    1.500    0.000    0.000 
#    0.000    3.000    0.000    0.000    0.000    0.000 
#
# Total GULP energy -178755.394384 kJ/mol
# GULP energy per Si atom -5586.106074 kJ/mol
# Density = 2.231573 g / cm^3
# Si number density = 22.366639 Si / 1000 Ang^3
#
#
#
# Elastic Constant Matrix: (Units=GPa)
#
#
# Indices 1 2 3 4 5 6 
#
# 1 74.3373 -2.5352 20.5366 0.0000 6.5217 0.0000
# 2 -2.5352 74.7667 -7.1002 0.0000 0.4195 0.0000
# 3 20.5366 -7.1002 78.1955 0.0000 17.6159 0.0000
# 4 0.0000 0.0000 0.0000 3.2463 0.0000 -0.5095
# 5 6.5217 0.4195 17.6159 0.0000 28.7543 0.0000
# 6 0.0000 0.0000 0.0000 -0.5095 0.0000 13.5205
#
#
#
# Elastic Compliance Matrix: (Units=1/GPa)
#
#
# Indices 1 2 3 4 5 6 
#
# 1 0.014537 0.000162 -0.003550 0.000000 -0.001125 0.000000
# 2 0.000162 0.013523 0.001436 0.000000 -0.001114 0.000000
# 3 -0.003550 0.001436 0.015864 0.000000 -0.008935 0.000000
# 4 0.000000 0.000000 0.000000 0.309876 0.000000 0.011676
# 5 -0.001125 -0.001114 -0.008935 0.000000 0.040522 0.000000
# 6 0.000000 0.000000 0.000000 0.011676 0.000000 0.074402
#
#
# Mechanical properties :
#
#
# Convention : Reuss Voigt Hill
#
# Bulk Modulus (GPa) = 24.98664 27.67799 26.33231
# Shear Modulus (GPa) = 10.28875 23.53077 16.90976
#
# Velocity S-wave (km/s) = 2.14710 3.24705 2.75258
# Velocity P-wave (km/s) = 4.16441 5.14386 4.67983
#
# Compressibility (1/GPa) = 0.04002139
#
# Stress axis : x y z
#
# Youngs Moduli (GPa) = 68.78964 73.94768 63.03592
#
# Poissons Ratio (x) = -0.01199 0.22376
# Poissons Ratio (y) = -0.01115 -0.09054
# Poissons Ratio (z) = 0.24419 -0.10621
#
# Static dielectric constant tensor:
#      x y z
#    x 1.779480 0.000000 0.011670 
#    y 0.000000 1.879930 0.000000 
#    z 0.011670 0.000000 1.792420 
# 
# From -- ./inp_files/50721.got.cif
#   From: 2010.05.17/outbox.cif.g08.bks.cpg/sg10_26_cif.got.tgz:50721.got - 2010.06.03 11:33:40.
