data_PCOD9148878
_publ_section_title
;
Structure prediction by ZEFSAII (Michael W. Deem and Ramdas Pophale) SiO2 
 PCOD9148878
Probable space group: P 2/M
;
_chemical_formula_sum "Si O2"
_cell_formula_units_Z 28
_cell_length_a 9.760409
_cell_length_b 27.710665
_cell_length_c 9.998109
_cell_angle_alpha 90.000000
_cell_angle_beta 147.292237
_cell_angle_gamma 90.000000
_cell_volume 1461.206076
_symmetry_space_group_name_H-M "P 2/M"
_symmetry_group_IT_number 10
_symmetry_cell_setting 'monoclinic'
loop_
_space_group_symop_operation_xyz
x,y,z
-x,y,-z
-x,-y,-z
x,-y,z
loop_
_atom_site_type_symbol
_atom_site_label
_atom_site_fract_x
_atom_site_fract_y
_atom_site_fract_z
Si Si1 0.303574 0.052306 0.214413
Si Si2 0.065369 0.788222 0.703525
Si Si3 0.339740 0.691741 0.983688
Si Si4 0.230225 0.843007 0.081725
Si Si5 0.561850 0.252421 0.406790
Si Si6 0.915455 0.608738 0.085751
Si Si7 0.587594 0.555314 0.416650
O O1 0.500000 0.052005 0.500000
O O2 0.353407 0.104144 0.188759
O O3 0.343765 0.000000 0.177936
O O4 0.000000 0.052873 0.000000
O O5 0.839726 0.766955 0.608339
O O6 0.000000 0.803020 0.500000
O O7 0.243544 0.741540 0.839117
O O8 0.163595 0.831849 0.873580
O O9 0.122828 0.658417 0.866351
O O10 0.500000 0.665951 0.000000
O O11 0.499971 0.709222 0.242219
O O12 0.394015 0.796228 0.256092
O O13 0.000000 0.843344 0.000000
O O14 0.500000 0.273851 0.500000
O O15 0.134399 0.579267 0.343298
O O16 0.637971 0.583107 0.846952
O O17 0.000000 0.616057 0.000000
O O18 0.500000 0.554309 0.500000
O O19 0.603958 0.500000 0.382919
#
# Coordination Sequence:
#
# PCOD9148878 Si02
#       7
#     4   4   4   4   4   4   4
#     4   9  18  32  54  86 122 153 189 245 307 360
#     4  11  23  39  56  80 117 161 201 243 297 361
#     4  11  25  39  55  82 118 159 197 243 300 361
#     4  10  20  33  56  87 113 151 200 250 296 350
#     4  11  22  36  59  81 112 152 198 251 293 348
#     4  10  22  35  60  91 115 152 198 242 292 349
#     4   9  18  36  60  89 120 149 190 245 296 344
#
# _framework density 19.162253
#
# number of rings (size 3 to 8) (size 9 to 14) (size 15 to 20)
#    0.000    1.857    2.857    0.857    6.000    2.286 
#    0.000    0.000    0.000    3.000    0.000    1.000 
#    0.000    0.000    0.000    0.000    0.000    0.000 
#
# Total GULP energy -155994.687044 kJ/mol
# GULP energy per Si atom -5571.238823 kJ/mol
# Density = 1.911864 g / cm^3
# Si number density = 19.162253 Si / 1000 Ang^3
#
#
#
# Elastic Constant Matrix: (Units=GPa)
#
#
# Indices 1 2 3 4 5 6 
#
# 1 68.1995 23.7276 29.5981 0.0000 -8.0764 0.0000
# 2 23.7276 108.2161 37.2858 0.0000 -4.3518 0.0000
# 3 29.5981 37.2858 98.0929 0.0000 -2.1870 0.0000
# 4 0.0000 0.0000 0.0000-1661.9002 0.0000 -280.8943
# 5 -8.0764 -4.3518 -2.1870 0.0000 33.4002 0.0000
# 6 0.0000 0.0000 0.0000 -280.8943 0.0000 -39.8183
#
#
#
# Elastic Compliance Matrix: (Units=1/GPa)
#
#
# Indices 1 2 3 4 5 6 
#
# 1 0.017806 -0.002223 -0.004445 0.000000 0.003725 0.000000
# 2 -0.002223 0.010953 -0.003478 0.000000 0.000662 0.000000
# 3 -0.004445 -0.003478 0.012842 0.000000 -0.000687 0.000000
# 4 0.000000 0.000000 0.000000 0.003129 0.000000 -0.022070
# 5 0.003725 0.000662 -0.000687 0.000000 0.030882 0.000000
# 6 0.000000 0.000000 0.000000 -0.022070 0.000000 0.130575
#
#
# Mechanical properties :
#
#
# Convention : Reuss Voigt Hill
#
# Bulk Modulus (GPa) = 46.92535 50.63684 48.78110
# Shear Modulus (GPa) = 21.40577 -321.40388 -149.99905
#
# Velocity S-wave (km/s) = 3.34590 -12.96502 -8.85711
# Velocity P-wave (km/s) = 6.28238 14.05844 8.89301
#
# Compressibility (1/GPa) = 0.02131044
#
# Stress axis : x y z
#
# Youngs Moduli (GPa) = 56.15946 91.29842 77.86827
#
# Poissons Ratio (x) = 0.20296 0.34611
# Poissons Ratio (y) = 0.12484 0.27081
# Poissons Ratio (z) = 0.24962 0.31752
#
# Static dielectric constant tensor:
#      x y z
#    x 1.653360 0.000000 0.024120 
#    y 0.000000 1.691130 0.000000 
#    z 0.024120 0.000000 1.721960 
# 
# From -- ./inp_files/20853.got.cif
#   From: 2010.05.17/outbox.cif.g08.bks.cpg/sg10_11_cif.got.tgz:20853.got - 2010.06.03 11:33:40.
