data_PCOD9148610
_publ_section_title
;
Structure prediction by ZEFSAII (Michael W. Deem and Ramdas Pophale) SiO2 
 PCOD9148610
Probable space group: P 2/M
;
_chemical_formula_sum "Si O2"
_cell_formula_units_Z 32
_cell_length_a 25.898390
_cell_length_b 10.936081
_cell_length_c 19.148243
_cell_angle_alpha 90.000000
_cell_angle_beta 161.930286
_cell_angle_gamma 90.000000
_cell_volume 1682.165570
_symmetry_space_group_name_H-M "P 2/M"
_symmetry_group_IT_number 10
_symmetry_cell_setting 'monoclinic'
loop_
_space_group_symop_operation_xyz
x,y,z
-x,y,-z
-x,-y,-z
x,-y,z
loop_
_atom_site_type_symbol
_atom_site_label
_atom_site_fract_x
_atom_site_fract_y
_atom_site_fract_z
Si Si1 0.195017 0.636584 0.729936
Si Si2 0.353268 0.862912 0.550142
Si Si3 0.965667 0.366183 0.172096
Si Si4 0.322059 0.869603 0.676699
Si Si5 0.711748 0.368952 0.312036
Si Si6 0.126952 0.638996 0.227431
Si Si7 0.720765 0.139691 0.067672
Si Si8 0.931793 0.865152 0.206612
O O1 0.254784 0.500000 0.829289
O O2 0.221741 0.642855 0.681060
O O3 0.276709 0.752662 0.872951
O O4 0.000000 0.641671 0.500000
O O5 0.313435 0.860149 0.582030
O O6 0.259263 0.748931 0.395470
O O7 0.306548 0.000000 0.464739
O O8 0.552566 0.851355 0.805782
O O9 0.882657 0.500000 0.071763
O O10 0.874046 0.246738 0.083802
O O11 0.130691 0.371673 0.432843
O O12 0.025905 0.349235 0.170322
O O13 0.395984 0.746274 0.802735
O O14 0.132092 0.871833 0.459974
O O15 0.402664 0.000000 0.797441
O O16 0.627133 0.500000 0.212966
O O17 0.198563 0.500000 0.319293
O O18 0.000000 0.648468 0.000000
O O19 0.872835 0.155641 0.209703
O O20 0.726428 0.000000 0.103580
O O21 0.869174 0.000000 0.104601
#
# Coordination Sequence:
#
# PCOD9148610 Si02
#       8
#     4   4   4   4   4   4   4   4
#     4  10  20  33  50  75 107 142 188 235 268 315
#     4  10  20  36  55  79 112 144 178 220 271 328
#     4   9  16  29  51  77 103 132 171 218 264 311
#     4   9  16  28  50  73  94 130 177 219 256 310
#     4   9  16  27  46  70  95 129 171 215 262 305
#     4  10  20  34  57  88 113 136 174 223 271 324
#     4  10  22  36  52  78 112 147 182 226 277 321
#     4   9  16  29  50  75  99 131 178 219 254 309
#
# _framework density 19.023097
#
# number of rings (size 3 to 8) (size 9 to 14) (size 15 to 20)
#    0.000    2.500    2.500    1.500    0.000    3.000 
#    0.000    0.625    0.000    4.500    0.000    5.250 
#    0.000    0.000    0.000    0.000    0.000    0.000 
#
# Total GULP energy -178300.187442 kJ/mol
# GULP energy per Si atom -5571.880858 kJ/mol
# Density = 1.897980 g / cm^3
# Si number density = 19.023097 Si / 1000 Ang^3
#
#
#
# Elastic Constant Matrix: (Units=GPa)
#
#
# Indices 1 2 3 4 5 6 
#
# 1 57.4786 16.4078 16.2399 0.0000 0.8807 0.0000
# 2 16.4078 189.5902 15.6699 0.0000 -17.6996 0.0000
# 3 16.2399 15.6699 31.5502 0.0000 -1.6860 0.0000
# 4 0.0000 0.0000 0.0000 9.3576 0.0000 0.6645
# 5 0.8807 -17.6996 -1.6860 0.0000 25.0163 0.0000
# 6 0.0000 0.0000 0.0000 0.6645 0.0000 38.7255
#
#
#
# Elastic Compliance Matrix: (Units=1/GPa)
#
#
# Indices 1 2 3 4 5 6 
#
# 1 0.020634 -0.001153 -0.010167 0.000000 -0.002228 0.000000
# 2 -0.001153 0.005933 -0.002134 0.000000 0.004094 0.000000
# 3 -0.010167 -0.002134 0.038064 0.000000 0.001413 0.000000
# 4 0.000000 0.000000 0.000000 0.106996 0.000000 -0.001836
# 5 -0.002228 0.004094 0.001413 0.000000 0.043045 0.000000
# 6 0.000000 0.000000 0.000000 -0.001836 0.000000 0.025854
#
#
# Mechanical properties :
#
#
# Convention : Reuss Voigt Hill
#
# Bulk Modulus (GPa) = 26.50988 41.69490 34.10239
# Shear Modulus (GPa) = 17.85658 29.97330 23.91494
#
# Velocity S-wave (km/s) = 3.06711 3.97372 3.54948
# Velocity P-wave (km/s) = 5.14867 6.55893 5.89612
#
# Compressibility (1/GPa) = 0.03772178
#
# Stress axis : x y z
#
# Youngs Moduli (GPa) = 48.46433 168.54881 26.27129
#
# Poissons Ratio (x) = 0.19440 0.26710
# Poissons Ratio (y) = 0.05590 0.05607
# Poissons Ratio (z) = 0.49274 0.35972
#
# Static dielectric constant tensor:
#      x y z
#    x 1.643750 0.000000 0.022530 
#    y 0.000000 1.743020 0.000000 
#    z 0.022530 0.000000 1.637630 
# 
# From -- ./inp_files/80297.got.cif
#   From: 2010.05.17/outbox.cif.g08.bks.cpg/sg10_41_cif.got.tgz:80297.got - 2010.06.03 11:33:40.
