data_PCOD9148626
_publ_section_title
;
Structure prediction by ZEFSAII (Michael W. Deem and Ramdas Pophale) SiO2 
 PCOD9148626
Probable space group: P 2/M
;
_chemical_formula_sum "Si O2"
_cell_formula_units_Z 32
_cell_length_a 18.786480
_cell_length_b 14.132963
_cell_length_c 21.805330
_cell_angle_alpha 90.000000
_cell_angle_beta 161.006258
_cell_angle_gamma 90.000000
_cell_volume 1884.279974
_symmetry_space_group_name_H-M "P 2/M"
_symmetry_group_IT_number 10
_symmetry_cell_setting 'monoclinic'
loop_
_space_group_symop_operation_xyz
x,y,z
-x,y,-z
-x,-y,-z
x,-y,z
loop_
_atom_site_type_symbol
_atom_site_label
_atom_site_fract_x
_atom_site_fract_y
_atom_site_fract_z
Si Si1 0.818319 0.614151 0.398992
Si Si2 0.123295 0.610612 0.415341
Si Si3 0.663580 0.389366 0.979255
Si Si4 0.309649 0.703446 0.446229
Si Si5 0.095237 0.893455 0.008459
Si Si6 0.242831 0.391442 0.184849
Si Si7 0.658022 0.895573 0.573972
Si Si8 0.837020 0.699083 0.999947
O O1 0.848412 0.500000 0.426237
O O2 0.839555 0.648270 0.486288
O O3 0.000000 0.651000 0.500000
O O4 0.567047 0.631625 0.176901
O O5 0.186834 0.500000 0.465142
O O6 0.247697 0.661288 0.461427
O O7 0.867179 0.617089 0.190675
O O8 0.656261 0.500000 0.951732
O O9 0.713924 0.319855 0.963485
O O10 0.540373 0.658976 0.613304
O O11 0.341911 0.815764 0.476476
O O12 0.097722 0.688617 0.228988
O O13 0.207467 0.798540 0.072227
O O14 0.891797 0.900878 0.796341
O O15 0.198010 0.000000 0.091947
O O16 0.000000 0.878563 0.000000
O O17 0.244846 0.500000 0.206912
O O18 0.244883 0.381173 0.113150
O O19 0.000000 0.350185 0.000000
O O20 0.500000 0.864196 0.500000
O O21 0.590678 0.000000 0.499255
#
# Coordination Sequence:
#
# PCOD9148626 Si02
#       8
#     4   4   4   4   4   4   4   4
#     4   9  17  29  46  68  95 125 153 186 230 277
#     4   9  17  30  47  68  92 123 159 189 229 281
#     4   9  17  29  45  66  93 123 156 191 226 274
#     4  10  21  34  53  67  93 129 160 199 248 293
#     4   9  18  32  49  70  94 120 156 204 253 297
#     4  11  24  35  45  65  90 120 164 209 241 279
#     4   9  19  33  50  71  93 120 157 203 250 293
#     4  10  20  33  51  69  91 125 161 197 244 293
#
# _framework density 16.982614000000002
#
# number of rings (size 3 to 8) (size 9 to 14) (size 15 to 20)
#    0.000    2.500    0.000    1.875    5.250    3.000 
#    0.000    3.750    0.000    0.375    0.000    0.000 
#    0.000    2.000    0.000    9.750    0.000    0.250 
#
# Total GULP energy -178233.846425 kJ/mol
# GULP energy per Si atom -5569.807701 kJ/mol
# Density = 1.694396 g / cm^3
# Si number density = 16.982614 Si / 1000 Ang^3
#
#
#
# Elastic Constant Matrix: (Units=GPa)
#
#
# Indices 1 2 3 4 5 6 
#
# 1 38.6115 32.9672 34.2284 0.0000 5.3316 0.0000
# 2 32.9672 68.9025 24.1848 0.0000 6.2575 0.0000
# 3 34.2284 24.1848 89.3044 0.0000 10.5496 0.0000
# 4 0.0000 0.0000 0.0000 9.2326 0.0000 0.6942
# 5 5.3316 6.2575 10.5496 0.0000 22.7916 0.0000
# 6 0.0000 0.0000 0.0000 0.6942 0.0000 4.3951
#
#
#
# Elastic Compliance Matrix: (Units=1/GPa)
#
#
# Indices 1 2 3 4 5 6 
#
# 1 0.060657 -0.023054 -0.017007 0.000000 0.000012 0.000000
# 2 -0.023054 0.024939 0.002384 0.000000 -0.002558 0.000000
# 3 -0.017007 0.002384 0.017642 0.000000 -0.004842 0.000000
# 4 0.000000 0.000000 0.000000 0.109614 0.000000 -0.017314
# 5 0.000012 -0.002558 -0.004842 0.000000 0.046817 0.000000
# 6 0.000000 0.000000 0.000000 -0.017314 0.000000 0.230259
#
#
# Mechanical properties :
#
#
# Convention : Reuss Voigt Hill
#
# Bulk Modulus (GPa) = 35.86012 42.17548 39.01780
# Shear Modulus (GPa) = 8.70207 14.31307 11.50757
#
# Velocity S-wave (km/s) = 2.26610 2.90626 2.60592
# Velocity P-wave (km/s) = 5.29232 6.01251 5.66387
#
# Compressibility (1/GPa) = 0.02788613
#
# Stress axis : x y z
#
# Youngs Moduli (GPa) = 16.48607 40.09778 56.68204
#
# Poissons Ratio (x) = 0.92441 0.96397
# Poissons Ratio (y) = 0.38007 -0.13515
# Poissons Ratio (z) = 0.28037 -0.09561
#
# Static dielectric constant tensor:
#      x y z
#    x 1.569130 0.000000 0.009480 
#    y 0.000000 1.609000 0.000000 
#    z 0.009480 0.000000 1.632010 
# 
# From -- ./inp_files/85962.got.cif
#   From: 2010.05.17/outbox.cif.g08.bks.cpg/sg10_43_cif.got.tgz:85962.got - 2010.06.03 11:33:40.
