data_PCOD9148106
_publ_section_title
;
Structure prediction by ZEFSAII (Michael W. Deem and Ramdas Pophale) SiO2 
 PCOD9148106
Probable space group: P 2/M
;
_chemical_formula_sum "Si O2"
_cell_formula_units_Z 32
_cell_length_a 13.762537
_cell_length_b 16.161340
_cell_length_c 15.031823
_cell_angle_alpha 90.000000
_cell_angle_beta 150.695958
_cell_angle_gamma 90.000000
_cell_volume 1636.403892
_symmetry_space_group_name_H-M "P 2/M"
_symmetry_group_IT_number 10
_symmetry_cell_setting 'monoclinic'
loop_
_space_group_symop_operation_xyz
x,y,z
-x,y,-z
-x,-y,-z
x,-y,z
loop_
_atom_site_type_symbol
_atom_site_label
_atom_site_fract_x
_atom_site_fract_y
_atom_site_fract_z
Si Si1 0.993991 0.594382 0.725663
Si Si2 0.579660 0.238732 0.202774
Si Si3 0.587340 0.156206 0.474149
Si Si4 0.002977 0.905302 0.277375
Si Si5 0.843324 0.400586 0.948382
Si Si6 0.589205 0.329916 0.398807
Si Si7 0.167654 0.747097 0.764586
Si Si8 0.399079 0.095131 0.154148
O O1 0.052478 0.500000 0.750611
O O2 0.757382 0.601891 0.545163
O O3 0.057589 0.663333 0.705147
O O4 0.087542 0.618116 0.895826
O O5 0.596222 0.294920 0.303364
O O6 0.759309 0.250192 0.278408
O O7 0.553049 0.145034 0.215654
O O8 0.372489 0.254443 0.985726
O O9 0.500000 0.135765 0.500000
O O10 0.633800 0.253253 0.499507
O O11 0.420345 0.135355 0.267508
O O12 0.787455 0.109366 0.604046
O O13 0.957660 0.829055 0.308440
O O14 0.996522 0.000000 0.308256
O O15 0.820368 0.898356 0.061796
O O16 0.831573 0.500000 0.932850
O O17 0.629668 0.362779 0.759839
O O18 0.000000 0.371073 0.000000
O O19 0.454227 0.000000 0.203140
#
# Coordination Sequence:
#
# PCOD9148106 Si02
#       8
#     4   4   4   4   4   4   4   4
#     4  11  23  40  64  91 124 162 204 254 304 364
#     4   9  20  37  63  87 119 164 195 255 313 361
#     4  11  24  38  58  88 123 164 202 249 302 362
#     4  10  21  39  62  87 120 159 199 252 308 361
#     4  10  23  41  63  91 123 159 204 259 308 356
#     4  11  22  40  61  89 124 162 204 249 304 368
#     4  10  19  40  63  88 123 157 205 254 312 367
#     4   9  20  39  60  86 119 156 205 253 302 363
#
# _framework density 19.555074999999999
#
# number of rings (size 3 to 8) (size 9 to 14) (size 15 to 20)
#    0.000    1.875    2.500    0.750    1.750    2.500 
#    0.000    8.750    0.000    2.250    0.000    0.000 
#    0.000    0.000    0.000    0.000    0.000    0.000 
#
# Total GULP energy -178680.367012 kJ/mol
# GULP energy per Si atom -5583.761469 kJ/mol
# Density = 1.951057 g / cm^3
# Si number density = 19.555075 Si / 1000 Ang^3
#
#
#
# Elastic Constant Matrix: (Units=GPa)
#
#
# Indices 1 2 3 4 5 6 
#
# 1 94.0721 33.3516 15.8615 0.0000 27.8275 0.0000
# 2 33.3516 49.4601 9.6957 0.0000 9.4182 0.0000
# 3 15.8615 9.6957 53.2852 0.0000 20.6202 0.0000
# 4 0.0000 0.0000 0.0000 27.0624 0.0000 4.6238
# 5 27.8275 9.4182 20.6202 0.0000 23.9516 0.0000
# 6 0.0000 0.0000 0.0000 4.6238 0.0000 13.1024
#
#
#
# Elastic Compliance Matrix: (Units=1/GPa)
#
#
# Indices 1 2 3 4 5 6 
#
# 1 0.020598 -0.010267 0.005152 0.000000 -0.024330 0.000000
# 2 -0.010267 0.027006 -0.003546 0.000000 0.004362 0.000000
# 3 0.005152 -0.003546 0.029475 0.000000 -0.029967 0.000000
# 4 0.000000 0.000000 0.000000 0.039323 0.000000 -0.013877
# 5 -0.024330 0.004362 -0.029967 0.000000 0.094101 0.000000
# 6 0.000000 0.000000 0.000000 -0.013877 0.000000 0.081219
#
#
# Mechanical properties :
#
#
# Convention : Reuss Voigt Hill
#
# Bulk Modulus (GPa) = 16.73422 34.95945 25.84683
# Shear Modulus (GPa) = 15.19927 22.01719 18.60823
#
# Velocity S-wave (km/s) = 2.79095 3.35909 3.08812
# Velocity P-wave (km/s) = 4.35453 5.74116 5.09524
#
# Compressibility (1/GPa) = 0.05975779
#
# Stress axis : x y z
#
# Youngs Moduli (GPa) = 48.54731 37.02895 33.92708
#
# Poissons Ratio (x) = 0.38017 -0.17478
# Poissons Ratio (y) = 0.49843 0.12029
# Poissons Ratio (z) = -0.25010 0.13129
#
# Static dielectric constant tensor:
#      x y z
#    x 1.660810 0.000000 -0.013360 
#    y 0.000000 1.675820 0.000000 
#    z -0.013360 0.000000 1.704820 
# 
# From -- ./inp_files/65407.got.cif
#   From: 2010.05.17/outbox.cif.g08.bks.cpg/sg10_33_cif.got.tgz:65407.got - 2010.06.03 11:33:40.
