data_PCOD9148309
_publ_section_title
;
Structure prediction by ZEFSAII (Michael W. Deem and Ramdas Pophale) SiO2 
 PCOD9148309
Probable space group: P 2/M
;
_chemical_formula_sum "Si O2"
_cell_formula_units_Z 32
_cell_length_a 14.399163
_cell_length_b 9.964302
_cell_length_c 17.644865
_cell_angle_alpha 90.000000
_cell_angle_beta 35.780471
_cell_angle_gamma 90.000000
_cell_volume 1480.204072
_symmetry_space_group_name_H-M "P 2/M"
_symmetry_group_IT_number 10
_symmetry_cell_setting 'monoclinic'
loop_
_space_group_symop_operation_xyz
x,y,z
-x,y,-z
-x,-y,-z
x,-y,z
loop_
_atom_site_type_symbol
_atom_site_label
_atom_site_fract_x
_atom_site_fract_y
_atom_site_fract_z
Si Si1 0.659675 0.153140 0.254977
Si Si2 0.871056 0.345532 0.017137
Si Si3 0.364237 0.351628 0.311441
Si Si4 0.235773 0.147266 0.180007
Si Si5 0.088948 0.155880 0.775877
Si Si6 0.284971 0.156149 0.494032
Si Si7 0.472281 0.148118 0.891627
Si Si8 0.906872 0.648945 0.628634
O O1 0.764070 0.165012 0.262146
O O2 0.471597 0.169455 0.394119
O O3 0.685045 0.000000 0.210195
O O4 0.730947 0.261009 0.149683
O O5 0.831616 0.500000 0.021630
O O6 0.955684 0.258846 0.894513
O O7 0.000000 0.353068 0.000000
O O8 0.405397 0.500000 0.312501
O O9 0.271909 0.263623 0.434934
O O10 0.503840 0.260789 0.185891
O O11 0.258474 0.368799 0.305930
O O12 0.379768 0.147085 0.146510
O O13 0.118926 0.263916 0.281122
O O14 0.160922 0.000000 0.232371
O O15 0.318450 0.167094 0.045024
O O16 0.166100 0.181498 0.642461
O O17 0.031702 0.000000 0.815836
O O18 0.263576 0.000000 0.483659
O O19 0.470032 0.000000 0.858107
O O20 0.975611 0.500000 0.597141
O O21 0.000000 0.722872 0.500000
#
# Coordination Sequence:
#
# PCOD9148309 Si02
#       8
#     4   4   4   4   4   4   4   4
#     4   9  17  31  52  76 100 129 169 214 254 295
#     4   9  17  29  47  73 103 132 163 204 253 298
#     4  10  20  32  48  70  96 128 163 197 242 299
#     4   8  14  25  45  72  93 113 144 188 235 277
#     4   9  17  31  52  76 100 131 173 213 250 297
#     4  10  20  33  51  74 102 134 167 209 257 301
#     4   8  14  27  46  67  93 118 146 186 234 282
#     4   9  18  32  49  69  95 126 160 198 239 286
#
# _framework density 21.618639999999999
#
# number of rings (size 3 to 8) (size 9 to 14) (size 15 to 20)
#    0.000    3.000    0.000    1.875    0.000    5.250 
#    0.000    2.500    2.750    3.750    0.000    0.000 
#    0.000    0.000    0.000    0.000    0.000    0.000 
#
# Total GULP energy -178490.378170 kJ/mol
# GULP energy per Si atom -5577.824318 kJ/mol
# Density = 2.156944 g / cm^3
# Si number density = 21.618640 Si / 1000 Ang^3
#
#
#
# Elastic Constant Matrix: (Units=GPa)
#
#
# Indices 1 2 3 4 5 6 
#
# 1 70.2409 21.1471 4.1524 0.0000 4.0545 0.0000
# 2 21.1471 173.1830 107.2996 0.0000 29.0562 0.0000
# 3 4.1524 107.2996 113.2468 0.0000 33.2370 0.0000
# 4 0.0000 0.0000 0.0000 28.0229 0.0000 4.0495
# 5 4.0545 29.0562 33.2370 0.0000 15.6977 0.0000
# 6 0.0000 0.0000 0.0000 4.0495 0.0000 -4.7608
#
#
#
# Elastic Compliance Matrix: (Units=1/GPa)
#
#
# Indices 1 2 3 4 5 6 
#
# 1 0.015638 -0.004075 0.005967 0.000000 -0.009132 0.000000
# 2 -0.004075 0.015242 -0.016696 0.000000 0.008190 0.000000
# 3 0.005967 -0.016696 0.041769 0.000000 -0.059075 0.000000
# 4 0.000000 0.000000 0.000000 0.031779 0.000000 0.027031
# 5 -0.009132 0.008190 -0.059075 0.000000 0.175983 0.000000
# 6 0.000000 0.000000 0.000000 0.027031 0.000000 -0.187057
#
#
# Mechanical properties :
#
#
# Convention : Reuss Voigt Hill
#
# Bulk Modulus (GPa) = 23.23307 69.09653 46.16480
# Shear Modulus (GPa) = 36.41467 22.73007 29.57237
#
# Velocity S-wave (km/s) = 4.10861 3.24606 3.70254
# Velocity P-wave (km/s) = 5.76868 6.78824 6.29912
#
# Compressibility (1/GPa) = 0.04304210
#
# Stress axis : x y z
#
# Youngs Moduli (GPa) = 63.94763 65.60814 23.94135
#
# Poissons Ratio (x) = 0.26733 -0.14287
# Poissons Ratio (y) = 0.26056 0.39972
# Poissons Ratio (z) = -0.38160 1.09539
#
# Static dielectric constant tensor:
#      x y z
#    x 1.854190 0.000000 -0.048730 
#    y 0.000000 1.800450 0.000000 
#    z -0.048730 0.000000 1.759510 
# 
# From -- ./inp_files/86099.got.cif
#   From: 2010.05.17/outbox.cif.g08.bks.cpg/sg10_44_cif.got.tgz:86099.got - 2010.06.03 11:33:40.
