data_PCOD9148621
_publ_section_title
;
Structure prediction by ZEFSAII (Michael W. Deem and Ramdas Pophale) SiO2 
 PCOD9148621
Probable space group: P 2/M
;
_chemical_formula_sum "Si O2"
_cell_formula_units_Z 28
_cell_length_a 12.238841
_cell_length_b 7.934699
_cell_length_c 15.319883
_cell_angle_alpha 90.000000
_cell_angle_beta 62.039567
_cell_angle_gamma 90.000000
_cell_volume 1314.075924
_symmetry_space_group_name_H-M "P 2/M"
_symmetry_group_IT_number 10
_symmetry_cell_setting 'monoclinic'
loop_
_space_group_symop_operation_xyz
x,y,z
-x,y,-z
-x,-y,-z
x,-y,z
loop_
_atom_site_type_symbol
_atom_site_label
_atom_site_fract_x
_atom_site_fract_y
_atom_site_fract_z
Si Si1 0.720035 0.804500 0.201547
Si Si2 0.540147 0.308351 0.706067
Si Si3 0.129799 0.698868 0.693201
Si Si4 0.627917 0.195066 0.495235
Si Si5 0.882767 0.797959 0.983694
Si Si6 0.863887 0.692425 0.797206
Si Si7 0.584650 0.706648 0.886078
O O1 0.601956 0.697718 0.271227
O O2 0.827890 0.782658 0.231876
O O3 0.683404 0.000000 0.214949
O O4 0.766738 0.756850 0.088359
O O5 0.586140 0.500000 0.689644
O O6 0.614716 0.210272 0.604286
O O7 0.539455 0.244998 0.806056
O O8 0.114799 0.500000 0.714774
O O9 0.245419 0.723727 0.585643
O O10 0.994728 0.764799 0.713647
O O11 0.500000 0.263955 0.500000
O O12 0.634853 0.000000 0.465341
O O13 0.881838 0.699503 0.894685
O O14 0.883050 0.000000 0.966274
O O15 0.000000 0.760170 0.000000
O O16 0.855207 0.500000 0.768137
O O17 0.727334 0.767675 0.835874
O O18 0.584264 0.500000 0.890852
O O19 0.500000 0.763405 0.000000
#
# Coordination Sequence:
#
# PCOD9148621 Si02
#       7
#     4   4   4   4   4   4   4
#     4  11  21  34  53  80 118 155 189 235 291 348
#     4  11  22  37  62  89 115 151 197 245 291 345
#     4  11  22  35  56  86 116 148 191 241 291 349
#     4  11  23  39  60  85 118 158 193 239 297 354
#     4  10  20  33  50  77 115 155 191 229 285 351
#     4  10  21  37  58  85 117 152 196 246 293 344
#     4   9  19  38  62  88 120 156 193 238 292 344
#
# _framework density 21.307749000000001
#
# number of rings (size 3 to 8) (size 9 to 14) (size 15 to 20)
#    0.000    1.571    2.857    2.571    0.000    3.714 
#    0.000    2.143    0.000    8.143    0.000    0.000 
#    0.000    0.000    0.000    0.000    0.000    0.000 
#
# Total GULP energy -156261.527665 kJ/mol
# GULP energy per Si atom -5580.768845 kJ/mol
# Density = 2.125925 g / cm^3
# Si number density = 21.307749 Si / 1000 Ang^3
#
#
#
# Elastic Constant Matrix: (Units=GPa)
#
#
# Indices 1 2 3 4 5 6 
#
# 1 107.7892 -2.4639 43.5709 0.0000 -26.0702 0.0000
# 2 -2.4639 25.6102 6.6693 0.0000 -7.4700 0.0000
# 3 43.5709 6.6693 124.3117 0.0000 -17.7558 0.0000
# 4 0.0000 0.0000 0.0000 135.1321 0.0000 93.9201
# 5 -26.0702 -7.4700 -17.7558 0.0000 32.8016 0.0000
# 6 0.0000 0.0000 0.0000 93.9201 0.0000 54.8683
#
#
#
# Elastic Compliance Matrix: (Units=1/GPa)
#
#
# Indices 1 2 3 4 5 6 
#
# 1 0.013149 0.005004 -0.003492 0.000000 0.009700 0.000000
# 2 0.005004 0.043835 -0.002289 0.000000 0.012721 0.000000
# 3 -0.003492 -0.002289 0.009668 0.000000 0.001937 0.000000
# 4 0.000000 0.000000 0.000000 -0.039010 0.000000 0.066775
# 5 0.009700 0.012721 0.001937 0.000000 0.042141 0.000000
# 6 0.000000 0.000000 0.000000 0.066775 0.000000 -0.096075
#
#
# Mechanical properties :
#
#
# Convention : Reuss Voigt Hill
#
# Bulk Modulus (GPa) = 15.36136 39.25151 27.30644
# Shear Modulus (GPa) = -1644.96271 58.55606 -793.20332
#
# Velocity S-wave (km/s) = -27.81507 5.24793 -19.31498
# Velocity P-wave (km/s) = 32.00540 7.42848 22.01322
#
# Compressibility (1/GPa) = 0.06509841
#
# Stress axis : x y z
#
# Youngs Moduli (GPa) = 76.04962 22.81299 103.43881
#
# Poissons Ratio (x) = -0.11415 0.36118
# Poissons Ratio (y) = -0.38053 0.23673
# Poissons Ratio (z) = 0.26554 0.05221
#
# Static dielectric constant tensor:
#      x y z
#    x 1.807120 0.000000 -0.037230 
#    y 0.000000 1.756710 0.000000 
#    z -0.037230 0.000000 1.771260 
# 
# From -- ./inp_files/50075.got.cif
#   From: 2010.05.17/outbox.cif.g08.bks.cpg/sg10_26_cif.got.tgz:50075.got - 2010.06.03 11:33:40.
