data_PCOD9148742
_publ_section_title
;
Structure prediction by ZEFSAII (Michael W. Deem and Ramdas Pophale) SiO2 
 PCOD9148742
Probable space group: P 2/M
;
_chemical_formula_sum "Si O2"
_cell_formula_units_Z 20
_cell_length_a 7.030242
_cell_length_b 8.197246
_cell_length_c 21.065171
_cell_angle_alpha 90.000000
_cell_angle_beta 137.425078
_cell_angle_gamma 90.000000
_cell_volume 821.306989
_symmetry_space_group_name_H-M "P 2/M"
_symmetry_group_IT_number 10
_symmetry_cell_setting 'monoclinic'
loop_
_space_group_symop_operation_xyz
x,y,z
-x,y,-z
-x,-y,-z
x,-y,z
loop_
_atom_site_type_symbol
_atom_site_label
_atom_site_fract_x
_atom_site_fract_y
_atom_site_fract_z
Si Si1 0.963639 0.676431 0.829541
Si Si2 0.388825 0.809311 0.371204
Si Si3 0.121607 0.000000 0.926075
Si Si4 0.063813 0.190084 0.426071
Si Si5 0.460567 0.000000 0.137652
Si Si6 0.600204 0.323051 0.232938
O O1 0.107693 0.500000 0.864309
O O2 0.786895 0.707146 0.722073
O O3 0.722225 0.669775 0.824456
O O4 0.142049 0.835508 0.890285
O O5 0.710817 0.759057 0.465399
O O6 0.233176 0.802764 0.400802
O O7 0.391325 0.000000 0.351279
O O8 0.808500 0.000000 0.880653
O O9 0.333394 0.000000 0.036683
O O10 0.787595 0.290460 0.341484
O O11 0.991812 0.000000 0.419327
O O12 0.629410 0.835434 0.195832
O O13 0.677391 0.500000 0.224837
#
# Coordination Sequence:
#
# PCOD9148742 Si02
#       6
#     4   4   2   4   2   4
#     4  10  20  33  52  79 106 133 169 210 253 302
#     4   9  18  33  53  76 103 138 176 209 247 299
#     4   9  18  34  54  75 102 134 167 209 260 305
#     4   9  18  33  53  76 103 138 176 209 247 299
#     4   9  18  34  54  75 102 134 167 209 260 305
#     4  10  20  33  52  79 106 133 169 210 253 302
#
# _framework density 24.351434000000001
#
# number of rings (size 3 to 8) (size 9 to 14) (size 15 to 20)
#    0.000    2.600    2.000    1.200    0.000    3.200 
#    0.000   10.000    0.000    2.400    0.000    2.800 
#    0.000    0.000    0.000    0.000    0.000    0.000 
#
# Total GULP energy -111861.549149 kJ/mol
# GULP energy per Si atom -5593.077457 kJ/mol
# Density = 2.429601 g / cm^3
# Si number density = 24.351434 Si / 1000 Ang^3
#
#
#
# Elastic Constant Matrix: (Units=GPa)
#
#
# Indices 1 2 3 4 5 6 
#
# 1 61.8709 9.6562 -4.0839 0.0000 0.2659 0.0000
# 2 9.6562 215.7793 95.5598 0.0000 -12.3493 0.0000
# 3 -4.0839 95.5598 111.6053 0.0000 -18.5102 0.0000
# 4 0.0000 0.0000 0.0000 -9.6717 0.0000 0.2868
# 5 0.2659 -12.3493 -18.5102 0.0000 34.1185 0.0000
# 6 0.0000 0.0000 0.0000 0.2868 0.0000 2.6620
#
#
#
# Elastic Compliance Matrix: (Units=1/GPa)
#
#
# Indices 1 2 3 4 5 6 
#
# 1 0.016553 -0.001636 0.002073 0.000000 0.000404 0.000000
# 2 -0.001636 0.007649 -0.006756 0.000000 -0.000884 0.000000
# 3 0.002073 -0.006756 0.015837 0.000000 0.006131 0.000000
# 4 0.000000 0.000000 0.000000 -0.103065 0.000000 0.011103
# 5 0.000404 -0.000884 0.006131 0.000000 0.032313 0.000000
# 6 0.000000 0.000000 0.000000 0.011103 0.000000 0.374457
#
#
# Mechanical properties :
#
#
# Convention : Reuss Voigt Hill
#
# Bulk Modulus (GPa) = 36.49248 65.72440 51.10844
# Shear Modulus (GPa) = 13.67938 24.63001 19.15470
#
# Velocity S-wave (km/s) = 2.37269 3.18376 2.80767
# Velocity P-wave (km/s) = 4.74600 6.36896 5.61641
#
# Compressibility (1/GPa) = 0.02740291
#
# Stress axis : x y z
#
# Youngs Moduli (GPa) = 60.41162 130.74073 63.14292
#
# Poissons Ratio (x) = 0.21387 -0.13092
# Poissons Ratio (y) = 0.09882 0.42656
# Poissons Ratio (z) = -0.12525 0.88322
#
# Static dielectric constant tensor:
#      x y z
#    x 2.025090 0.000000 -0.001890 
#    y 0.000000 1.924080 0.000000 
#    z -0.001890 0.000000 1.868990 
# 
# From -- ./inp_files/34073.got.cif
#   From: 2010.05.17/outbox.cif.g08.bks.cpg/sg10_18_cif.got.tgz:34073.got - 2010.06.03 11:33:40.
