data_PCOD9148532
_publ_section_title
;
Structure prediction by ZEFSAII (Michael W. Deem and Ramdas Pophale) SiO2 
 PCOD9148532
Probable space group: P 2/M
;
_chemical_formula_sum "Si O2"
_cell_formula_units_Z 32
_cell_length_a 8.644129
_cell_length_b 17.663322
_cell_length_c 22.138191
_cell_angle_alpha 90.000000
_cell_angle_beta 29.534342
_cell_angle_gamma 90.000000
_cell_volume 1666.227701
_symmetry_space_group_name_H-M "P 2/M"
_symmetry_group_IT_number 10
_symmetry_cell_setting 'monoclinic'
loop_
_space_group_symop_operation_xyz
x,y,z
-x,y,-z
-x,-y,-z
x,-y,z
loop_
_atom_site_type_symbol
_atom_site_label
_atom_site_fract_x
_atom_site_fract_y
_atom_site_fract_z
Si Si1 0.696419 0.584601 0.730030
Si Si2 0.130801 0.200772 0.325880
Si Si3 0.470898 0.782074 0.686981
Si Si4 0.823356 0.702437 0.911692
Si Si5 0.260859 0.334731 0.495086
Si Si6 0.667788 0.715708 0.094861
Si Si7 0.080544 0.413009 0.725341
Si Si8 0.770671 0.085665 0.518594
O O1 0.576890 0.500000 0.759949
O O2 0.439652 0.650755 0.821424
O O3 0.971803 0.607326 0.590238
O O4 0.871304 0.587403 0.735872
O O5 0.350717 0.204978 0.310996
O O6 0.380945 0.224237 0.189690
O O7 0.874476 0.268272 0.415269
O O8 0.947494 0.122763 0.400636
O O9 0.647711 0.711925 0.595410
O O10 0.513747 0.853758 0.628161
O O11 0.112468 0.759645 0.816603
O O12 0.922207 0.636649 0.831742
O O13 0.500000 0.739355 0.000000
O O14 0.738760 0.675408 0.007503
O O15 0.579158 0.377338 0.404542
O O16 0.000000 0.751695 0.000000
O O17 0.118911 0.500000 0.731377
O O18 0.000000 0.083729 0.500000
O O19 0.667696 0.000000 0.542208
#
# Coordination Sequence:
#
# PCOD9148532 Si02
#       8
#     4   4   4   4   4   4   4   4
#     4  10  20  33  49  70  98 130 169 219 267 306
#     4   9  17  31  52  76 103 135 165 206 254 296
#     4   9  17  31  52  76 104 134 165 207 252 296
#     4  11  21  35  53  75  98 132 181 213 243 299
#     4   9  17  28  49  72  96 125 166 204 255 310
#     4  11  21  35  54  70  99 139 172 211 254 298
#     4  10  20  33  50  70  97 131 168 220 269 303
#     4   8  14  27  52  84 110 131 160 200 247 299
#
# _framework density 19.205058000000001
#
# number of rings (size 3 to 8) (size 9 to 14) (size 15 to 20)
#    0.000    2.375    2.500    1.875    0.000    2.000 
#    0.000    0.000    0.000    6.000    0.000    0.875 
#    0.000    0.000    0.000    0.000    0.000    0.000 
#
# Total GULP energy -178319.478424 kJ/mol
# GULP energy per Si atom -5572.483701 kJ/mol
# Density = 1.916135 g / cm^3
# Si number density = 19.205058 Si / 1000 Ang^3
#
#
#
# Elastic Constant Matrix: (Units=GPa)
#
#
# Indices 1 2 3 4 5 6 
#
# 1 21.7344 10.5626 22.5541 0.0000 2.3259 0.0000
# 2 10.5626 111.3284 41.2342 0.0000 2.4027 0.0000
# 3 22.5541 41.2342 133.8126 0.0000 1.0668 0.0000
# 4 0.0000 0.0000 0.0000 12.5549 0.0000 2.7475
# 5 2.3259 2.4027 1.0668 0.0000 25.5593 0.0000
# 6 0.0000 0.0000 0.0000 2.7475 0.0000 13.4040
#
#
#
# Elastic Compliance Matrix: (Units=1/GPa)
#
#
# Indices 1 2 3 4 5 6 
#
# 1 0.056713 -0.001981 -0.008912 0.000000 -0.004603 0.000000
# 2 -0.001981 0.010226 -0.002812 0.000000 -0.000664 0.000000
# 3 -0.008912 -0.002812 0.009836 0.000000 0.000665 0.000000
# 4 0.000000 0.000000 0.000000 0.083391 0.000000 -0.017093
# 5 -0.004603 -0.000664 0.000665 0.000000 0.039578 0.000000
# 6 0.000000 0.000000 0.000000 -0.017093 0.000000 0.078108
#
#
# Mechanical properties :
#
#
# Convention : Reuss Voigt Hill
#
# Bulk Modulus (GPa) = 20.25667 46.17527 33.21597
# Shear Modulus (GPa) = 15.54158 23.13861 19.34010
#
# Velocity S-wave (km/s) = 2.84781 3.47482 3.17682
# Velocity P-wave (km/s) = 4.62426 6.33992 5.54880
#
# Compressibility (1/GPa) = 0.04936646
#
# Stress axis : x y z
#
# Youngs Moduli (GPa) = 17.63261 97.78781 101.66233
#
# Poissons Ratio (x) = 0.19368 0.90601
# Poissons Ratio (y) = 0.03492 0.28588
# Poissons Ratio (z) = 0.15714 0.27499
#
# Static dielectric constant tensor:
#      x y z
#    x 1.748030 0.000000 0.013760 
#    y 0.000000 1.662440 0.000000 
#    z 0.013760 0.000000 1.695060 
# 
# From -- ./inp_files/95157.got.cif
#   From: 2010.05.17/outbox.cif.g08.bks.cpg/sg10_48_cif.got.tgz:95157.got - 2010.06.03 11:33:40.
