data_PCOD9148695
_publ_section_title
;
Structure prediction by ZEFSAII (Michael W. Deem and Ramdas Pophale) SiO2 
 PCOD9148695
Probable space group: P 2/M
;
_chemical_formula_sum "Si O2"
_cell_formula_units_Z 32
_cell_length_a 10.255861
_cell_length_b 14.140991
_cell_length_c 14.681727
_cell_angle_alpha 90.000000
_cell_angle_beta 43.512953
_cell_angle_gamma 90.000000
_cell_volume 1466.036418
_symmetry_space_group_name_H-M "P 2/M"
_symmetry_group_IT_number 10
_symmetry_cell_setting 'monoclinic'
loop_
_space_group_symop_operation_xyz
x,y,z
-x,y,-z
-x,-y,-z
x,-y,z
loop_
_atom_site_type_symbol
_atom_site_label
_atom_site_fract_x
_atom_site_fract_y
_atom_site_fract_z
Si Si1 0.223424 0.601454 0.865971
Si Si2 0.893576 0.111543 0.201678
Si Si3 0.275306 0.391782 0.114496
Si Si4 0.810568 0.387427 0.639081
Si Si5 0.520599 0.889020 0.261239
Si Si6 0.435305 0.394181 0.412028
Si Si7 0.322897 0.805194 0.528664
Si Si8 0.738441 0.771782 0.027940
O O1 0.295520 0.500000 0.868223
O O2 0.335225 0.606732 0.713132
O O3 0.274632 0.699860 0.882374
O O4 0.000000 0.597150 0.000000
O O5 0.715157 0.121243 0.222912
O O6 0.848199 0.157744 0.323394
O O7 0.076287 0.163792 0.069703
O O8 0.927817 0.000000 0.194768
O O9 0.196130 0.500000 0.136092
O O10 0.222178 0.356307 0.241979
O O11 0.240493 0.305649 0.063232
O O12 0.500000 0.403627 0.000000
O O13 0.839254 0.500000 0.634934
O O14 0.642662 0.379303 0.651485
O O15 0.000000 0.345152 0.500000
O O16 0.359321 0.844108 0.408405
O O17 0.485204 0.000000 0.267748
O O18 0.561084 0.839546 0.143046
O O19 0.377118 0.500000 0.470507
O O20 0.343742 0.308164 0.512263
O O21 0.500000 0.840379 0.500000
#
# Coordination Sequence:
#
# PCOD9148695 Si02
#       8
#     4   4   4   4   4   4   4   4
#     4  10  20  33  51  79 118 159 189 222 279 361
#     4  10  22  38  57  85 119 150 191 249 301 350
#     4  10  22  39  58  85 118 152 196 248 295 349
#     4   9  19  36  58  81 108 148 198 243 284 336
#     4  10  20  37  59  82 111 152 201 241 288 354
#     4  10  20  36  58  84 118 158 196 239 290 349
#     4  10  21  36  57  85 115 155 192 233 291 357
#     4  12  21  33  58  87 112 147 193 242 297 345
#
# _framework density 21.827560999999999
#
# number of rings (size 3 to 8) (size 9 to 14) (size 15 to 20)
#    0.000    1.875    1.250    3.000    3.500    4.750 
#    0.000    0.625    0.000    1.500    0.000    0.875 
#    0.000    0.000    0.000    0.000    0.000    0.000 
#
# Total GULP energy -178239.347175 kJ/mol
# GULP energy per Si atom -5569.979599 kJ/mol
# Density = 2.177788 g / cm^3
# Si number density = 21.827561 Si / 1000 Ang^3
#
#
#
# Elastic Constant Matrix: (Units=GPa)
#
#
# Indices 1 2 3 4 5 6 
#
# 1 12.6133 27.1598 14.3253 0.0000 6.6827 0.0000
# 2 27.1598 146.1914 70.0624 0.0000 15.3670 0.0000
# 3 14.3253 70.0624 129.2606 0.0000 10.9438 0.0000
# 4 0.0000 0.0000 0.0000 37.9428 0.0000 -0.4161
# 5 6.6827 15.3670 10.9438 0.0000 31.3102 0.0000
# 6 0.0000 0.0000 0.0000 -0.4161 0.0000 10.3324
#
#
#
# Elastic Compliance Matrix: (Units=1/GPa)
#
#
# Indices 1 2 3 4 5 6 
#
# 1 0.141512 -0.023785 -0.001259 0.000000 -0.018090 0.000000
# 2 -0.023785 0.013496 -0.004687 0.000000 0.000091 0.000000
# 3 -0.001259 -0.004687 0.010510 0.000000 -0.001104 0.000000
# 4 0.000000 0.000000 0.000000 0.026367 0.000000 0.001062
# 5 -0.018090 0.000091 -0.001104 0.000000 0.036141 0.000000
# 6 0.000000 0.000000 0.000000 0.001062 0.000000 0.096826
#
#
# Mechanical properties :
#
#
# Convention : Reuss Voigt Hill
#
# Bulk Modulus (GPa) = 9.42910 56.79559 33.11235
# Shear Modulus (GPa) = 11.91425 27.68492 19.79958
#
# Velocity S-wave (km/s) = 2.33885 3.56525 3.01506
# Velocity P-wave (km/s) = 3.40922 6.55932 5.22721
#
# Compressibility (1/GPa) = 0.10605466
#
# Stress axis : x y z
#
# Youngs Moduli (GPa) = 7.06654 74.09695 95.15016
#
# Poissons Ratio (x) = 1.76243 0.11981
# Poissons Ratio (y) = 0.16808 0.44595
# Poissons Ratio (z) = 0.00890 0.34727
#
# Static dielectric constant tensor:
#      x y z
#    x 1.861070 0.000000 0.025100 
#    y 0.000000 1.819220 0.000000 
#    z 0.025100 0.000000 1.852380 
# 
# From -- ./inp_files/65084.got.cif
#   From: 2010.05.17/outbox.cif.g08.bks.cpg/sg10_33_cif.got.tgz:65084.got - 2010.06.03 11:33:40.
