data_PCOD9148576
_publ_section_title
;
Structure prediction by ZEFSAII (Michael W. Deem and Ramdas Pophale) SiO2 
 PCOD9148576
Probable space group: P 2/M
;
_chemical_formula_sum "Si O2"
_cell_formula_units_Z 28
_cell_length_a 11.397883
_cell_length_b 7.458778
_cell_length_c 16.398492
_cell_angle_alpha 90.000000
_cell_angle_beta 82.324957
_cell_angle_gamma 90.000000
_cell_volume 1381.616830
_symmetry_space_group_name_H-M "P 2/M"
_symmetry_group_IT_number 10
_symmetry_cell_setting 'monoclinic'
loop_
_space_group_symop_operation_xyz
x,y,z
-x,y,-z
-x,-y,-z
x,-y,z
loop_
_atom_site_type_symbol
_atom_site_label
_atom_site_fract_x
_atom_site_fract_y
_atom_site_fract_z
Si Si1 0.310780 0.782646 0.045472
Si Si2 0.532634 0.217976 0.122920
Si Si3 0.895431 0.789636 0.451042
Si Si4 0.066224 0.702978 0.741567
Si Si5 0.372240 0.782053 0.544698
Si Si6 0.667243 0.783121 0.266080
Si Si7 0.959061 0.705710 0.916605
O O1 0.403339 0.725336 0.106220
O O2 0.181815 0.706827 0.067955
O O3 0.302144 0.000000 0.046965
O O4 0.372360 0.730446 0.954712
O O5 0.577010 0.278156 0.205917
O O6 0.530454 0.000000 0.122779
O O7 0.931035 0.777459 0.351437
O O8 0.759208 0.719145 0.473335
O O9 0.000000 0.715667 0.500000
O O10 0.886590 0.000000 0.471555
O O11 0.021998 0.500000 0.736294
O O12 0.202298 0.707292 0.757311
O O13 0.998667 0.786736 0.825723
O O14 0.500000 0.720064 0.500000
O O15 0.372983 0.737992 0.639988
O O16 0.370723 0.000000 0.535795
O O17 0.678032 0.000000 0.260428
O O18 0.005303 0.500000 0.911731
O O19 0.000000 0.786146 0.000000
#
# Coordination Sequence:
#
# PCOD9148576 Si02
#       7
#     4   4   4   4   4   4   4
#     4   9  17  30  48  69  96 124 158 203 247 294
#     4   8  15  29  47  70  96 123 156 200 251 293
#     4   9  18  34  54  76 100 129 167 209 248 299
#     4  10  20  33  50  72  99 131 167 205 247 295
#     4   8  14  26  45  70  96 119 150 194 240 285
#     4   9  16  29  50  70  92 124 161 197 238 290
#     4  10  21  35  48  67  99 134 169 208 247 288
#
# _framework density 20.266113000000001
#
# number of rings (size 3 to 8) (size 9 to 14) (size 15 to 20)
#    0.000    3.000    0.000    3.000    0.000    1.714 
#    2.571    2.143    0.000    6.857    0.000    0.000 
#    0.000    0.000    0.000    0.000    0.000    0.000 
#
# Total GULP energy -155963.836794 kJ/mol
# GULP energy per Si atom -5570.137028 kJ/mol
# Density = 2.021999 g / cm^3
# Si number density = 20.266113 Si / 1000 Ang^3
#
#
#
# Elastic Constant Matrix: (Units=GPa)
#
#
# Indices 1 2 3 4 5 6 
#
# 1 176.9719 2.7226 109.9574 0.0000 3.2862 0.0000
# 2 2.7226 55.2555 4.2159 0.0000 0.8225 0.0000
# 3 109.9574 4.2159 97.9305 0.0000 5.7685 0.0000
# 4 0.0000 0.0000 0.0000 3.9052 0.0000 -6.7517
# 5 3.2862 0.8225 5.7685 0.0000 36.2185 0.0000
# 6 0.0000 0.0000 0.0000 -6.7517 0.0000 11.0123
#
#
#
# Elastic Compliance Matrix: (Units=1/GPa)
#
#
# Indices 1 2 3 4 5 6 
#
# 1 0.018812 0.000670 -0.021249 0.000000 0.001662 0.000000
# 2 0.000670 0.018184 -0.001521 0.000000 -0.000231 0.000000
# 3 -0.021249 -0.001521 0.034342 0.000000 -0.003507 0.000000
# 4 0.000000 0.000000 0.000000 -4.268099 0.000000 -2.616778
# 5 0.001662 -0.000231 -0.003507 0.000000 0.028023 0.000000
# 6 0.000000 0.000000 0.000000 -2.616778 0.000000 -1.513544
#
#
# Mechanical properties :
#
#
# Convention : Reuss Voigt Hill
#
# Bulk Modulus (GPa) = 36.84962 62.66108 49.75535
# Shear Modulus (GPa) = -0.88825 24.44467 11.77821
#
# Velocity S-wave (km/s) = -0.66276 3.47678 2.41338
# Velocity P-wave (km/s) = 4.19961 6.86321 5.68948
#
# Compressibility (1/GPa) = 0.02713732
#
# Stress axis : x y z
#
# Youngs Moduli (GPa) = 53.15714 54.99260 29.11868
#
# Poissons Ratio (x) = -0.03682 0.61875
# Poissons Ratio (y) = -0.03560 0.04429
# Poissons Ratio (z) = 1.12955 0.08365
#
# Static dielectric constant tensor:
#      x y z
#    x 1.701060 0.000000 0.008480 
#    y 0.000000 1.763290 0.000000 
#    z 0.008480 0.000000 1.714960 
# 
# From -- ./inp_files/49163.got.cif
#   From: 2010.05.17/outbox.cif.g08.bks.cpg/sg10_25_cif.got.tgz:49163.got - 2010.06.03 11:33:40.
