data_PCOD9148072
_publ_section_title
;
Structure prediction by ZEFSAII (Michael W. Deem and Ramdas Pophale) SiO2 
 PCOD9148072
Probable space group: P 2/M
;
_chemical_formula_sum "Si O2"
_cell_formula_units_Z 32
_cell_length_a 12.357998
_cell_length_b 8.041666
_cell_length_c 29.017396
_cell_angle_alpha 90.000000
_cell_angle_beta 33.034818
_cell_angle_gamma 90.000000
_cell_volume 1572.054064
_symmetry_space_group_name_H-M "P 2/M"
_symmetry_group_IT_number 10
_symmetry_cell_setting 'monoclinic'
loop_
_space_group_symop_operation_xyz
x,y,z
-x,y,-z
-x,-y,-z
x,-y,z
loop_
_atom_site_type_symbol
_atom_site_label
_atom_site_fract_x
_atom_site_fract_y
_atom_site_fract_z
Si Si1 0.407876 0.810175 0.666248
Si Si2 0.557044 0.304976 0.837663
Si Si3 0.623937 0.296496 0.000763
Si Si4 0.137098 0.701006 0.493550
Si Si5 0.687191 0.693604 0.399365
Si Si6 0.975320 0.704038 0.651078
Si Si7 0.200992 0.193833 0.904986
Si Si8 0.078621 0.306690 0.850836
O O1 0.633129 0.750495 0.593865
O O2 0.361623 0.793386 0.628782
O O3 0.237498 0.710075 0.753542
O O4 0.392313 0.000000 0.686965
O O5 0.594827 0.500000 0.832457
O O6 0.759130 0.235850 0.743800
O O7 0.386249 0.285995 0.860788
O O8 0.478302 0.238564 0.914936
O O9 0.622634 0.500000 0.001001
O O10 0.856342 0.246255 0.917639
O O11 0.500000 0.242905 0.000000
O O12 0.131123 0.500000 0.496120
O O13 0.000000 0.758512 0.500000
O O14 0.050312 0.759153 0.573921
O O15 0.500000 0.697000 0.500000
O O16 0.720331 0.500000 0.374136
O O17 0.871906 0.752869 0.363517
O O18 0.976227 0.500000 0.649000
O O19 0.169886 0.213715 0.862015
O O20 0.222980 0.000000 0.909253
O O21 0.000000 0.258769 0.000000
O O22 0.058636 0.500000 0.871072
#
# Coordination Sequence:
#
# PCOD9148072 Si02
#       8
#     4   4   4   4   4   4   4   4
#     4  12  26  41  59  89 127 162 201 249 308 365
#     4  10  20  36  61  91 120 153 200 250 297 354
#     4   9  19  35  58  90 121 149 194 254 304 347
#     4  10  21  40  63  89 120 158 205 249 296 357
#     4  10  19  38  66  89 116 156 205 251 295 351
#     4   9  19  35  60  93 120 149 197 255 299 343
#     4  11  23  40  61  86 124 162 198 248 305 362
#     4  11  23  40  65  90 117 159 209 254 299 355
#
# _framework density 20.355533999999999
#
# number of rings (size 3 to 8) (size 9 to 14) (size 15 to 20)
#    0.000    1.750    2.500    1.875    3.500    1.000 
#    0.000    1.250    0.000    1.875    0.000    0.000 
#    0.000    0.000    0.000    0.000    0.000    0.000 
#
# Total GULP energy -178708.924142 kJ/mol
# GULP energy per Si atom -5584.653879 kJ/mol
# Density = 2.030920 g / cm^3
# Si number density = 20.355534 Si / 1000 Ang^3
#
#
#
# Elastic Constant Matrix: (Units=GPa)
#
#
# Indices 1 2 3 4 5 6 
#
# 1 138.5584 -1.0954 62.6276 0.0000 -12.0434 0.0000
# 2 -1.0954 17.0442 4.6149 0.0000 -0.1944 0.0000
# 3 62.6276 4.6149 139.0017 0.0000 -16.9221 0.0000
# 4 0.0000 0.0000 0.0000 -1.5663 0.0000 15.0338
# 5 -12.0434 -0.1944 -16.9221 0.0000 33.0467 0.0000
# 6 0.0000 0.0000 0.0000 15.0338 0.0000 -2.2622
#
#
#
# Elastic Compliance Matrix: (Units=1/GPa)
#
#
# Indices 1 2 3 4 5 6 
#
# 1 0.009163 0.001694 -0.004028 0.000000 0.001287 0.000000
# 2 0.001694 0.059532 -0.002796 0.000000 -0.000464 0.000000
# 3 -0.004028 -0.002796 0.009514 0.000000 0.003388 0.000000
# 4 0.000000 0.000000 0.000000 0.010169 0.000000 0.067576
# 5 0.001287 -0.000464 0.003388 0.000000 0.032461 0.000000
# 6 0.000000 0.000000 0.000000 0.067576 0.000000 0.007040
#
#
# Mechanical properties :
#
#
# Convention : Reuss Voigt Hill
#
# Bulk Modulus (GPa) = 14.71701 47.43315 31.07508
# Shear Modulus (GPa) = 31.09676 21.07414 26.08545
#
# Velocity S-wave (km/s) = 3.91280 3.22110 3.58368
# Velocity P-wave (km/s) = 5.25918 6.09811 5.69412
#
# Compressibility (1/GPa) = 0.06794859
#
# Stress axis : x y z
#
# Youngs Moduli (GPa) = 109.13384 16.79781 105.10566
#
# Poissons Ratio (x) = -0.02846 0.42337
# Poissons Ratio (y) = -0.18490 0.29391
# Poissons Ratio (z) = 0.43960 0.04697
#
# Static dielectric constant tensor:
#      x y z
#    x 1.106180 0.000000 -0.119560 
#    y 0.000000 1.737970 0.000000 
#    z -0.119560 0.000000 1.694910 
# 
# From -- ./inp_files/94951.got.cif
#   From: 2010.05.17/outbox.cif.g08.bks.cpg/sg10_48_cif.got.tgz:94951.got - 2010.06.03 11:33:40.
