data_PCOD9148875
_publ_section_title
;
Structure prediction by ZEFSAII (Michael W. Deem and Ramdas Pophale) SiO2 
 PCOD9148875
Probable space group: P 2/M
;
_chemical_formula_sum "Si O2"
_cell_formula_units_Z 32
_cell_length_a 12.595141
_cell_length_b 7.531529
_cell_length_c 20.254646
_cell_angle_alpha 90.000000
_cell_angle_beta 128.356242
_cell_angle_gamma 90.000000
_cell_volume 1506.675564
_symmetry_space_group_name_H-M "P 2/M"
_symmetry_group_IT_number 10
_symmetry_cell_setting 'monoclinic'
loop_
_space_group_symop_operation_xyz
x,y,z
-x,y,-z
-x,-y,-z
x,-y,z
loop_
_atom_site_type_symbol
_atom_site_label
_atom_site_fract_x
_atom_site_fract_y
_atom_site_fract_z
Si Si1 0.597380 0.208211 0.600261
Si Si2 0.870922 0.208886 0.647754
Si Si3 0.597019 0.285290 0.096712
Si Si4 0.575219 0.781741 0.343609
Si Si5 0.579258 0.792163 0.845067
Si Si6 0.111764 0.288082 0.839480
Si Si7 0.121698 0.212766 0.999196
Si Si8 0.877563 0.217222 0.499597
O O1 0.500000 0.214767 0.500000
O O2 0.739450 0.288110 0.632880
O O3 0.516023 0.280784 0.630612
O O4 0.621723 0.000000 0.626209
O O5 0.893985 0.276964 0.582231
O O6 0.993704 0.224352 0.745808
O O7 0.841186 0.000000 0.626217
O O8 0.600208 0.500000 0.100324
O O9 0.525623 0.223112 0.135425
O O10 0.746479 0.221268 0.136076
O O11 0.500000 0.230536 0.000000
O O12 0.499140 0.719139 0.248626
O O13 0.730834 0.727978 0.414883
O O14 0.578909 0.000000 0.344633
O O15 0.728057 0.718848 0.922028
O O16 0.602459 0.000000 0.840196
O O17 0.113483 0.500000 0.836388
O O18 0.098079 0.244792 0.911967
O O19 0.124335 0.000000 0.007833
O O20 0.000000 0.278715 0.000000
O O21 0.000000 0.276449 0.500000
O O22 0.880217 0.000000 0.500254
#
# Coordination Sequence:
#
# PCOD9148875 Si02
#       8
#     4   4   4   4   4   4   4   4
#     4   9  15  28  51  79 109 141 180 222 269 325
#     4  10  20  33  56  84 109 144 186 231 277 325
#     4  10  21  40  60  76 104 146 190 233 276 331
#     4   9  17  29  47  77 113 141 171 216 269 325
#     4  10  21  34  56  87 113 140 177 229 281 325
#     4  11  24  40  58  80 110 151 191 230 279 334
#     4  10  22  39  58  85 118 146 178 226 280 331
#     4   9  17  29  46  76 114 143 173 220 275 327
#
# _framework density 21.238810999999998
#
# number of rings (size 3 to 8) (size 9 to 14) (size 15 to 20)
#    0.000    2.250    2.500    0.375    3.500    1.500 
#    0.000    0.000    0.000    1.500    0.000    0.000 
#    0.000    0.000    0.000    0.000    0.000    0.000 
#
# Total GULP energy -178604.184607 kJ/mol
# GULP energy per Si atom -5581.380769 kJ/mol
# Density = 2.119047 g / cm^3
# Si number density = 21.238811 Si / 1000 Ang^3
#
#
#
# Elastic Constant Matrix: (Units=GPa)
#
#
# Indices 1 2 3 4 5 6 
#
# 1 210.9658 -0.1723 100.6884 0.0000 3.4845 0.0000
# 2 -0.1723 51.1721 -6.4836 0.0000 0.5787 0.0000
# 3 100.6884 -6.4836 97.3589 0.0000 -5.6495 0.0000
# 4 0.0000 0.0000 0.0000 15.8517 0.0000 -22.1736
# 5 3.4845 0.5787 -5.6495 0.0000 42.3459 0.0000
# 6 0.0000 0.0000 0.0000 -22.1736 0.0000 20.2956
#
#
#
# Elastic Compliance Matrix: (Units=1/GPa)
#
#
# Indices 1 2 3 4 5 6 
#
# 1 0.009622 -0.001230 -0.010156 0.000000 -0.002130 0.000000
# 2 -0.001230 0.019866 0.002606 0.000000 0.000177 0.000000
# 3 -0.010156 0.002606 0.021158 0.000000 0.003623 0.000000
# 4 0.000000 0.000000 0.000000 -0.119421 0.000000 -0.130471
# 5 -0.002130 0.000177 0.003623 0.000000 0.024271 0.000000
# 6 0.000000 0.000000 0.000000 -0.130471 0.000000 -0.093273
#
#
# Mechanical properties :
#
#
# Convention : Reuss Voigt Hill
#
# Bulk Modulus (GPa) = 30.22577 60.84021 45.53299
# Shear Modulus (GPa) = -45.79297 33.39625 -6.19836
#
# Velocity S-wave (km/s) = -4.64842 3.96967 -1.71019
# Velocity P-wave (km/s) = 3.81420 7.05117 4.19350
#
# Compressibility (1/GPa) = 0.03308435
#
# Stress axis : x y z
#
# Youngs Moduli (GPa) = 103.93389 50.33750 47.26254
#
# Poissons Ratio (x) = 0.06193 0.48000
# Poissons Ratio (y) = 0.12787 -0.12315
# Poissons Ratio (z) = 1.05556 -0.13116
#
# Static dielectric constant tensor:
#      x y z
#    x 1.735220 0.000000 0.005440 
#    y 0.000000 1.804340 0.000000 
#    z 0.005440 0.000000 1.742830 
# 
# From -- ./inp_files/49963.got.cif
#   From: 2010.05.17/outbox.cif.g08.bks.cpg/sg10_25_cif.got.tgz:49963.got - 2010.06.03 11:33:40.
