data_PCOD9148928
_publ_section_title
;
Structure prediction by ZEFSAII (Michael W. Deem and Ramdas Pophale) SiO2 
 PCOD9148928
Probable space group: P 2/M
;
_chemical_formula_sum "Si O2"
_cell_formula_units_Z 28
_cell_length_a 25.329515
_cell_length_b 9.174518
_cell_length_c 9.683233
_cell_angle_alpha 90.000000
_cell_angle_beta 45.865183
_cell_angle_gamma 90.000000
_cell_volume 1615.010848
_symmetry_space_group_name_H-M "P 2/M"
_symmetry_group_IT_number 10
_symmetry_cell_setting 'monoclinic'
loop_
_space_group_symop_operation_xyz
x,y,z
-x,y,-z
-x,-y,-z
x,-y,z
loop_
_atom_site_type_symbol
_atom_site_label
_atom_site_fract_x
_atom_site_fract_y
_atom_site_fract_z
Si Si1 0.423877 0.168451 0.050453
Si Si2 0.502090 0.673584 0.333733
Si Si3 0.893184 0.327907 0.810603
Si Si4 0.206853 0.174418 0.805571
Si Si5 0.647544 0.673021 0.568623
Si Si6 0.942114 0.671360 0.410176
Si Si7 0.082253 0.174558 0.811867
O O1 0.369921 0.258016 0.249340
O O2 0.400956 0.000000 0.076444
O O3 0.500000 0.169328 0.000000
O O4 0.441526 0.241515 0.870150
O O5 0.500000 0.716960 0.500000
O O6 0.518504 0.500000 0.299191
O O7 0.422761 0.695076 0.404595
O O8 0.882689 0.500000 0.859494
O O9 0.904703 0.311538 0.626606
O O10 0.972234 0.282571 0.730936
O O11 0.826874 0.235213 0.991406
O O12 0.282479 0.249161 0.625339
O O13 0.144201 0.216436 0.807992
O O14 0.214280 0.000000 0.794558
O O15 0.658791 0.500000 0.561431
O O16 0.942313 0.500000 0.375875
O O17 0.902173 0.761236 0.365949
O O18 0.080166 0.000000 0.810986
O O19 0.000000 0.226989 0.000000
#
# Coordination Sequence:
#
# PCOD9148928 Si02
#       7
#     4   4   4   4   4   4   4
#     4   9  17  31  53  80 109 139 172 209 250 301
#     4   9  18  34  57  84 110 138 174 213 254 303
#     4   9  18  33  51  74 101 130 168 214 263 313
#     4  11  22  35  52  75 105 139 175 217 265 315
#     4  10  20  35  55  78 106 140 176 214 258 310
#     4   9  18  32  52  75  98 127 169 218 262 311
#     4  10  20  34  50  73 102 132 171 217 263 310
#
# _framework density 17.337344000000002
#
# number of rings (size 3 to 8) (size 9 to 14) (size 15 to 20)
#    0.000    2.429    1.429    2.143    0.000    4.571 
#    0.000    2.857    0.000    1.714    0.000    0.000 
#    0.000    0.000    0.000    0.000    0.000    0.000 
#
# Total GULP energy -156091.876071 kJ/mol
# GULP energy per Si atom -5574.709860 kJ/mol
# Density = 1.729788 g / cm^3
# Si number density = 17.337344 Si / 1000 Ang^3
#
#
#
# Elastic Constant Matrix: (Units=GPa)
#
#
# Indices 1 2 3 4 5 6 
#
# 1 35.6068 29.6271 28.6417 0.0000 9.4503 0.0000
# 2 29.6271 59.2128 62.6238 0.0000 -3.7497 0.0000
# 3 28.6417 62.6238 119.7417 0.0000 -3.1712 0.0000
# 4 0.0000 0.0000 0.0000 36.4979 0.0000 0.8657
# 5 9.4503 -3.7497 -3.1712 0.0000 28.3610 0.0000
# 6 0.0000 0.0000 0.0000 0.8657 0.0000 22.4837
#
#
#
# Elastic Compliance Matrix: (Units=1/GPa)
#
#
# Indices 1 2 3 4 5 6 
#
# 1 0.062299 -0.036477 0.003508 0.000000 -0.025189 0.000000
# 2 -0.036477 0.059371 -0.021860 0.000000 0.017560 0.000000
# 3 0.003508 -0.021860 0.018893 0.000000 -0.001947 0.000000
# 4 0.000000 0.000000 0.000000 0.027424 0.000000 -0.001056
# 5 -0.025189 0.017560 -0.001947 0.000000 0.045757 0.000000
# 6 0.000000 0.000000 0.000000 -0.001056 0.000000 0.044517
#
#
# Mechanical properties :
#
#
# Convention : Reuss Voigt Hill
#
# Bulk Modulus (GPa) = 32.35662 50.70516 41.53089
# Shear Modulus (GPa) = 13.21978 23.71310 18.46644
#
# Velocity S-wave (km/s) = 2.76434 3.70232 3.26717
# Velocity P-wave (km/s) = 5.37515 6.89825 6.18378
#
# Compressibility (1/GPa) = 0.03090558
#
# Stress axis : x y z
#
# Youngs Moduli (GPa) = 16.05169 16.84323 52.92857
#
# Poissons Ratio (x) = 0.61438 -0.18569
# Poissons Ratio (y) = 0.58551 1.15704
# Poissons Ratio (z) = -0.05631 0.36820
#
# Static dielectric constant tensor:
#      x y z
#    x 1.593530 0.000000 0.009580 
#    y 0.000000 1.581390 0.000000 
#    z 0.009580 0.000000 1.589760 
# 
# From -- ./inp_files/37095.got.cif
#   From: 2010.05.17/outbox.cif.g08.bks.cpg/sg10_19_cif.got.tgz:37095.got - 2010.06.03 11:33:40.
