data_PCOD9148089
_publ_section_title
;
Structure prediction by ZEFSAII (Michael W. Deem and Ramdas Pophale) SiO2 
 PCOD9148089
Probable space group: P 2/M
;
_chemical_formula_sum "Si O2"
_cell_formula_units_Z 28
_cell_length_a 13.951124
_cell_length_b 22.617269
_cell_length_c 8.818349
_cell_angle_alpha 90.000000
_cell_angle_beta 149.448067
_cell_angle_gamma 90.000000
_cell_volume 1414.402791
_symmetry_space_group_name_H-M "P 2/M"
_symmetry_group_IT_number 10
_symmetry_cell_setting 'monoclinic'
loop_
_space_group_symop_operation_xyz
x,y,z
-x,y,-z
-x,-y,-z
x,-y,z
loop_
_atom_site_type_symbol
_atom_site_label
_atom_site_fract_x
_atom_site_fract_y
_atom_site_fract_z
Si Si1 0.303765 0.225162 0.303910
Si Si2 0.975443 0.122935 0.144874
Si Si3 0.622620 0.066733 0.821682
Si Si4 0.807594 0.353844 0.811047
Si Si5 0.617192 0.156657 0.298314
Si Si6 0.452797 0.568215 0.762815
Si Si7 0.866682 0.567744 0.183361
O O1 0.500000 0.203698 0.500000
O O2 0.289968 0.294721 0.261990
O O3 0.318857 0.207832 0.500207
O O4 0.129661 0.186833 0.004112
O O5 0.188793 0.126574 0.492925
O O6 0.000000 0.103679 0.000000
O O7 0.832008 0.084996 0.050819
O O8 0.500000 0.067069 0.500000
O O9 0.515960 0.110768 0.791465
O O10 0.623822 0.000000 0.884497
O O11 0.684881 0.389794 0.520498
O O12 0.865002 0.396129 0.027117
O O13 0.000000 0.331890 0.000000
O O14 0.500000 0.181096 0.000000
O O15 0.380488 0.500000 0.668839
O O16 0.500000 0.586340 0.000000
O O17 0.652744 0.567400 0.950288
O O18 0.927313 0.500000 0.237026
O O19 0.000000 0.591153 0.500000
#
# Coordination Sequence:
#
# PCOD9148089 Si02
#       7
#     4   4   4   4   4   4   4
#     4  11  21  43  64  82 116 158 204 254 299 362
#     4  10  19  39  63  87 120 162 207 248 304 365
#     4  11  21  38  65  95 124 164 211 252 298 370
#     4  12  24  37  60  90 119 157 207 252 304 369
#     4  11  23  40  62  91 127 161 201 253 315 366
#     4  10  21  38  59  85 120 159 199 251 308 363
#     4  10  21  39  61  88 123 160 200 251 313 373
#
# _framework density 19.796341999999999
#
# number of rings (size 3 to 8) (size 9 to 14) (size 15 to 20)
#    0.000    1.286    4.286    3.857    0.000    5.714 
#    0.000    5.000    0.000    0.000    0.000    0.000 
#    0.000    0.000    0.000    0.000    0.000    0.000 
#
# Total GULP energy -156297.916548 kJ/mol
# GULP energy per Si atom -5582.068448 kJ/mol
# Density = 1.975128 g / cm^3
# Si number density = 19.796342 Si / 1000 Ang^3
#
#
#
# Elastic Constant Matrix: (Units=GPa)
#
#
# Indices 1 2 3 4 5 6 
#
# 1 62.7739 4.8218 12.7925 0.0000 23.7285 0.0000
# 2 4.8218 70.8486 13.1402 0.0000 -11.6400 0.0000
# 3 12.7925 13.1402 85.7728 0.0000 6.6470 0.0000
# 4 0.0000 0.0000 0.0000 -31.9989 0.0000 -0.4183
# 5 23.7285 -11.6400 6.6470 0.0000 41.0648 0.0000
# 6 0.0000 0.0000 0.0000 -0.4183 0.0000 18.1267
#
#
#
# Elastic Compliance Matrix: (Units=1/GPa)
#
#
# Indices 1 2 3 4 5 6 
#
# 1 0.021465 -0.003295 -0.001684 0.000000 -0.013064 0.000000
# 2 -0.003295 0.015918 -0.002475 0.000000 0.006817 0.000000
# 3 -0.001684 -0.002475 0.012424 0.000000 -0.001740 0.000000
# 4 0.000000 0.000000 0.000000 -0.031242 0.000000 -0.000721
# 5 -0.013064 0.006817 -0.001740 0.000000 0.034115 0.000000
# 6 0.000000 0.000000 0.000000 -0.000721 0.000000 0.055150
#
#
# Mechanical properties :
#
#
# Convention : Reuss Voigt Hill
#
# Bulk Modulus (GPa) = 28.65519 31.21160 29.93340
# Shear Modulus (GPa) = 37.21028 18.01458 27.61243
#
# Velocity S-wave (km/s) = 4.34020 3.01989 3.73879
# Velocity P-wave (km/s) = 6.29467 5.28774 5.81305
#
# Compressibility (1/GPa) = 0.03489769
#
# Stress axis : x y z
#
# Youngs Moduli (GPa) = 46.58786 62.82245 80.48987
#
# Poissons Ratio (x) = 0.20699 0.13556
# Poissons Ratio (y) = 0.15350 0.19925
# Poissons Ratio (z) = 0.07846 0.15551
#
# Static dielectric constant tensor:
#      x y z
#    x 1.725720 0.000000 0.027250 
#    y 0.000000 1.689270 0.000000 
#    z 0.027250 0.000000 1.693610 
# 
# From -- ./inp_files/30481.got.cif
#   From: 2010.05.17/outbox.cif.g08.bks.cpg/sg10_16_cif.got.tgz:30481.got - 2010.06.03 11:33:40.
