data_PCOD9148972
_publ_section_title
;
Structure prediction by ZEFSAII (Michael W. Deem and Ramdas Pophale) SiO2 
 PCOD9148972
Probable space group: P 2/M
;
_chemical_formula_sum "Si O2"
_cell_formula_units_Z 28
_cell_length_a 8.980791
_cell_length_b 15.176626
_cell_length_c 11.175224
_cell_angle_alpha 90.000000
_cell_angle_beta 107.317350
_cell_angle_gamma 90.000000
_cell_volume 1454.118016
_symmetry_space_group_name_H-M "P 2/M"
_symmetry_group_IT_number 10
_symmetry_cell_setting 'monoclinic'
loop_
_space_group_symop_operation_xyz
x,y,z
-x,y,-z
-x,-y,-z
x,-y,z
loop_
_atom_site_type_symbol
_atom_site_label
_atom_site_fract_x
_atom_site_fract_y
_atom_site_fract_z
Si Si1 0.554725 0.825636 0.643139
Si Si2 0.809546 0.756654 0.082629
Si Si3 0.064137 0.594658 0.647312
Si Si4 0.616521 0.902161 0.912787
Si Si5 0.622432 0.309722 0.247841
Si Si6 0.133345 0.275400 0.245026
Si Si7 0.302593 0.605214 0.093600
O O1 0.500000 0.859996 0.500000
O O2 0.549446 0.885505 0.762759
O O3 0.447328 0.742263 0.655875
O O4 0.731900 0.789285 0.678028
O O5 0.707917 0.759743 0.179715
O O6 0.991864 0.773016 0.142499
O O7 0.732546 0.821538 0.968339
O O8 0.782296 0.655224 0.035707
O O9 0.045031 0.500000 0.705535
O O10 0.244797 0.621258 0.687064
O O11 0.000000 0.586666 0.500000
O O12 0.963643 0.672216 0.679721
O O13 0.687849 0.000000 0.930948
O O14 0.500000 0.900196 0.000000
O O15 0.479130 0.357826 0.146631
O O16 0.214081 0.351324 0.184842
O O17 0.297791 0.500000 0.087140
#
# Coordination Sequence:
#
# PCOD9148972 Si02
#       7
#     4   4   4   4   4   4   4
#     4  11  22  39  62  90 120 155 196 243 302 356
#     4  11  20  38  58  86 119 156 197 245 295 352
#     4  10  20  34  51  76 112 162 215 250 285 344
#     4  11  22  41  69  95 117 153 197 241 297 360
#     4  10  20  35  56  78 118 157 204 243 292 348
#     4  10  22  35  56  80 124 156 197 244 304 349
#     4  11  21  32  53  85 120 156 196 247 302 348
#
# _framework density 19.255659000000001
#
# number of rings (size 3 to 8) (size 9 to 14) (size 15 to 20)
#    0.000    1.429    4.286    2.571    0.000    4.857 
#    0.000    1.429    0.000    6.857    0.000    2.000 
#    0.000    0.000    0.000    0.000    0.000    0.000 
#
# Total GULP energy -156098.415065 kJ/mol
# GULP energy per Si atom -5574.943395 kJ/mol
# Density = 1.921183 g / cm^3
# Si number density = 19.255659 Si / 1000 Ang^3
#
#
#
# Elastic Constant Matrix: (Units=GPa)
#
#
# Indices 1 2 3 4 5 6 
#
# 1 98.8132 15.2459 33.1387 0.0000 14.9484 0.0000
# 2 15.2459 78.5590 23.0631 0.0000 6.0624 0.0000
# 3 33.1387 23.0631 104.6140 0.0000 7.5273 0.0000
# 4 0.0000 0.0000 0.0000 16.7509 0.0000 3.3349
# 5 14.9484 6.0624 7.5273 0.0000 26.2855 0.0000
# 6 0.0000 0.0000 0.0000 3.3349 0.0000 21.5349
#
#
#
# Elastic Compliance Matrix: (Units=1/GPa)
#
#
# Indices 1 2 3 4 5 6 
#
# 1 0.012236 -0.000974 -0.003244 0.000000 -0.005805 0.000000
# 2 -0.000974 0.013829 -0.002604 0.000000 -0.001890 0.000000
# 3 -0.003244 -0.002604 0.011216 0.000000 -0.000767 0.000000
# 4 0.000000 0.000000 0.000000 0.061597 0.000000 -0.009539
# 5 -0.005805 -0.001890 -0.000767 0.000000 0.042001 0.000000
# 6 0.000000 0.000000 0.000000 -0.009539 0.000000 0.047914
#
#
# Mechanical properties :
#
#
# Convention : Reuss Voigt Hill
#
# Bulk Modulus (GPa) = 42.30730 47.20908 44.75819
# Shear Modulus (GPa) = 23.77383 26.95016 25.36200
#
# Velocity S-wave (km/s) = 3.51756 3.74518 3.63315
# Velocity P-wave (km/s) = 6.20618 6.57815 6.39487
#
# Compressibility (1/GPa) = 0.02363658
#
# Stress axis : x y z
#
# Youngs Moduli (GPa) = 81.72299 72.31341 89.16098
#
# Poissons Ratio (x) = 0.07047 0.28920
# Poissons Ratio (y) = 0.07964 0.23218
# Poissons Ratio (z) = 0.26508 0.18831
#
# Static dielectric constant tensor:
#      x y z
#    x 1.690670 0.000000 -0.024100 
#    y 0.000000 1.676120 0.000000 
#    z -0.024100 0.000000 1.735390 
# 
# From -- ./inp_files/42731.got.cif
#   From: 2010.05.17/outbox.cif.g08.bks.cpg/sg10_22_cif.got.tgz:42731.got - 2010.06.03 11:33:40.
