data_PCOD9148999
_publ_section_title
;
Structure prediction by ZEFSAII (Michael W. Deem and Ramdas Pophale) SiO2 
 PCOD9148999
Probable space group: P 2/M
;
_chemical_formula_sum "Si O2"
_cell_formula_units_Z 32
_cell_length_a 21.661336
_cell_length_b 7.738928
_cell_length_c 16.157662
_cell_angle_alpha 90.000000
_cell_angle_beta 153.199444
_cell_angle_gamma 90.000000
_cell_volume 1221.269496
_symmetry_space_group_name_H-M "P 2/M"
_symmetry_group_IT_number 10
_symmetry_cell_setting 'monoclinic'
loop_
_space_group_symop_operation_xyz
x,y,z
-x,y,-z
-x,-y,-z
x,-y,z
loop_
_atom_site_type_symbol
_atom_site_label
_atom_site_fract_x
_atom_site_fract_y
_atom_site_fract_z
Si Si1 0.471066 0.788073 0.766595
Si Si2 0.853668 0.201459 0.805432
Si Si3 0.232428 0.196683 0.877826
Si Si4 0.644030 0.793110 0.207455
Si Si5 0.439423 0.791307 0.539064
Si Si6 0.738675 0.705534 0.896243
Si Si7 0.959898 0.709475 0.765899
Si Si8 0.935353 0.297622 0.548562
O O1 0.360932 0.732655 0.702632
O O2 0.450447 0.732002 0.648154
O O3 0.473919 0.000000 0.768272
O O4 0.622466 0.726295 0.976525
O O5 0.710385 0.277453 0.665465
O O6 0.858118 0.209040 0.710410
O O7 0.858484 0.000000 0.836102
O O8 0.000000 0.287076 0.000000
O O9 0.079925 0.261789 0.678327
O O10 0.233312 0.000000 0.851761
O O11 0.249886 0.208246 0.999180
O O12 0.787817 0.752366 0.336840
O O13 0.635650 0.000000 0.197100
O O14 0.500000 0.727974 0.000000
O O15 0.588569 0.747653 0.680823
O O16 0.430936 0.000000 0.526074
O O17 0.745121 0.500000 0.917076
O O18 0.880645 0.754603 0.021421
O O19 0.946664 0.500000 0.752830
O O20 0.942061 0.775098 0.650571
O O21 0.931229 0.500000 0.553135
#
# Coordination Sequence:
#
# PCOD9148999 Si02
#       8
#     4   4   4   4   4   4   4   4
#     4   8  15  29  50  75  98 123 162 208 247 291
#     4  10  21  35  51  74 103 134 170 211 250 291
#     4   9  16  29  51  76 100 127 161 203 252 298
#     4  10  20  34  52  74 101 135 173 210 252 301
#     4   9  17  31  51  73  98 129 165 203 247 298
#     4   9  17  30  49  76 104 125 158 207 251 295
#     4   9  19  34  52  75 100 129 165 204 249 302
#     4  10  20  34  52  76 104 131 166 209 250 298
#
# _framework density 26.202245000000001
#
# number of rings (size 3 to 8) (size 9 to 14) (size 15 to 20)
#    0.000    2.750    0.000    3.375    0.000    5.000 
#    0.000    5.625    0.000    7.500    0.000    0.000 
#    0.000    0.000    0.000    0.000    0.000    0.000 
#
# Total GULP energy -178771.618856 kJ/mol
# GULP energy per Si atom -5586.613089 kJ/mol
# Density = 2.614261 g / cm^3
# Si number density = 26.202245 Si / 1000 Ang^3
#
#
#
# Elastic Constant Matrix: (Units=GPa)
#
#
# Indices 1 2 3 4 5 6 
#
# 1 110.8715 -2.6172 46.7695 0.0000 37.9078 0.0000
# 2 -2.6172 53.6111 3.6713 0.0000 2.3377 0.0000
# 3 46.7695 3.6713 217.0429 0.0000 43.1676 0.0000
# 4 0.0000 0.0000 0.0000 46.7122 0.0000 21.9116
# 5 37.9078 2.3377 43.1676 0.0000 51.4216 0.0000
# 6 0.0000 0.0000 0.0000 21.9116 0.0000 8.4283
#
#
#
# Elastic Compliance Matrix: (Units=1/GPa)
#
#
# Indices 1 2 3 4 5 6 
#
# 1 0.012298 0.001030 -0.001026 0.000000 -0.008251 0.000000
# 2 0.001030 0.018782 -0.000263 0.000000 -0.001393 0.000000
# 3 -0.001026 -0.000263 0.005618 0.000000 -0.003948 0.000000
# 4 0.000000 0.000000 0.000000 -0.097531 0.000000 0.253560
# 5 -0.008251 -0.001393 -0.003948 0.000000 0.028907 0.000000
# 6 0.000000 0.000000 0.000000 0.253560 0.000000 -0.540552
#
#
# Mechanical properties :
#
#
# Convention : Reuss Voigt Hill
#
# Bulk Modulus (GPa) = 27.63907 53.01919 40.32913
# Shear Modulus (GPa) = -8.93016 43.55923 17.31454
#
# Velocity S-wave (km/s) = -1.84812 4.08171 2.57340
# Velocity P-wave (km/s) = 2.45299 6.51861 4.92491
#
# Compressibility (1/GPa) = 0.03618067
#
# Stress axis : x y z
#
# Youngs Moduli (GPa) = 81.31493 53.24283 177.99408
#
# Poissons Ratio (x) = -0.05486 0.18269
# Poissons Ratio (y) = -0.08379 0.04676
# Poissons Ratio (z) = 0.08346 0.01399
#
# Static dielectric constant tensor:
#      x y z
#    x 2.097920 0.000000 -0.048440 
#    y 0.000000 1.922240 0.000000 
#    z -0.048440 0.000000 2.193810 
# 
# From -- ./inp_files/86944.got.cif
#   From: 2010.05.17/outbox.cif.g08.bks.cpg/sg10_44_cif.got.tgz:86944.got - 2010.06.03 11:33:40.
