data_PCOD9148376
_publ_section_title
;
Structure prediction by ZEFSAII (Michael W. Deem and Ramdas Pophale) SiO2 
 PCOD9148376
Probable space group: P 2/M
;
_chemical_formula_sum "Si O2"
_cell_formula_units_Z 28
_cell_length_a 5.444877
_cell_length_b 12.898698
_cell_length_c 20.664111
_cell_angle_alpha 90.000000
_cell_angle_beta 103.623984
_cell_angle_gamma 90.000000
_cell_volume 1410.442846
_symmetry_space_group_name_H-M "P 2/M"
_symmetry_group_IT_number 10
_symmetry_cell_setting 'monoclinic'
loop_
_space_group_symop_operation_xyz
x,y,z
-x,y,-z
-x,-y,-z
x,-y,z
loop_
_atom_site_type_symbol
_atom_site_label
_atom_site_fract_x
_atom_site_fract_y
_atom_site_fract_z
Si Si1 0.583898 0.879435 0.288420
Si Si2 0.251726 0.263816 0.349190
Si Si3 0.950619 0.178295 0.429912
Si Si4 0.639699 0.614286 0.439111
Si Si5 0.287158 0.379725 0.042545
Si Si6 0.996967 0.380209 0.763041
Si Si7 0.525980 0.706706 0.819002
O O1 0.346744 0.827759 0.310001
O O2 0.797593 0.868116 0.358979
O O3 0.580185 0.811357 0.222091
O O4 0.560507 0.000000 0.272250
O O5 0.436763 0.360601 0.370557
O O6 0.215531 0.211314 0.415775
O O7 0.004452 0.314989 0.303707
O O8 0.816047 0.286250 0.441314
O O9 0.000000 0.119540 0.500000
O O10 0.500000 0.612768 0.500000
O O11 0.756390 0.500000 0.437089
O O12 0.297496 0.500000 0.068395
O O13 0.352972 0.297436 0.102457
O O14 0.500000 0.372306 0.000000
O O15 0.000000 0.364908 0.000000
O O16 0.960675 0.500000 0.748868
O O17 0.272547 0.362367 0.809882
O O18 0.754076 0.338715 0.788310
#
# Coordination Sequence:
#
# PCOD9148376 Si02
#       7
#     4   4   4   4   4   4   4
#     4  10  24  43  62  83 111 154 209 268 322 364
#     4  10  21  38  52  80 111 149 200 256 307 372
#     4  11  21  38  58  81 113 147 198 262 320 380
#     4  10  20  32  50  76 110 151 188 231 302 384
#     4  10  20  35  60  95 134 170 200 235 289 360
#     4  11  21  35  58  88 125 164 204 246 298 366
#     4  11  22  40  61  93 128 168 208 253 301 361
#
# _framework density 19.851918999999999
#
# number of rings (size 3 to 8) (size 9 to 14) (size 15 to 20)
#    0.000    1.571    2.857    2.571    0.000    3.429 
#    0.000    0.714    0.000    0.857    0.000    0.000 
#    0.000    0.000    0.000    0.000    0.000    0.000 
#
# Total GULP energy -155870.667774 kJ/mol
# GULP energy per Si atom -5566.809563 kJ/mol
# Density = 1.980674 g / cm^3
# Si number density = 19.851919 Si / 1000 Ang^3
#
#
#
# Elastic Constant Matrix: (Units=GPa)
#
#
# Indices 1 2 3 4 5 6 
#
# 1 67.5816 22.4180 21.6221 0.0000 11.2781 0.0000
# 2 22.4180 128.2473 50.8036 0.0000 1.0603 0.0000
# 3 21.6221 50.8036 115.9819 0.0000 15.0743 0.0000
# 4 0.0000 0.0000 0.0000 10.9408 0.0000 -5.4917
# 5 11.2781 1.0603 15.0743 0.0000 35.6910 0.0000
# 6 0.0000 0.0000 0.0000 -5.4917 0.0000 -16.4844
#
#
#
# Elastic Compliance Matrix: (Units=1/GPa)
#
#
# Indices 1 2 3 4 5 6 
#
# 1 0.016816 -0.002294 -0.001532 0.000000 -0.004598 0.000000
# 2 -0.002294 0.009829 -0.004163 0.000000 0.002191 0.000000
# 3 -0.001532 -0.004163 0.011271 0.000000 -0.004152 0.000000
# 4 0.000000 0.000000 0.000000 0.078306 0.000000 -0.026088
# 5 -0.004598 0.002191 -0.004152 0.000000 0.031160 0.000000
# 6 0.000000 0.000000 0.000000 -0.026088 0.000000 -0.051972
#
#
# Mechanical properties :
#
#
# Convention : Reuss Voigt Hill
#
# Bulk Modulus (GPa) = 45.58459 55.72201 50.65330
# Shear Modulus (GPa) = 42.12279 20.49396 31.30838
#
# Velocity S-wave (km/s) = 4.61135 3.21649 3.97557
# Velocity P-wave (km/s) = 7.16693 6.47489 6.82968
#
# Compressibility (1/GPa) = 0.02193724
#
# Stress axis : x y z
#
# Youngs Moduli (GPa) = 59.46850 101.73608 88.72555
#
# Poissons Ratio (x) = 0.23343 0.13594
# Poissons Ratio (y) = 0.13645 0.36933
# Poissons Ratio (z) = 0.09112 0.42349
#
# Static dielectric constant tensor:
#      x y z
#    x 1.742960 0.000000 0.002920 
#    y 0.000000 1.671960 0.000000 
#    z 0.002920 0.000000 1.790920 
# 
# From -- ./inp_files/12267.got.cif
#   From: 2010.05.17/outbox.cif.g08.bks.cpg/sg10_7_cif.got.tgz:12267.got - 2010.06.03 11:33:40.
