data_PCOD9148466
_publ_section_title
;
Structure prediction by ZEFSAII (Michael W. Deem and Ramdas Pophale) SiO2 
 PCOD9148466
Probable space group: P 2/M
;
_chemical_formula_sum "Si O2"
_cell_formula_units_Z 32
_cell_length_a 17.262193
_cell_length_b 7.487307
_cell_length_c 10.026097
_cell_angle_alpha 90.000000
_cell_angle_beta 89.412235
_cell_angle_gamma 90.000000
_cell_volume 1295.778169
_symmetry_space_group_name_H-M "P 2/M"
_symmetry_group_IT_number 10
_symmetry_cell_setting 'monoclinic'
loop_
_space_group_symop_operation_xyz
x,y,z
-x,y,-z
-x,-y,-z
x,-y,z
loop_
_atom_site_type_symbol
_atom_site_label
_atom_site_fract_x
_atom_site_fract_y
_atom_site_fract_z
Si Si1 0.534866 0.791866 0.359000
Si Si2 0.379861 0.283755 0.238761
Si Si3 0.265792 0.709853 0.454687
Si Si4 0.294592 0.704908 0.731912
Si Si5 0.103554 0.214277 0.395315
Si Si6 0.942221 0.215899 0.305331
Si Si7 0.746548 0.280352 0.975349
Si Si8 0.086150 0.294143 0.984000
O O1 0.500000 0.718556 0.500000
O O2 0.468358 0.773454 0.248054
O O3 0.614557 0.707311 0.307591
O O4 0.551458 0.000000 0.379969
O O5 0.379821 0.500000 0.237272
O O6 0.338789 0.216916 0.375046
O O7 0.321702 0.224909 0.123445
O O8 0.279972 0.500000 0.472942
O O9 0.254833 0.789214 0.601818
O O10 0.190018 0.726700 0.365639
O O11 0.086348 0.725814 0.548108
O O12 0.268291 0.500000 0.742854
O O13 0.277744 0.782205 0.876419
O O14 0.033078 0.271963 0.303336
O O15 0.101724 0.000000 0.396450
O O16 0.900183 0.288355 0.176416
O O17 0.938250 0.000000 0.301026
O O18 0.748262 0.500000 0.970604
O O19 0.835612 0.219130 0.951139
O O20 0.079902 0.500000 0.026616
O O21 0.000000 0.210647 0.000000
#
# Coordination Sequence:
#
# PCOD9148466 Si02
#       8
#     4   4   4   4   4   4   4   4
#     4  11  23  39  60  88 119 147 185 235 288 338
#     4  10  21  38  60  84 115 151 189 231 278 341
#     4  10  20  32  55  86 111 144 192 239 276 330
#     4  10  20  37  61  85 114 152 191 232 280 341
#     4   9  19  34  53  76 109 147 185 233 288 338
#     4   9  19  36  53  75 107 147 190 232 281 341
#     4   9  20  38  58  85 119 152 188 232 288 343
#     4  10  21  36  58  83 113 151 190 237 287 331
#
# _framework density 24.695584
#
# number of rings (size 3 to 8) (size 9 to 14) (size 15 to 20)
#    0.000    2.250    1.250    1.875    1.750    4.250 
#    0.000    5.625    0.000    0.000    0.000    0.000 
#    0.000    0.000    0.000    0.000    0.000    0.000 
#
# Total GULP energy -178839.396389 kJ/mol
# GULP energy per Si atom -5588.731137 kJ/mol
# Density = 2.463938 g / cm^3
# Si number density = 24.695584 Si / 1000 Ang^3
#
#
#
# Elastic Constant Matrix: (Units=GPa)
#
#
# Indices 1 2 3 4 5 6 
#
# 1 154.6032 -6.9150 29.4105 0.0000 29.7154 0.0000
# 2 -6.9150 80.1116 5.6903 0.0000 -1.2794 0.0000
# 3 29.4105 5.6903 98.0645 0.0000 24.3141 0.0000
# 4 0.0000 0.0000 0.0000 -1.2738 0.0000 -12.2438
# 5 29.7154 -1.2794 24.3141 0.0000 42.1184 0.0000
# 6 0.0000 0.0000 0.0000 -12.2438 0.0000 -2.8668
#
#
#
# Elastic Compliance Matrix: (Units=1/GPa)
#
#
# Indices 1 2 3 4 5 6 
#
# 1 0.007619 0.000665 -0.001162 0.000000 -0.004684 0.000000
# 2 0.000665 0.012624 -0.001063 0.000000 0.000528 0.000000
# 3 -0.001162 -0.001063 0.012152 0.000000 -0.006227 0.000000
# 4 0.000000 0.000000 0.000000 0.019601 0.000000 -0.083713
# 5 -0.004684 0.000528 -0.006227 0.000000 0.030658 0.000000
# 6 0.000000 0.000000 0.000000 -0.083713 0.000000 0.008709
#
#
# Mechanical properties :
#
#
# Convention : Reuss Voigt Hill
#
# Bulk Modulus (GPa) = 34.15829 43.23898 38.69863
# Shear Modulus (GPa) = 47.96572 27.90180 37.93376
#
# Velocity S-wave (km/s) = 4.41191 3.36494 3.92350
# Velocity P-wave (km/s) = 6.30992 5.71348 6.01909
#
# Compressibility (1/GPa) = 0.02927547
#
# Stress axis : x y z
#
# Youngs Moduli (GPa) = 131.24358 79.21451 82.29388
#
# Poissons Ratio (x) = -0.05271 0.09565
# Poissons Ratio (y) = -0.08733 0.08747
# Poissons Ratio (z) = 0.15254 0.08420
#
# Static dielectric constant tensor:
#      x y z
#    x 1.971810 0.000000 -0.009050 
#    y 0.000000 1.911820 0.000000 
#    z -0.009050 0.000000 1.990360 
# 
# From -- ./inp_files/49940.got.cif
#   From: 2010.05.17/outbox.cif.g08.bks.cpg/sg10_25_cif.got.tgz:49940.got - 2010.06.03 11:33:40.
