data_PCOD9148877
_publ_section_title
;
Structure prediction by ZEFSAII (Michael W. Deem and Ramdas Pophale) SiO2 
 PCOD9148877
Probable space group: P 2/M
;
_chemical_formula_sum "Si O2"
_cell_formula_units_Z 30
_cell_length_a 9.799393
_cell_length_b 29.359446
_cell_length_c 12.379970
_cell_angle_alpha 90.000000
_cell_angle_beta 25.228124
_cell_angle_gamma 90.000000
_cell_volume 1518.112279
_symmetry_space_group_name_H-M "P 2/M"
_symmetry_group_IT_number 10
_symmetry_cell_setting 'monoclinic'
loop_
_space_group_symop_operation_xyz
x,y,z
-x,y,-z
-x,-y,-z
x,-y,z
loop_
_atom_site_type_symbol
_atom_site_label
_atom_site_fract_x
_atom_site_fract_y
_atom_site_fract_z
Si Si1 0.382055 0.049135 0.209986
Si Si2 0.162860 0.201297 0.699741
Si Si3 0.235621 0.364446 0.107004
Si Si4 0.559572 0.148721 0.086556
Si Si5 0.608693 0.500000 0.294607
Si Si6 0.895340 0.707582 0.966460
Si Si7 0.249618 0.759973 0.404681
Si Si8 0.266289 0.422996 0.395362
O O1 0.477604 0.098442 0.187318
O O2 0.000000 0.048239 0.500000
O O3 0.502238 0.000000 0.168009
O O4 0.500000 0.049796 0.000000
O O5 0.500000 0.183986 0.500000
O O6 0.128041 0.223640 0.606784
O O7 0.912376 0.160840 0.874604
O O8 0.091976 0.245390 0.823132
O O9 0.962531 0.391087 0.367869
O O10 0.500000 0.344620 0.000000
O O11 0.063443 0.325168 0.163393
O O12 0.455821 0.396319 0.870855
O O13 0.366903 0.192517 0.267274
O O14 0.500000 0.148400 0.000000
O O15 0.500000 0.500000 0.500000
O O16 0.448098 0.457673 0.344836
O O17 0.000000 0.500000 0.000000
O O18 0.532379 0.724717 0.221922
O O19 0.000000 0.682639 0.000000
O O20 0.000000 0.739397 0.500000
O O21 0.000000 0.442583 0.500000
#
# Coordination Sequence:
#
# PCOD9148877 Si02
#       8
#     4   4   4   4   2   4   4   4
#     4   9  18  32  54  86 121 151 188 247 310 366
#     4  11  23  39  55  82 119 159 204 253 311 370
#     4  10  24  41  67  96 126 166 218 260 309 370
#     4  10  20  33  56  86 113 151 202 250 304 365
#     4  12  25  42  71 106 136 168 212 264 317 374
#     4  11  25  39  57  86 119 163 205 257 313 369
#     4  11  22  36  59  82 113 156 204 258 303 360
#     4  10  23  46  68  97 131 172 212 258 313 374
#
# _framework density 19.761385000000001
#
# number of rings (size 3 to 8) (size 9 to 14) (size 15 to 20)
#    0.000    1.600    2.667    1.400    5.600    2.133 
#    0.000    2.667    0.000    0.400    0.000    0.933 
#    0.000    0.000    0.000    0.000    0.000    0.000 
#
# Total GULP energy -167206.918291 kJ/mol
# GULP energy per Si atom -5573.563943 kJ/mol
# Density = 1.971641 g / cm^3
# Si number density = 19.761385 Si / 1000 Ang^3
#
#
#
# Elastic Constant Matrix: (Units=GPa)
#
#
# Indices 1 2 3 4 5 6 
#
# 1 110.3049 40.6500 29.2632 0.0000 -8.9104 0.0000
# 2 40.6500 56.7526 5.7671 0.0000 -5.5228 0.0000
# 3 29.2632 5.7671 82.8457 0.0000 -5.9189 0.0000
# 4 0.0000 0.0000 0.0000 20.4076 0.0000 -5.9229
# 5 -8.9104 -5.5228 -5.9189 0.0000 41.3315 0.0000
# 6 0.0000 0.0000 0.0000 -5.9229 0.0000 13.8298
#
#
#
# Elastic Compliance Matrix: (Units=1/GPa)
#
#
# Indices 1 2 3 4 5 6 
#
# 1 0.013654 -0.009254 -0.004099 0.000000 0.001120 0.000000
# 2 -0.009254 0.024222 0.001689 0.000000 0.001483 0.000000
# 3 -0.004099 0.001689 0.013492 0.000000 0.001274 0.000000
# 4 0.000000 0.000000 0.000000 0.055957 0.000000 0.023965
# 5 0.001120 0.001483 0.001274 0.000000 0.024817 0.000000
# 6 0.000000 0.000000 0.000000 0.023965 0.000000 0.082571
#
#
# Mechanical properties :
#
#
# Convention : Reuss Voigt Hill
#
# Bulk Modulus (GPa) = 35.66484 44.58486 40.12485
# Shear Modulus (GPa) = 20.21122 26.72865 23.46993
#
# Velocity S-wave (km/s) = 3.20154 3.68172 3.44999
# Velocity P-wave (km/s) = 5.63501 6.37840 6.01820
#
# Compressibility (1/GPa) = 0.02803882
#
# Stress axis : x y z
#
# Youngs Moduli (GPa) = 73.23794 41.28525 74.11870
#
# Poissons Ratio (x) = 0.38207 0.30379
# Poissons Ratio (y) = 0.67778 -0.12517
# Poissons Ratio (z) = 0.30018 -0.06972
#
# Static dielectric constant tensor:
#      x y z
#    x 1.758710 0.000000 0.086600 
#    y 0.000000 1.711390 0.000000 
#    z 0.086600 0.000000 1.802440 
# 
# From -- ./inp_files/43755.got.cif
#   From: 2010.05.17/outbox.cif.g08.bks.cpg/sg10_22_cif.got.tgz:43755.got - 2010.06.03 11:33:40.
