data_PCOD9148116
_publ_section_title
;
Structure prediction by ZEFSAII (Michael W. Deem and Ramdas Pophale) SiO2 
 PCOD9148116
Probable space group: P 2/M
;
_chemical_formula_sum "Si O2"
_cell_formula_units_Z 24
_cell_length_a 22.489482
_cell_length_b 8.280786
_cell_length_c 15.811742
_cell_angle_alpha 90.000000
_cell_angle_beta 20.670091
_cell_angle_gamma 90.000000
_cell_volume 1039.414592
_symmetry_space_group_name_H-M "P 2/M"
_symmetry_group_IT_number 10
_symmetry_cell_setting 'monoclinic'
loop_
_space_group_symop_operation_xyz
x,y,z
-x,y,-z
-x,-y,-z
x,-y,z
loop_
_atom_site_type_symbol
_atom_site_label
_atom_site_fract_x
_atom_site_fract_y
_atom_site_fract_z
Si Si1 0.770917 0.306934 0.892961
Si Si2 0.304948 0.183931 0.186213
Si Si3 0.603631 0.809586 0.584256
Si Si4 0.328220 0.311022 0.683445
Si Si5 0.071545 0.179268 0.155253
Si Si6 0.307222 0.752996 0.361465
O O1 0.765288 0.500000 0.899184
O O2 0.592813 0.236811 0.163969
O O3 0.786185 0.242079 0.777121
O O4 0.908030 0.246158 0.777083
O O5 0.291870 0.304558 0.283623
O O6 0.252994 0.000000 0.279105
O O7 0.504351 0.173474 0.898455
O O8 0.693945 0.779368 0.375462
O O9 0.670701 0.695452 0.571158
O O10 0.619989 0.000000 0.585544
O O11 0.500000 0.253591 0.500000
O O12 0.350313 0.500000 0.634805
O O13 0.176947 0.286551 0.950043
O O14 0.877798 0.172096 0.386502
O O15 0.145145 0.000000 0.054989
#
# Coordination Sequence:
#
# PCOD9148116 Si02
#       6
#     4   4   4   4   4   4
#     4  11  23  39  59  90 128 166 208 254 303 362
#     4  10  19  41  69  91 121 165 209 250 308 367
#     4  11  21  40  68  94 120 160 209 253 306 367
#     4  11  24  42  63  89 127 166 203 249 307 369
#     4  12  23  39  64  95 125 159 208 259 308 359
#     4  10  22  40  66  97 126 157 204 264 308 357
#
# _framework density 23.089918999999998
#
# number of rings (size 3 to 8) (size 9 to 14) (size 15 to 20)
#    0.000    1.167    1.667    7.500    0.000    2.000 
#    0.000   22.500    0.000    0.000    0.000    0.000 
#    0.000    0.000    0.000    0.000    0.000    0.000 
#
# Total GULP energy -133731.837346 kJ/mol
# GULP energy per Si atom -5572.159889 kJ/mol
# Density = 2.303737 g / cm^3
# Si number density = 23.089919 Si / 1000 Ang^3
#
#
#
# Elastic Constant Matrix: (Units=GPa)
#
#
# Indices 1 2 3 4 5 6 
#
# 1 165.9489 21.9375 29.8702 0.0000 6.2489 0.0000
# 2 21.9375 75.2658 1.8171 0.0000 -6.7193 0.0000
# 3 29.8702 1.8171 71.6248 0.0000 -11.4960 0.0000
# 4 0.0000 0.0000 0.0000 -7.2632 0.0000 10.8478
# 5 6.2489 -6.7193 -11.4960 0.0000 42.4221 0.0000
# 6 0.0000 0.0000 0.0000 10.8478 0.0000 127.4841
#
#
#
# Elastic Compliance Matrix: (Units=1/GPa)
#
#
# Indices 1 2 3 4 5 6 
#
# 1 0.006973 -0.002155 -0.003213 0.000000 -0.002239 0.000000
# 2 -0.002155 0.014143 0.000994 0.000000 0.002827 0.000000
# 3 -0.003213 0.000994 0.016077 0.000000 0.004987 0.000000
# 4 0.000000 0.000000 0.000000 -0.122156 0.000000 0.010394
# 5 -0.002239 0.002827 0.004987 0.000000 0.025702 0.000000
# 6 0.000000 0.000000 0.000000 0.010394 0.000000 0.006960
#
#
# Mechanical properties :
#
#
# Convention : Reuss Voigt Hill
#
# Bulk Modulus (GPa) = 35.15617 46.67658 40.91638
# Shear Modulus (GPa) = -146.75038 49.80957 -48.47041
#
# Velocity S-wave (km/s) = -7.98085 4.64961 -4.58668
# Velocity P-wave (km/s) = 8.34665 7.00601 3.20799
#
# Compressibility (1/GPa) = 0.02844451
#
# Stress axis : x y z
#
# Youngs Moduli (GPa) = 143.40114 70.70793 62.20132
#
# Poissons Ratio (x) = 0.15237 0.19985
# Poissons Ratio (y) = 0.30901 -0.06180
# Poissons Ratio (z) = 0.46074 -0.07025
#
# Static dielectric constant tensor:
#      x y z
#    x 1.874280 0.000000 0.027740 
#    y 0.000000 1.836410 0.000000 
#    z 0.027740 0.000000 1.828270 
# 
# From -- ./inp_files/80051.got.cif
#   From: 2010.05.17/outbox.cif.g08.bks.cpg/sg10_41_cif.got.tgz:80051.got - 2010.06.03 11:33:40.
