data_PCOD9148693
_publ_section_title
;
Structure prediction by ZEFSAII (Michael W. Deem and Ramdas Pophale) SiO2 
 PCOD9148693
Probable space group: P 2/M
;
_chemical_formula_sum "Si O2"
_cell_formula_units_Z 32
_cell_length_a 15.781407
_cell_length_b 20.088496
_cell_length_c 15.556117
_cell_angle_alpha 90.000000
_cell_angle_beta 18.220694
_cell_angle_gamma 90.000000
_cell_volume 1542.025942
_symmetry_space_group_name_H-M "P 2/M"
_symmetry_group_IT_number 10
_symmetry_cell_setting 'monoclinic'
loop_
_space_group_symop_operation_xyz
x,y,z
-x,y,-z
-x,-y,-z
x,-y,z
loop_
_atom_site_type_symbol
_atom_site_label
_atom_site_fract_x
_atom_site_fract_y
_atom_site_fract_z
Si Si1 0.101481 0.074246 0.618940
Si Si2 0.559671 0.105385 0.039981
Si Si3 0.040155 0.573199 0.311859
Si Si4 0.722191 0.765498 0.960136
Si Si5 0.541221 0.643349 0.866748
Si Si6 0.841957 0.421393 0.003945
Si Si7 0.647226 0.338430 0.448660
Si Si8 0.261728 0.790226 0.526611
O O1 0.157104 0.133218 0.634562
O O2 0.807605 0.075824 0.856777
O O3 0.154612 0.000000 0.600676
O O4 0.298829 0.091096 0.349094
O O5 0.638881 0.183495 0.965785
O O6 0.500000 0.083517 0.000000
O O7 0.929011 0.500000 0.435455
O O8 0.068651 0.581645 0.182068
O O9 0.839933 0.624758 0.550121
O O10 0.341185 0.580467 0.058264
O O11 0.040961 0.764137 0.669580
O O12 0.596894 0.694270 0.065090
O O13 0.563438 0.792726 0.196874
O O14 0.500000 0.673566 0.000000
O O15 0.808822 0.500000 0.058129
O O16 0.087338 0.384461 0.815689
O O17 0.567520 0.379889 0.285727
O O18 0.500000 0.328602 0.500000
O O19 0.729865 0.266672 0.408934
#
# Coordination Sequence:
#
# PCOD9148693 Si02
#       8
#     4   4   4   4   4   4   4   4
#     4  10  21  35  54  80 110 152 195 231 278 332
#     4  10  20  33  51  79 114 146 184 236 284 325
#     4  11  24  40  56  75 104 146 190 229 279 340
#     4  10  20  36  56  77 105 146 190 226 275 336
#     4  12  23  35  55  79 106 142 190 246 287 319
#     4  11  24  42  63  87 118 154 188 225 279 354
#     4  12  24  39  63  92 119 146 182 232 289 346
#     4  10  21  38  59  80 111 149 187 231 274 339
#
# _framework density 20.751919000000001
#
# number of rings (size 3 to 8) (size 9 to 14) (size 15 to 20)
#    0.000    1.250    0.000    7.125    0.000    6.500 
#    0.000    3.750    0.000    0.375    0.000    0.000 
#    0.000    8.000    0.000    0.000    0.000    2.000 
#
# Total GULP energy -178614.455352 kJ/mol
# GULP energy per Si atom -5581.701730 kJ/mol
# Density = 2.070469 g / cm^3
# Si number density = 20.751919 Si / 1000 Ang^3
#
#
#
# Elastic Constant Matrix: (Units=GPa)
#
#
# Indices 1 2 3 4 5 6 
#
# 1 56.7806 37.9412 5.8209 0.0000 -8.0592 0.0000
# 2 37.9412 146.5165 9.9514 0.0000 -2.0427 0.0000
# 3 5.8209 9.9514 95.0114 0.0000 -9.8200 0.0000
# 4 0.0000 0.0000 0.0000 -225.4325 0.0000 -47.1141
# 5 -8.0592 -2.0427 -9.8200 0.0000 22.3247 0.0000
# 6 0.0000 0.0000 0.0000 -47.1141 0.0000 1.3307
#
#
#
# Elastic Compliance Matrix: (Units=1/GPa)
#
#
# Indices 1 2 3 4 5 6 
#
# 1 0.022516 -0.005725 0.000006 0.000000 0.007607 0.000000
# 2 -0.005725 0.008332 -0.000688 0.000000 -0.001607 0.000000
# 3 0.000006 -0.000688 0.011095 0.000000 0.004820 0.000000
# 4 0.000000 0.000000 0.000000 -0.000528 0.000000 -0.018698
# 5 0.007607 -0.001607 0.004820 0.000000 0.049513 0.000000
# 6 0.000000 0.000000 0.000000 -0.018698 0.000000 0.089467
#
#
# Mechanical properties :
#
#
# Convention : Reuss Voigt Hill
#
# Bulk Modulus (GPa) = 34.32911 45.08174 39.70543
# Shear Modulus (GPa) = 24.64050 -24.04907 0.29571
#
# Velocity S-wave (km/s) = 3.44958 -3.40793 0.37790
# Velocity P-wave (km/s) = 5.69602 2.50718 4.40060
#
# Compressibility (1/GPa) = 0.02912980
#
# Stress axis : x y z
#
# Youngs Moduli (GPa) = 44.41232 120.01867 90.13183
#
# Poissons Ratio (x) = 0.68712 -0.00058
# Poissons Ratio (y) = 0.25426 0.06201
# Poissons Ratio (z) = -0.00029 0.08258
#
# Static dielectric constant tensor:
#      x y z
#    x 1.773500 0.000000 0.009910 
#    y 0.000000 1.836300 0.000000 
#    z 0.009910 0.000000 1.722610 
# 
# From -- ./inp_files/67954.got.cif
#   From: 2010.05.17/outbox.cif.g08.bks.cpg/sg10_34_cif.got.tgz:67954.got - 2010.06.03 11:33:40.
