data_PCOD9148909
_publ_section_title
;
Structure prediction by ZEFSAII (Michael W. Deem and Ramdas Pophale) SiO2 
 PCOD9148909
Probable space group: P 2/M
;
_chemical_formula_sum "Si O2"
_cell_formula_units_Z 28
_cell_length_a 14.510342
_cell_length_b 7.603102
_cell_length_c 17.863262
_cell_angle_alpha 90.000000
_cell_angle_beta 136.585434
_cell_angle_gamma 90.000000
_cell_volume 1354.434513
_symmetry_space_group_name_H-M "P 2/M"
_symmetry_group_IT_number 10
_symmetry_cell_setting 'monoclinic'
loop_
_space_group_symop_operation_xyz
x,y,z
-x,y,-z
-x,-y,-z
x,-y,z
loop_
_atom_site_type_symbol
_atom_site_label
_atom_site_fract_x
_atom_site_fract_y
_atom_site_fract_z
Si Si1 0.820646 0.199223 0.649325
Si Si2 0.552077 0.213858 0.229489
Si Si3 0.639094 0.785246 0.121377
Si Si4 0.427406 0.213512 0.591018
Si Si5 0.261816 0.698325 0.242841
Si Si6 0.887589 0.783658 0.165928
Si Si7 0.756356 0.211720 0.937091
O O1 0.688439 0.277562 0.532832
O O2 0.798206 0.191343 0.725105
O O3 0.966548 0.279589 0.722788
O O4 0.827117 0.000000 0.623057
O O5 0.631388 0.272793 0.203072
O O6 0.605167 0.263731 0.342517
O O7 0.396080 0.270193 0.134450
O O8 0.550610 0.000000 0.226724
O O9 0.767467 0.728635 0.149694
O O10 0.640790 0.000000 0.121506
O O11 0.500000 0.732319 0.000000
O O12 0.577001 0.278772 0.662265
O O13 0.437657 0.000000 0.592502
O O14 0.227483 0.500000 0.241446
O O15 0.212965 0.737279 0.129984
O O16 0.890250 0.000000 0.167097
O O17 0.852474 0.728076 0.060380
O O18 0.754795 0.000000 0.937642
#
# Coordination Sequence:
#
# PCOD9148909 Si02
#       7
#     4   4   4   4   4   4   4
#     4  10  20  34  49  69 100 134 166 199 239 288
#     4   8  13  23  43  71  99 125 156 194 238 280
#     4   9  13  21  42  74 104 127 155 196 239 279
#     4   9  18  33  52  72  97 130 164 201 242 286
#     4  11  22  34  51  73  94 122 166 212 251 289
#     4   9  17  28  46  73 103 134 164 193 234 293
#     4   9  16  30  50  73 100 129 161 197 241 290
#
# _framework density 20.672832
#
# number of rings (size 3 to 8) (size 9 to 14) (size 15 to 20)
#    0.000    2.714    1.429    2.571    0.000    2.857 
#    0.000    4.286    0.000    4.286    0.000   12.000 
#    0.000    5.714    0.000    0.000    0.000    0.000 
#
# Total GULP energy -156219.494407 kJ/mol
# GULP energy per Si atom -5579.267657 kJ/mol
# Density = 2.062578 g / cm^3
# Si number density = 20.672832 Si / 1000 Ang^3
#
#
#
# Elastic Constant Matrix: (Units=GPa)
#
#
# Indices 1 2 3 4 5 6 
#
# 1 79.4351 -9.3132 6.0676 0.0000 -4.2435 0.0000
# 2 -9.3132 49.1105 -2.2244 0.0000 0.3931 0.0000
# 3 6.0676 -2.2244 15.1721 0.0000 -2.4098 0.0000
# 4 0.0000 0.0000 0.0000 -8.1689 0.0000 -0.7507
# 5 -4.2435 0.3931 -2.4098 0.0000 22.7214 0.0000
# 6 0.0000 0.0000 0.0000 -0.7507 0.0000 -58.6251
#
#
#
# Elastic Compliance Matrix: (Units=1/GPa)
#
#
# Indices 1 2 3 4 5 6 
#
# 1 0.013320 0.002298 -0.004680 0.000000 0.001952 0.000000
# 2 0.002298 0.020895 0.002192 0.000000 0.000300 0.000000
# 3 -0.004680 0.002192 0.069123 0.000000 0.006419 0.000000
# 4 0.000000 0.000000 0.000000 -0.122559 0.000000 0.001569
# 5 0.001952 0.000300 0.006419 0.000000 0.045051 0.000000
# 6 0.000000 0.000000 0.000000 0.001569 0.000000 -0.017078
#
#
# Mechanical properties :
#
#
# Convention : Reuss Voigt Hill
#
# Bulk Modulus (GPa) = 9.71261 14.75308 12.23284
# Shear Modulus (GPa) = 115.06997 1.13133 58.10065
#
# Velocity S-wave (km/s) = 7.46882 0.74057 5.30715
# Velocity P-wave (km/s) = 8.89304 2.80770 6.59429
#
# Compressibility (1/GPa) = 0.10295891
#
# Stress axis : x y z
#
# Youngs Moduli (GPa) = 75.07453 47.85836 14.46692
#
# Poissons Ratio (x) = -0.11000 0.06771
# Poissons Ratio (y) = -0.17255 -0.03171
# Poissons Ratio (z) = 0.35135 -0.10490
#
# Static dielectric constant tensor:
#      x y z
#    x 1.714670 0.000000 -0.010490 
#    y 0.000000 1.793560 0.000000 
#    z -0.010490 0.000000 1.737060 
# 
# From -- ./inp_files/68607.got.cif
#   From: 2010.05.17/outbox.cif.g08.bks.cpg/sg10_35_cif.got.tgz:68607.got - 2010.06.03 11:33:40.
