data_PCOD9148304
_publ_section_title
;
Structure prediction by ZEFSAII (Michael W. Deem and Ramdas Pophale) SiO2 
 PCOD9148304
Probable space group: P 2/M
;
_chemical_formula_sum "Si O2"
_cell_formula_units_Z 32
_cell_length_a 24.724914
_cell_length_b 7.641362
_cell_length_c 18.421360
_cell_angle_alpha 90.000000
_cell_angle_beta 30.188489
_cell_angle_gamma 90.000000
_cell_volume 1750.098579
_symmetry_space_group_name_H-M "P 2/M"
_symmetry_group_IT_number 10
_symmetry_cell_setting 'monoclinic'
loop_
_space_group_symop_operation_xyz
x,y,z
-x,y,-z
-x,-y,-z
x,-y,z
loop_
_atom_site_type_symbol
_atom_site_label
_atom_site_fract_x
_atom_site_fract_y
_atom_site_fract_z
Si Si1 0.968011 0.211993 0.454911
Si Si2 0.605537 0.701217 0.711497
Si Si3 0.631303 0.202922 0.975577
Si Si4 0.560617 0.715567 0.605338
Si Si5 0.626210 0.296775 0.376578
Si Si6 0.722628 0.295639 0.715500
Si Si7 0.320911 0.288886 0.838319
Si Si8 0.183250 0.791542 0.132498
O O1 0.850829 0.279788 0.570757
O O2 0.000000 0.261037 0.500000
O O3 0.065036 0.273168 0.290603
O O4 0.961157 0.000000 0.460959
O O5 0.641658 0.500000 0.661692
O O6 0.605290 0.777078 0.630596
O O7 0.675708 0.780183 0.694989
O O8 0.481669 0.704342 0.880858
O O9 0.671344 0.211967 0.846618
O O10 0.725560 0.276879 0.917810
O O11 0.613672 0.000000 0.015629
O O12 0.560374 0.500000 0.605337
O O13 0.625706 0.776301 0.458558
O O14 0.435505 0.768402 0.739841
O O15 0.500000 0.295754 0.500000
O O16 0.659390 0.500000 0.344431
O O17 0.685364 0.221307 0.237278
O O18 0.691908 0.500000 0.754366
O O19 0.326176 0.500000 0.828068
O O20 0.225358 0.241038 0.002955
O O21 0.179581 0.000000 0.149042
#
# Coordination Sequence:
#
# PCOD9148304 Si02
#       8
#     4   4   4   4   4   4   4   4
#     4  10  20  38  55  66  87 121 161 200 239 283
#     4  10  20  33  48  71 100 127 156 193 234 276
#     4  11  21  34  50  68  94 129 164 192 227 279
#     4   8  13  24  43  66  95 127 152 180 224 274
#     4   7  11  20  38  66  93 119 153 184 215 269
#     4  11  23  35  49  71  96 121 157 202 241 276
#     4   9  15  25  45  70  94 121 154 189 225 275
#     4  10  20  32  48  69  93 122 155 195 236 276
#
# _framework density 18.284685
#
# number of rings (size 3 to 8) (size 9 to 14) (size 15 to 20)
#    0.000    2.500    2.500    2.625    0.000    3.750 
#    0.000    0.000    0.000    4.125    0.000    0.875 
#    0.000    7.000    0.000    0.000    0.000    0.000 
#
# Total GULP energy -178412.823306 kJ/mol
# GULP energy per Si atom -5575.400728 kJ/mol
# Density = 1.824307 g / cm^3
# Si number density = 18.284685 Si / 1000 Ang^3
#
#
#
# Elastic Constant Matrix: (Units=GPa)
#
#
# Indices 1 2 3 4 5 6 
#
# 1 118.5395 -5.0434 64.0401 0.0000 24.2454 0.0000
# 2 -5.0434 35.6513 -8.1011 0.0000 -0.9500 0.0000
# 3 64.0401 -8.1011 77.5277 0.0000 32.2205 0.0000
# 4 0.0000 0.0000 0.0000 23.5740 0.0000 3.6733
# 5 24.2454 -0.9500 32.2205 0.0000 31.0414 0.0000
# 6 0.0000 0.0000 0.0000 3.6733 0.0000 8.8334
#
#
#
# Elastic Compliance Matrix: (Units=1/GPa)
#
#
# Indices 1 2 3 4 5 6 
#
# 1 0.015335 -0.000878 -0.013665 0.000000 0.002179 0.000000
# 2 -0.000878 0.029058 0.005464 0.000000 -0.004097 0.000000
# 3 -0.013665 0.005464 0.035616 0.000000 -0.026129 0.000000
# 4 0.000000 0.000000 0.000000 0.045359 0.000000 -0.018862
# 5 0.002179 -0.004097 -0.026129 0.000000 0.057509 0.000000
# 6 0.000000 0.000000 0.000000 -0.018862 0.000000 0.121051
#
#
# Mechanical properties :
#
#
# Convention : Reuss Voigt Hill
#
# Bulk Modulus (GPa) = 16.16762 37.05663 26.61212
# Shear Modulus (GPa) = 14.58997 24.74462 19.66729
#
# Velocity S-wave (km/s) = 2.82784 3.68271 3.28322
# Velocity P-wave (km/s) = 4.41855 6.19626 5.38132
#
# Compressibility (1/GPa) = 0.06185202
#
# Stress axis : x y z
#
# Youngs Moduli (GPa) = 65.20957 34.41426 28.07735
#
# Poissons Ratio (x) = 0.03020 0.38366
# Poissons Ratio (y) = 0.05723 -0.15341
# Poissons Ratio (z) = 0.89106 -0.18803
#
# Static dielectric constant tensor:
#      x y z
#    x 1.649740 0.000000 0.039260 
#    y 0.000000 1.690690 0.000000 
#    z 0.039260 0.000000 1.618460 
# 
# From -- ./inp_files/54871.got.cif
#   From: 2010.05.17/outbox.cif.g08.bks.cpg/sg10_28_cif.got.tgz:54871.got - 2010.06.03 11:33:40.
