data_PCOD9148960
_publ_section_title
;
Structure prediction by ZEFSAII (Michael W. Deem and Ramdas Pophale) SiO2 
 PCOD9148960
Probable space group: P 2/M
;
_chemical_formula_sum "Si O2"
_cell_formula_units_Z 20
_cell_length_a 9.742277
_cell_length_b 7.493490
_cell_length_c 13.581789
_cell_angle_alpha 90.000000
_cell_angle_beta 48.350319
_cell_angle_gamma 90.000000
_cell_volume 740.885858
_symmetry_space_group_name_H-M "P 2/M"
_symmetry_group_IT_number 10
_symmetry_cell_setting 'monoclinic'
loop_
_space_group_symop_operation_xyz
x,y,z
-x,y,-z
-x,-y,-z
x,-y,z
loop_
_atom_site_type_symbol
_atom_site_label
_atom_site_fract_x
_atom_site_fract_y
_atom_site_fract_z
Si Si1 0.611398 0.216088 0.653713
Si Si2 0.693537 0.795861 0.883378
Si Si3 0.742374 0.704400 0.070055
Si Si4 0.049904 0.219970 0.621753
Si Si5 0.731020 0.789864 0.292649
O O1 0.479987 0.276520 0.804936
O O2 0.817094 0.273022 0.530895
O O3 0.478351 0.272263 0.625859
O O4 0.613263 0.000000 0.656704
O O5 0.841480 0.719769 0.737361
O O6 0.656674 0.000000 0.869318
O O7 0.500000 0.706005 0.000000
O O8 0.786871 0.802670 0.947814
O O9 0.790180 0.500000 0.033054
O O10 0.815412 0.763923 0.142553
O O11 0.155932 0.281295 0.670139
O O12 0.040741 0.000000 0.623634
O O13 0.718566 0.000000 0.316806
#
# Coordination Sequence:
#
# PCOD9148960 Si02
#       5
#     4   4   4   4   4
#     4   8  15  30  53  79 103 129 161 203 251 298
#     4  10  21  37  55  74  97 129 172 216 251 289
#     4  10  20  34  51  73 106 139 164 198 250 302
#     4   9  16  30  55  81 101 128 167 207 250 295
#     4   8  15  29  53  79 104 129 160 203 250 298
#
# _framework density 26.994710999999999
#
# number of rings (size 3 to 8) (size 9 to 14) (size 15 to 20)
#    1.200    1.800    0.000    1.800    0.000    3.600 
#    0.000    9.000    0.000    6.000    0.000    0.000 
#    0.000    0.000    0.000    0.000    0.000    0.000 
#
# Total GULP energy -111603.932199 kJ/mol
# GULP energy per Si atom -5580.196610 kJ/mol
# Density = 2.693327 g / cm^3
# Si number density = 26.994711 Si / 1000 Ang^3
#
#
#
# Elastic Constant Matrix: (Units=GPa)
#
#
# Indices 1 2 3 4 5 6 
#
# 1 95.1310 -2.2656 55.8304 0.0000 11.0608 0.0000
# 2 -2.2656 72.2044 -5.7284 0.0000 -12.9585 0.0000
# 3 55.8304 -5.7284 205.5400 0.0000 4.1775 0.0000
# 4 0.0000 0.0000 0.0000 27.6475 0.0000 -1.2612
# 5 11.0608 -12.9585 4.1775 0.0000 45.5100 0.0000
# 6 0.0000 0.0000 0.0000 -1.2612 0.0000 -11.1636
#
#
#
# Elastic Compliance Matrix: (Units=1/GPa)
#
#
# Indices 1 2 3 4 5 6 
#
# 1 0.012865 -0.000394 -0.003446 0.000000 -0.002923 0.000000
# 2 -0.000394 0.014629 0.000429 0.000000 0.004222 0.000000
# 3 -0.003446 0.000429 0.005805 0.000000 0.000427 0.000000
# 4 0.000000 0.000000 0.000000 0.035984 0.000000 -0.004065
# 5 -0.002923 0.004222 0.000427 0.000000 0.023846 0.000000
# 6 0.000000 0.000000 0.000000 -0.004065 0.000000 -0.089117
#
#
# Mechanical properties :
#
#
# Convention : Reuss Voigt Hill
#
# Bulk Modulus (GPa) = 37.77061 52.06093 44.91577
# Shear Modulus (GPa) = 254.33524 34.06803 144.20163
#
# Velocity S-wave (km/s) = 9.71706 3.55635 7.31672
# Velocity P-wave (km/s) = 11.82866 6.01590 9.38372
#
# Compressibility (1/GPa) = 0.02647561
#
# Stress axis : x y z
#
# Youngs Moduli (GPa) = 77.73267 68.35769 172.27904
#
# Poissons Ratio (x) = 0.02695 0.59367
# Poissons Ratio (y) = 0.03065 -0.07391
# Poissons Ratio (z) = 0.26786 -0.02932
#
# Static dielectric constant tensor:
#      x y z
#    x 2.247360 0.000000 -0.030520 
#    y 0.000000 1.979970 0.000000 
#    z -0.030520 0.000000 2.116210 
# 
# From -- ./inp_files/63268.got.cif
#   From: 2010.05.17/outbox.cif.g08.bks.cpg/sg10_32_cif.got.tgz:63268.got - 2010.06.03 11:33:40.
