data_PCOD9148080
_publ_section_title
;
Structure prediction by ZEFSAII (Michael W. Deem and Ramdas Pophale) SiO2 
 PCOD9148080
Probable space group: P 2/M
;
_chemical_formula_sum "Si O2"
_cell_formula_units_Z 24
_cell_length_a 20.424744
_cell_length_b 13.038483
_cell_length_c 12.145206
_cell_angle_alpha 90.000000
_cell_angle_beta 158.893376
_cell_angle_gamma 90.000000
_cell_volume 1164.708701
_symmetry_space_group_name_H-M "P 2/M"
_symmetry_group_IT_number 10
_symmetry_cell_setting 'monoclinic'
loop_
_space_group_symop_operation_xyz
x,y,z
-x,y,-z
-x,-y,-z
x,-y,z
loop_
_atom_site_type_symbol
_atom_site_label
_atom_site_fract_x
_atom_site_fract_y
_atom_site_fract_z
Si Si1 0.808911 0.234532 0.235887
Si Si2 0.459987 0.206427 0.809985
Si Si3 0.049378 0.323144 0.325794
Si Si4 0.791035 0.613159 0.634931
Si Si5 0.309227 0.615582 0.141444
Si Si6 0.089322 0.112290 0.260317
O O1 0.000000 0.181931 0.500000
O O2 0.871451 0.314713 0.428081
O O3 0.644031 0.175254 0.036399
O O4 0.729809 0.297402 0.009487
O O5 0.359444 0.299090 0.585329
O O6 0.305002 0.121416 0.578565
O O7 0.500000 0.237202 0.000000
O O8 0.180596 0.385022 0.452099
O O9 0.038746 0.207652 0.259005
O O10 0.851688 0.372193 0.021965
O O11 0.741327 0.500000 0.597361
O O12 0.000000 0.636893 0.000000
O O13 0.500000 0.629716 0.500000
O O14 0.300850 0.500000 0.081842
O O15 0.041273 0.000000 0.229539
O O16 0.000000 0.123642 0.000000
#
# Coordination Sequence:
#
# PCOD9148080 Si02
#       6
#     4   4   4   4   4   4
#     4  10  22  38  56  82 119 159 198 239 294 352
#     4  11  20  38  60  88 117 154 201 251 302 359
#     4  10  19  39  57  80 118 156 194 247 302 348
#     4  10  21  33  52  82 117 154 193 244 301 355
#     4  10  23  37  57  86 117 164 212 245 289 356
#     4  10  22  39  65  94 119 151 196 250 312 370
#
# _framework density 20.606010999999999
#
# number of rings (size 3 to 8) (size 9 to 14) (size 15 to 20)
#    0.000    1.833    3.333    2.500    4.667    5.000 
#    0.000    0.000    0.000    9.500    0.000    0.000 
#    0.000    0.000    0.000    0.000    0.000    0.000 
#
# Total GULP energy -133800.481719 kJ/mol
# GULP energy per Si atom -5575.020072 kJ/mol
# Density = 2.055911 g / cm^3
# Si number density = 20.606011 Si / 1000 Ang^3
#
#
#
# Elastic Constant Matrix: (Units=GPa)
#
#
# Indices 1 2 3 4 5 6 
#
# 1 65.0458 -8.0884 16.9025 0.0000 16.1956 0.0000
# 2 -8.0884 84.7373 9.0663 0.0000 -14.7736 0.0000
# 3 16.9025 9.0663 95.4923 0.0000 8.9413 0.0000
# 4 0.0000 0.0000 0.0000 -45.5405 0.0000 8.6191
# 5 16.1956 -14.7736 8.9413 0.0000 32.1390 0.0000
# 6 0.0000 0.0000 0.0000 8.6191 0.0000 5.4763
#
#
#
# Elastic Compliance Matrix: (Units=1/GPa)
#
#
# Indices 1 2 3 4 5 6 
#
# 1 0.018130 0.000572 -0.002498 0.000000 -0.008179 0.000000
# 2 0.000572 0.013162 -0.001941 0.000000 0.006302 0.000000
# 3 -0.002498 -0.001941 0.011360 0.000000 -0.002794 0.000000
# 4 0.000000 0.000000 0.000000 -0.016919 0.000000 0.026628
# 5 -0.008179 0.006302 -0.002794 0.000000 0.038910 0.000000
# 6 0.000000 0.000000 0.000000 0.026628 0.000000 0.140696
#
#
# Mechanical properties :
#
#
# Convention : Reuss Voigt Hill
#
# Bulk Modulus (GPa) = 28.63760 31.22625 29.93193
# Shear Modulus (GPa) = 22.25060 13.57462 17.91261
#
# Velocity S-wave (km/s) = 3.28961 2.56944 2.95157
# Velocity P-wave (km/s) = 5.32509 4.89791 5.11596
#
# Compressibility (1/GPa) = 0.03491912
#
# Stress axis : x y z
#
# Youngs Moduli (GPa) = 55.15633 75.97518 88.02784
#
# Poissons Ratio (x) = -0.04345 0.21986
# Poissons Ratio (y) = -0.03155 0.17086
# Poissons Ratio (z) = 0.13776 0.14747
#
# Static dielectric constant tensor:
#      x y z
#    x 1.785340 0.000000 -0.001660 
#    y 0.000000 1.707670 0.000000 
#    z -0.001660 0.000000 1.789110 
# 
# From -- ./inp_files/29309.got.cif
#   From: 2010.05.17/outbox.cif.g08.bks.cpg/sg10_15_cif.got.tgz:29309.got - 2010.06.03 11:33:40.
