data_PCOD9148939
_publ_section_title
;
Structure prediction by ZEFSAII (Michael W. Deem and Ramdas Pophale) SiO2 
 PCOD9148939
Probable space group: P 2/M
;
_chemical_formula_sum "Si O2"
_cell_formula_units_Z 32
_cell_length_a 18.897677
_cell_length_b 9.093538
_cell_length_c 18.975048
_cell_angle_alpha 90.000000
_cell_angle_beta 35.253810
_cell_angle_gamma 90.000000
_cell_volume 1882.132231
_symmetry_space_group_name_H-M "P 2/M"
_symmetry_group_IT_number 10
_symmetry_cell_setting 'monoclinic'
loop_
_space_group_symop_operation_xyz
x,y,z
-x,y,-z
-x,-y,-z
x,-y,z
loop_
_atom_site_type_symbol
_atom_site_label
_atom_site_fract_x
_atom_site_fract_y
_atom_site_fract_z
Si Si1 0.029682 0.828328 0.556567
Si Si2 0.406919 0.678806 0.637869
Si Si3 0.318943 0.172080 0.329900
Si Si4 0.495588 0.676446 0.721230
Si Si5 0.360622 0.171212 0.137832
Si Si6 0.861190 0.320630 0.092597
Si Si7 0.769023 0.678443 0.014260
Si Si8 0.168723 0.324214 0.191677
O O1 0.173277 0.816224 0.453657
O O2 0.000000 0.785854 0.500000
O O3 0.954252 0.730759 0.671618
O O4 0.993652 0.000000 0.593087
O O5 0.500000 0.728447 0.500000
O O6 0.403207 0.500000 0.637017
O O7 0.469061 0.719029 0.662035
O O8 0.261615 0.724273 0.762297
O O9 0.388664 0.254323 0.335082
O O10 0.352125 0.228582 0.224680
O O11 0.353617 0.000000 0.304347
O O12 0.505212 0.500000 0.714820
O O13 0.373532 0.719950 0.863526
O O14 0.276949 0.258519 0.151488
O O15 0.318958 0.000000 0.173228
O O16 0.500000 0.175463 0.000000
O O17 0.861270 0.500000 0.095019
O O18 0.834473 0.274766 0.033398
O O19 0.000000 0.273521 0.000000
O O20 0.773811 0.500000 0.011130
O O21 0.821986 0.728419 0.896745
O O22 0.176306 0.500000 0.185858
#
# Coordination Sequence:
#
# PCOD9148939 Si02
#       8
#     4   4   4   4   4   4   4   4
#     4  10  20  38  55  64  90 133 168 201 244 292
#     4   8  14  26  44  69  99 128 160 197 238 285
#     4  10  20  34  51  70  93 124 163 204 240 283
#     4   9  17  31  51  72 101 132 155 192 247 295
#     4  10  20  34  52  72  94 125 167 206 238 287
#     4   8  13  24  43  64  92 133 166 187 229 292
#     4   8  16  30  45  68 103 132 152 190 247 291
#     4  11  21  32  49  73 101 126 158 204 248 293
#
# _framework density 17.001994
#
# number of rings (size 3 to 8) (size 9 to 14) (size 15 to 20)
#    0.000    2.750    1.250    2.625    0.000    1.500 
#    2.250    0.625    0.000    0.375    0.000    0.000 
#    0.000    4.500    0.000    0.000    0.000    0.000 
#
# Total GULP energy -178206.496008 kJ/mol
# GULP energy per Si atom -5568.953000 kJ/mol
# Density = 1.696330 g / cm^3
# Si number density = 17.001994 Si / 1000 Ang^3
#
#
#
# Elastic Constant Matrix: (Units=GPa)
#
#
# Indices 1 2 3 4 5 6 
#
# 1 100.3767 21.9100 62.8228 0.0000 -4.2647 0.0000
# 2 21.9100 14.7007 23.2385 0.0000 2.6964 0.0000
# 3 62.8228 23.2385 110.2990 0.0000 12.2679 0.0000
# 4 0.0000 0.0000 0.0000 0.4084 0.0000 2.5358
# 5 -4.2647 2.6964 12.2679 0.0000 29.6926 0.0000
# 6 0.0000 0.0000 0.0000 2.5358 0.0000 -5.6626
#
#
#
# Elastic Compliance Matrix: (Units=1/GPa)
#
#
# Indices 1 2 3 4 5 6 
#
# 1 0.019094 -0.016980 -0.008149 0.000000 0.007651 0.000000
# 2 -0.016980 0.117096 -0.014198 0.000000 -0.007206 0.000000
# 3 -0.008149 -0.014198 0.017489 0.000000 -0.007107 0.000000
# 4 0.000000 0.000000 0.000000 0.647676 0.000000 0.290039
# 5 0.007651 -0.007206 -0.007107 0.000000 0.038368 0.000000
# 6 0.000000 0.000000 0.000000 0.290039 0.000000 -0.046715
#
#
# Mechanical properties :
#
#
# Convention : Reuss Voigt Hill
#
# Bulk Modulus (GPa) = 13.32865 49.03545 31.18205
# Shear Modulus (GPa) = 5.57618 12.71469 9.14544
#
# Velocity S-wave (km/s) = 1.81297 2.73762 2.32179
# Velocity P-wave (km/s) = 3.49842 6.23670 5.05645
#
# Compressibility (1/GPa) = 0.07502635
#
# Stress axis : x y z
#
# Youngs Moduli (GPa) = 52.37241 8.54001 57.17722
#
# Poissons Ratio (x) = 0.14501 0.46594
# Poissons Ratio (y) = 0.88926 0.81180
# Poissons Ratio (z) = 0.42678 0.12125
#
# Static dielectric constant tensor:
#      x y z
#    x 1.556500 0.000000 0.007780 
#    y 0.000000 1.568650 0.000000 
#    z 0.007780 0.000000 1.584940 
# 
# From -- ./inp_files/86124.got.cif
#   From: 2010.05.17/outbox.cif.g08.bks.cpg/sg10_44_cif.got.tgz:86124.got - 2010.06.03 11:33:40.
