data_PCOD9148259
_publ_section_title
;
Structure prediction by ZEFSAII (Michael W. Deem and Ramdas Pophale) SiO2 
 PCOD9148259
Probable space group: P 2/M
;
_chemical_formula_sum "Si O2"
_cell_formula_units_Z 26
_cell_length_a 12.565500
_cell_length_b 26.005870
_cell_length_c 5.221287
_cell_angle_alpha 90.000000
_cell_angle_beta 105.020842
_cell_angle_gamma 90.000000
_cell_volume 1647.897308
_symmetry_space_group_name_H-M "P 2/M"
_symmetry_group_IT_number 10
_symmetry_cell_setting 'monoclinic'
loop_
_space_group_symop_operation_xyz
x,y,z
-x,y,-z
-x,-y,-z
x,-y,z
loop_
_atom_site_type_symbol
_atom_site_label
_atom_site_fract_x
_atom_site_fract_y
_atom_site_fract_z
Si Si1 0.575678 0.500000 0.796116
Si Si2 0.366509 0.239227 0.920011
Si Si3 0.365586 0.878414 0.912178
Si Si4 0.634270 0.940827 0.587054
Si Si5 0.874272 0.560753 0.353369
Si Si6 0.745200 0.589986 0.788078
Si Si7 0.633302 0.302281 0.581413
O O1 0.500000 0.500000 0.500000
O O2 0.652497 0.550077 0.826498
O O3 0.500000 0.500000 0.000000
O O4 0.328258 0.180555 0.865064
O O5 0.334273 0.277178 0.669399
O O6 0.500000 0.237518 0.000000
O O7 0.336456 0.262602 0.174796
O O8 0.331066 0.912945 0.651201
O O9 0.500000 0.877314 0.000000
O O10 0.331209 0.906414 0.151006
O O11 0.500000 0.941684 0.500000
O O12 0.670328 0.000000 0.627725
O O13 0.869807 0.500000 0.282591
O O14 0.802365 0.569403 0.564357
O O15 0.000000 0.573735 0.500000
O O16 0.829519 0.591561 0.079652
O O17 0.690380 0.644015 0.681472
O O18 0.500000 0.309136 0.500000
#
# Coordination Sequence:
#
# PCOD9148259 Si02
#       7
#     2   4   4   4   4   4   4
#     4  12  24  36  51  74 103 130 154 178 218 286
#     4   9  17  29  42  58  79 112 152 185 221 264
#     4   9  15  23  35  48  68  99 137 179 222 268
#     4   9  15  21  30  47  69  94 128 177 235 278
#     4  11  22  39  59  77  95 118 152 191 231 280
#     4  12  22  38  54  76  98 125 152 187 236 279
#     4  10  20  32  47  66  92 120 149 185 225 274
#
# _framework density 15.777680999999999
#
# number of rings (size 3 to 8) (size 9 to 14) (size 15 to 20)
#    0.000    1.846    1.538    4.154    0.000    8.615 
#    0.000    0.000    0.000    0.000    0.000    0.000 
#    0.000    0.000    0.000    0.000    0.000    0.000 
#
# Total GULP energy -145028.314690 kJ/mol
# GULP energy per Si atom -5578.012103 kJ/mol
# Density = 1.574177 g / cm^3
# Si number density = 15.777681 Si / 1000 Ang^3
#
#
#
# Elastic Constant Matrix: (Units=GPa)
#
#
# Indices 1 2 3 4 5 6 
#
# 1 26.3543 21.9578 23.2000 0.0000 0.0264 0.0000
# 2 21.9578 120.1375 51.6475 0.0000 4.6189 0.0000
# 3 23.2000 51.6475 128.9604 0.0000 -7.7392 0.0000
# 4 0.0000 0.0000 0.0000 22.0787 0.0000 -7.2915
# 5 0.0264 4.6189 -7.7392 0.0000 18.4444 0.0000
# 6 0.0000 0.0000 0.0000 -7.2915 0.0000 4.5856
#
#
#
# Elastic Compliance Matrix: (Units=1/GPa)
#
#
# Indices 1 2 3 4 5 6 
#
# 1 0.048646 -0.006101 -0.006381 0.000000 -0.001219 0.000000
# 2 -0.006101 0.011167 -0.003633 0.000000 -0.004312 0.000000
# 3 -0.006381 -0.003633 0.010682 0.000000 0.005401 0.000000
# 4 0.000000 0.000000 0.000000 0.095379 0.000000 0.151661
# 5 -0.001219 -0.004312 0.005401 0.000000 0.057565 0.000000
# 6 0.000000 0.000000 0.000000 0.151661 0.000000 0.459232
#
#
# Mechanical properties :
#
#
# Convention : Reuss Voigt Hill
#
# Bulk Modulus (GPa) = 26.13469 52.11809 39.12639
# Shear Modulus (GPa) = 6.87138 20.93153 13.90145
#
# Velocity S-wave (km/s) = 2.08916 3.64628 2.97153
# Velocity P-wave (km/s) = 4.73495 7.12963 6.05192
#
# Compressibility (1/GPa) = 0.03826331
#
# Stress axis : x y z
#
# Youngs Moduli (GPa) = 20.55653 89.55224 93.61915
#
# Poissons Ratio (x) = 0.54636 0.59741
# Poissons Ratio (y) = 0.12541 0.34015
# Poissons Ratio (z) = 0.13118 0.32538
#
# Static dielectric constant tensor:
#      x y z
#    x 1.503830 0.000000 -0.002120 
#    y 0.000000 1.524990 0.000000 
#    z -0.002120 0.000000 1.538520 
# 
# From -- ./inp_files/7607.got.cif
#   From: 2010.05.17/outbox.cif.g08.bks.cpg/sg10_4_cif.got.tgz:7607.got - 2010.06.03 11:33:40.
