data_PCOD9148602
_publ_section_title
;
Structure prediction by ZEFSAII (Michael W. Deem and Ramdas Pophale) SiO2 
 PCOD9148602
Probable space group: P 2/M
;
_chemical_formula_sum "Si O2"
_cell_formula_units_Z 28
_cell_length_a 9.278976
_cell_length_b 8.816914
_cell_length_c 29.794798
_cell_angle_alpha 90.000000
_cell_angle_beta 38.869522
_cell_angle_gamma 90.000000
_cell_volume 1529.694608
_symmetry_space_group_name_H-M "P 2/M"
_symmetry_group_IT_number 10
_symmetry_cell_setting 'monoclinic'
loop_
_space_group_symop_operation_xyz
x,y,z
-x,y,-z
-x,-y,-z
x,-y,z
loop_
_atom_site_type_symbol
_atom_site_label
_atom_site_fract_x
_atom_site_fract_y
_atom_site_fract_z
Si Si1 0.954692 0.683213 0.285264
Si Si2 0.205339 0.818798 0.850116
Si Si3 0.905847 0.685100 0.571206
Si Si4 0.761879 0.685100 0.428794
Si Si5 0.618991 0.683213 0.285263
Si Si6 0.175177 0.324958 1.000000
Si Si7 0.544079 0.181202 0.850116
O O1 0.972962 0.500000 0.281406
O O2 0.860731 0.732256 0.356672
O O3 0.774834 0.724999 0.290067
O O4 0.203287 0.751317 0.215137
O O5 0.278972 0.751317 0.784863
O O6 0.396492 0.776722 0.841403
O O7 0.962627 0.755320 0.926701
O O8 0.194718 0.000000 0.850636
O O9 0.907006 0.500000 0.570617
O O10 0.644093 0.732256 0.643328
O O11 0.000000 0.734501 0.500000
O O12 0.072888 0.734150 0.570845
O O13 0.500000 0.734501 0.500000
O O14 0.760092 0.500000 0.429383
O O15 0.620006 0.500000 0.281406
O O16 0.219515 0.500000 1.000000
O O17 0.403866 0.244679 0.926701
O O18 0.000000 0.319190 0.000000
O O19 0.552104 0.000000 0.850635
#
# Coordination Sequence:
#
# PCOD9148602 Si02
#       7
#     4   4   4   4   4   4   4
#     4  10  20  33  50  74 104 138 177 219 261 307
#     4  10  20  34  53  77 105 137 173 213 259 312
#     4   9  16  27  46  73 104 136 171 214 262 309
#     4   9  16  27  46  73 104 136 171 214 262 309
#     4  10  20  33  50  74 104 138 177 219 261 307
#     4   9  17  31  54  81 106 133 168 212 260 309
#     4  10  20  34  53  77 105 137 173 213 259 312
#
# _framework density 18.304307000000001
#
# number of rings (size 3 to 8) (size 9 to 14) (size 15 to 20)
#    0.000    2.429    0.000    3.000    0.000    8.571 
#    0.000    0.714    0.000    5.143    0.000    0.000 
#    0.000    0.000    0.000    0.000    0.000    0.000 
#
# Total GULP energy -156270.193160 kJ/mol
# GULP energy per Si atom -5581.078327 kJ/mol
# Density = 1.826265 g / cm^3
# Si number density = 18.304307 Si / 1000 Ang^3
#
#
#
# Elastic Constant Matrix: (Units=GPa)
#
#
# Indices 1 2 3 4 5 6 
#
# 1 141.9006 38.6727 118.8774 0.0000 -2.2297 0.0000
# 2 38.6727 19.4174 43.7469 0.0000 -0.2605 0.0000
# 3 118.8774 43.7469 229.6933 0.0000 -2.2751 0.0000
# 4 0.0000 0.0000 0.0000 -16.1374 0.0000 1.6694
# 5 -2.2297 -0.2605 -2.2751 0.0000 33.2410 0.0000
# 6 0.0000 0.0000 0.0000 1.6694 0.0000 16.3774
#
#
#
# Elastic Compliance Matrix: (Units=1/GPa)
#
#
# Indices 1 2 3 4 5 6 
#
# 1 0.017501 -0.025320 -0.004228 0.000000 0.000686 0.000000
# 2 -0.025320 0.126849 -0.011069 0.000000 -0.001462 0.000000
# 3 -0.004228 -0.011069 0.008652 0.000000 0.000222 0.000000
# 4 0.000000 0.000000 0.000000 -0.061321 0.000000 0.006251
# 5 0.000686 -0.001462 0.000222 0.000000 0.030133 0.000000
# 6 0.000000 0.000000 0.000000 0.006251 0.000000 0.060423
#
#
# Mechanical properties :
#
#
# Convention : Reuss Voigt Hill
#
# Bulk Modulus (GPa) = 13.93409 88.17836 51.05622
# Shear Modulus (GPa) = 17.39767 19.34380 18.37074
#
# Velocity S-wave (km/s) = 3.08631 3.25436 3.17145
# Velocity P-wave (km/s) = 4.50882 7.89932 6.43151
#
# Compressibility (1/GPa) = 0.07176643
#
# Stress axis : x y z
#
# Youngs Moduli (GPa) = 57.14016 7.88339 115.57421
#
# Poissons Ratio (x) = 0.19961 0.48868
# Poissons Ratio (y) = 1.44680 1.27934
# Poissons Ratio (z) = 0.24161 0.08726
#
# Static dielectric constant tensor:
#      x y z
#    x 1.618640 0.000000 0.000970 
#    y 0.000000 1.610170 0.000000 
#    z 0.000970 0.000000 1.599850 
# 
# From -- ./inp_files/38057.got.cif
#   From: 2010.05.17/outbox.cif.g08.bks.cpg/sg10_20_cif.got.tgz:38057.got - 2010.06.03 11:33:40.
