data_PCOD9148166
_publ_section_title
;
Structure prediction by ZEFSAII (Michael W. Deem and Ramdas Pophale) SiO2 
 PCOD9148166
Probable space group: P 2/M
;
_chemical_formula_sum "Si O2"
_cell_formula_units_Z 28
_cell_length_a 25.299168
_cell_length_b 7.532149
_cell_length_c 9.794859
_cell_angle_alpha 90.000000
_cell_angle_beta 139.934036
_cell_angle_gamma 90.000000
_cell_volume 1201.395514
_symmetry_space_group_name_H-M "P 2/M"
_symmetry_group_IT_number 10
_symmetry_cell_setting 'monoclinic'
loop_
_space_group_symop_operation_xyz
x,y,z
-x,y,-z
-x,-y,-z
x,-y,z
loop_
_atom_site_type_symbol
_atom_site_label
_atom_site_fract_x
_atom_site_fract_y
_atom_site_fract_z
Si Si1 0.168018 0.784661 0.179298
Si Si2 0.989529 0.294491 0.830500
Si Si3 0.264173 0.206958 0.937066
Si Si4 0.749998 0.795126 0.392389
Si Si5 0.331135 0.214589 0.341656
Si Si6 0.586090 0.291274 0.226648
Si Si7 0.917802 0.715644 0.416348
O O1 0.185360 0.721168 0.369338
O O2 0.246480 0.727820 0.247493
O O3 0.165389 0.000000 0.173288
O O4 0.082246 0.713629 0.955731
O O5 0.967075 0.500000 0.804718
O O6 0.930143 0.221371 0.597555
O O7 0.000000 0.208449 0.000000
O O8 0.261422 0.287661 0.779675
O O9 0.170493 0.218083 0.806832
O O10 0.286490 0.000000 0.964648
O O11 0.324611 0.279850 0.173161
O O12 0.663547 0.792207 0.302064
O O13 0.773751 0.000000 0.419382
O O14 0.401887 0.267886 0.587037
O O15 0.330971 0.000000 0.337899
O O16 0.590243 0.500000 0.204436
O O17 0.500000 0.221623 0.000000
O O18 0.916123 0.500000 0.410798
O O19 0.000000 0.772500 0.500000
#
# Coordination Sequence:
#
# PCOD9148166 Si02
#       7
#     4   4   4   4   4   4   4
#     4   9  17  30  48  70  95 126 169 215 256 302
#     4  10  20  31  43  63  92 127 169 215 260 304
#     4  10  20  35  55  79 106 137 178 222 262 311
#     4   9  19  35  55  80 108 138 173 215 263 313
#     4   9  19  35  55  79 105 134 169 209 255 308
#     4  10  21  37  58  84 109 135 171 209 249 307
#     4  10  21  34  47  68 101 140 180 221 266 313
#
# _framework density 23.306229999999999
#
# number of rings (size 3 to 8) (size 9 to 14) (size 15 to 20)
#    0.000    2.429    0.000    3.000    0.000    5.714 
#    0.000    0.714    0.000    4.286    0.000    0.000 
#    0.000    0.000    0.000    0.000    0.000    0.000 
#
# Total GULP energy -156375.283334 kJ/mol
# GULP energy per Si atom -5584.831548 kJ/mol
# Density = 2.325318 g / cm^3
# Si number density = 23.306230 Si / 1000 Ang^3
#
#
#
# Elastic Constant Matrix: (Units=GPa)
#
#
# Indices 1 2 3 4 5 6 
#
# 1 30.5242 0.7311 25.6215 0.0000 -14.8318 0.0000
# 2 0.7311 71.1069 -3.2199 0.0000 -4.8158 0.0000
# 3 25.6215 -3.2199 177.8796 0.0000 -14.9751 0.0000
# 4 0.0000 0.0000 0.0000 14.9996 0.0000 8.5323
# 5 -14.8318 -4.8158 -14.9751 0.0000 42.7127 0.0000
# 6 0.0000 0.0000 0.0000 8.5323 0.0000 6.1329
#
#
#
# Elastic Compliance Matrix: (Units=1/GPa)
#
#
# Indices 1 2 3 4 5 6 
#
# 1 0.043561 0.000223 -0.005147 0.000000 0.013347 0.000000
# 2 0.000223 0.014201 0.000377 0.000000 0.001811 0.000000
# 3 -0.005147 0.000377 0.006412 0.000000 0.000504 0.000000
# 4 0.000000 0.000000 0.000000 0.319567 0.000000 -0.444591
# 5 0.013347 0.001811 0.000504 0.000000 0.028428 0.000000
# 6 0.000000 0.000000 0.000000 -0.444591 0.000000 0.781584
#
#
# Mechanical properties :
#
#
# Convention : Reuss Voigt Hill
#
# Bulk Modulus (GPa) = 18.15494 36.19733 27.17614
# Shear Modulus (GPa) = 4.09431 29.86091 16.97761
#
# Velocity S-wave (km/s) = 1.32686 3.58333 2.70192
# Velocity P-wave (km/s) = 3.18654 5.71710 4.62814
#
# Compressibility (1/GPa) = 0.05508142
#
# Stress axis : x y z
#
# Youngs Moduli (GPa) = 22.95628 70.41868 155.94939
#
# Poissons Ratio (x) = -0.01571 0.80264
# Poissons Ratio (y) = -0.00512 -0.05885
# Poissons Ratio (z) = 0.11815 -0.02658
#
# Static dielectric constant tensor:
#      x y z
#    x 1.920630 0.000000 -0.059150 
#    y 0.000000 1.842770 0.000000 
#    z -0.059150 0.000000 1.906670 
# 
# From -- ./inp_files/37281.got.cif
#   From: 2010.05.17/outbox.cif.g08.bks.cpg/sg10_19_cif.got.tgz:37281.got - 2010.06.03 11:33:40.
