data_PCOD9148340
_publ_section_title
;
Structure prediction by ZEFSAII (Michael W. Deem and Ramdas Pophale) SiO2 
 PCOD9148340
Probable space group: P 2/M
;
_chemical_formula_sum "Si O2"
_cell_formula_units_Z 24
_cell_length_a 8.371746
_cell_length_b 17.265186
_cell_length_c 20.504901
_cell_angle_alpha 90.000000
_cell_angle_beta 26.033168
_cell_angle_gamma 90.000000
_cell_volume 1300.774545
_symmetry_space_group_name_H-M "P 2/M"
_symmetry_group_IT_number 10
_symmetry_cell_setting 'monoclinic'
loop_
_space_group_symop_operation_xyz
x,y,z
-x,y,-z
-x,-y,-z
x,-y,z
loop_
_atom_site_type_symbol
_atom_site_label
_atom_site_fract_x
_atom_site_fract_y
_atom_site_fract_z
Si Si1 0.834537 0.657161 0.426050
Si Si2 0.624978 0.500000 0.287047
Si Si3 0.993306 0.202933 0.925924
Si Si4 0.260357 0.329787 0.742187
Si Si5 0.853939 0.769958 0.783180
Si Si6 0.921846 0.500000 0.633268
Si Si7 0.058644 0.087530 0.167303
O O1 0.500000 0.639582 0.500000
O O2 0.658089 0.668295 0.562027
O O3 0.099001 0.583142 0.324610
O O4 0.007774 0.735495 0.335383
O O5 0.837566 0.419277 0.210339
O O6 0.337059 0.500000 0.452731
O O7 0.366700 0.500000 0.318722
O O8 0.082013 0.130028 0.846637
O O9 0.237714 0.275920 0.813996
O O10 0.578666 0.225136 0.060018
O O11 0.000000 0.186337 0.000000
O O12 0.997033 0.289142 0.786036
O O13 0.009997 0.853165 0.748032
O O14 0.925056 0.000000 0.224191
O O15 0.500000 0.084031 0.000000
#
# Coordination Sequence:
#
# PCOD9148340 Si02
#       7
#     4   2   4   4   4   2   4
#     4   9  17  30  51  72  96 128 169 204 241 290
#     4   9  18  30  47  69  94 132 171 206 240 283
#     4  10  20  32  49  73 102 128 160 202 247 291
#     4   9  18  34  50  66  98 131 168 202 243 288
#     4   9  18  32  51  75  97 128 161 201 245 290
#     4   9  17  28  45  72 100 125 165 211 245 276
#     4   8  15  31  53  74  97 126 160 196 236 290
#
# _framework density 18.450545999999999
#
# number of rings (size 3 to 8) (size 9 to 14) (size 15 to 20)
#    0.000    3.000    0.000    1.750    2.333    2.333 
#    0.000    2.917    0.000   12.500    0.000    0.000 
#    0.000   26.667    0.000    0.000    0.000    0.000 
#
# Total GULP energy -133630.377993 kJ/mol
# GULP energy per Si atom -5567.932416 kJ/mol
# Density = 1.840855 g / cm^3
# Si number density = 18.450546 Si / 1000 Ang^3
#
#
#
# Elastic Constant Matrix: (Units=GPa)
#
#
# Indices 1 2 3 4 5 6 
#
# 1 30.8015 36.5396 14.0074 0.0000 11.3722 0.0000
# 2 36.5396 186.3304 37.0513 0.0000 17.5521 0.0000
# 3 14.0074 37.0513 30.7812 0.0000 15.3708 0.0000
# 4 0.0000 0.0000 0.0000 22.3593 0.0000 2.5235
# 5 11.3722 17.5521 15.3708 0.0000 23.5310 0.0000
# 6 0.0000 0.0000 0.0000 2.5235 0.0000 11.6117
#
#
#
# Elastic Compliance Matrix: (Units=1/GPa)
#
#
# Indices 1 2 3 4 5 6 
#
# 1 0.048991 -0.006896 -0.007033 0.000000 -0.013939 0.000000
# 2 -0.006896 0.008029 -0.007717 0.000000 0.002385 0.000000
# 3 -0.007033 -0.007717 0.059966 0.000000 -0.030015 0.000000
# 4 0.000000 0.000000 0.000000 0.045849 0.000000 -0.009964
# 5 -0.013939 0.002385 -0.030015 0.000000 0.067061 0.000000
# 6 0.000000 0.000000 0.000000 -0.009964 0.000000 0.088286
#
#
# Mechanical properties :
#
#
# Convention : Reuss Voigt Hill
#
# Bulk Modulus (GPa) = 13.56976 47.01218 30.29097
# Shear Modulus (GPa) = 12.95210 22.18805 17.57008
#
# Velocity S-wave (km/s) = 2.65238 3.47157 3.08925
# Velocity P-wave (km/s) = 4.09278 6.45015 5.40163
#
# Compressibility (1/GPa) = 0.07369326
#
# Stress axis : x y z
#
# Youngs Moduli (GPa) = 20.41191 124.54847 16.67621
#
# Poissons Ratio (x) = 0.85884 0.11729
# Poissons Ratio (y) = 0.14075 0.12870
# Poissons Ratio (z) = 0.14356 0.96120
#
# Static dielectric constant tensor:
#      x y z
#    x 1.658160 0.000000 0.031300 
#    y 0.000000 1.674350 0.000000 
#    z 0.031300 0.000000 1.682010 
# 
# From -- ./inp_files/82973.got.cif
#   From: 2010.05.17/outbox.cif.g08.bks.cpg/sg10_42_cif.got.tgz:82973.got - 2010.06.03 11:33:40.
