data_PCOD9148887
_publ_section_title
;
Structure prediction by ZEFSAII (Michael W. Deem and Ramdas Pophale) SiO2 
 PCOD9148887
Probable space group: P 2/M
;
_chemical_formula_sum "Si O2"
_cell_formula_units_Z 28
_cell_length_a 14.237629
_cell_length_b 10.802412
_cell_length_c 15.144786
_cell_angle_alpha 90.000000
_cell_angle_beta 40.790200
_cell_angle_gamma 90.000000
_cell_volume 1521.697414
_symmetry_space_group_name_H-M "P 2/M"
_symmetry_group_IT_number 10
_symmetry_cell_setting 'monoclinic'
loop_
_space_group_symop_operation_xyz
x,y,z
-x,y,-z
-x,-y,-z
x,-y,z
loop_
_atom_site_type_symbol
_atom_site_label
_atom_site_fract_x
_atom_site_fract_y
_atom_site_fract_z
Si Si1 0.020357 0.862370 0.880556
Si Si2 0.845503 0.348851 0.573210
Si Si3 0.843876 0.645703 0.912674
Si Si4 0.295544 0.359118 0.494383
Si Si5 0.383360 0.363010 0.769287
Si Si6 0.657257 0.805935 0.369184
Si Si7 0.337194 0.650128 0.132097
O O1 0.190151 0.872239 0.740863
O O2 0.954966 0.748485 0.870288
O O3 0.955515 0.000000 0.909434
O O4 0.000000 0.835942 0.000000
O O5 0.840064 0.500000 0.572650
O O6 0.817827 0.303951 0.493531
O O7 0.727377 0.308488 0.728537
O O8 0.000000 0.314038 0.500000
O O9 0.894721 0.500000 0.874411
O O10 0.774737 0.678233 0.867161
O O11 0.712403 0.649586 0.076197
O O12 0.256005 0.500000 0.542901
O O13 0.446776 0.359159 0.333767
O O14 0.324956 0.291156 0.563931
O O15 0.353570 0.500000 0.752006
O O16 0.350713 0.261840 0.719296
O O17 0.500000 0.864663 0.500000
O O18 0.343413 0.500000 0.129689
O O19 0.500000 0.694516 0.000000
#
# Coordination Sequence:
#
# PCOD9148887 Si02
#       7
#     4   4   4   4   4   4   4
#     4  11  24  41  57  78 112 148 180 222 278 331
#     4   9  17  27  39  64 103 142 174 208 258 317
#     4  10  20  33  57  86 112 143 185 227 270 319
#     4   9  17  28  47  73 111 147 173 215 273 322
#     4   9  16  29  47  76 110 139 171 218 271 318
#     4  10  20  34  53  77 101 137 184 223 262 324
#     4   9  17  30  49  76 109 143 178 220 267 316
#
# _framework density 18.400504999999999
#
# number of rings (size 3 to 8) (size 9 to 14) (size 15 to 20)
#    0.000    2.429    1.429    1.286    2.000    6.857 
#    0.000    0.000    0.000    0.429    0.000    2.000 
#    0.000    0.000    0.000    0.000    0.000    0.000 
#
# Total GULP energy -155927.643175 kJ/mol
# GULP energy per Si atom -5568.844399 kJ/mol
# Density = 1.835862 g / cm^3
# Si number density = 18.400505 Si / 1000 Ang^3
#
#
#
# Elastic Constant Matrix: (Units=GPa)
#
#
# Indices 1 2 3 4 5 6 
#
# 1 85.3907 28.1326 3.9998 0.0000 8.9763 0.0000
# 2 28.1326 55.5722 0.5861 0.0000 2.3616 0.0000
# 3 3.9998 0.5861 57.1043 0.0000 -5.3432 0.0000
# 4 0.0000 0.0000 0.0000 1.8255 0.0000 -0.4345
# 5 8.9763 2.3616 -5.3432 0.0000 28.3882 0.0000
# 6 0.0000 0.0000 0.0000 -0.4345 0.0000 1.3299
#
#
#
# Elastic Compliance Matrix: (Units=1/GPa)
#
#
# Indices 1 2 3 4 5 6 
#
# 1 0.014592 -0.007191 -0.001348 0.000000 -0.004269 0.000000
# 2 -0.007191 0.021609 0.000332 0.000000 0.000539 0.000000
# 3 -0.001348 0.000332 0.017956 0.000000 0.003778 0.000000
# 4 0.000000 0.000000 0.000000 0.593962 0.000000 0.194043
# 5 -0.004269 0.000539 0.003778 0.000000 0.037242 0.000000
# 6 0.000000 0.000000 0.000000 0.194043 0.000000 0.815326
#
#
# Mechanical properties :
#
#
# Convention : Reuss Voigt Hill
#
# Bulk Modulus (GPa) = 26.49460 29.27825 27.88643
# Shear Modulus (GPa) = 3.26865 17.33198 10.30032
#
# Velocity S-wave (km/s) = 1.33426 3.07242 2.36854
# Velocity P-wave (km/s) = 4.09924 5.34158 4.76111
#
# Compressibility (1/GPa) = 0.03774354
#
# Stress axis : x y z
#
# Youngs Moduli (GPa) = 68.53042 46.27755 55.69068
#
# Poissons Ratio (x) = 0.33280 0.07506
# Poissons Ratio (y) = 0.49283 -0.01851
# Poissons Ratio (z) = 0.09236 -0.01538
#
# Static dielectric constant tensor:
#      x y z
#    x 1.638910 0.000000 -0.028040 
#    y 0.000000 1.652440 0.000000 
#    z -0.028040 0.000000 1.666580 
# 
# From -- ./inp_files/46025.got.cif
#   From: 2010.05.17/outbox.cif.g08.bks.cpg/sg10_24_cif.got.tgz:46025.got - 2010.06.03 11:33:40.
