data_PCOD9148244
_publ_section_title
;
Structure prediction by ZEFSAII (Michael W. Deem and Ramdas Pophale) SiO2 
 PCOD9148244
Probable space group: P 2/M
;
_chemical_formula_sum "Si O2"
_cell_formula_units_Z 32
_cell_length_a 21.666189
_cell_length_b 9.757050
_cell_length_c 6.938277
_cell_angle_alpha 90.000000
_cell_angle_beta 107.112788
_cell_angle_gamma 90.000000
_cell_volume 1401.802121
_symmetry_space_group_name_H-M "P 2/M"
_symmetry_group_IT_number 10
_symmetry_cell_setting 'monoclinic'
loop_
_space_group_symop_operation_xyz
x,y,z
-x,y,-z
-x,-y,-z
x,-y,z
loop_
_atom_site_type_symbol
_atom_site_label
_atom_site_fract_x
_atom_site_fract_y
_atom_site_fract_z
Si Si1 0.425643 0.151609 0.982905
Si Si2 0.826966 0.156731 0.984661
Si Si3 0.796263 0.157507 0.417739
Si Si4 0.429258 0.655617 0.339146
Si Si5 0.087823 0.342806 0.398310
Si Si6 0.943896 0.343748 0.171607
Si Si7 0.287704 0.652307 0.199363
Si Si8 0.321453 0.657172 0.768224
O O1 0.425790 0.217432 0.192669
O O2 0.395721 0.000000 0.948421
O O3 0.500000 0.142935 0.000000
O O4 0.387441 0.257939 0.815737
O O5 0.811218 0.155447 0.200699
O O6 0.892710 0.243024 0.029084
O O7 0.834450 0.000000 0.930886
O O8 0.766305 0.232151 0.829948
O O9 0.857401 0.229181 0.574238
O O10 0.735428 0.257829 0.382013
O O11 0.784681 0.000000 0.463295
O O12 0.500000 0.663530 0.500000
O O13 0.428505 0.500000 0.250095
O O14 0.357572 0.664638 0.368306
O O15 0.108552 0.500000 0.374665
O O16 0.071716 0.342097 0.613024
O O17 0.020105 0.313044 0.230429
O O18 0.933444 0.500000 0.097212
O O19 0.261123 0.500000 0.215303
O O20 0.304974 0.655363 0.984559
O O21 0.325737 0.500000 0.712880
#
# Coordination Sequence:
#
# PCOD9148244 Si02
#       8
#     4   4   4   4   4   4   4   4
#     4  10  20  32  46  66  91 116 143 177 218 263
#     4   9  15  20  28  43  62  85 116 154 193 235
#     4   9  15  21  30  45  65  88 116 155 200 241
#     4   9  18  32  49  68  88 112 145 182 218 259
#     4   8  13  20  28  38  54  80 115 152 190 234
#     4   8  13  20  28  37  53  80 114 152 192 232
#     4   8  14  24  37  52  71  95 123 159 201 242
#     4   9  16  26  40  55  72  98 132 168 204 244
#
# _framework density 22.827760999999999
#
# number of rings (size 3 to 8) (size 9 to 14) (size 15 to 20)
#    0.000    3.250    0.000    3.000    0.000    7.750 
#    0.000    2.500    0.000    0.000    0.000    0.000 
#    0.000    0.000    0.000    0.000    0.000    1.250 
#
# Total GULP energy -178705.420145 kJ/mol
# GULP energy per Si atom -5584.544380 kJ/mol
# Density = 2.277580 g / cm^3
# Si number density = 22.827761 Si / 1000 Ang^3
#
#
#
# Elastic Constant Matrix: (Units=GPa)
#
#
# Indices 1 2 3 4 5 6 
#
# 1 81.8597 80.3766 40.8798 0.0000 33.1368 0.0000
# 2 80.3766 225.6784 82.7460 0.0000 62.1608 0.0000
# 3 40.8798 82.7460 137.3126 0.0000 33.0857 0.0000
# 4 0.0000 0.0000 0.0000 2.5005 0.0000 13.5639
# 5 33.1368 62.1608 33.0857 0.0000 55.1641 0.0000
# 6 0.0000 0.0000 0.0000 13.5639 0.0000 25.5678
#
#
#
# Elastic Compliance Matrix: (Units=1/GPa)
#
#
# Indices 1 2 3 4 5 6 
#
# 1 0.020255 -0.005122 -0.001639 0.000000 -0.005412 0.000000
# 2 -0.005122 0.008540 -0.002389 0.000000 -0.005113 0.000000
# 3 -0.001639 -0.002389 0.009731 0.000000 -0.002159 0.000000
# 4 0.000000 0.000000 0.000000 -0.212982 0.000000 0.112988
# 5 -0.005412 -0.005113 -0.002159 0.000000 0.028435 0.000000
# 6 0.000000 0.000000 0.000000 0.112988 0.000000 -0.020829
#
#
# Mechanical properties :
#
#
# Convention : Reuss Voigt Hill
#
# Bulk Modulus (GPa) = 49.44699 94.76174 72.10436
# Shear Modulus (GPa) = -35.25896 32.70303 -1.27796
#
# Velocity S-wave (km/s) = -3.93436 3.78908 -0.74903
# Velocity P-wave (km/s) = 1.03393 7.79388 5.55939
#
# Compressibility (1/GPa) = 0.02022368
#
# Stress axis : x y z
#
# Youngs Moduli (GPa) = 49.37106 117.10039 102.76693
#
# Poissons Ratio (x) = 0.59980 0.16849
# Poissons Ratio (y) = 0.25288 0.24553
# Poissons Ratio (z) = 0.08094 0.27978
#
# Static dielectric constant tensor:
#      x y z
#    x 1.913970 0.000000 -0.080370 
#    y 0.000000 1.775730 0.000000 
#    z -0.080370 0.000000 1.907640 
# 
# From -- ./inp_files/57185.got.cif
#   From: 2010.05.17/outbox.cif.g08.bks.cpg/sg10_29_cif.got.tgz:57185.got - 2010.06.03 11:33:40.
