data_PCOD9148841
_publ_section_title
;
Structure prediction by ZEFSAII (Michael W. Deem and Ramdas Pophale) SiO2 
 PCOD9148841
Probable space group: P 2/M
;
_chemical_formula_sum "Si O2"
_cell_formula_units_Z 30
_cell_length_a 12.030057
_cell_length_b 8.970799
_cell_length_c 28.285441
_cell_angle_alpha 90.000000
_cell_angle_beta 31.721036
_cell_angle_gamma 90.000000
_cell_volume 1604.978142
_symmetry_space_group_name_H-M "P 2/M"
_symmetry_group_IT_number 10
_symmetry_cell_setting 'monoclinic'
loop_
_space_group_symop_operation_xyz
x,y,z
-x,y,-z
-x,-y,-z
x,-y,z
loop_
_atom_site_type_symbol
_atom_site_label
_atom_site_fract_x
_atom_site_fract_y
_atom_site_fract_z
Si Si1 0.745400 0.669584 0.500000
Si Si2 0.000000 0.741788 0.500000
Si Si3 0.867175 0.678721 1.000000
Si Si4 0.158244 0.179741 0.814912
Si Si5 0.582108 0.179741 0.814912
Si Si6 0.729248 0.322178 0.319785
Si Si7 0.008387 0.322178 0.680215
Si Si8 0.408396 0.172163 0.295802
O O1 0.702420 0.500000 0.500000
O O2 0.878900 0.665271 0.500000
O O3 0.513202 0.736372 0.591880
O O4 0.880724 0.736372 0.408120
O O5 0.806390 0.820870 0.596805
O O6 0.853196 0.500000 1.000000
O O7 0.636552 0.750959 0.088348
O O8 0.000000 0.710585 0.000000
O O9 0.989944 0.750959 0.911652
O O10 0.142609 0.239323 0.767456
O O11 0.389932 0.234862 0.749481
O O12 0.147092 0.000000 0.819678
O O13 0.612142 0.234862 0.749482
O O14 0.787568 0.239323 0.767456
O O15 0.574195 0.000000 0.819678
O O16 0.727513 0.500000 0.309849
O O17 0.834690 0.301726 0.332655
O O18 0.966910 0.500000 0.690151
O O19 0.460766 0.000000 0.269617
#
# Coordination Sequence:
#
# PCOD9148841 Si02
#       8
#     4   2   4   4   4   4   4   4
#     4  10  20  33  54  85 118 158 201 243 295 347
#     4  12  18  34  54  86 124 158 194 240 286 358
#     4  11  23  39  62  93 122 153 191 239 295 362
#     4  11  22  39  61  88 120 156 196 244 297 355
#     4  11  22  39  61  88 120 156 196 244 297 355
#     4  10  21  39  60  83 117 161 206 249 292 345
#     4  10  21  39  60  83 117 161 206 249 292 345
#     4  10  21  34  54  82 121 163 192 231 293 354
#
# _framework density 18.691842999999999
#
# number of rings (size 3 to 8) (size 9 to 14) (size 15 to 20)
#    0.000    1.467    4.000    2.000    0.000    2.667 
#    0.000    1.333    0.000    5.600    0.000    0.000 
#    0.000    0.000    0.000    0.000    0.000    0.000 
#
# Total GULP energy -167305.406902 kJ/mol
# GULP energy per Si atom -5576.846897 kJ/mol
# Density = 1.864930 g / cm^3
# Si number density = 18.691843 Si / 1000 Ang^3
#
#
#
# Elastic Constant Matrix: (Units=GPa)
#
#
# Indices 1 2 3 4 5 6 
#
# 1 91.1380 39.3123 59.8441 0.0000 1.3986 0.0000
# 2 39.3123 57.8234 44.0411 0.0000 0.3153 0.0000
# 3 59.8441 44.0411 157.2603 0.0000 3.0107 0.0000
# 4 0.0000 0.0000 0.0000 23.0629 0.0000 0.1039
# 5 1.3986 0.3153 3.0107 0.0000 26.2411 0.0000
# 6 0.0000 0.0000 0.0000 0.1039 0.0000 21.5038
#
#
#
# Elastic Compliance Matrix: (Units=1/GPa)
#
#
# Indices 1 2 3 4 5 6 
#
# 1 0.017491 -0.008675 -0.004220 0.000000 -0.000344 0.000000
# 2 -0.008675 0.026291 -0.004073 0.000000 0.000614 0.000000
# 3 -0.004220 -0.004073 0.009120 0.000000 -0.000773 0.000000
# 4 0.000000 0.000000 0.000000 0.043361 0.000000 -0.000210
# 5 -0.000344 0.000614 -0.000773 0.000000 0.038208 0.000000
# 6 0.000000 0.000000 0.000000 -0.000210 0.000000 0.046504
#
#
# Mechanical properties :
#
#
# Convention : Reuss Voigt Hill
#
# Bulk Modulus (GPa) = 52.72852 65.84631 59.28742
# Shear Modulus (GPa) = 22.60054 25.02984 23.81519
#
# Velocity S-wave (km/s) = 3.48100 3.66331 3.57332
# Velocity P-wave (km/s) = 6.66537 7.29362 6.98656
#
# Compressibility (1/GPa) = 0.01896507
#
# Stress axis : x y z
#
# Youngs Moduli (GPa) = 57.17343 38.03534 109.64666
#
# Poissons Ratio (x) = 0.32998 0.46268
# Poissons Ratio (y) = 0.49601 0.44663
# Poissons Ratio (z) = 0.24126 0.15493
#
# Static dielectric constant tensor:
#      x y z
#    x 1.656170 0.000000 -0.001150 
#    y 0.000000 1.640340 0.000000 
#    z -0.001150 0.000000 1.638900 
# 
# From -- ./inp_files/80707.got.cif
#   From: 2010.05.17/outbox.cif.g08.bks.cpg/sg10_41_cif.got.tgz:80707.got - 2010.06.03 11:33:40.
