data_PCOD9148976
_publ_section_title
;
Structure prediction by ZEFSAII (Michael W. Deem and Ramdas Pophale) SiO2 
 PCOD9148976
Probable space group: P 2/M
;
_chemical_formula_sum "Si O2"
_cell_formula_units_Z 32
_cell_length_a 13.324993
_cell_length_b 16.566650
_cell_length_c 16.091777
_cell_angle_alpha 90.000000
_cell_angle_beta 152.980541
_cell_angle_gamma 90.000000
_cell_volume 1613.770655
_symmetry_space_group_name_H-M "P 2/M"
_symmetry_group_IT_number 10
_symmetry_cell_setting 'monoclinic'
loop_
_space_group_symop_operation_xyz
x,y,z
-x,y,-z
-x,-y,-z
x,-y,z
loop_
_atom_site_type_symbol
_atom_site_label
_atom_site_fract_x
_atom_site_fract_y
_atom_site_fract_z
Si Si1 0.537905 0.292803 0.770368
Si Si2 0.844573 0.906934 0.710713
Si Si3 0.113621 0.247846 0.845050
Si Si4 0.902195 0.767619 0.518801
Si Si5 0.399014 0.913082 0.645764
Si Si6 0.846020 0.596386 0.706923
Si Si7 0.257868 0.837572 0.191375
Si Si8 0.653870 0.407546 0.734196
O O1 0.279110 0.301068 0.594546
O O2 0.590544 0.237578 0.726557
O O3 0.659228 0.372554 0.830036
O O4 0.652277 0.257557 0.936644
O O5 0.696526 0.911380 0.518489
O O6 0.721700 0.878801 0.704003
O O7 0.002543 0.830883 0.805620
O O8 0.925915 0.000000 0.782683
O O9 0.086708 0.232543 0.726846
O O10 0.989538 0.332807 0.771636
O O11 0.742367 0.845995 0.410946
O O12 0.000000 0.761842 0.500000
O O13 0.658408 0.898206 0.819148
O O14 0.363944 0.000000 0.658534
O O15 0.911709 0.500000 0.751046
O O16 0.600132 0.599056 0.484838
O O17 0.808291 0.624826 0.774660
O O18 0.000000 0.815429 0.000000
O O19 0.712514 0.500000 0.781377
#
# Coordination Sequence:
#
# PCOD9148976 Si02
#       8
#     4   4   4   4   4   4   4   4
#     4  11  22  37  57  88 112 151 200 232 284 348
#     4  10  20  34  51  78 118 159 192 224 271 333
#     4  11  21  38  59  84 116 150 190 245 285 345
#     4  10  23  42  61  80 105 145 194 252 310 341
#     4   9  20  36  55  79 106 145 195 240 287 344
#     4   9  18  33  57  89 124 163 190 221 281 342
#     4  11  20  32  48  81 120 154 185 220 266 344
#     4   9  18  33  56  88 125 158 192 229 272 342
#
# _framework density 19.829336000000001
#
# number of rings (size 3 to 8) (size 9 to 14) (size 15 to 20)
#    0.000    2.000    2.500    2.250    0.000    3.250 
#    0.000    1.250    0.000    1.500    0.000    7.000 
#    0.000    0.000    0.000    0.000    0.000    0.000 
#
# Total GULP energy -178136.604578 kJ/mol
# GULP energy per Si atom -5566.768893 kJ/mol
# Density = 1.978420 g / cm^3
# Si number density = 19.829336 Si / 1000 Ang^3
#
#
#
# Elastic Constant Matrix: (Units=GPa)
#
#
# Indices 1 2 3 4 5 6 
#
# 1 125.8081 31.9467 31.8022 0.0000 -13.7930 0.0000
# 2 31.9467 48.2554 10.4377 0.0000 -5.9947 0.0000
# 3 31.8022 10.4377 64.3786 0.0000 -13.2001 0.0000
# 4 0.0000 0.0000 0.0000 21.3694 0.0000 -5.4492
# 5 -13.7930 -5.9947 -13.2001 0.0000 22.9172 0.0000
# 6 0.0000 0.0000 0.0000 -5.4492 0.0000 12.8697
#
#
#
# Elastic Compliance Matrix: (Units=1/GPa)
#
#
# Indices 1 2 3 4 5 6 
#
# 1 0.010707 -0.005935 -0.003769 0.000000 0.002721 0.000000
# 2 -0.005935 0.025111 -0.000595 0.000000 0.002654 0.000000
# 3 -0.003769 -0.000595 0.019270 0.000000 0.008675 0.000000
# 4 0.000000 0.000000 0.000000 0.052460 0.000000 0.022212
# 5 0.002721 0.002654 0.008675 0.000000 0.050964 0.000000
# 6 0.000000 0.000000 0.000000 0.022212 0.000000 0.087107
#
#
# Mechanical properties :
#
#
# Convention : Reuss Voigt Hill
#
# Bulk Modulus (GPa) = 28.99463 42.97951 35.98707
# Shear Modulus (GPa) = 18.00422 22.38163 20.19293
#
# Velocity S-wave (km/s) = 3.01650 3.36328 3.19460
# Velocity P-wave (km/s) = 5.17554 6.06663 5.63871
#
# Compressibility (1/GPa) = 0.03448915
#
# Stress axis : x y z
#
# Youngs Moduli (GPa) = 93.39960 39.82374 51.89359
#
# Poissons Ratio (x) = 0.23635 0.19558
# Poissons Ratio (y) = 0.55433 0.03089
# Poissons Ratio (z) = 0.35201 0.02371
#
# Static dielectric constant tensor:
#      x y z
#    x 1.658350 0.000000 -0.036080 
#    y 0.000000 1.835340 0.000000 
#    z -0.036080 0.000000 1.825350 
# 
# From -- ./inp_files/65413.got.cif
#   From: 2010.05.17/outbox.cif.g08.bks.cpg/sg10_33_cif.got.tgz:65413.got - 2010.06.03 11:33:40.
