data_PCOD9148496
_publ_section_title
;
Structure prediction by ZEFSAII (Michael W. Deem and Ramdas Pophale) SiO2 
 PCOD9148496
Probable space group: P 2/M
;
_chemical_formula_sum "Si O2"
_cell_formula_units_Z 32
_cell_length_a 16.355388
_cell_length_b 7.506461
_cell_length_c 26.139658
_cell_angle_alpha 90.000000
_cell_angle_beta 30.147616
_cell_angle_gamma 90.000000
_cell_volume 1611.752119
_symmetry_space_group_name_H-M "P 2/M"
_symmetry_group_IT_number 10
_symmetry_cell_setting 'monoclinic'
loop_
_space_group_symop_operation_xyz
x,y,z
-x,y,-z
-x,-y,-z
x,-y,z
loop_
_atom_site_type_symbol
_atom_site_label
_atom_site_fract_x
_atom_site_fract_y
_atom_site_fract_z
Si Si1 0.982367 0.783091 0.770320
Si Si2 0.840597 0.709329 0.059034
Si Si3 0.345998 0.782493 0.550674
Si Si4 0.091561 0.217863 0.304394
Si Si5 0.773586 0.216422 0.979936
Si Si6 0.478613 0.290811 0.265218
Si Si7 0.270709 0.785320 0.477490
Si Si8 0.408211 0.793492 0.190842
O O1 0.909431 0.730519 0.754775
O O2 0.171578 0.728311 0.668301
O O3 0.981528 0.000000 0.771586
O O4 0.877857 0.722625 0.875112
O O5 0.836429 0.500000 0.074820
O O6 0.849232 0.728005 0.993190
O O7 0.662746 0.783279 0.170622
O O8 0.000000 0.786699 0.000000
O O9 0.500000 0.721354 0.500000
O O10 0.345569 0.726549 0.491434
O O11 0.348327 0.000000 0.549624
O O12 0.249403 0.283076 0.249341
O O13 0.917614 0.274820 0.421676
O O14 0.090603 0.000000 0.306518
O O15 0.586184 0.281215 0.080439
O O16 0.770738 0.000000 0.981372
O O17 0.493592 0.500000 0.246246
O O18 0.374484 0.267653 0.372407
O O19 0.397156 0.212879 0.258294
O O20 0.268367 0.000000 0.479879
O O21 0.414009 0.000000 0.171894
#
# Coordination Sequence:
#
# PCOD9148496 Si02
#       8
#     4   4   4   4   4   4   4   4
#     4   8  14  25  41  65  94 117 143 181 223 264
#     4   9  19  35  50  63  86 122 155 180 217 273
#     4   8  14  25  42  65  92 119 145 177 221 269
#     4   8  15  28  46  67  92 122 151 180 217 267
#     4   9  17  28  46  72  95 114 143 189 231 259
#     4  10  20  33  48  66  90 118 148 187 230 265
#     4   9  17  30  48  68  90 119 154 186 217 261
#     4   9  17  30  47  67  91 119 152 185 220 265
#
# _framework density 19.85417
#
# number of rings (size 3 to 8) (size 9 to 14) (size 15 to 20)
#    0.000    3.250    0.000    1.875    0.000    2.750 
#    0.000    6.875    0.000    4.125    0.000    3.500 
#    0.000    0.000    0.000    0.000    0.000    0.000 
#
# Total GULP energy -178413.302605 kJ/mol
# GULP energy per Si atom -5575.415706 kJ/mol
# Density = 1.980898 g / cm^3
# Si number density = 19.854170 Si / 1000 Ang^3
#
#
#
# Elastic Constant Matrix: (Units=GPa)
#
#
# Indices 1 2 3 4 5 6 
#
# 1 174.6476 -6.2853 123.0304 0.0000 -32.7247 0.0000
# 2 -6.2853 48.3742 -8.6029 0.0000 -8.0466 0.0000
# 3 123.0304 -8.6029 161.3576 0.0000 8.8707 0.0000
# 4 0.0000 0.0000 0.0000 54.8232 0.0000 84.6295
# 5 -32.7247 -8.0466 8.8707 0.0000 33.4854 0.0000
# 6 0.0000 0.0000 0.0000 84.6295 0.0000 131.6758
#
#
#
# Elastic Compliance Matrix: (Units=1/GPa)
#
#
# Indices 1 2 3 4 5 6 
#
# 1 0.031336 0.005964 -0.025712 0.000000 0.038869 0.000000
# 2 0.005964 0.022791 -0.004013 0.000000 0.012369 0.000000
# 3 -0.025712 -0.004013 0.027422 0.000000 -0.033356 0.000000
# 4 0.000000 0.000000 0.000000 2.320693 0.000000 -1.491535
# 5 0.038869 0.012369 -0.033356 0.000000 0.079659 0.000000
# 6 0.000000 0.000000 0.000000 -1.491535 0.000000 0.966220
#
#
# Mechanical properties :
#
#
# Convention : Reuss Voigt Hill
#
# Bulk Modulus (GPa) = 29.38666 66.74043 48.06355
# Shear Modulus (GPa) = 1.42573 62.41268 31.91920
#
# Velocity S-wave (km/s) = 0.84833 5.61282 4.01394
# Velocity P-wave (km/s) = 3.97403 8.70019 6.76337
#
# Compressibility (1/GPa) = 0.03402904
#
# Stress axis : x y z
#
# Youngs Moduli (GPa) = 31.91191 43.87711 36.46734
#
# Poissons Ratio (x) = -0.26170 0.93764
# Poissons Ratio (y) = -0.19034 0.14633
# Poissons Ratio (z) = 0.82051 0.17606
#
# Static dielectric constant tensor:
#      x y z
#    x 1.670660 0.000000 -0.025690 
#    y 0.000000 1.759800 0.000000 
#    z -0.025690 0.000000 1.685300 
# 
# From -- ./inp_files/89541.got.cif
#   From: 2010.05.17/outbox.cif.g08.bks.cpg/sg10_45_cif.got.tgz:89541.got - 2010.06.03 11:33:40.
