data_PCOD9148230
_publ_section_title
;
Structure prediction by ZEFSAII (Michael W. Deem and Ramdas Pophale) SiO2 
 PCOD9148230
Probable space group: P 2/M
;
_chemical_formula_sum "Si O2"
_cell_formula_units_Z 32
_cell_length_a 27.254717
_cell_length_b 13.820105
_cell_length_c 9.199989
_cell_angle_alpha 90.000000
_cell_angle_beta 32.446791
_cell_angle_gamma 90.000000
_cell_volume 1859.187201
_symmetry_space_group_name_H-M "P 2/M"
_symmetry_group_IT_number 10
_symmetry_cell_setting 'monoclinic'
loop_
_space_group_symop_operation_xyz
x,y,z
-x,y,-z
-x,-y,-z
x,-y,z
loop_
_atom_site_type_symbol
_atom_site_label
_atom_site_fract_x
_atom_site_fract_y
_atom_site_fract_z
Si Si1 0.739382 0.778605 0.477857
Si Si2 0.597209 0.387357 0.180514
Si Si3 0.597210 0.387357 0.833438
Si Si4 0.411955 0.114940 0.306473
Si Si5 0.411955 0.885060 0.633755
Si Si6 0.890776 0.888964 0.945138
Si Si7 0.890776 0.111037 0.600984
Si Si8 0.260618 0.221395 0.174767
O O1 0.682045 0.681941 0.579057
O O2 0.674741 0.861457 0.573688
O O3 0.745271 0.781387 0.636822
O O4 0.836499 0.805628 0.165368
O O5 0.500000 0.366608 0.500000
O O6 0.618887 0.500000 0.155859
O O7 0.584519 0.375548 0.038702
O O8 0.682045 0.318059 0.010720
O O9 0.618886 0.500000 0.749707
O O10 0.500000 0.366608 0.000000
O O11 0.405279 0.155066 0.486803
O O12 0.421042 0.000000 0.296254
O O13 0.500000 0.151866 0.000000
O O14 0.500000 0.848134 0.500000
O O15 0.421042 0.000000 0.598536
O O16 0.325259 0.861457 0.947395
O O17 0.869090 0.882562 0.827274
O O18 0.000000 0.879121 0.688505
O O19 0.867116 0.000000 0.050572
O O20 0.836499 0.194372 0.652138
O O21 0.867116 0.000000 0.613850
#
# Coordination Sequence:
#
# PCOD9148230 Si02
#       8
#     4   4   4   4   4   4   4   4
#     4  11  21  31  49  75  99 126 162 204 248 294
#     4   9  19  35  52  72 100 132 166 204 246 293
#     4   9  19  35  52  72 100 132 166 204 246 293
#     4  10  20  32  45  64  95 132 164 195 235 286
#     4  10  20  32  45  64  95 132 164 195 235 286
#     4   9  19  36  55  74  99 132 167 203 246 295
#     4   9  19  36  55  74  99 132 167 203 246 295
#     4  11  21  31  49  75  99 126 162 204 248 294
#
# _framework density 17.211822999999999
#
# number of rings (size 3 to 8) (size 9 to 14) (size 15 to 20)
#    0.000    2.250    0.000    3.750    0.000    9.500 
#    0.000    1.250    0.000    0.750    0.000    5.250 
#    0.000    0.000    0.000    0.000    0.000    0.000 
#
# Total GULP energy -178347.224180 kJ/mol
# GULP energy per Si atom -5573.350756 kJ/mol
# Density = 1.717265 g / cm^3
# Si number density = 17.211823 Si / 1000 Ang^3
#
#
#
# Elastic Constant Matrix: (Units=GPa)
#
#
# Indices 1 2 3 4 5 6 
#
# 1 76.9772 48.7177 26.3863 0.0000 -12.7476 0.0000
# 2 48.7177 96.2556 49.2109 0.0000 -0.4979 0.0000
# 3 26.3863 49.2109 87.1148 0.0000 2.5206 0.0000
# 4 0.0000 0.0000 0.0000 20.4138 0.0000 -6.6409
# 5 -12.7476 -0.4979 2.5206 0.0000 16.2097 0.0000
# 6 0.0000 0.0000 0.0000 -6.6409 0.0000 13.8313
#
#
#
# Elastic Compliance Matrix: (Units=1/GPa)
#
#
# Indices 1 2 3 4 5 6 
#
# 1 0.023544 -0.011113 -0.001386 0.000000 0.018390 0.000000
# 2 -0.011113 0.019902 -0.007676 0.000000 -0.006934 0.000000
# 3 -0.001386 -0.007676 0.016347 0.000000 -0.003868 0.000000
# 4 0.000000 0.000000 0.000000 0.058054 0.000000 0.027874
# 5 0.018390 -0.006934 -0.003868 0.000000 0.076542 0.000000
# 6 0.000000 0.000000 0.000000 0.027874 0.000000 0.085683
#
#
# Mechanical properties :
#
#
# Convention : Reuss Voigt Hill
#
# Bulk Modulus (GPa) = 51.42978 56.55303 53.99140
# Shear Modulus (GPa) = 15.29504 19.15982 17.22743
#
# Velocity S-wave (km/s) = 2.98423 3.34005 3.16714
# Velocity P-wave (km/s) = 6.46680 6.91397 6.69412
#
# Compressibility (1/GPa) = 0.01944399
#
# Stress axis : x y z
#
# Youngs Moduli (GPa) = 42.47287 50.24614 61.17366
#
# Poissons Ratio (x) = 0.55838 0.08478
# Poissons Ratio (y) = 0.47200 0.46957
# Poissons Ratio (z) = 0.05886 0.38569
#
# Static dielectric constant tensor:
#      x y z
#    x 1.476670 0.000000 0.185600 
#    y 0.000000 1.616410 0.000000 
#    z 0.185600 0.000000 1.292720 
# 
# From -- ./inp_files/37717.got.cif
#   From: 2010.05.17/outbox.cif.g08.bks.cpg/sg10_19_cif.got.tgz:37717.got - 2010.06.03 11:33:40.
