data_PCOD9148709
_publ_section_title
;
Structure prediction by ZEFSAII (Michael W. Deem and Ramdas Pophale) SiO2 
 PCOD9148709
Probable space group: P 2/M
;
_chemical_formula_sum "Si O2"
_cell_formula_units_Z 32
_cell_length_a 11.667430
_cell_length_b 7.722892
_cell_length_c 28.407240
_cell_angle_alpha 90.000000
_cell_angle_beta 36.605827
_cell_angle_gamma 90.000000
_cell_volume 1526.348706
_symmetry_space_group_name_H-M "P 2/M"
_symmetry_group_IT_number 10
_symmetry_cell_setting 'monoclinic'
loop_
_space_group_symop_operation_xyz
x,y,z
-x,y,-z
-x,-y,-z
x,-y,z
loop_
_atom_site_type_symbol
_atom_site_label
_atom_site_fract_x
_atom_site_fract_y
_atom_site_fract_z
Si Si1 0.047910 0.798462 0.755710
Si Si2 0.302461 0.788412 0.380408
Si Si3 0.850241 0.203581 0.087072
Si Si4 0.266978 0.213215 0.774919
Si Si5 0.389562 0.709806 0.082824
Si Si6 0.539347 0.710008 0.835630
Si Si7 0.916727 0.795531 0.457926
Si Si8 0.971389 0.299101 0.677014
O O1 0.177274 0.727422 0.755231
O O2 0.059361 0.721026 0.699819
O O3 0.827242 0.777109 0.844274
O O4 0.094248 0.000000 0.735220
O O5 0.511476 0.730562 0.295562
O O6 0.245141 0.732179 0.452400
O O7 0.125437 0.728756 0.406274
O O8 0.308862 0.000000 0.376710
O O9 0.847129 0.274027 0.141223
O O10 0.635208 0.221267 0.137578
O O11 0.896768 0.000000 0.075977
O O12 0.000000 0.280215 0.000000
O O13 0.262022 0.000000 0.776724
O O14 0.380132 0.500000 0.085147
O O15 0.484811 0.758553 0.101332
O O16 0.500000 0.768979 0.000000
O O17 0.537702 0.500000 0.833546
O O18 0.752596 0.774382 0.750457
O O19 0.901735 0.770199 0.407456
O O20 0.923044 0.000000 0.464198
O O21 0.948210 0.500000 0.675041
#
# Coordination Sequence:
#
# PCOD9148709 Si02
#       8
#     4   4   4   4   4   4   4   4
#     4  10  20  33  52  75  98 133 179 217 252 304
#     4   8  15  29  51  80 109 137 169 211 258 306
#     4  10  21  34  51  76 105 134 164 207 261 305
#     4   9  18  33  50  72 107 140 166 207 262 311
#     4   9  19  35  53  72  99 133 168 213 266 306
#     4   9  19  34  50  71  97 129 170 205 244 304
#     4   9  16  29  55  84 104 130 175 216 252 304
#     4  10  20  35  53  74 105 137 167 212 266 308
#
# _framework density 20.965064000000002
#
# number of rings (size 3 to 8) (size 9 to 14) (size 15 to 20)
#    0.000    2.750    0.000    3.000    1.750    4.000 
#    0.000    3.125    0.000    7.500    0.000    0.000 
#    0.000    0.000    0.000    0.000    0.000    0.000 
#
# Total GULP energy -178505.379015 kJ/mol
# GULP energy per Si atom -5578.293094 kJ/mol
# Density = 2.091735 g / cm^3
# Si number density = 20.965064 Si / 1000 Ang^3
#
#
#
# Elastic Constant Matrix: (Units=GPa)
#
#
# Indices 1 2 3 4 5 6 
#
# 1 67.8890 -7.1789 39.8308 0.0000 15.5033 0.0000
# 2 -7.1789 24.4211 1.5137 0.0000 3.1156 0.0000
# 3 39.8308 1.5137 95.7419 0.0000 33.2001 0.0000
# 4 0.0000 0.0000 0.0000 -55.1007 0.0000 176.5655
# 5 15.5033 3.1156 33.2001 0.0000 31.4462 0.0000
# 6 0.0000 0.0000 0.0000 176.5655 0.0000 -614.2117
#
#
#
# Elastic Compliance Matrix: (Units=1/GPa)
#
#
# Indices 1 2 3 4 5 6 
#
# 1 0.020620 0.006881 -0.007770 0.000000 -0.002644 0.000000
# 2 0.006881 0.043858 -0.001377 0.000000 -0.006284 0.000000
# 3 -0.007770 -0.001377 0.019441 0.000000 -0.016558 0.000000
# 4 0.000000 0.000000 0.000000 -0.230207 0.000000 -0.066177
# 5 -0.002644 -0.006284 -0.016558 0.000000 0.051208 0.000000
# 6 0.000000 0.000000 0.000000 -0.066177 0.000000 -0.020652
#
#
# Mechanical properties :
#
#
# Convention : Reuss Voigt Hill
#
# Bulk Modulus (GPa) = 12.59677 28.48701 20.54189
# Shear Modulus (GPa) = -59.00602 -117.31413 -88.16008
#
# Velocity S-wave (km/s) = -5.31093 -7.48855 -6.49170
# Velocity P-wave (km/s) = 5.62019 7.82010 6.80957
#
# Compressibility (1/GPa) = 0.07938543
#
# Stress axis : x y z
#
# Youngs Moduli (GPa) = 48.49606 22.80092 51.43785
#
# Poissons Ratio (x) = -0.15688 0.39970
# Poissons Ratio (y) = -0.33368 0.07082
# Poissons Ratio (z) = 0.37684 0.03139
#
# Static dielectric constant tensor:
#      x y z
#    x 1.751150 0.000000 0.031120 
#    y 0.000000 1.761360 0.000000 
#    z 0.031120 0.000000 1.752260 
# 
# From -- ./inp_files/94926.got.cif
#   From: 2010.05.17/outbox.cif.g08.bks.cpg/sg10_48_cif.got.tgz:94926.got - 2010.06.03 11:33:40.
