data_PCOD9148360
_publ_section_title
;
Structure prediction by ZEFSAII (Michael W. Deem and Ramdas Pophale) SiO2 
 PCOD9148360
Probable space group: P 2/M
;
_chemical_formula_sum "Si O2"
_cell_formula_units_Z 30
_cell_length_a 12.977522
_cell_length_b 26.031681
_cell_length_c 15.224675
_cell_angle_alpha 90.000000
_cell_angle_beta 161.291207
_cell_angle_gamma 90.000000
_cell_volume 1649.757045
_symmetry_space_group_name_H-M "P 2/M"
_symmetry_group_IT_number 10
_symmetry_cell_setting 'monoclinic'
loop_
_space_group_symop_operation_xyz
x,y,z
-x,y,-z
-x,-y,-z
x,-y,z
loop_
_atom_site_type_symbol
_atom_site_label
_atom_site_fract_x
_atom_site_fract_y
_atom_site_fract_z
Si Si1 0.725862 0.807576 0.095447
Si Si2 0.005342 0.913543 0.260185
Si Si3 0.880278 0.000000 0.302490
Si Si4 0.219532 0.744141 0.589413
Si Si5 0.943240 0.438715 0.680953
Si Si6 0.716866 0.059982 0.838739
Si Si7 0.206618 0.438152 0.085835
Si Si8 0.869612 0.355100 0.298628
O O1 0.802253 0.862241 0.115055
O O2 0.063506 0.785260 0.399620
O O3 0.500000 0.813432 0.000000
O O4 0.557374 0.765862 0.895458
O O5 0.390507 0.907925 0.560755
O O6 0.978883 0.950867 0.323631
O O7 0.853356 0.936224 0.048091
O O8 0.000000 0.000000 0.500000
O O9 0.500000 0.000000 0.000000
O O10 0.000000 0.743459 0.500000
O O11 0.131277 0.687934 0.480534
O O12 0.974030 0.500000 0.688510
O O13 0.573645 0.422239 0.378024
O O14 0.135352 0.404081 0.768102
O O15 0.051108 0.428346 0.866833
O O16 0.633657 0.000000 0.754066
O O17 0.000000 0.074655 0.000000
O O18 0.217862 0.500000 0.106258
O O19 0.000000 0.417218 0.000000
O O20 0.000000 0.370552 0.500000
O O21 0.500000 0.334011 0.000000
#
# Coordination Sequence:
#
# PCOD9148360 Si02
#       8
#     4   4   2   4   4   4   4   4
#     4  10  20  34  55  80 109 137 174 226 270 325
#     4  12  22  38  56  84 112 149 186 220 274 329
#     4  12  24  36  51  80 123 160 178 202 260 342
#     4   9  18  34  52  74 101 137 182 228 268 307
#     4  10  20  32  49  78 111 145 185 225 272 337
#     4  11  22  39  59  80 109 148 194 238 264 301
#     4   9  17  31  50  72 102 140 181 229 274 316
#     4  11  21  34  53  77 110 150 185 224 270 323
#
# _framework density 18.184494999999998
#
# number of rings (size 3 to 8) (size 9 to 14) (size 15 to 20)
#    0.000    1.600    1.333    5.600    0.000    4.800 
#    0.000    0.000    0.000    0.000    0.000   14.000 
#    0.000    0.000    0.000    0.000    0.000    0.000 
#
# Total GULP energy -167244.374658 kJ/mol
# GULP energy per Si atom -5574.812489 kJ/mol
# Density = 1.814311 g / cm^3
# Si number density = 18.184495 Si / 1000 Ang^3
#
#
#
# Elastic Constant Matrix: (Units=GPa)
#
#
# Indices 1 2 3 4 5 6 
#
# 1 271.7221 24.4173 148.0121 0.0000 -162.4056 0.0000
# 2 24.4173 72.5642 7.2801 0.0000 5.6745 0.0000
# 3 148.0121 7.2801 185.8566 0.0000 -101.7147 0.0000
# 4 0.0000 0.0000 0.0000 28.9198 0.0000 -6.9190
# 5 -162.4056 5.6745 -101.7147 0.0000 147.5310 0.0000
# 6 0.0000 0.0000 0.0000 -6.9190 0.0000 10.1167
#
#
#
# Elastic Compliance Matrix: (Units=1/GPa)
#
#
# Indices 1 2 3 4 5 6 
#
# 1 0.014015 -0.005345 -0.003848 0.000000 0.012981 0.000000
# 2 -0.005345 0.016071 0.000110 0.000000 -0.006426 0.000000
# 3 -0.003848 0.000110 0.009828 0.000000 0.002536 0.000000
# 4 0.000000 0.000000 0.000000 0.041343 0.000000 0.028276
# 5 0.012981 -0.006426 0.002536 0.000000 0.023063 0.000000
# 6 0.000000 0.000000 0.000000 0.028276 0.000000 0.118185
#
#
# Mechanical properties :
#
#
# Convention : Reuss Voigt Hill
#
# Bulk Modulus (GPa) = 45.97809 98.84020 72.40915
# Shear Modulus (GPa) = 20.16774 60.67573 40.42174
#
# Velocity S-wave (km/s) = 3.33387 5.78266 4.71985
# Velocity P-wave (km/s) = 6.33709 9.95277 8.34315
#
# Compressibility (1/GPa) = 0.02174949
#
# Stress axis : x y z
#
# Youngs Moduli (GPa) = 71.35225 62.22433 101.74511
#
# Poissons Ratio (x) = 0.33259 0.39150
# Poissons Ratio (y) = 0.38138 -0.01123
# Poissons Ratio (z) = 0.27455 -0.00687
#
# Static dielectric constant tensor:
#      x y z
#    x 1.619350 0.000000 -0.003660 
#    y 0.000000 1.655980 0.000000 
#    z -0.003660 0.000000 1.660900 
# 
# From -- ./inp_files/65550.got.cif
#   From: 2010.05.17/outbox.cif.g08.bks.cpg/sg10_33_cif.got.tgz:65550.got - 2010.06.03 11:33:40.
