data_PCOD9148787
_publ_section_title
;
Structure prediction by ZEFSAII (Michael W. Deem and Ramdas Pophale) SiO2 
 PCOD9148787
Probable space group: P 2/M
;
_chemical_formula_sum "Si O2"
_cell_formula_units_Z 28
_cell_length_a 12.274475
_cell_length_b 12.044963
_cell_length_c 20.358890
_cell_angle_alpha 90.000000
_cell_angle_beta 149.642430
_cell_angle_gamma 90.000000
_cell_volume 1521.224615
_symmetry_space_group_name_H-M "P 2/M"
_symmetry_group_IT_number 10
_symmetry_cell_setting 'monoclinic'
loop_
_space_group_symop_operation_xyz
x,y,z
-x,y,-z
-x,-y,-z
x,-y,z
loop_
_atom_site_type_symbol
_atom_site_label
_atom_site_fract_x
_atom_site_fract_y
_atom_site_fract_z
Si Si1 0.456023 0.121489 0.055514
Si Si2 0.755700 0.377114 0.344216
Si Si3 0.876282 0.764656 0.293396
Si Si4 0.627088 0.500000 0.467474
Si Si5 0.147632 0.500000 0.273299
Si Si6 0.632405 0.867395 0.636146
Si Si7 0.062546 0.264879 0.830737
Si Si8 0.335389 0.738206 0.580924
O O1 0.690686 0.144801 0.206719
O O2 0.372058 0.000000 0.030730
O O3 0.500000 0.120486 0.000000
O O4 0.282130 0.218009 0.976394
O O5 0.661511 0.500000 0.301720
O O6 0.783994 0.341667 0.283982
O O7 0.637429 0.285757 0.327711
O O8 0.000000 0.379824 0.500000
O O9 0.910395 0.742200 0.234269
O O10 0.105079 0.793572 0.444707
O O11 0.371437 0.500000 0.349473
O O12 0.764755 0.500000 0.606049
O O13 0.678460 0.613508 0.456477
O O14 0.010629 0.389077 0.189955
O O15 0.500000 0.841591 0.500000
O O16 0.515098 0.806250 0.635519
O O17 0.868492 0.817044 0.749153
O O18 0.635116 0.000000 0.645776
#
# Coordination Sequence:
#
# PCOD9148787 Si02
#       8
#     4   4   4   2   2   4   4   4
#     4   9  20  38  55  72 103 149 190 223 265 315
#     4   9  19  32  51  77 111 149 178 214 264 324
#     4  10  20  33  53  80 108 144 183 219 259 325
#     4  11  18  30  51  78 116 152 164 205 281 348
#     4  11  20  28  51  80 120 140 168 215 279 338
#     4  11  21  33  53  80 110 141 177 229 278 318
#     4  11  20  34  52  84 110 142 177 223 273 329
#     4  11  19  34  53  82 113 143 181 216 272 330
#
# _framework density 18.406223000000001
#
# number of rings (size 3 to 8) (size 9 to 14) (size 15 to 20)
#    0.000    1.714    5.000    0.429    2.000    1.143 
#    1.286    1.786    0.000    3.429    0.000    4.000 
#    0.000    0.000    0.000    0.000    0.000    0.000 
#
# Total GULP energy -156119.330938 kJ/mol
# GULP energy per Si atom -5575.690391 kJ/mol
# Density = 1.836433 g / cm^3
# Si number density = 18.406223 Si / 1000 Ang^3
#
#
#
# Elastic Constant Matrix: (Units=GPa)
#
#
# Indices 1 2 3 4 5 6 
#
# 1 96.9869 31.0779 25.7133 0.0000 14.5679 0.0000
# 2 31.0779 87.6795 30.4084 0.0000 18.1034 0.0000
# 3 25.7133 30.4084 54.5452 0.0000 25.1208 0.0000
# 4 0.0000 0.0000 0.0000 19.5891 0.0000 10.4220
# 5 14.5679 18.1034 25.1208 0.0000 18.8831 0.0000
# 6 0.0000 0.0000 0.0000 10.4220 0.0000 17.1981
#
#
#
# Elastic Compliance Matrix: (Units=1/GPa)
#
#
# Indices 1 2 3 4 5 6 
#
# 1 0.012428 -0.002763 -0.002898 0.000000 -0.003083 0.000000
# 2 -0.002763 0.015228 -0.003731 0.000000 -0.007505 0.000000
# 3 -0.002898 -0.003731 0.049321 0.000000 -0.059801 0.000000
# 4 0.000000 0.000000 0.000000 0.075339 0.000000 -0.045655
# 5 -0.003083 -0.007505 -0.059801 0.000000 0.142086 0.000000
# 6 0.000000 0.000000 0.000000 -0.045655 0.000000 0.085813
#
#
# Mechanical properties :
#
#
# Convention : Reuss Voigt Hill
#
# Bulk Modulus (GPa) = 17.18449 45.95675 31.57062
# Shear Modulus (GPa) = 11.95042 21.26818 16.60930
#
# Velocity S-wave (km/s) = 2.55082 3.40294 3.00721
# Velocity P-wave (km/s) = 4.24642 6.36099 5.40806
#
# Compressibility (1/GPa) = 0.05819200
#
# Stress axis : x y z
#
# Youngs Moduli (GPa) = 80.46640 65.66895 20.27546
#
# Poissons Ratio (x) = 0.18146 0.05876
# Poissons Ratio (y) = 0.22235 0.07564
# Poissons Ratio (z) = 0.23321 0.24498
#
# Static dielectric constant tensor:
#      x y z
#    x 1.650450 0.000000 -0.002040 
#    y 0.000000 1.644440 0.000000 
#    z -0.002040 0.000000 1.628300 
# 
# From -- ./inp_files/55887.got.cif
#   From: 2010.05.17/outbox.cif.g08.bks.cpg/sg10_28_cif.got.tgz:55887.got - 2010.06.03 11:33:40.
