data_PCOD9148545
_publ_section_title
;
Structure prediction by ZEFSAII (Michael W. Deem and Ramdas Pophale) SiO2 
 PCOD9148545
Probable space group: P 2/M
;
_chemical_formula_sum "Si O2"
_cell_formula_units_Z 28
_cell_length_a 8.275722
_cell_length_b 13.486024
_cell_length_c 16.172527
_cell_angle_alpha 90.000000
_cell_angle_beta 132.539166
_cell_angle_gamma 90.000000
_cell_volume 1329.922611
_symmetry_space_group_name_H-M "P 2/M"
_symmetry_group_IT_number 10
_symmetry_cell_setting 'monoclinic'
loop_
_space_group_symop_operation_xyz
x,y,z
-x,y,-z
-x,-y,-z
x,-y,z
loop_
_atom_site_type_symbol
_atom_site_label
_atom_site_fract_x
_atom_site_fract_y
_atom_site_fract_z
Si Si1 0.541802 0.384953 0.419767
Si Si2 0.061932 0.752218 0.804356
Si Si3 0.020091 0.385008 0.639980
Si Si4 0.686363 0.386768 0.991730
Si Si5 0.516798 0.709428 0.243206
Si Si6 0.554005 0.116059 0.147396
Si Si7 0.946675 0.113938 0.070152
O O1 0.500000 0.353151 0.500000
O O2 0.468069 0.500000 0.387003
O O3 0.446214 0.322681 0.310575
O O4 0.807669 0.384504 0.508896
O O5 0.967827 0.680542 0.702859
O O6 0.265480 0.813392 0.833454
O O7 0.134325 0.682547 0.905152
O O8 0.939230 0.837462 0.811750
O O9 0.067199 0.500000 0.678376
O O10 0.237503 0.334993 0.679921
O O11 0.754882 0.500000 0.004353
O O12 0.606883 0.343211 0.876775
O O13 0.500000 0.385606 0.000000
O O14 0.516434 0.826147 0.221111
O O15 0.320299 0.117278 0.018910
O O16 0.618487 0.000000 0.175970
O O17 0.013806 0.000000 0.090300
O O18 0.000000 0.160477 0.000000
#
# Coordination Sequence:
#
# PCOD9148545 Si02
#       7
#     4   4   4   4   4   4   4
#     4  10  22  39  57  78 106 142 185 226 263 311
#     4  11  19  33  53  80 111 142 174 217 271 319
#     4  10  20  34  55  81 107 139 179 221 261 316
#     4  11  18  28  49  82 115 141 168 210 264 326
#     4  11  20  34  58  80 107 142 180 222 272 314
#     4  10  20  34  54  81 108 136 180 224 268 317
#     4  10  20  33  49  72 106 145 184 220 258 315
#
# _framework density 21.053857000000001
#
# number of rings (size 3 to 8) (size 9 to 14) (size 15 to 20)
#    0.000    1.571    4.286    3.000    0.000    3.429 
#    0.000    0.000    0.000    9.000    0.000    0.000 
#    0.000    0.000    0.000    0.000    0.000    0.000 
#
# Total GULP energy -156205.407371 kJ/mol
# GULP energy per Si atom -5578.764549 kJ/mol
# Density = 2.100594 g / cm^3
# Si number density = 21.053857 Si / 1000 Ang^3
#
#
#
# Elastic Constant Matrix: (Units=GPa)
#
#
# Indices 1 2 3 4 5 6 
#
# 1 46.2101 16.7797 26.3029 0.0000 -16.5989 0.0000
# 2 16.7797 131.3673 41.8000 0.0000 -17.2006 0.0000
# 3 26.3029 41.8000 96.5801 0.0000 -33.4733 0.0000
# 4 0.0000 0.0000 0.0000 11.1590 0.0000 0.0437
# 5 -16.5989 -17.2006 -33.4733 0.0000 40.4767 0.0000
# 6 0.0000 0.0000 0.0000 0.0437 0.0000 17.1934
#
#
#
# Elastic Compliance Matrix: (Units=1/GPa)
#
#
# Indices 1 2 3 4 5 6 
#
# 1 0.027091 -0.001125 -0.004495 0.000000 0.006915 0.000000
# 2 -0.001125 0.008895 -0.003355 0.000000 0.000544 0.000000
# 3 -0.004495 -0.003355 0.016677 0.000000 0.010523 0.000000
# 4 0.000000 0.000000 0.000000 0.089615 0.000000 -0.000228
# 5 0.006915 0.000544 0.010523 0.000000 0.036475 0.000000
# 6 0.000000 0.000000 0.000000 -0.000228 0.000000 0.058162
#
#
# Mechanical properties :
#
#
# Convention : Reuss Voigt Hill
#
# Bulk Modulus (GPa) = 28.80647 49.32474 39.06561
# Shear Modulus (GPa) = 18.76638 26.38415 22.57527
#
# Velocity S-wave (km/s) = 2.98879 3.54386 3.27809
# Velocity P-wave (km/s) = 5.06186 6.34224 5.73788
#
# Compressibility (1/GPa) = 0.03471443
#
# Stress axis : x y z
#
# Youngs Moduli (GPa) = 36.91274 112.42776 59.96223
#
# Poissons Ratio (x) = 0.12646 0.26951
# Poissons Ratio (y) = 0.04152 0.20115
# Poissons Ratio (z) = 0.16591 0.37715
#
# Static dielectric constant tensor:
#      x y z
#    x 1.909470 0.000000 -0.007550 
#    y 0.000000 1.783090 0.000000 
#    z -0.007550 0.000000 1.748630 
# 
# From -- ./inp_files/61906.got.cif
#   From: 2010.05.17/outbox.cif.g08.bks.cpg/sg10_31_cif.got.tgz:61906.got - 2010.06.03 11:33:40.
