data_PCOD9148254
_publ_section_title
;
Structure prediction by ZEFSAII (Michael W. Deem and Ramdas Pophale) SiO2 
 PCOD9148254
Probable space group: P 2/M
;
_chemical_formula_sum "Si O2"
_cell_formula_units_Z 28
_cell_length_a 30.138029
_cell_length_b 7.473234
_cell_length_c 9.409458
_cell_angle_alpha 90.000000
_cell_angle_beta 141.309155
_cell_angle_gamma 90.000000
_cell_volume 1324.799036
_symmetry_space_group_name_H-M "P 2/M"
_symmetry_group_IT_number 10
_symmetry_cell_setting 'monoclinic'
loop_
_space_group_symop_operation_xyz
x,y,z
-x,y,-z
-x,-y,-z
x,-y,z
loop_
_atom_site_type_symbol
_atom_site_label
_atom_site_fract_x
_atom_site_fract_y
_atom_site_fract_z
Si Si1 0.845926 0.715579 0.777102
Si Si2 0.430176 0.781181 0.911954
Si Si3 0.845927 0.284421 0.452531
Si Si4 0.430176 0.781181 0.238925
Si Si5 1.000000 0.293195 0.173140
Si Si6 0.705715 0.786715 0.924787
Si Si7 0.294285 0.213285 0.396214
O O1 0.851872 0.500000 0.785336
O O2 0.832716 0.778129 0.581790
O O3 0.780649 0.757769 0.714722
O O4 0.923264 0.784289 0.020975
O O5 0.359163 0.719186 0.654525
O O6 0.429694 0.000000 0.912198
O O7 0.500000 0.726649 0.000000
O O8 0.432126 0.723115 0.080315
O O9 0.851872 0.500000 0.474025
O O10 0.923264 0.215711 0.595346
O O11 0.780649 0.242232 0.188522
O O12 0.500000 0.726651 0.500000
O O13 0.359163 0.719185 0.141291
O O14 0.429693 0.000000 0.236268
O O15 1.000000 0.500000 0.221608
O O16 0.000000 0.293639 0.000000
O O17 0.704690 0.715159 0.761726
O O18 0.695526 0.000000 0.889864
O O19 0.304474 0.000000 0.412234
#
# Coordination Sequence:
#
# PCOD9148254 Si02
#       7
#     4   4   4   4   4   4   4
#     4   9  17  31  52  74  94 120 157 199 241 285
#     4   9  16  27  45  68  93 122 157 196 235 276
#     4   9  17  31  52  74  94 120 157 199 241 285
#     4   9  16  27  45  68  93 122 157 196 235 276
#     4   7  12  26  48  71  92 116 152 197 238 279
#     4  10  20  32  46  68  99 131 161 194 233 278
#     4  10  20  32  46  68  99 131 161 194 233 278
#
# _framework density 21.135280999999999
#
# number of rings (size 3 to 8) (size 9 to 14) (size 15 to 20)
#    0.000    3.000    0.000    3.429    0.000    5.714 
#    0.000    1.429    0.000    7.714    0.000    0.000 
#    0.000    0.000    0.000    0.000    0.000    0.000 
#
# Total GULP energy -156230.309943 kJ/mol
# GULP energy per Si atom -5579.653927 kJ/mol
# Density = 2.108718 g / cm^3
# Si number density = 21.135281 Si / 1000 Ang^3
#
#
#
# Elastic Constant Matrix: (Units=GPa)
#
#
# Indices 1 2 3 4 5 6 
#
# 1 202.5368 4.4080 144.7692 0.0000 13.9518 0.0000
# 2 4.4080 60.2947 3.5865 0.0000 -2.7423 0.0000
# 3 144.7692 3.5865 211.4971 0.0000 15.9465 0.0000
# 4 0.0000 0.0000 0.0000 19.6837 0.0000 2.2674
# 5 13.9518 -2.7423 15.9465 0.0000 37.6311 0.0000
# 6 0.0000 0.0000 0.0000 2.2674 0.0000 19.0046
#
#
#
# Elastic Compliance Matrix: (Units=1/GPa)
#
#
# Indices 1 2 3 4 5 6 
#
# 1 0.009699 -0.000356 -0.006569 0.000000 -0.000838 0.000000
# 2 -0.000356 0.016684 -0.000145 0.000000 0.001410 0.000000
# 3 -0.006569 -0.000145 0.009343 0.000000 -0.001534 0.000000
# 4 0.000000 0.000000 0.000000 0.051511 0.000000 -0.006146
# 5 -0.000838 0.001410 -0.001534 0.000000 0.027637 0.000000
# 6 0.000000 0.000000 0.000000 -0.006146 0.000000 0.053352
#
#
# Mechanical properties :
#
#
# Convention : Reuss Voigt Hill
#
# Bulk Modulus (GPa) = 46.33162 86.65068 66.49115
# Shear Modulus (GPa) = 26.37648 36.70155 31.53901
#
# Velocity S-wave (km/s) = 3.53651 4.17166 3.86715
# Velocity P-wave (km/s) = 6.21651 8.01815 7.17411
#
# Compressibility (1/GPa) = 0.02158353
#
# Stress axis : x y z
#
# Youngs Moduli (GPa) = 103.10853 59.93766 107.03124
#
# Poissons Ratio (x) = 0.02136 0.70313
# Poissons Ratio (y) = 0.03675 0.01555
# Poissons Ratio (z) = 0.67736 0.00871
#
# Static dielectric constant tensor:
#      x y z
#    x 1.736160 0.000000 0.017470 
#    y 0.000000 1.835620 0.000000 
#    z 0.017470 0.000000 1.741390 
# 
# From -- ./inp_files/34553.got.cif
#   From: 2010.05.17/outbox.cif.g08.bks.cpg/sg10_18_cif.got.tgz:34553.got - 2010.06.03 11:33:40.
