data_PCOD9148029
_publ_section_title
;
Structure prediction by ZEFSAII (Michael W. Deem and Ramdas Pophale) SiO2 
 PCOD9148029
Probable space group: P 2/M
;
_chemical_formula_sum "Si O2"
_cell_formula_units_Z 18
_cell_length_a 7.991999
_cell_length_b 21.417587
_cell_length_c 5.319590
_cell_angle_alpha 90.000000
_cell_angle_beta 60.597901
_cell_angle_gamma 90.000000
_cell_volume 793.267950
_symmetry_space_group_name_H-M "P 2/M"
_symmetry_group_IT_number 10
_symmetry_cell_setting 'monoclinic'
loop_
_space_group_symop_operation_xyz
x,y,z
-x,y,-z
-x,-y,-z
x,-y,z
loop_
_atom_site_type_symbol
_atom_site_label
_atom_site_fract_x
_atom_site_fract_y
_atom_site_fract_z
Si Si1 0.327681 0.433169 0.426638
Si Si2 0.878148 0.188431 0.844725
Si Si3 0.000000 0.395397 0.000000
Si Si4 0.788418 0.683114 0.786049
Si Si5 0.371287 0.069966 0.843566
O O1 0.500000 0.434119 0.500000
O O2 0.337126 0.500000 0.277154
O O3 0.332464 0.366891 0.280988
O O4 0.116425 0.432999 0.708439
O O5 0.735045 0.245445 0.876735
O O6 0.000000 0.175849 0.500000
O O7 0.777366 0.125503 0.009570
O O8 0.000000 0.210291 0.000000
O O9 0.164726 0.351887 0.991948
O O10 0.000000 0.688189 0.500000
O O11 0.500000 0.080455 0.500000
O O12 0.286044 0.000000 0.882739
O O13 0.500000 0.070247 0.000000
#
# Coordination Sequence:
#
# PCOD9148029 Si02
#       5
#     4   4   2   4   4
#     4  10  22  39  60  88 120 161 218 274 332 403
#     4  11  22  40  67  96 130 172 222 276 330 393
#     4  10  19  38  60  82 117 162 198 272 329 394
#     4   9  20  38  58  84 122 161 208 269 333 396
#     4  10  22  42  64  96 138 177 218 269 329 395
#
# _framework density 22.690944999999999
#
# number of rings (size 3 to 8) (size 9 to 14) (size 15 to 20)
#    0.000    2.000    1.111    1.667    0.000    6.667 
#    4.000    2.222    0.000    0.000    0.000    0.000 
#    0.000    0.000    0.000    0.000    0.000    0.000 
#
# Total GULP energy -100411.744797 kJ/mol
# GULP energy per Si atom -5578.430267 kJ/mol
# Density = 2.263930 g / cm^3
# Si number density = 22.690945 Si / 1000 Ang^3
#
#
#
# Elastic Constant Matrix: (Units=GPa)
#
#
# Indices 1 2 3 4 5 6 
#
# 1 70.4059 47.0255 20.9816 0.0000 9.0480 0.0000
# 2 47.0255 234.7977 63.2683 0.0000 -6.0517 0.0000
# 3 20.9816 63.2683 136.3677 0.0000 2.1414 0.0000
# 4 0.0000 0.0000 0.0000 42.8551 0.0000 8.0297
# 5 9.0480 -6.0517 2.1414 0.0000 33.6789 0.0000
# 6 0.0000 0.0000 0.0000 8.0297 0.0000 49.0906
#
#
#
# Elastic Compliance Matrix: (Units=1/GPa)
#
#
# Indices 1 2 3 4 5 6 
#
# 1 0.017417 -0.003340 -0.001048 0.000000 -0.005213 0.000000
# 2 -0.003340 0.005543 -0.002090 0.000000 0.002026 0.000000
# 3 -0.001048 -0.002090 0.008474 0.000000 -0.000633 0.000000
# 4 0.000000 0.000000 0.000000 0.024072 0.000000 -0.003937
# 5 -0.005213 0.002026 -0.000633 0.000000 0.031497 0.000000
# 6 0.000000 0.000000 0.000000 -0.003937 0.000000 0.021015
#
#
# Mechanical properties :
#
#
# Convention : Reuss Voigt Hill
#
# Bulk Modulus (GPa) = 54.11960 78.23576 66.17768
# Shear Modulus (GPa) = 39.32901 45.81131 42.57016
#
# Velocity S-wave (km/s) = 4.16774 4.49812 4.33608
# Velocity P-wave (km/s) = 6.86022 7.84418 7.36864
#
# Compressibility (1/GPa) = 0.01847759
#
# Stress axis : x y z
#
# Youngs Moduli (GPa) = 57.41671 180.39919 118.00989
#
# Poissons Ratio (x) = 0.60255 0.12370
# Poissons Ratio (y) = 0.19178 0.24661
# Poissons Ratio (z) = 0.06018 0.37698
#
# Static dielectric constant tensor:
#      x y z
#    x 1.884270 0.000000 0.007780 
#    y 0.000000 1.866310 0.000000 
#    z 0.007780 0.000000 1.923070 
# 
# From -- ./inp_files/4633.got.cif
#   From: 2010.05.17/outbox.cif.g08.bks.cpg/sg10_3_cif.got.tgz:4633.got - 2010.06.03 11:33:40.
