data_PCOD9148945
_publ_section_title
;
Structure prediction by ZEFSAII (Michael W. Deem and Ramdas Pophale) SiO2 
 PCOD9148945
Probable space group: P 2/M
;
_chemical_formula_sum "Si O2"
_cell_formula_units_Z 32
_cell_length_a 15.478880
_cell_length_b 8.611559
_cell_length_c 31.772028
_cell_angle_alpha 90.000000
_cell_angle_beta 28.449693
_cell_angle_gamma 90.000000
_cell_volume 2017.558388
_symmetry_space_group_name_H-M "P 2/M"
_symmetry_group_IT_number 10
_symmetry_cell_setting 'monoclinic'
loop_
_space_group_symop_operation_xyz
x,y,z
-x,y,-z
-x,-y,-z
x,-y,z
loop_
_atom_site_type_symbol
_atom_site_label
_atom_site_fract_x
_atom_site_fract_y
_atom_site_fract_z
Si Si1 0.447543 0.688145 0.928051
Si Si2 0.549679 0.684302 0.414915
Si Si3 0.180289 0.312226 0.867920
Si Si4 0.156031 0.313827 0.210412
Si Si5 0.856362 0.186275 0.878916
Si Si6 0.248925 0.185365 0.749008
Si Si7 0.762538 0.688332 0.063409
Si Si8 0.775996 0.184663 0.395874
O O1 0.436628 0.500000 0.934573
O O2 0.652863 0.732721 0.850776
O O3 0.378466 0.739588 0.911596
O O4 0.308730 0.754912 0.021817
O O5 0.564210 0.500000 0.413205
O O6 0.608414 0.737015 0.343588
O O7 0.350877 0.739415 0.514286
O O8 0.687202 0.762757 0.389473
O O9 0.188712 0.500000 0.861449
O O10 0.264922 0.239607 0.790145
O O11 0.264613 0.262487 0.876639
O O12 0.966825 0.268088 0.962042
O O13 0.141267 0.500000 0.217867
O O14 0.154309 0.258661 0.162792
O O15 0.981999 0.241126 0.307628
O O16 0.047378 0.230322 0.818835
O O17 0.850809 0.000000 0.877885
O O18 0.264209 0.000000 0.739495
O O19 0.760354 0.500000 0.065047
O O20 0.765229 0.000000 0.403385
#
# Coordination Sequence:
#
# PCOD9148945 Si02
#       8
#     4   4   4   4   4   4   4   4
#     4  10  20  34  51  70  97 132 173 213 247 287
#     4  11  21  34  54  75  97 127 164 204 243 295
#     4   9  16  29  51  72  94 127 166 204 246 296
#     4  11  22  34  50  71  96 133 175 210 242 288
#     4  11  22  33  46  67 100 137 171 207 245 290
#     4  11  21  32  47  73 104 134 163 199 248 296
#     4   8  15  29  49  72  95 124 164 209 250 288
#     4  11  21  35  52  72 100 130 160 203 250 294
#
# _framework density 15.860756
#
# number of rings (size 3 to 8) (size 9 to 14) (size 15 to 20)
#    0.000    1.750    2.500    5.250    0.000    3.500 
#    0.000    1.875    0.000    0.000    0.000    0.875 
#    0.000    7.000    0.000    0.000    0.000    0.000 
#
# Total GULP energy -178643.293848 kJ/mol
# GULP energy per Si atom -5582.602933 kJ/mol
# Density = 1.582466 g / cm^3
# Si number density = 15.860756 Si / 1000 Ang^3
#
#
#
# Elastic Constant Matrix: (Units=GPa)
#
#
# Indices 1 2 3 4 5 6 
#
# 1 71.8696 10.3175 46.8029 0.0000 8.5699 0.0000
# 2 10.3175 32.8849 15.2216 0.0000 1.4105 0.0000
# 3 46.8029 15.2216 102.7406 0.0000 10.4792 0.0000
# 4 0.0000 0.0000 0.0000 114.3364 0.0000 109.7751
# 5 8.5699 1.4105 10.4792 0.0000 23.8501 0.0000
# 6 0.0000 0.0000 0.0000 109.7751 0.0000 141.5952
#
#
#
# Elastic Compliance Matrix: (Units=1/GPa)
#
#
# Indices 1 2 3 4 5 6 
#
# 1 0.020187 -0.002246 -0.008519 0.000000 -0.003378 0.000000
# 2 -0.002246 0.032899 -0.003910 0.000000 0.000579 0.000000
# 3 -0.008519 -0.003910 0.014508 0.000000 -0.003082 0.000000
# 4 0.000000 0.000000 0.000000 0.034211 0.000000 -0.026523
# 5 -0.003378 0.000579 -0.003082 0.000000 0.044462 0.000000
# 6 0.000000 0.000000 0.000000 -0.026523 0.000000 0.027625
#
#
# Mechanical properties :
#
#
# Convention : Reuss Voigt Hill
#
# Bulk Modulus (GPa) = 26.14787 39.13098 32.63942
# Shear Modulus (GPa) = 23.14945 64.96657 44.05801
#
# Velocity S-wave (km/s) = 3.82454 6.40699 5.27620
# Velocity P-wave (km/s) = 6.00204 8.91391 7.59876
#
# Compressibility (1/GPa) = 0.03824404
#
# Stress axis : x y z
#
# Youngs Moduli (GPa) = 49.53723 30.39634 68.92929
#
# Poissons Ratio (x) = 0.06826 0.58719
# Poissons Ratio (y) = 0.11124 0.26953
# Poissons Ratio (z) = 0.42200 0.11886
#
# Static dielectric constant tensor:
#      x y z
#    x 1.527260 0.000000 0.000810 
#    y 0.000000 1.533570 0.000000 
#    z 0.000810 0.000000 1.515150 
# 
# From -- ./inp_files/95260.got.cif
#   From: 2010.05.17/outbox.cif.g08.bks.cpg/sg10_48_cif.got.tgz:95260.got - 2010.06.03 11:33:40.
