data_PCOD9148681
_publ_section_title
;
Structure prediction by ZEFSAII (Michael W. Deem and Ramdas Pophale) SiO2 
 PCOD9148681
Probable space group: P 2/M
;
_chemical_formula_sum "Si O2"
_cell_formula_units_Z 28
_cell_length_a 9.245353
_cell_length_b 18.202369
_cell_length_c 14.421596
_cell_angle_alpha 90.000000
_cell_angle_beta 141.249016
_cell_angle_gamma 90.000000
_cell_volume 1519.131147
_symmetry_space_group_name_H-M "P 2/M"
_symmetry_group_IT_number 10
_symmetry_cell_setting 'monoclinic'
loop_
_space_group_symop_operation_xyz
x,y,z
-x,y,-z
-x,-y,-z
x,-y,z
loop_
_atom_site_type_symbol
_atom_site_label
_atom_site_fract_x
_atom_site_fract_y
_atom_site_fract_z
Si Si1 0.242485 0.144943 0.063036
Si Si2 0.932610 0.302481 0.365242
Si Si3 0.242475 0.144934 0.679439
Si Si4 0.768606 0.223500 0.634323
Si Si5 0.067339 0.697515 0.932606
Si Si6 0.772785 0.582180 0.136408
Si Si7 0.911522 0.916302 0.205753
O O1 0.499988 0.130571 0.234233
O O2 0.230221 0.231384 0.029727
O O3 0.223943 0.100382 0.957396
O O4 0.000000 0.131523 0.000000
O O5 0.769754 0.231374 0.299495
O O6 0.837967 0.368474 0.257146
O O7 0.000000 0.328866 0.500000
O O8 0.142048 0.267370 0.410940
O O9 0.223883 0.100366 0.766505
O O10 0.000000 0.131525 0.500000
O O11 0.500000 0.216878 0.500000
O O12 0.857862 0.267358 0.768901
O O13 0.886504 0.144031 0.693270
O O14 0.161937 0.631538 0.919083
O O15 0.000000 0.671104 0.000000
O O16 0.875745 0.500000 0.187886
O O17 0.500000 0.575179 0.000000
O O18 0.990277 0.000000 0.245112
#
# Coordination Sequence:
#
# PCOD9148681 Si02
#       7
#     4   4   4   4   4   4   4
#     4  10  21  37  58  82 108 141 186 234 275 322
#     4   9  19  34  55  77 104 141 179 221 271 323
#     4  10  21  37  58  82 108 141 186 234 275 322
#     4   9  19  35  54  80 108 137 182 233 273 316
#     4   9  19  34  55  77 104 141 179 221 271 323
#     4  10  20  33  51  78 109 138 174 220 265 317
#     4  10  22  37  54  78 110 149 182 215 272 337
#
# _framework density 18.431588999999999
#
# number of rings (size 3 to 8) (size 9 to 14) (size 15 to 20)
#    0.000    2.429    0.000    2.143    0.000   14.000 
#    0.000    0.000    0.000    6.857    0.000    0.000 
#    0.000    0.000    0.000    0.000    0.000    0.000 
#
# Total GULP energy -155965.995511 kJ/mol
# GULP energy per Si atom -5570.214125 kJ/mol
# Density = 1.838964 g / cm^3
# Si number density = 18.431589 Si / 1000 Ang^3
#
#
#
# Elastic Constant Matrix: (Units=GPa)
#
#
# Indices 1 2 3 4 5 6 
#
# 1 98.4012 45.1163 84.4388 0.0000 -9.5025 0.0000
# 2 45.1163 107.8531 38.9959 0.0000 -10.9327 0.0000
# 3 84.4388 38.9959 101.4125 0.0000 14.3563 0.0000
# 4 0.0000 0.0000 0.0000 -10.7453 0.0000 -4.1146
# 5 -9.5025 -10.9327 14.3563 0.0000 46.3051 0.0000
# 6 0.0000 0.0000 0.0000 -4.1146 0.0000 -8.4359
#
#
#
# Elastic Compliance Matrix: (Units=1/GPa)
#
#
# Indices 1 2 3 4 5 6 
#
# 1 0.057322 -0.003088 -0.050311 0.000000 0.026632 0.000000
# 2 -0.003088 0.011695 -0.002329 0.000000 0.002849 0.000000
# 3 -0.050311 -0.002329 0.056673 0.000000 -0.028445 0.000000
# 4 0.000000 0.000000 0.000000 -0.114437 0.000000 0.055816
# 5 0.026632 0.002849 -0.028445 0.000000 0.036553 0.000000
# 6 0.000000 0.000000 0.000000 0.055816 0.000000 -0.145766
#
#
# Mechanical properties :
#
#
# Convention : Reuss Voigt Hill
#
# Bulk Modulus (GPa) = 70.25335 71.64096 70.94716
# Shear Modulus (GPa) = 274.11313 14.69920 144.40616
#
# Velocity S-wave (km/s) = 12.20828 2.82707 8.86099
# Velocity P-wave (km/s) = 15.39225 7.04339 11.96935
#
# Compressibility (1/GPa) = 0.01423420
#
# Stress axis : x y z
#
# Youngs Moduli (GPa) = 17.44521 85.50946 17.64508
#
# Poissons Ratio (x) = 0.26409 0.88774
# Poissons Ratio (y) = 0.05388 0.04109
# Poissons Ratio (z) = 0.87768 0.19913
#
# Static dielectric constant tensor:
#      x y z
#    x 1.667730 0.000000 -0.003840 
#    y 0.000000 1.626800 0.000000 
#    z -0.003840 0.000000 1.665520 
# 
# From -- ./inp_files/62357.got.cif
#   From: 2010.05.17/outbox.cif.g08.bks.cpg/sg10_32_cif.got.tgz:62357.got - 2010.06.03 11:33:40.
