data_PCOD9148962
_publ_section_title
;
Structure prediction by ZEFSAII (Michael W. Deem and Ramdas Pophale) SiO2 
 PCOD9148962
Probable space group: P 2/M
;
_chemical_formula_sum "Si O2"
_cell_formula_units_Z 28
_cell_length_a 15.323179
_cell_length_b 8.878698
_cell_length_c 19.474891
_cell_angle_alpha 90.000000
_cell_angle_beta 142.584588
_cell_angle_gamma 90.000000
_cell_volume 1609.842765
_symmetry_space_group_name_H-M "P 2/M"
_symmetry_group_IT_number 10
_symmetry_cell_setting 'monoclinic'
loop_
_space_group_symop_operation_xyz
x,y,z
-x,y,-z
-x,-y,-z
x,-y,z
loop_
_atom_site_type_symbol
_atom_site_label
_atom_site_fract_x
_atom_site_fract_y
_atom_site_fract_z
Si Si1 0.326144 0.820312 0.668192
Si Si2 0.770708 0.320124 0.248483
Si Si3 0.385247 0.319768 0.127149
Si Si4 0.936257 0.680837 0.032088
Si Si5 0.019094 0.172485 0.220000
Si Si6 0.316762 0.826194 0.943667
Si Si7 0.077920 0.181808 0.404129
O O1 0.277316 0.742446 0.708244
O O2 0.483942 0.757044 0.751662
O O3 0.210690 0.787216 0.536802
O O4 0.330956 0.000000 0.680990
O O5 0.760723 0.500000 0.239505
O O6 0.679421 0.248254 0.128820
O O7 0.935144 0.266112 0.340118
O O8 0.396866 0.500000 0.136277
O O9 0.229782 0.273724 0.059786
O O10 0.390800 0.264313 0.051460
O O11 0.938151 0.500000 0.032305
O O12 0.024298 0.734659 0.153553
O O13 0.000000 0.736771 0.000000
O O14 0.852674 0.175412 0.141326
O O15 0.103943 0.224259 0.340766
O O16 0.057154 0.000000 0.228798
O O17 0.363993 0.000000 0.971877
O O18 0.049825 0.000000 0.387747
#
# Coordination Sequence:
#
# PCOD9148962 Si02
#       7
#     4   4   4   4   4   4   4
#     4  11  22  35  50  68  97 137 173 205 247 295
#     4  11  21  32  49  74 100 128 170 217 252 283
#     4  10  20  34  51  74 102 128 161 205 250 296
#     4   9  18  33  54  79 104 127 151 188 243 303
#     4   8  15  29  50  75  98 122 158 202 241 280
#     4   9  17  32  51  70  97 132 167 203 248 298
#     4   9  19  35  52  70  97 134 173 209 244 287
#
# _framework density 17.393003
#
# number of rings (size 3 to 8) (size 9 to 14) (size 15 to 20)
#    0.000    2.429    0.000    3.857    0.000    7.714 
#    0.000    2.857    0.000    0.857    0.000    6.000 
#    0.000    0.000    0.000    0.000    0.000    0.000 
#
# Total GULP energy -156232.707256 kJ/mol
# GULP energy per Si atom -5579.739545 kJ/mol
# Density = 1.735342 g / cm^3
# Si number density = 17.393003 Si / 1000 Ang^3
#
#
#
# Elastic Constant Matrix: (Units=GPa)
#
#
# Indices 1 2 3 4 5 6 
#
# 1 95.6467 31.9116 51.7797 0.0000 -21.4022 0.0000
# 2 31.9116 56.6083 35.1003 0.0000 -3.1870 0.0000
# 3 51.7797 35.1003 101.2090 0.0000 -7.5605 0.0000
# 4 0.0000 0.0000 0.0000 0.2177 0.0000 -4.6313
# 5 -21.4022 -3.1870 -7.5605 0.0000 20.4644 0.0000
# 6 0.0000 0.0000 0.0000 -4.6313 0.0000 19.6720
#
#
#
# Elastic Compliance Matrix: (Units=1/GPa)
#
#
# Indices 1 2 3 4 5 6 
#
# 1 0.020149 -0.006104 -0.006878 0.000000 0.017581 0.000000
# 2 -0.006104 0.024362 -0.005676 0.000000 -0.004687 0.000000
# 3 -0.006878 -0.005676 0.015184 0.000000 -0.002468 0.000000
# 4 0.000000 0.000000 0.000000 -1.145960 0.000000 -0.269786
# 5 0.017581 -0.004687 -0.002468 0.000000 0.065610 0.000000
# 6 0.000000 0.000000 0.000000 -0.269786 0.000000 -0.012680
#
#
# Mechanical properties :
#
#
# Convention : Reuss Voigt Hill
#
# Bulk Modulus (GPa) = 44.68680 54.56078 49.62379
# Shear Modulus (GPa) = -5.05787 17.04898 5.99556
#
# Velocity S-wave (km/s) = -1.70713 3.13424 1.85865
# Velocity P-wave (km/s) = 4.67573 6.67349 5.76185
#
# Compressibility (1/GPa) = 0.02237797
#
# Stress axis : x y z
#
# Youngs Moduli (GPa) = 49.62943 41.04770 65.85967
#
# Poissons Ratio (x) = 0.25055 0.45301
# Poissons Ratio (y) = 0.30293 0.37383
# Poissons Ratio (z) = 0.34137 0.23300
#
# Static dielectric constant tensor:
#      x y z
#    x 1.592760 0.000000 0.007180 
#    y 0.000000 1.582940 0.000000 
#    z 0.007180 0.000000 1.604950 
# 
# From -- ./inp_files/54971.got.cif
#   From: 2010.05.17/outbox.cif.g08.bks.cpg/sg10_28_cif.got.tgz:54971.got - 2010.06.03 11:33:40.
