data_PCOD9148440
_publ_section_title
;
Structure prediction by ZEFSAII (Michael W. Deem and Ramdas Pophale) SiO2 
 PCOD9148440
Probable space group: P 2/M
;
_chemical_formula_sum "Si O2"
_cell_formula_units_Z 32
_cell_length_a 11.359363
_cell_length_b 23.684302
_cell_length_c 17.567920
_cell_angle_alpha 90.000000
_cell_angle_beta 158.552251
_cell_angle_gamma 90.000000
_cell_volume 1728.238013
_symmetry_space_group_name_H-M "P 2/M"
_symmetry_group_IT_number 10
_symmetry_cell_setting 'monoclinic'
loop_
_space_group_symop_operation_xyz
x,y,z
-x,y,-z
-x,-y,-z
x,-y,z
loop_
_atom_site_type_symbol
_atom_site_label
_atom_site_fract_x
_atom_site_fract_y
_atom_site_fract_z
Si Si1 0.973731 0.143084 0.396899
Si Si2 0.200305 0.621855 0.045725
Si Si3 0.431462 0.433870 0.868327
Si Si4 0.931936 0.257986 0.869968
Si Si5 0.773190 0.827326 0.061712
Si Si6 0.100423 0.340571 0.481568
Si Si7 0.803150 0.238737 0.560894
Si Si8 0.880230 0.063402 0.207516
O O1 0.036020 0.092047 0.375824
O O2 0.000000 0.126189 0.500000
O O3 0.205851 0.194465 0.514372
O O4 0.609963 0.165694 0.163008
O O5 0.295552 0.582759 0.030604
O O6 0.534547 0.641069 0.285812
O O7 0.000000 0.600660 0.000000
O O8 0.037253 0.678301 0.911915
O O9 0.359072 0.500000 0.815297
O O10 0.130593 0.393947 0.667332
O O11 0.500000 0.424751 0.000000
O O12 0.557693 0.247490 0.626868
O O13 0.135832 0.207180 0.957736
O O14 0.000000 0.257525 0.000000
O O15 0.909562 0.890558 0.157825
O O16 0.950156 0.789128 0.231796
O O17 0.070936 0.297943 0.394518
O O18 0.000000 0.310607 0.500000
O O19 0.990843 0.000000 0.257626
O O20 0.500000 0.060556 0.000000
#
# Coordination Sequence:
#
# PCOD9148440 Si02
#       8
#     4   4   4   4   4   4   4   4
#     4  10  20  32  53  82 112 147 192 236 289 350
#     4  10  21  40  61  91 118 156 202 238 301 354
#     4  10  24  43  63  89 120 158 201 251 297 346
#     4  11  21  36  54  81 121 150 185 240 293 353
#     4  10  22  34  54  85 110 155 190 231 298 350
#     4  10  21  36  60  86 116 155 192 239 288 355
#     4  11  20  34  53  82 118 148 186 235 293 355
#     4   8  16  34  54  78 111 144 191 242 284 342
#
# _framework density 18.515968000000001
#
# number of rings (size 3 to 8) (size 9 to 14) (size 15 to 20)
#    0.000    2.000    2.500    2.625    5.250    2.750 
#    0.000    0.625    0.000    7.875    0.000    0.000 
#    0.000    0.000    0.000    0.000    0.000    0.000 
#
# Total GULP energy -178268.495400 kJ/mol
# GULP energy per Si atom -5570.890481 kJ/mol
# Density = 1.847382 g / cm^3
# Si number density = 18.515968 Si / 1000 Ang^3
#
#
#
# Elastic Constant Matrix: (Units=GPa)
#
#
# Indices 1 2 3 4 5 6 
#
# 1 55.8717 34.4716 10.2903 0.0000 5.7286 0.0000
# 2 34.4716 118.6040 24.1943 0.0000 2.6399 0.0000
# 3 10.2903 24.1943 69.9371 0.0000 5.6503 0.0000
# 4 0.0000 0.0000 0.0000 8.3256 0.0000 -3.2843
# 5 5.7286 2.6399 5.6503 0.0000 25.3584 0.0000
# 6 0.0000 0.0000 0.0000 -3.2843 0.0000 23.2745
#
#
#
# Elastic Compliance Matrix: (Units=1/GPa)
#
#
# Indices 1 2 3 4 5 6 
#
# 1 0.022321 -0.006233 -0.000787 0.000000 -0.004218 0.000000
# 2 -0.006233 0.010814 -0.002899 0.000000 0.000928 0.000000
# 3 -0.000787 -0.002899 0.015660 0.000000 -0.003010 0.000000
# 4 0.000000 0.000000 0.000000 0.127192 0.000000 0.017948
# 5 -0.004218 0.000928 -0.003010 0.000000 0.040962 0.000000
# 6 0.000000 0.000000 0.000000 0.017948 0.000000 0.045498
#
#
# Mechanical properties :
#
#
# Convention : Reuss Voigt Hill
#
# Bulk Modulus (GPa) = 34.53372 42.48058 38.50715
# Shear Modulus (GPa) = 17.12695 23.08881 20.10788
#
# Velocity S-wave (km/s) = 3.04465 3.53507 3.29899
# Velocity P-wave (km/s) = 5.57236 6.29721 5.94584
#
# Compressibility (1/GPa) = 0.02895721
#
# Stress axis : x y z
#
# Youngs Moduli (GPa) = 44.80025 92.47526 63.85543
#
# Poissons Ratio (x) = 0.57641 0.05027
# Poissons Ratio (y) = 0.27924 0.18510
# Poissons Ratio (z) = 0.03527 0.26807
#
# Static dielectric constant tensor:
#      x y z
#    x 1.720260 0.000000 -0.006160 
#    y 0.000000 1.646650 0.000000 
#    z -0.006160 0.000000 1.642400 
# 
# From -- ./inp_files/43645.got.cif
#   From: 2010.05.17/outbox.cif.g08.bks.cpg/sg10_22_cif.got.tgz:43645.got - 2010.06.03 11:33:40.
