data_PCOD9148025
_publ_section_title
;
Structure prediction by ZEFSAII (Michael W. Deem and Ramdas Pophale) SiO2 
 PCOD9148025
Probable space group: P 2/M
;
_chemical_formula_sum "Si O2"
_cell_formula_units_Z 26
_cell_length_a 5.441557
_cell_length_b 12.556555
_cell_length_c 20.707263
_cell_angle_alpha 90.000000
_cell_angle_beta 129.355386
_cell_angle_gamma 90.000000
_cell_volume 1094.016120
_symmetry_space_group_name_H-M "P 2/M"
_symmetry_group_IT_number 10
_symmetry_cell_setting 'monoclinic'
loop_
_space_group_symop_operation_xyz
x,y,z
-x,y,-z
-x,-y,-z
x,-y,z
loop_
_atom_site_type_symbol
_atom_site_label
_atom_site_fract_x
_atom_site_fract_y
_atom_site_fract_z
Si Si1 0.969400 0.000000 0.591773
Si Si2 0.853646 0.618308 0.655976
Si Si3 0.657220 0.775415 0.736536
Si Si4 0.958109 0.228564 0.565965
Si Si5 0.270510 0.000000 0.300684
Si Si6 0.617867 0.000000 0.945160
Si Si7 0.617389 0.234783 0.945662
Si Si8 0.440662 0.381309 0.175887
O O1 0.825917 0.109114 0.540198
O O2 0.342318 0.000000 0.632284
O O3 0.896936 0.000000 0.657000
O O4 0.713371 0.500000 0.634246
O O5 0.743661 0.692771 0.695285
O O6 0.789968 0.683415 0.580857
O O7 0.231553 0.607449 0.730297
O O8 0.281316 0.790709 0.661214
O O9 0.808257 0.890947 0.750236
O O10 0.735820 0.714158 0.815574
O O11 0.000000 0.266698 0.500000
O O12 0.500000 0.000000 0.000000
O O13 0.519869 0.883225 0.903155
O O14 0.000000 0.000000 0.000000
O O15 0.486015 0.332404 0.881700
O O16 0.500000 0.241794 0.000000
O O17 0.000000 0.241925 0.000000
O O18 0.293646 0.500000 0.148939
#
# Coordination Sequence:
#
# PCOD9148025 Si02
#       8
#     2   4   4   4   2   2   4   4
#     4  10  19  38  58  91 122 159 191 255 321 372
#     4  10  21  39  60  81 117 163 208 255 307 365
#     4  10  21  39  59  86 118 160 201 256 309 372
#     4  10  21  37  58  86 119 157 204 256 313 373
#     4  10  20  37  64  88 122 153 207 254 303 372
#     4   8  16  35  59  85 122 163 193 238 299 362
#     4  10  22  40  64  94 128 160 205 253 304 361
#     4  10  23  40  62  88 121 164 207 252 308 367
#
# _framework density 23.765644999999999
#
# number of rings (size 3 to 8) (size 9 to 14) (size 15 to 20)
#    0.000    2.154    1.538    0.692    2.154    2.769 
#    0.000    3.846    0.000    0.000    0.000    0.000 
#    0.000    0.000    0.000    0.000    0.000    0.000 
#
# Total GULP energy -145104.356888 kJ/mol
# GULP energy per Si atom -5580.936803 kJ/mol
# Density = 2.371155 g / cm^3
# Si number density = 23.765645 Si / 1000 Ang^3
#
#
#
# Elastic Constant Matrix: (Units=GPa)
#
#
# Indices 1 2 3 4 5 6 
#
# 1 105.8259 24.2542 31.4896 0.0000 -16.6793 0.0000
# 2 24.2542 196.7796 42.5657 0.0000 -45.8522 0.0000
# 3 31.4896 42.5657 73.9915 0.0000 -13.4082 0.0000
# 4 0.0000 0.0000 0.0000 56.7177 0.0000 -37.2169
# 5 -16.6793 -45.8522 -13.4082 0.0000 51.2131 0.0000
# 6 0.0000 0.0000 0.0000 -37.2169 0.0000 38.0319
#
#
#
# Elastic Compliance Matrix: (Units=1/GPa)
#
#
# Indices 1 2 3 4 5 6 
#
# 1 0.011122 0.000190 -0.004362 0.000000 0.002651 0.000000
# 2 0.000190 0.007022 -0.003118 0.000000 0.005533 0.000000
# 3 -0.004362 -0.003118 0.017219 0.000000 0.000296 0.000000
# 4 0.000000 0.000000 0.000000 0.049265 0.000000 0.048210
# 5 0.002651 0.005533 0.000296 0.000000 0.025420 0.000000
# 6 0.000000 0.000000 0.000000 0.048210 0.000000 0.073471
#
#
# Mechanical properties :
#
#
# Convention : Reuss Voigt Hill
#
# Bulk Modulus (GPa) = 48.11743 63.69068 55.90405
# Shear Modulus (GPa) = 24.38707 47.74503 36.06605
#
# Velocity S-wave (km/s) = 3.20683 4.48704 3.89983
# Velocity P-wave (km/s) = 5.83115 7.32819 6.62211
#
# Compressibility (1/GPa) = 0.02078249
#
# Stress axis : x y z
#
# Youngs Moduli (GPa) = 89.91447 142.40947 58.07542
#
# Poissons Ratio (x) = -0.02712 0.25335
# Poissons Ratio (y) = -0.01712 0.18108
# Poissons Ratio (z) = 0.39225 0.44404
#
# Static dielectric constant tensor:
#      x y z
#    x 2.023170 0.000000 0.109560 
#    y 0.000000 2.029720 0.000000 
#    z 0.109560 0.000000 1.981580 
# 
# From -- ./inp_files/12520.got.cif
#   From: 2010.05.17/outbox.cif.g08.bks.cpg/sg10_7_cif.got.tgz:12520.got - 2010.06.03 11:33:40.
