data_PCOD9148795
_publ_section_title
;
Structure prediction by ZEFSAII (Michael W. Deem and Ramdas Pophale) SiO2 
 PCOD9148795
Probable space group: P 2/M
;
_chemical_formula_sum "Si O2"
_cell_formula_units_Z 28
_cell_length_a 10.069931
_cell_length_b 13.337874
_cell_length_c 15.190356
_cell_angle_alpha 90.000000
_cell_angle_beta 130.180266
_cell_angle_gamma 90.000000
_cell_volume 1558.779964
_symmetry_space_group_name_H-M "P 2/M"
_symmetry_group_IT_number 10
_symmetry_cell_setting 'monoclinic'
loop_
_space_group_symop_operation_xyz
x,y,z
-x,y,-z
-x,-y,-z
x,-y,z
loop_
_atom_site_type_symbol
_atom_site_label
_atom_site_fract_x
_atom_site_fract_y
_atom_site_fract_z
Si Si1 0.319376 0.380078 0.977972
Si Si2 0.067978 0.115972 0.429330
Si Si3 0.462862 0.615627 0.223196
Si Si4 0.359547 0.311441 0.360301
Si Si5 0.524010 0.109784 0.405723
Si Si6 0.157197 0.614571 0.620337
Si Si7 0.971205 0.297998 0.265013
O O1 0.272756 0.500000 0.955168
O O2 0.168524 0.311763 0.871833
O O3 0.500000 0.369948 0.000000
O O4 0.353867 0.346665 0.093601
O O5 0.274714 0.137258 0.521565
O O6 0.000000 0.120091 0.500000
O O7 0.978801 0.193908 0.323790
O O8 0.048905 0.000000 0.390573
O O9 0.493421 0.500000 0.210185
O O10 0.383951 0.618247 0.286466
O O11 0.655054 0.663557 0.309403
O O12 0.500000 0.327299 0.500000
O O13 0.399054 0.202502 0.333207
O O14 0.167077 0.316987 0.316770
O O15 0.500000 0.099571 0.500000
O O16 0.489104 0.000000 0.350378
O O17 0.172194 0.500000 0.594150
O O18 0.095508 0.619869 0.693610
O O19 0.000000 0.663175 0.500000
#
# Coordination Sequence:
#
# PCOD9148795 Si02
#       7
#     4   4   4   4   4   4   4
#     4  10  21  40  61  81 105 151 211 247 279 334
#     4  10  21  35  56  89 121 150 190 239 294 352
#     4  10  22  39  56  77 115 154 192 241 284 342
#     4  11  22  35  54  88 120 148 185 234 297 353
#     4   9  17  34  55  78 115 152 178 218 283 353
#     4  10  20  33  53  81 109 143 183 231 293 348
#     4  12  21  33  59  83 111 149 193 240 281 332
#
# _framework density 17.962765999999998
#
# number of rings (size 3 to 8) (size 9 to 14) (size 15 to 20)
#    0.000    1.714    4.286    1.714    2.000    2.000 
#    0.000    1.429    0.000    1.286    0.000    2.000 
#    0.000    0.000    0.000    0.000    0.000    0.000 
#
# Total GULP energy -155921.313579 kJ/mol
# GULP energy per Si atom -5568.618342 kJ/mol
# Density = 1.792188 g / cm^3
# Si number density = 17.962766 Si / 1000 Ang^3
#
#
#
# Elastic Constant Matrix: (Units=GPa)
#
#
# Indices 1 2 3 4 5 6 
#
# 1 113.8390 -2.1231 42.5194 0.0000 5.4294 0.0000
# 2 -2.1231 46.5149 13.8873 0.0000 4.1278 0.0000
# 3 42.5194 13.8873 124.5988 0.0000 -5.5604 0.0000
# 4 0.0000 0.0000 0.0000 20.0223 0.0000 -5.2848
# 5 5.4294 4.1278 -5.5604 0.0000 25.3704 0.0000
# 6 0.0000 0.0000 0.0000 -5.2848 0.0000 2.9487
#
#
#
# Elastic Compliance Matrix: (Units=1/GPa)
#
#
# Indices 1 2 3 4 5 6 
#
# 1 0.010455 0.001956 -0.003938 0.000000 -0.003419 0.000000
# 2 0.001956 0.023057 -0.003457 0.000000 -0.004928 0.000000
# 3 -0.003938 -0.003457 0.009915 0.000000 0.003578 0.000000
# 4 0.000000 0.000000 0.000000 0.094782 0.000000 0.169874
# 5 -0.003419 -0.004928 0.003578 0.000000 0.041734 0.000000
# 6 0.000000 0.000000 0.000000 0.169874 0.000000 0.643591
#
#
# Mechanical properties :
#
#
# Convention : Reuss Voigt Hill
#
# Bulk Modulus (GPa) = 30.72362 43.72444 37.22403
# Shear Modulus (GPa) = 5.91532 25.04620 15.48076
#
# Velocity S-wave (km/s) = 1.81666 3.73814 2.93887
# Velocity P-wave (km/s) = 4.64128 6.55943 5.68189
#
# Compressibility (1/GPa) = 0.03254825
#
# Stress axis : x y z
#
# Youngs Moduli (GPa) = 95.64905 43.37012 100.85965
#
# Poissons Ratio (x) = -0.08485 0.39722
# Poissons Ratio (y) = -0.18713 0.34872
# Poissons Ratio (z) = 0.37670 0.14995
#
# Static dielectric constant tensor:
#      x y z
#    x 1.611970 0.000000 -0.019820 
#    y 0.000000 1.705030 0.000000 
#    z -0.019820 0.000000 1.666830 
# 
# From -- ./inp_files/29619.got.cif
#   From: 2010.05.17/outbox.cif.g08.bks.cpg/sg10_15_cif.got.tgz:29619.got - 2010.06.03 11:33:40.
