data_PCOD9148202
_publ_section_title
;
Structure prediction by ZEFSAII (Michael W. Deem and Ramdas Pophale) SiO2 
 PCOD9148202
Probable space group: P 2/M
;
_chemical_formula_sum "Si O2"
_cell_formula_units_Z 22
_cell_length_a 15.287945
_cell_length_b 10.644168
_cell_length_c 14.410821
_cell_angle_alpha 90.000000
_cell_angle_beta 149.578199
_cell_angle_gamma 90.000000
_cell_volume 1187.437030
_symmetry_space_group_name_H-M "P 2/M"
_symmetry_group_IT_number 10
_symmetry_cell_setting 'monoclinic'
loop_
_space_group_symop_operation_xyz
x,y,z
-x,y,-z
-x,-y,-z
x,-y,z
loop_
_atom_site_type_symbol
_atom_site_label
_atom_site_fract_x
_atom_site_fract_y
_atom_site_fract_z
Si Si1 0.500000 0.708401 0.500000
Si Si2 0.832019 0.638363 0.911314
Si Si3 0.909710 0.853155 0.122867
Si Si4 0.683175 0.854858 0.503338
Si Si5 0.242547 0.148612 0.825372
Si Si6 0.638078 0.849926 0.255685
O O1 0.662215 0.637552 0.692484
O O2 0.578382 0.788623 0.487666
O O3 0.849401 0.500000 0.972466
O O4 0.822246 0.754300 0.973819
O O5 0.000000 0.656653 0.000000
O O6 0.878374 0.810686 0.200786
O O7 0.113246 0.851785 0.289052
O O8 0.849725 0.000000 0.058831
O O9 0.660277 0.798513 0.379178
O O10 0.627025 0.000000 0.448157
O O11 0.245897 0.201019 0.723527
O O12 0.207103 0.000000 0.782895
O O13 0.438633 0.161925 0.042608
O O14 0.675532 0.000000 0.295926
#
# Coordination Sequence:
#
# PCOD9148202 Si02
#       6
#     2   4   4   4   4   4
#     4  12  22  38  58  80 105 150 191 230 275 326
#     4  11  24  42  60  81 109 146 187 231 277 332
#     4  10  20  35  55  84 114 145 182 229 279 328
#     4  10  20  31  49  81 118 149 184 227 279 327
#     4   8  14  26  47  72 106 144 181 222 271 323
#     4   8  14  26  43  71 108 147 181 219 270 327
#
# _framework density 18.527297999999998
#
# number of rings (size 3 to 8) (size 9 to 14) (size 15 to 20)
#    0.000    2.364    1.818    2.727    0.000    4.000 
#    0.000    3.636    0.000    0.000    0.000   14.000 
#    0.000    0.000    0.000    0.000    0.000    0.000 
#
# Total GULP energy -122546.049978 kJ/mol
# GULP energy per Si atom -5570.274999 kJ/mol
# Density = 1.848513 g / cm^3
# Si number density = 18.527298 Si / 1000 Ang^3
#
#
#
# Elastic Constant Matrix: (Units=GPa)
#
#
# Indices 1 2 3 4 5 6 
#
# 1 147.4280 55.2301 45.8519 0.0000 -6.3249 0.0000
# 2 55.2301 59.9878 18.8285 0.0000 -11.8642 0.0000
# 3 45.8519 18.8285 48.3196 0.0000 -6.9005 0.0000
# 4 0.0000 0.0000 0.0000 25.9927 0.0000 -2.8630
# 5 -6.3249 -11.8642 -6.9005 0.0000 34.9993 0.0000
# 6 0.0000 0.0000 0.0000 -2.8630 0.0000 0.1981
#
#
#
# Elastic Compliance Matrix: (Units=1/GPa)
#
#
# Indices 1 2 3 4 5 6 
#
# 1 0.013157 -0.009813 -0.009052 0.000000 -0.002733 0.000000
# 2 -0.009813 0.027249 -0.000247 0.000000 0.007415 0.000000
# 3 -0.009052 -0.000247 0.029980 0.000000 0.004191 0.000000
# 4 0.000000 0.000000 0.000000 -0.065006 0.000000 -0.939460
# 5 -0.002733 0.007415 0.004191 0.000000 0.031418 0.000000
# 6 0.000000 0.000000 0.000000 -0.939460 0.000000 -8.529201
#
#
# Mechanical properties :
#
#
# Convention : Reuss Voigt Hill
#
# Bulk Modulus (GPa) = 31.09256 55.06184 43.07720
# Shear Modulus (GPa) = -0.59217 21.29301 10.35042
#
# Velocity S-wave (km/s) = -0.56597 3.39378 2.36616
# Velocity P-wave (km/s) = 4.04863 6.71869 5.54672
#
# Compressibility (1/GPa) = 0.03216203
#
# Stress axis : x y z
#
# Youngs Moduli (GPa) = 76.00429 36.69867 33.35574
#
# Poissons Ratio (x) = 0.36013 0.30193
# Poissons Ratio (y) = 0.74584 0.00824
# Poissons Ratio (z) = 0.68797 0.00907
#
# Static dielectric constant tensor:
#      x y z
#    x 1.657100 0.000000 0.001990 
#    y 0.000000 1.612450 0.000000 
#    z 0.001990 0.000000 1.666050 
# 
# From -- ./inp_files/67203.got.cif
#   From: 2010.05.17/outbox.cif.g08.bks.cpg/sg10_34_cif.got.tgz:67203.got - 2010.06.03 11:33:40.
