data_PCOD9148388
_publ_section_title
;
Structure prediction by ZEFSAII (Michael W. Deem and Ramdas Pophale) SiO2 
 PCOD9148388
Probable space group: P 2/M
;
_chemical_formula_sum "Si O2"
_cell_formula_units_Z 26
_cell_length_a 17.159269
_cell_length_b 10.585554
_cell_length_c 8.038393
_cell_angle_alpha 90.000000
_cell_angle_beta 99.457446
_cell_angle_gamma 90.000000
_cell_volume 1440.250904
_symmetry_space_group_name_H-M "P 2/M"
_symmetry_group_IT_number 10
_symmetry_cell_setting 'monoclinic'
loop_
_space_group_symop_operation_xyz
x,y,z
-x,y,-z
-x,-y,-z
x,-y,z
loop_
_atom_site_type_symbol
_atom_site_label
_atom_site_fract_x
_atom_site_fract_y
_atom_site_fract_z
Si Si1 0.348194 0.647606 0.813302
Si Si2 0.154995 0.646940 0.251441
Si Si3 0.820458 0.352322 0.133170
Si Si4 0.500000 0.789973 0.000000
Si Si5 0.675361 0.649003 0.584377
Si Si6 0.563753 0.138586 0.671192
Si Si7 0.988376 0.645668 0.298860
O O1 0.348562 0.500000 0.859880
O O2 0.262915 0.702537 0.836896
O O3 0.422480 0.710705 0.925361
O O4 0.353538 0.656349 0.615663
O O5 0.146880 0.500000 0.301779
O O6 0.232980 0.691588 0.374185
O O7 0.068548 0.704408 0.252799
O O8 0.174904 0.650504 0.064043
O O9 0.819209 0.500000 0.189825
O O10 0.902979 0.296563 0.228275
O O11 0.522419 0.859503 0.836673
O O12 0.671184 0.500000 0.635084
O O13 0.622939 0.743425 0.674844
O O14 0.500000 0.151502 0.500000
O O15 0.602371 0.000000 0.663028
O O16 0.983800 0.500000 0.231378
O O17 0.000000 0.641596 0.500000
#
# Coordination Sequence:
#
# PCOD9148388 Si02
#       7
#     4   4   4   2   4   4   4
#     4  10  20  32  50  78 111 145 181 226 274 325
#     4   9  16  26  43  67  98 135 174 217 263 315
#     4   9  16  26  39  62  99 139 176 214 263 319
#     4  12  22  38  58  80 103 144 185 228 271 330
#     4  10  20  36  56  81 111 143 180 223 273 325
#     4  11  24  42  60  81 109 142 182 227 273 325
#     4   9  15  23  37  59  92 136 176 211 258 317
#
# _framework density 18.052410999999999
#
# number of rings (size 3 to 8) (size 9 to 14) (size 15 to 20)
#    0.000    2.154    1.538    2.769    0.000    8.308 
#    0.000    0.000    0.000    0.000    0.000    0.000 
#    0.000   16.615    0.000    0.000    0.000    0.154 
#
# Total GULP energy -144822.776545 kJ/mol
# GULP energy per Si atom -5570.106790 kJ/mol
# Density = 1.801132 g / cm^3
# Si number density = 18.052411 Si / 1000 Ang^3
#
#
#
# Elastic Constant Matrix: (Units=GPa)
#
#
# Indices 1 2 3 4 5 6 
#
# 1 137.9896 47.0241 41.8580 0.0000 7.2183 0.0000
# 2 47.0241 46.2875 17.8337 0.0000 0.4003 0.0000
# 3 41.8580 17.8337 69.5769 0.0000 13.6719 0.0000
# 4 0.0000 0.0000 0.0000 38.9019 0.0000 -32.0147
# 5 7.2183 0.4003 13.6719 0.0000 37.9682 0.0000
# 6 0.0000 0.0000 0.0000 -32.0147 0.0000 24.9568
#
#
#
# Elastic Compliance Matrix: (Units=1/GPa)
#
#
# Indices 1 2 3 4 5 6 
#
# 1 0.012323 -0.010766 -0.004537 0.000000 -0.000596 0.000000
# 2 -0.010766 0.033535 -0.002638 0.000000 0.002643 0.000000
# 3 -0.004537 -0.002638 0.018944 0.000000 -0.005931 0.000000
# 4 0.000000 0.000000 0.000000 -0.461530 0.000000 -0.592052
# 5 -0.000596 0.002643 -0.005931 0.000000 0.028559 0.000000
# 6 0.000000 0.000000 0.000000 -0.592052 0.000000 -0.719417
#
#
# Mechanical properties :
#
#
# Convention : Reuss Voigt Hill
#
# Bulk Modulus (GPa) = 34.57871 51.92062 43.24966
# Shear Modulus (GPa) = -4.79817 30.17459 12.68821
#
# Velocity S-wave (km/s) = -1.63208 4.09283 2.65402
# Velocity P-wave (km/s) = 3.95533 7.15252 5.77941
#
# Compressibility (1/GPa) = 0.02891953
#
# Stress axis : x y z
#
# Youngs Moduli (GPa) = 81.14708 29.81948 52.78760
#
# Poissons Ratio (x) = 0.32104 0.23951
# Poissons Ratio (y) = 0.87364 0.13925
# Poissons Ratio (z) = 0.36818 0.07866
#
# Static dielectric constant tensor:
#      x y z
#    x 1.678550 0.000000 -0.002830 
#    y 0.000000 1.594570 0.000000 
#    z -0.002830 0.000000 1.627960 
# 
# From -- ./inp_files/27946.got.cif
#   From: 2010.05.17/outbox.cif.g08.bks.cpg/sg10_14_cif.got.tgz:27946.got - 2010.06.03 11:33:40.
