data_PCOD9148395
_publ_section_title
;
Structure prediction by ZEFSAII (Michael W. Deem and Ramdas Pophale) SiO2 
 PCOD9148395
Probable space group: P 2/M
;
_chemical_formula_sum "Si O2"
_cell_formula_units_Z 30
_cell_length_a 21.057730
_cell_length_b 15.456744
_cell_length_c 20.779491
_cell_angle_alpha 90.000000
_cell_angle_beta 165.967013
_cell_angle_gamma 90.000000
_cell_volume 1639.990246
_symmetry_space_group_name_H-M "P 2/M"
_symmetry_group_IT_number 10
_symmetry_cell_setting 'monoclinic'
loop_
_space_group_symop_operation_xyz
x,y,z
-x,y,-z
-x,-y,-z
x,-y,z
loop_
_atom_site_type_symbol
_atom_site_label
_atom_site_fract_x
_atom_site_fract_y
_atom_site_fract_z
Si Si1 0.559872 0.097090 0.292973
Si Si2 0.737883 0.401178 0.784329
Si Si3 0.899096 0.135521 0.242387
Si Si4 0.478546 0.594687 0.056277
Si Si5 0.148536 0.792053 0.077384
Si Si6 0.761613 0.000000 0.215180
Si Si7 0.977681 0.295763 0.554661
Si Si8 0.341419 0.895369 0.459389
O O1 0.584693 0.113815 0.392836
O O2 0.852154 0.097871 0.551136
O O3 0.450847 0.000000 0.176601
O O4 0.344540 0.154611 0.044335
O O5 0.500000 0.387999 0.500000
O O6 0.702966 0.500000 0.779321
O O7 0.000000 0.406606 0.000000
O O8 0.774264 0.309983 0.859874
O O9 0.782743 0.079156 0.186641
O O10 0.027852 0.213725 0.406813
O O11 0.462663 0.500000 0.069089
O O12 0.730531 0.645617 0.324369
O O13 0.500000 0.587118 0.000000
O O14 0.226331 0.650029 0.820008
O O15 0.929809 0.842767 0.819415
O O16 0.000000 0.791185 0.000000
O O17 0.415595 0.849026 0.338703
O O18 0.000000 0.000000 0.500000
O O19 0.500000 0.000000 0.000000
O O20 0.000000 0.275585 0.500000
O O21 0.317520 0.000000 0.421749
#
# Coordination Sequence:
#
# PCOD9148395 Si02
#       8
#     4   4   4   4   4   2   4   4
#     4  11  22  41  58  75 101 147 206 242 258 304
#     4   9  17  31  53  82 117 153 186 222 271 339
#     4  12  22  38  57  78 107 146 184 227 274 327
#     4   9  17  31  50  73 104 138 168 206 265 333
#     4  11  21  36  57  88 123 151 182 230 293 353
#     4  12  24  36  54  82 114 144 171 216 287 346
#     4  10  20  32  50  80 110 132 166 218 273 335
#     4  11  24  38  57  82 112 153 197 243 279 322
#
# _framework density 18.292791000000001
#
# number of rings (size 3 to 8) (size 9 to 14) (size 15 to 20)
#    0.000    1.467    1.333    5.600    0.000    6.933 
#    0.000    0.000    0.000    0.000    0.000   18.667 
#    0.000    0.000    0.000    0.000    0.000    0.000 
#
# Total GULP energy -167110.145522 kJ/mol
# GULP energy per Si atom -5570.338184 kJ/mol
# Density = 1.825116 g / cm^3
# Si number density = 18.292791 Si / 1000 Ang^3
#
#
#
# Elastic Constant Matrix: (Units=GPa)
#
#
# Indices 1 2 3 4 5 6 
#
# 1 57.0121 31.3517 23.2682 0.0000 -1.9727 0.0000
# 2 31.3517 139.4050 48.9816 0.0000 -7.4967 0.0000
# 3 23.2682 48.9816 149.1043 0.0000 -3.8824 0.0000
# 4 0.0000 0.0000 0.0000 40.1882 0.0000 -7.7746
# 5 -1.9727 -7.4967 -3.8824 0.0000 27.0323 0.0000
# 6 0.0000 0.0000 0.0000 -7.7746 0.0000 12.2355
#
#
#
# Elastic Compliance Matrix: (Units=1/GPa)
#
#
# Indices 1 2 3 4 5 6 
#
# 1 0.020483 -0.003931 -0.001902 0.000000 0.000131 0.000000
# 2 -0.003931 0.008960 -0.002281 0.000000 0.001870 0.000000
# 3 -0.001902 -0.002281 0.007762 0.000000 0.000343 0.000000
# 4 0.000000 0.000000 0.000000 0.028370 0.000000 0.018027
# 5 0.000131 0.001870 0.000343 0.000000 0.037570 0.000000
# 6 0.000000 0.000000 0.000000 0.018027 0.000000 0.093184
#
#
# Mechanical properties :
#
#
# Convention : Reuss Voigt Hill
#
# Bulk Modulus (GPa) = 47.67317 61.41379 54.54348
# Shear Modulus (GPa) = 22.77405 32.01920 27.39662
#
# Velocity S-wave (km/s) = 3.53225 4.18828 3.87418
# Velocity P-wave (km/s) = 6.53861 7.55212 7.06357
#
# Compressibility (1/GPa) = 0.02097616
#
# Stress axis : x y z
#
# Youngs Moduli (GPa) = 48.82192 111.61304 128.83719
#
# Poissons Ratio (x) = 0.43878 0.24498
# Poissons Ratio (y) = 0.19193 0.29389
# Poissons Ratio (z) = 0.09284 0.25460
#
# Static dielectric constant tensor:
#      x y z
#    x 1.622220 0.000000 -0.049210 
#    y 0.000000 1.756190 0.000000 
#    z -0.049210 0.000000 1.882920 
# 
# From -- ./inp_files/91076.got.cif
#   From: 2010.05.17/outbox.cif.g08.bks.cpg/sg10_46_cif.got.tgz:91076.got - 2010.06.03 11:33:40.
