data_PCOD9148876
_publ_section_title
;
Structure prediction by ZEFSAII (Michael W. Deem and Ramdas Pophale) SiO2 
 PCOD9148876
Probable space group: P 2/M
;
_chemical_formula_sum "Si O2"
_cell_formula_units_Z 32
_cell_length_a 26.322603
_cell_length_b 7.658632
_cell_length_c 15.300975
_cell_angle_alpha 90.000000
_cell_angle_beta 30.238924
_cell_angle_gamma 90.000000
_cell_volume 1553.427109
_symmetry_space_group_name_H-M "P 2/M"
_symmetry_group_IT_number 10
_symmetry_cell_setting 'monoclinic'
loop_
_space_group_symop_operation_xyz
x,y,z
-x,y,-z
-x,-y,-z
x,-y,z
loop_
_atom_site_type_symbol
_atom_site_label
_atom_site_fract_x
_atom_site_fract_y
_atom_site_fract_z
Si Si1 0.779132 0.787865 0.440253
Si Si2 0.943626 0.213897 0.334156
Si Si3 0.828689 0.796478 0.004480
Si Si4 0.100977 0.212804 0.402471
Si Si5 0.565976 0.798364 0.825383
Si Si6 0.721629 0.788339 0.989358
Si Si7 0.711483 0.704728 0.350352
Si Si8 0.500750 0.705617 0.737128
O O1 0.872790 0.729760 0.359655
O O2 0.675720 0.723946 0.639742
O O3 0.773239 0.730862 0.348428
O O4 0.777438 0.000000 0.441249
O O5 0.904340 0.266989 0.488522
O O6 0.941875 0.000000 0.335109
O O7 0.058627 0.275982 0.153448
O O8 0.766617 0.785707 0.185775
O O9 0.844079 0.000000 0.959750
O O10 0.767390 0.724054 0.013169
O O11 0.201251 0.268104 0.201731
O O12 0.000000 0.267388 0.500000
O O13 0.100161 0.000000 0.403081
O O14 0.504757 0.792962 0.826096
O O15 0.585069 0.000000 0.822557
O O16 0.500000 0.716013 0.000000
O O17 0.719987 0.000000 0.991207
O O18 0.607192 0.730670 0.145737
O O19 0.704253 0.500000 0.342294
O O20 0.597882 0.771868 0.538435
O O21 0.517975 0.500000 0.725846
#
# Coordination Sequence:
#
# PCOD9148876 Si02
#       8
#     4   4   4   4   4   4   4   4
#     4   9  18  33  54  80 109 139 174 220 266 314
#     4   9  17  30  52  83 113 141 173 210 264 324
#     4  10  20  35  56  83 109 137 177 224 271 317
#     4   9  15  28  52  82 115 143 169 211 264 319
#     4   9  18  32  53  82 109 136 177 224 267 313
#     4  10  20  33  56  86 112 140 177 221 266 315
#     4  10  22  40  57  73 101 144 185 225 272 319
#     4  10  22  38  54  74 106 146 184 221 267 321
#
# _framework density 20.599616000000001
#
# number of rings (size 3 to 8) (size 9 to 14) (size 15 to 20)
#    0.000    2.500    1.250    0.750    1.750    3.250 
#    0.000    5.625    0.000    1.125    0.000    0.000 
#    0.000    0.000    0.000    0.000    0.000    0.000 
#
# Total GULP energy -178591.656711 kJ/mol
# GULP energy per Si atom -5580.989272 kJ/mol
# Density = 2.055273 g / cm^3
# Si number density = 20.599616 Si / 1000 Ang^3
#
#
#
# Elastic Constant Matrix: (Units=GPa)
#
#
# Indices 1 2 3 4 5 6 
#
# 1 117.0434 -14.8406 102.2312 0.0000 -22.6703 0.0000
# 2 -14.8406 36.6347 -6.7806 0.0000 -2.6231 0.0000
# 3 102.2312 -6.7806 129.4107 0.0000 3.4100 0.0000
# 4 0.0000 0.0000 0.0000 27.9702 0.0000 24.7076
# 5 -22.6703 -2.6231 3.4100 0.0000 37.3263 0.0000
# 6 0.0000 0.0000 0.0000 24.7076 0.0000 -66.7359
#
#
#
# Elastic Compliance Matrix: (Units=1/GPa)
#
#
# Indices 1 2 3 4 5 6 
#
# 1 0.064248 0.019832 -0.050902 0.000000 0.045065 0.000000
# 2 0.019832 0.033808 -0.014310 0.000000 0.015728 0.000000
# 3 -0.050902 -0.014310 0.048146 0.000000 -0.036320 0.000000
# 4 0.000000 0.000000 0.000000 0.026941 0.000000 0.009974
# 5 0.045065 0.015728 -0.036320 0.000000 0.058584 0.000000
# 6 0.000000 0.000000 0.000000 0.009974 0.000000 -0.011292
#
#
# Mechanical properties :
#
#
# Convention : Reuss Voigt Hill
#
# Bulk Modulus (GPa) = 18.03707 49.36766 33.70237
# Shear Modulus (GPa) = 15.16635 13.21069 14.18852
#
# Velocity S-wave (km/s) = 2.71633 2.53515 2.62730
# Velocity P-wave (km/s) = 4.31427 5.70847 5.05963
#
# Compressibility (1/GPa) = 0.05544136
#
# Stress axis : x y z
#
# Youngs Moduli (GPa) = 15.56476 29.57881 20.77004
#
# Poissons Ratio (x) = -0.58660 1.05725
# Poissons Ratio (y) = -0.30868 0.29721
# Poissons Ratio (z) = 0.79228 0.42326
#
# Static dielectric constant tensor:
#      x y z
#    x 1.702510 0.000000 -0.011520 
#    y 0.000000 1.774120 0.000000 
#    z -0.011520 0.000000 1.726600 
# 
# From -- ./inp_files/66468.got.cif
#   From: 2010.05.17/outbox.cif.g08.bks.cpg/sg10_34_cif.got.tgz:66468.got - 2010.06.03 11:33:40.
