data_PCOD9148944
_publ_section_title
;
Structure prediction by ZEFSAII (Michael W. Deem and Ramdas Pophale) SiO2 
 PCOD9148944
Probable space group: P 2/M
;
_chemical_formula_sum "Si O2"
_cell_formula_units_Z 32
_cell_length_a 18.548679
_cell_length_b 9.499997
_cell_length_c 14.526265
_cell_angle_alpha 90.000000
_cell_angle_beta 146.214717
_cell_angle_gamma 90.000000
_cell_volume 1423.407898
_symmetry_space_group_name_H-M "P 2/M"
_symmetry_group_IT_number 10
_symmetry_cell_setting 'monoclinic'
loop_
_space_group_symop_operation_xyz
x,y,z
-x,y,-z
-x,-y,-z
x,-y,z
loop_
_atom_site_type_symbol
_atom_site_label
_atom_site_fract_x
_atom_site_fract_y
_atom_site_fract_z
Si Si1 0.089632 0.339741 0.454236
Si Si2 0.376912 0.843554 0.904379
Si Si3 0.176016 0.339860 0.762125
Si Si4 0.775543 0.329891 0.909456
Si Si5 0.970472 0.839513 0.858599
Si Si6 0.541894 0.167183 0.745810
Si Si7 0.304007 0.844103 0.617908
Si Si8 0.696322 0.165459 0.643405
O O1 0.078635 0.500000 0.412195
O O2 0.139113 0.345918 0.613589
O O3 0.183467 0.259404 0.486075
O O4 0.945875 0.280239 0.312617
O O5 0.294642 0.763827 0.890596
O O6 0.308223 0.860835 0.733324
O O7 0.412505 0.000000 0.975895
O O8 0.500000 0.757596 0.000000
O O9 0.202371 0.500000 0.818608
O O10 0.778408 0.500000 0.917125
O O11 0.669264 0.261849 0.866090
O O12 0.721602 0.270645 0.754257
O O13 0.921963 0.264837 0.070694
O O14 0.815660 0.810477 0.698866
O O15 0.992036 0.000000 0.847647
O O16 0.000000 0.839191 0.000000
O O17 0.442703 0.203079 0.724792
O O18 0.441730 0.184184 0.552983
O O19 0.575127 0.000000 0.786164
O O20 0.282814 0.000000 0.556282
O O21 0.705069 0.000000 0.682659
#
# Coordination Sequence:
#
# PCOD9148944 Si02
#       8
#     4   4   4   4   4   4   4   4
#     4   8  14  26  44  65  90 115 144 183 226 274
#     4   9  17  29  46  69  96 121 151 195 241 278
#     4   8  14  25  43  67  89 114 147 181 221 273
#     4  11  21  31  48  76 104 130 163 202 245 292
#     4   8  15  30  51  72  94 124 161 199 242 289
#     4  10  20  34  51  70  97 132 169 206 243 291
#     4   9  18  31  48  69  92 122 158 194 237 286
#     4   9  18  33  53  74  96 126 167 209 246 287
#
# _framework density 22.481259999999999
#
# number of rings (size 3 to 8) (size 9 to 14) (size 15 to 20)
#    0.000    3.000    0.000    3.000    0.000    5.500 
#    0.000    2.500    2.750    0.000    0.000    0.000 
#    0.000    0.000    0.000    0.000    0.000    0.000 
#
# Total GULP energy -178374.951382 kJ/mol
# GULP energy per Si atom -5574.217231 kJ/mol
# Density = 2.243009 g / cm^3
# Si number density = 22.481260 Si / 1000 Ang^3
#
#
#
# Elastic Constant Matrix: (Units=GPa)
#
#
# Indices 1 2 3 4 5 6 
#
# 1 126.3641 68.5898 43.8555 0.0000 26.3731 0.0000
# 2 68.5898 112.9746 53.0446 0.0000 49.2768 0.0000
# 3 43.8555 53.0446 75.1152 0.0000 46.1261 0.0000
# 4 0.0000 0.0000 0.0000 24.1553 0.0000 14.2860
# 5 26.3731 49.2768 46.1261 0.0000 59.4620 0.0000
# 6 0.0000 0.0000 0.0000 14.2860 0.0000 36.3319
#
#
#
# Elastic Compliance Matrix: (Units=1/GPa)
#
#
# Indices 1 2 3 4 5 6 
#
# 1 0.012635 -0.007199 -0.004804 0.000000 0.004088 0.000000
# 2 -0.007199 0.019126 -0.002924 0.000000 -0.010389 0.000000
# 3 -0.004804 -0.002924 0.029382 0.000000 -0.018239 0.000000
# 4 0.000000 0.000000 0.000000 0.053944 0.000000 -0.021211
# 5 0.004088 -0.010389 -0.018239 0.000000 0.037762 0.000000
# 6 0.000000 0.000000 0.000000 -0.021211 0.000000 0.035864
#
#
# Mechanical properties :
#
#
# Convention : Reuss Voigt Hill
#
# Bulk Modulus (GPa) = 31.95793 71.71486 51.83640
# Shear Modulus (GPa) = 21.83437 33.92077 27.87757
#
# Velocity S-wave (km/s) = 3.11983 3.88860 3.52523
# Velocity P-wave (km/s) = 5.21766 7.22016 6.29900
#
# Compressibility (1/GPa) = 0.03129114
#
# Stress axis : x y z
#
# Youngs Moduli (GPa) = 79.14548 52.28349 34.03418
#
# Poissons Ratio (x) = 0.37637 0.16348
# Poissons Ratio (y) = 0.56974 0.09952
# Poissons Ratio (z) = 0.38018 0.15288
#
# Static dielectric constant tensor:
#      x y z
#    x 1.910870 0.000000 -0.068780 
#    y 0.000000 1.794820 0.000000 
#    z -0.068780 0.000000 1.953330 
# 
# From -- ./inp_files/86154.got.cif
#   From: 2010.05.17/outbox.cif.g08.bks.cpg/sg10_44_cif.got.tgz:86154.got - 2010.06.03 11:33:40.
