data_PCOD9148402
_publ_section_title
;
Structure prediction by ZEFSAII (Michael W. Deem and Ramdas Pophale) SiO2 
 PCOD9148402
Probable space group: P 2/M
;
_chemical_formula_sum "Si O2"
_cell_formula_units_Z 32
_cell_length_a 14.583432
_cell_length_b 15.091263
_cell_length_c 13.620145
_cell_angle_alpha 90.000000
_cell_angle_beta 28.823512
_cell_angle_gamma 90.000000
_cell_volume 1445.160607
_symmetry_space_group_name_H-M "P 2/M"
_symmetry_group_IT_number 10
_symmetry_cell_setting 'monoclinic'
loop_
_space_group_symop_operation_xyz
x,y,z
-x,y,-z
-x,-y,-z
x,-y,z
loop_
_atom_site_type_symbol
_atom_site_label
_atom_site_fract_x
_atom_site_fract_y
_atom_site_fract_z
Si Si1 0.273538 0.135809 0.810308
Si Si2 0.334630 0.662888 0.791427
Si Si3 0.051881 0.602030 0.205306
Si Si4 0.717492 0.598237 0.372835
Si Si5 0.911546 0.783535 0.409820
Si Si6 0.274342 0.101211 0.589211
Si Si7 0.764524 0.095418 0.943165
Si Si8 0.623864 0.898026 0.785785
O O1 0.255168 0.240016 0.846800
O O2 0.202882 0.112410 0.768482
O O3 0.498248 0.113085 0.608518
O O4 0.182719 0.093505 0.991862
O O5 0.563196 0.663740 0.565173
O O6 0.274892 0.608274 0.750808
O O7 0.257500 0.627292 0.967141
O O8 0.048234 0.500000 0.244856
O O9 0.920217 0.606960 0.231683
O O10 0.957167 0.679001 0.360471
O O11 0.644871 0.500000 0.465606
O O12 0.813787 0.827014 0.403187
O O13 0.780330 0.823729 0.618572
O O14 0.116582 0.829890 0.220977
O O15 0.240575 0.000000 0.586129
O O16 0.806430 0.000000 0.858372
O O17 0.539583 0.109832 0.143994
O O18 0.697285 0.000000 0.714797
O O19 0.500000 0.886662 0.000000
#
# Coordination Sequence:
#
# PCOD9148402 Si02
#       8
#     4   4   4   4   4   4   4   4
#     4  11  20  33  52  81 119 166 208 237 276 341
#     4  11  19  34  50  75 107 152 206 254 294 335
#     4  11  23  37  54  79 115 153 196 250 301 346
#     4  10  20  32  51  73 103 154 211 259 296 334
#     4  12  23  39  61  89 120 158 202 243 294 354
#     4  11  21  34  54  81 123 171 208 242 283 337
#     4  11  22  38  61  90 122 155 195 239 289 349
#     4  10  23  44  69  95 123 151 184 239 304 360
#
# _framework density 22.142868
#
# number of rings (size 3 to 8) (size 9 to 14) (size 15 to 20)
#    0.000    1.125    2.500    7.500    0.000    2.000 
#    0.000    3.125    0.000    0.375    0.000    0.875 
#    0.000    0.000    0.000    0.000    0.000    0.000 
#
# Total GULP energy -178776.187335 kJ/mol
# GULP energy per Si atom -5586.755854 kJ/mol
# Density = 2.209247 g / cm^3
# Si number density = 22.142868 Si / 1000 Ang^3
#
#
#
# Elastic Constant Matrix: (Units=GPa)
#
#
# Indices 1 2 3 4 5 6 
#
# 1 27.2791 -3.7240 4.9513 0.0000 10.3939 0.0000
# 2 -3.7240 159.7090 47.9098 0.0000 6.4719 0.0000
# 3 4.9513 47.9098 105.8995 0.0000 15.4543 0.0000
# 4 0.0000 0.0000 0.0000 10.9069 0.0000 -7.8246
# 5 10.3939 6.4719 15.4543 0.0000 28.9243 0.0000
# 6 0.0000 0.0000 0.0000 -7.8246 0.0000 13.0814
#
#
#
# Elastic Compliance Matrix: (Units=1/GPa)
#
#
# Indices 1 2 3 4 5 6 
#
# 1 0.042921 0.001796 -0.000553 0.000000 -0.015530 0.000000
# 2 0.001796 0.007320 -0.003321 0.000000 -0.000509 0.000000
# 3 -0.000553 -0.003321 0.011750 0.000000 -0.005336 0.000000
# 4 0.000000 0.000000 0.000000 0.160599 0.000000 0.096062
# 5 -0.015530 -0.000509 -0.005336 0.000000 0.043119 0.000000
# 6 0.000000 0.000000 0.000000 0.096062 0.000000 0.133904
#
#
# Mechanical properties :
#
#
# Convention : Reuss Voigt Hill
#
# Bulk Modulus (GPa) = 17.29072 43.46243 30.37657
# Shear Modulus (GPa) = 11.81900 26.83257 19.32578
#
# Velocity S-wave (km/s) = 2.31283 3.48486 2.95748
# Velocity P-wave (km/s) = 3.86755 5.98858 5.04088
#
# Compressibility (1/GPa) = 0.05783449
#
# Stress axis : x y z
#
# Youngs Moduli (GPa) = 23.29866 136.60720 85.10517
#
# Poissons Ratio (x) = -0.24534 0.04706
# Poissons Ratio (y) = -0.04184 0.28268
# Poissons Ratio (z) = 0.01288 0.45374
#
# Static dielectric constant tensor:
#      x y z
#    x 1.854200 0.000000 -0.000060 
#    y 0.000000 1.830590 0.000000 
#    z -0.000060 0.000000 1.874410 
# 
# From -- ./inp_files/69300.got.cif
#   From: 2010.05.17/outbox.cif.g08.bks.cpg/sg10_35_cif.got.tgz:69300.got - 2010.06.03 11:33:40.
