data_PCOD9148371
_publ_section_title
;
Structure prediction by ZEFSAII (Michael W. Deem and Ramdas Pophale) SiO2 
 PCOD9148371
Probable space group: P 2/M
;
_chemical_formula_sum "Si O2"
_cell_formula_units_Z 16
_cell_length_a 7.740619
_cell_length_b 11.589992
_cell_length_c 8.204383
_cell_angle_alpha 90.000000
_cell_angle_beta 120.466457
_cell_angle_gamma 90.000000
_cell_volume 634.416994
_symmetry_space_group_name_H-M "P 2/M"
_symmetry_group_IT_number 10
_symmetry_cell_setting 'monoclinic'
loop_
_space_group_symop_operation_xyz
x,y,z
-x,y,-z
-x,-y,-z
x,-y,z
loop_
_atom_site_type_symbol
_atom_site_label
_atom_site_fract_x
_atom_site_fract_y
_atom_site_fract_z
Si Si1 0.301422 0.500000 0.056856
Si Si2 0.743268 0.259618 0.597138
Si Si3 0.906910 0.500000 0.687930
Si Si4 0.259730 0.132191 0.723476
Si Si5 0.313747 0.241819 0.072909
O O1 0.142932 0.500000 0.832880
O O2 0.186817 0.500000 0.174719
O O3 0.398263 0.373533 0.103939
O O4 0.500000 0.266015 0.500000
O O5 0.824141 0.382793 0.574394
O O6 0.804461 0.169077 0.488620
O O7 0.804141 0.235641 0.813359
O O8 0.501042 0.153787 0.828598
O O9 0.213812 0.000000 0.734857
O O10 0.202889 0.211539 0.851233
#
# Coordination Sequence:
#
# PCOD9148371 Si02
#       5
#     2   4   2   4   4
#     4   9  18  32  53  77 101 133 164 197 251 311
#     4   9  18  31  52  77 101 129 162 204 253 295
#     4   9  17  33  53  76 105 129 161 204 249 304
#     4  10  20  32  50  76 101 130 171 209 241 286
#     4   9  18  32  50  74 102 129 161 204 251 293
#
# _framework density 25.220005
#
# number of rings (size 3 to 8) (size 9 to 14) (size 15 to 20)
#    0.000    2.750    0.000    1.875    0.000   11.500 
#    0.000    2.500    0.000    4.500    0.000   26.250 
#    0.000    0.000    0.000    0.000    0.000    0.000 
#
# Total GULP energy -89384.234086 kJ/mol
# GULP energy per Si atom -5586.514630 kJ/mol
# Density = 2.516260 g / cm^3
# Si number density = 25.220005 Si / 1000 Ang^3
#
#
#
# Elastic Constant Matrix: (Units=GPa)
#
#
# Indices 1 2 3 4 5 6 
#
# 1 76.0809 6.5279 25.1914 0.0000 -20.9761 0.0000
# 2 6.5279 150.4988 47.7011 0.0000 -24.4265 0.0000
# 3 25.1914 47.7011 158.1437 0.0000 -36.0037 0.0000
# 4 0.0000 0.0000 0.0000 39.3151 0.0000 -6.2307
# 5 -20.9761 -24.4265 -36.0037 0.0000 47.7983 0.0000
# 6 0.0000 0.0000 0.0000 -6.2307 0.0000 10.0958
#
#
#
# Elastic Compliance Matrix: (Units=1/GPa)
#
#
# Indices 1 2 3 4 5 6 
#
# 1 0.015174 0.000726 -0.001250 0.000000 0.006089 0.000000
# 2 0.000726 0.007641 -0.001761 0.000000 0.002897 0.000000
# 3 -0.001250 -0.001761 0.008116 0.000000 0.004665 0.000000
# 4 0.000000 0.000000 0.000000 0.028193 0.000000 0.017399
# 5 0.006089 0.002897 0.004665 0.000000 0.028587 0.000000
# 6 0.000000 0.000000 0.000000 0.017399 0.000000 0.109789
#
#
# Mechanical properties :
#
#
# Convention : Reuss Voigt Hill
#
# Bulk Modulus (GPa) = 37.93388 60.39605 49.16496
# Shear Modulus (GPa) = 23.71271 39.79537 31.75404
#
# Velocity S-wave (km/s) = 3.06965 3.97662 3.55220
# Velocity P-wave (km/s) = 5.25714 6.71449 6.03000
#
# Compressibility (1/GPa) = 0.02636166
#
# Stress axis : x y z
#
# Youngs Moduli (GPa) = 65.90143 130.86504 123.21955
#
# Poissons Ratio (x) = -0.09504 0.15403
# Poissons Ratio (y) = -0.04786 0.21699
# Poissons Ratio (z) = 0.08238 0.23045
#
# Static dielectric constant tensor:
#      x y z
#    x 2.042390 0.000000 0.076490 
#    y 0.000000 1.895170 0.000000 
#    z 0.076490 0.000000 2.098190 
# 
# From -- ./inp_files/16882.got.cif
#   From: 2010.05.17/outbox.cif.g08.bks.cpg/sg10_9_cif.got.tgz:16882.got - 2010.06.03 11:33:40.
