data_PCOD9148310
_publ_section_title
;
Structure prediction by ZEFSAII (Michael W. Deem and Ramdas Pophale) SiO2 
 PCOD9148310
Probable space group: P 2/M
;
_chemical_formula_sum "Si O2"
_cell_formula_units_Z 32
_cell_length_a 16.890045
_cell_length_b 13.893988
_cell_length_c 23.359135
_cell_angle_alpha 90.000000
_cell_angle_beta 22.540996
_cell_angle_gamma 90.000000
_cell_volume 2101.375130
_symmetry_space_group_name_H-M "P 2/M"
_symmetry_group_IT_number 10
_symmetry_cell_setting 'monoclinic'
loop_
_space_group_symop_operation_xyz
x,y,z
-x,y,-z
-x,-y,-z
x,-y,z
loop_
_atom_site_type_symbol
_atom_site_label
_atom_site_fract_x
_atom_site_fract_y
_atom_site_fract_z
Si Si1 0.267522 0.115939 0.157999
Si Si2 0.066902 0.388594 0.862369
Si Si3 0.394164 0.797344 0.378699
Si Si4 0.217523 0.885948 0.829379
Si Si5 0.945395 0.884498 0.470668
Si Si6 0.657405 0.388366 0.206971
Si Si7 0.736357 0.785962 0.324040
Si Si8 0.108247 0.115014 0.667931
O O1 0.134701 0.144336 0.302484
O O2 0.123488 0.136356 0.199286
O O3 0.282405 0.000000 0.151225
O O4 0.500000 0.154724 0.000000
O O5 0.074673 0.500000 0.838923
O O6 0.224739 0.378331 0.810767
O O7 0.140408 0.313300 0.766270
O O8 0.837515 0.369078 0.040003
O O9 0.603120 0.858374 0.246381
O O10 0.256149 0.829059 0.417224
O O11 0.472856 0.687685 0.326131
O O12 0.258162 0.827212 0.524797
O O13 0.260059 0.837497 0.739989
O O14 0.209993 0.000000 0.826601
O O15 0.000000 0.851605 0.000000
O O16 0.000000 0.867033 0.500000
O O17 0.911904 0.000000 0.485411
O O18 0.593914 0.500000 0.243889
O O19 0.500000 0.768938 0.500000
O O20 0.842663 0.851935 0.301018
O O21 0.144639 0.000000 0.636907
#
# Coordination Sequence:
#
# PCOD9148310 Si02
#       8
#     4   4   4   4   4   4   4   4
#     4   8  15  31  50  65  90 126 164 201 237 285
#     4   9  18  33  50  69  97 131 167 211 258 290
#     4  11  18  32  53  71  98 132 171 203 246 306
#     4  11  22  33  45  67 102 139 170 202 238 286
#     4   9  18  32  50  73 100 127 161 207 253 291
#     4   9  17  32  53  72  94 128 168 211 256 302
#     4  12  21  31  48  71 101 135 168 205 235 297
#     4  10  20  32  48  71 101 139 170 198 243 293
#
# _framework density 15.228123999999999
#
# number of rings (size 3 to 8) (size 9 to 14) (size 15 to 20)
#    0.000    2.125    2.500    3.750    0.000    0.750 
#    4.500    0.625    0.000    0.375    0.000    0.000 
#    0.000    3.000    0.000    0.000    0.000    0.000 
#
# Total GULP energy -178376.563176 kJ/mol
# GULP energy per Si atom -5574.267599 kJ/mol
# Density = 1.519346 g / cm^3
# Si number density = 15.228124 Si / 1000 Ang^3
#
#
#
# Elastic Constant Matrix: (Units=GPa)
#
#
# Indices 1 2 3 4 5 6 
#
# 1 86.6544 39.7394 47.0438 0.0000 -9.2906 0.0000
# 2 39.7394 92.8864 50.7925 0.0000 -2.8810 0.0000
# 3 47.0438 50.7925 100.0401 0.0000 -15.4517 0.0000
# 4 0.0000 0.0000 0.0000 25.0087 0.0000 5.0841
# 5 -9.2906 -2.8810 -15.4517 0.0000 22.4838 0.0000
# 6 0.0000 0.0000 0.0000 5.0841 0.0000 -8.2579
#
#
#
# Elastic Compliance Matrix: (Units=1/GPa)
#
#
# Indices 1 2 3 4 5 6 
#
# 1 0.016593 -0.004120 -0.005296 0.000000 0.002689 0.000000
# 2 -0.004120 0.016204 -0.006972 0.000000 -0.004417 0.000000
# 3 -0.005296 -0.006972 0.017397 0.000000 0.008874 0.000000
# 4 0.000000 0.000000 0.000000 0.035538 0.000000 0.021880
# 5 0.002689 -0.004417 0.008874 0.000000 0.051120 0.000000
# 6 0.000000 0.000000 0.000000 0.021880 0.000000 -0.107626
#
#
# Mechanical properties :
#
#
# Convention : Reuss Voigt Hill
#
# Bulk Modulus (GPa) = 57.41037 61.63695 59.52366
# Shear Modulus (GPa) = 73.73905 17.31392 45.52649
#
# Velocity S-wave (km/s) = 6.96621 3.37556 5.47368
# Velocity P-wave (km/s) = 10.12354 7.46700 8.89501
#
# Compressibility (1/GPa) = 0.01741846
#
# Stress axis : x y z
#
# Youngs Moduli (GPa) = 60.26779 61.71396 57.48165
#
# Poissons Ratio (x) = 0.25423 0.30441
# Poissons Ratio (y) = 0.24827 0.40077
# Poissons Ratio (z) = 0.31916 0.43028
#
# Static dielectric constant tensor:
#      x y z
#    x 1.497850 0.000000 0.001100 
#    y 0.000000 1.512540 0.000000 
#    z 0.001100 0.000000 1.516150 
# 
# From -- ./inp_files/90249.got.cif
#   From: 2010.05.17/outbox.cif.g08.bks.cpg/sg10_46_cif.got.tgz:90249.got - 2010.06.03 11:33:40.
