data_PCOD9148379
_publ_section_title
;
Structure prediction by ZEFSAII (Michael W. Deem and Ramdas Pophale) SiO2 
 PCOD9148379
Probable space group: P 2/M
;
_chemical_formula_sum "Si O2"
_cell_formula_units_Z 28
_cell_length_a 16.393505
_cell_length_b 7.700493
_cell_length_c 14.213606
_cell_angle_alpha 90.000000
_cell_angle_beta 49.271710
_cell_angle_gamma 90.000000
_cell_volume 1359.741185
_symmetry_space_group_name_H-M "P 2/M"
_symmetry_group_IT_number 10
_symmetry_cell_setting 'monoclinic'
loop_
_space_group_symop_operation_xyz
x,y,z
-x,y,-z
-x,-y,-z
x,-y,z
loop_
_atom_site_type_symbol
_atom_site_label
_atom_site_fract_x
_atom_site_fract_y
_atom_site_fract_z
Si Si1 0.626315 0.212900 0.509202
Si Si2 0.745989 0.707311 0.022044
Si Si3 0.163629 0.797361 0.326099
Si Si4 0.172753 0.202365 0.526063
Si Si5 0.383599 0.791473 0.697558
Si Si6 0.044097 0.301319 0.229124
Si Si7 0.621009 0.288926 0.931382
O O1 0.720799 0.276704 0.505637
O O2 0.643679 0.267401 0.387689
O O3 0.505700 0.267471 0.628180
O O4 0.628671 0.000000 0.508343
O O5 0.754068 0.500000 0.003976
O O6 0.699189 0.742153 0.159399
O O7 0.865478 0.776203 0.908446
O O8 0.663723 0.767627 0.002257
O O9 0.143718 0.724750 0.445171
O O10 0.102358 0.705035 0.287181
O O11 0.290375 0.780104 0.208224
O O12 0.130392 0.000000 0.345890
O O13 0.070730 0.213575 0.671221
O O14 0.195567 0.000000 0.489943
O O15 0.387176 0.000000 0.691476
O O16 0.022583 0.500000 0.218910
O O17 0.623358 0.500000 0.925808
O O18 0.500000 0.232605 0.000000
#
# Coordination Sequence:
#
# PCOD9148379 Si02
#       7
#     4   4   4   4   4   4   4
#     4   8  17  34  53  78 106 131 163 210 258 306
#     4   9  19  34  51  72 101 134 167 211 258 295
#     4  10  20  32  50  77 105 135 170 213 261 299
#     4  10  20  34  53  76 106 134 168 218 262 297
#     4   9  17  33  58  78  99 134 171 203 253 315
#     4  10  21  37  53  72 103 141 177 209 250 309
#     4   9  19  34  49  70 105 143 174 207 249 303
#
# _framework density 20.592155000000002
#
# number of rings (size 3 to 8) (size 9 to 14) (size 15 to 20)
#    0.000    2.714    0.000    3.000    2.000    6.000 
#    0.000    3.571    0.000    4.286    0.000    0.000 
#    0.000    0.000    0.000    0.000    0.000    0.000 
#
# Total GULP energy -156210.386771 kJ/mol
# GULP energy per Si atom -5578.942385 kJ/mol
# Density = 2.054529 g / cm^3
# Si number density = 20.592155 Si / 1000 Ang^3
#
#
#
# Elastic Constant Matrix: (Units=GPa)
#
#
# Indices 1 2 3 4 5 6 
#
# 1 28.3578 -5.3449 18.3255 0.0000 -4.3147 0.0000
# 2 -5.3449 32.4071 -9.3705 0.0000 2.3433 0.0000
# 3 18.3255 -9.3705 118.4767 0.0000 10.0932 0.0000
# 4 0.0000 0.0000 0.0000 29.2290 0.0000 -1.3920
# 5 -4.3147 2.3433 10.0932 0.0000 21.2275 0.0000
# 6 0.0000 0.0000 0.0000 -1.3920 0.0000 10.9888
#
#
#
# Elastic Compliance Matrix: (Units=1/GPa)
#
#
# Indices 1 2 3 4 5 6 
#
# 1 0.042478 0.004072 -0.007239 0.000000 0.011626 0.000000
# 2 0.004072 0.032461 0.002264 0.000000 -0.003832 0.000000
# 3 -0.007239 0.002264 0.010303 0.000000 -0.006620 0.000000
# 4 0.000000 0.000000 0.000000 0.034420 0.000000 0.004360
# 5 0.011626 -0.003832 -0.006620 0.000000 0.053043 0.000000
# 6 0.000000 0.000000 0.000000 0.004360 0.000000 0.091554
#
#
# Mechanical properties :
#
#
# Convention : Reuss Voigt Hill
#
# Bulk Modulus (GPa) = 11.98515 20.71800 16.35157
# Shear Modulus (GPa) = 17.01393 23.99781 20.50587
#
# Velocity S-wave (km/s) = 2.87755 3.41748 3.15907
# Velocity P-wave (km/s) = 4.10771 5.06509 4.61131
#
# Compressibility (1/GPa) = 0.08343662
#
# Stress axis : x y z
#
# Youngs Moduli (GPa) = 23.54160 30.80644 97.05736
#
# Poissons Ratio (x) = -0.12545 0.70257
# Poissons Ratio (y) = -0.09586 -0.21973
# Poissons Ratio (z) = 0.17041 -0.06974
#
# Static dielectric constant tensor:
#      x y z
#    x 1.726990 0.000000 -0.004440 
#    y 0.000000 1.751670 0.000000 
#    z -0.004440 0.000000 1.741490 
# 
# From -- ./inp_files/63682.got.cif
#   From: 2010.05.17/outbox.cif.g08.bks.cpg/sg10_32_cif.got.tgz:63682.got - 2010.06.03 11:33:40.
