data_PCOD9148698
_publ_section_title
;
Structure prediction by ZEFSAII (Michael W. Deem and Ramdas Pophale) SiO2 
 PCOD9148698
Probable space group: P 2/M
;
_chemical_formula_sum "Si O2"
_cell_formula_units_Z 22
_cell_length_a 7.465451
_cell_length_b 12.701896
_cell_length_c 11.866460
_cell_angle_alpha 90.000000
_cell_angle_beta 116.045598
_cell_angle_gamma 90.000000
_cell_volume 1010.967570
_symmetry_space_group_name_H-M "P 2/M"
_symmetry_group_IT_number 10
_symmetry_cell_setting 'monoclinic'
loop_
_space_group_symop_operation_xyz
x,y,z
-x,y,-z
-x,-y,-z
x,-y,z
loop_
_atom_site_type_symbol
_atom_site_label
_atom_site_fract_x
_atom_site_fract_y
_atom_site_fract_z
Si Si1 0.185020 0.729099 0.835469
Si Si2 0.529617 0.724723 0.374313
Si Si3 0.323751 0.500000 0.544045
Si Si4 0.645350 0.276987 0.893964
Si Si5 0.989344 0.500000 0.733761
Si Si6 0.158882 0.882606 0.642006
Si Si7 0.773989 0.500000 0.895932
O O1 0.418088 0.746128 0.865207
O O2 0.108007 0.609531 0.790852
O O3 0.079314 0.810501 0.722388
O O4 0.193372 0.761043 0.969987
O O5 0.500000 0.729252 0.500000
O O6 0.639101 0.610991 0.381839
O O7 0.339898 0.736294 0.237421
O O8 0.665516 0.820071 0.371680
O O9 0.500000 0.500000 0.500000
O O10 0.114947 0.500000 0.417858
O O11 0.664516 0.400921 0.912677
O O12 0.803409 0.500000 0.770017
O O13 0.000000 0.891620 0.500000
O O14 0.216212 0.000000 0.696928
O O15 0.000000 0.500000 0.000000
#
# Coordination Sequence:
#
# PCOD9148698 Si02
#       7
#     4   4   2   4   2   4   2
#     4  10  21  37  57  82 115 152 190 227 280 339
#     4  10  20  37  59  82 113 152 184 228 283 335
#     4  10  20  33  51  80 119 146 179 224 277 332
#     4  10  20  36  52  80 119 152 182 229 276 328
#     4  12  21  32  55  87 114 153 191 226 275 347
#     4  10  22  40  60  82 109 144 190 240 283 328
#     4  12  19  29  49  85 120 156 181 218 274 344
#
# _framework density 21.761329
#
# number of rings (size 3 to 8) (size 9 to 14) (size 15 to 20)
#    0.000    1.636    1.818    4.364    0.000    4.000 
#    0.000   11.818    0.000    0.000    0.000    5.091 
#    0.000    0.000    0.000    0.000    0.000    0.000 
#
# Total GULP energy -122561.998007 kJ/mol
# GULP energy per Si atom -5570.999909 kJ/mol
# Density = 2.171180 g / cm^3
# Si number density = 21.761329 Si / 1000 Ang^3
#
#
#
# Elastic Constant Matrix: (Units=GPa)
#
#
# Indices 1 2 3 4 5 6 
#
# 1 23.6261 12.2409 17.9547 0.0000 -5.8027 0.0000
# 2 12.2409 127.6689 45.4091 0.0000 -2.6591 0.0000
# 3 17.9547 45.4091 207.2632 0.0000 2.3729 0.0000
# 4 0.0000 0.0000 0.0000 19.3621 0.0000 9.8776
# 5 -5.8027 -2.6591 2.3729 0.0000 31.1506 0.0000
# 6 0.0000 0.0000 0.0000 9.8776 0.0000 10.3281
#
#
#
# Elastic Compliance Matrix: (Units=1/GPa)
#
#
# Indices 1 2 3 4 5 6 
#
# 1 0.049004 -0.003211 -0.003646 0.000000 0.009132 0.000000
# 2 -0.003211 0.008729 -0.001637 0.000000 0.000272 0.000000
# 3 -0.003646 -0.001637 0.005514 0.000000 -0.001239 0.000000
# 4 0.000000 0.000000 0.000000 0.100854 0.000000 -0.096455
# 5 0.009132 0.000272 -0.001239 0.000000 0.033921 0.000000
# 6 0.000000 0.000000 0.000000 -0.096455 0.000000 0.189071
#
#
# Mechanical properties :
#
#
# Convention : Reuss Voigt Hill
#
# Bulk Modulus (GPa) = 21.61868 56.64085 39.12977
# Shear Modulus (GPa) = 11.91896 31.03173 21.47534
#
# Velocity S-wave (km/s) = 2.34287 3.78034 3.14484
# Velocity P-wave (km/s) = 4.15629 6.71858 5.58633
#
# Compressibility (1/GPa) = 0.04625629
#
# Stress axis : x y z
#
# Youngs Moduli (GPa) = 20.40668 114.56490 181.37233
#
# Poissons Ratio (x) = 0.36792 0.66128
# Poissons Ratio (y) = 0.06554 0.29696
# Poissons Ratio (z) = 0.07440 0.18757
#
# Static dielectric constant tensor:
#      x y z
#    x 1.856710 0.000000 -0.001170 
#    y 0.000000 1.765620 0.000000 
#    z -0.001170 0.000000 2.009550 
# 
# From -- ./inp_files/42113.got.cif
#   From: 2010.05.17/outbox.cif.g08.bks.cpg/sg10_22_cif.got.tgz:42113.got - 2010.06.03 11:33:40.
