data_PCOD9148102
_publ_section_title
;
Structure prediction by ZEFSAII (Michael W. Deem and Ramdas Pophale) SiO2 
 PCOD9148102
Probable space group: P 2/M
;
_chemical_formula_sum "Si O2"
_cell_formula_units_Z 30
_cell_length_a 19.166542
_cell_length_b 7.714440
_cell_length_c 16.359062
_cell_angle_alpha 90.000000
_cell_angle_beta 29.933272
_cell_angle_gamma 90.000000
_cell_volume 1206.977963
_symmetry_space_group_name_H-M "P 2/M"
_symmetry_group_IT_number 10
_symmetry_cell_setting 'monoclinic'
loop_
_space_group_symop_operation_xyz
x,y,z
-x,y,-z
-x,-y,-z
x,-y,z
loop_
_atom_site_type_symbol
_atom_site_label
_atom_site_fract_x
_atom_site_fract_y
_atom_site_fract_z
Si Si1 0.662882 0.694377 0.360775
Si Si2 0.810450 0.796503 0.048700
Si Si3 0.935123 0.701292 0.309321
Si Si4 0.370712 0.000000 0.494234
Si Si5 0.648987 0.200554 0.866007
Si Si6 0.679835 0.297034 0.659267
Si Si7 0.583497 0.189770 0.162363
Si Si8 0.923468 0.789003 0.662360
O O1 0.500000 0.731147 0.500000
O O2 0.667356 0.500000 0.390638
O O3 0.760315 0.705149 0.181542
O O4 0.707436 0.846040 0.375367
O O5 0.715919 0.723673 0.069591
O O6 0.773876 0.000000 0.094777
O O7 0.968737 0.783895 0.857349
O O8 0.921806 0.500000 0.301563
O O9 0.009847 0.720533 0.322183
O O10 0.781157 0.776861 0.485454
O O11 0.475937 0.852845 0.344995
O O12 0.714988 0.204807 0.708137
O O13 0.762707 0.270237 0.813204
O O14 0.623888 0.000000 0.912557
O O15 0.500000 0.288562 0.000000
O O16 0.709729 0.500000 0.637998
O O17 0.518021 0.273642 0.800585
O O18 0.629784 0.000000 0.083842
O O19 0.000000 0.737420 0.500000
O O20 0.926214 0.000000 0.663080
#
# Coordination Sequence:
#
# PCOD9148102 Si02
#       8
#     4   4   4   2   4   4   4   4
#     4  11  19  32  61  94 129 165 202 255 317 369
#     4  11  21  38  62  93 124 160 203 260 308 368
#     4  11  25  40  57  87 126 162 205 255 307 365
#     4  10  19  40  60  93 131 160 206 256 309 378
#     4  10  22  39  61  86 116 153 202 255 306 364
#     4  11  24  41  59  83 123 167 203 249 310 373
#     4   9  21  37  61  86 121 156 200 252 304 365
#     4  10  20  38  62  86 110 155 208 250 297 365
#
# _framework density 24.855467000000001
#
# number of rings (size 3 to 8) (size 9 to 14) (size 15 to 20)
#    0.400    1.200    3.333    1.400    1.867    4.267 
#    0.000    0.000    0.000    1.600    0.000    2.800 
#    0.000    0.000    0.000    0.000    0.000    0.000 
#
# Total GULP energy -167179.898867 kJ/mol
# GULP energy per Si atom -5572.663296 kJ/mol
# Density = 2.479889 g / cm^3
# Si number density = 24.855467 Si / 1000 Ang^3
#
#
#
# Elastic Constant Matrix: (Units=GPa)
#
#
# Indices 1 2 3 4 5 6 
#
# 1 43.7620 1.7849 9.5953 0.0000 -0.5730 0.0000
# 2 1.7849 62.5270 -9.8924 0.0000 4.6708 0.0000
# 3 9.5953 -9.8924 111.3930 0.0000 5.1214 0.0000
# 4 0.0000 0.0000 0.0000 16.9072 0.0000 1.1798
# 5 -0.5730 4.6708 5.1214 0.0000 47.3542 0.0000
# 6 0.0000 0.0000 0.0000 1.1798 0.0000 15.2552
#
#
#
# Elastic Compliance Matrix: (Units=1/GPa)
#
#
# Indices 1 2 3 4 5 6 
#
# 1 0.023370 -0.001051 -0.002135 0.000000 0.000617 0.000000
# 2 -0.001051 0.016416 0.001632 0.000000 -0.001808 0.000000
# 3 -0.002135 0.001632 0.009361 0.000000 -0.001199 0.000000
# 4 0.000000 0.000000 0.000000 0.059467 0.000000 -0.004599
# 5 0.000617 -0.001808 -0.001199 0.000000 0.021433 0.000000
# 6 0.000000 0.000000 0.000000 -0.004599 0.000000 0.065907
#
#
# Mechanical properties :
#
#
# Convention : Reuss Voigt Hill
#
# Bulk Modulus (GPa) = 21.72077 24.51752 23.11914
# Shear Modulus (GPa) = 23.31983 30.31624 26.81804
#
# Velocity S-wave (km/s) = 3.06636 3.49621 3.28832
# Velocity P-wave (km/s) = 4.61460 5.11698 4.87227
#
# Compressibility (1/GPa) = 0.04603889
#
# Stress axis : x y z
#
# Youngs Moduli (GPa) = 42.79008 60.91500 106.82458
#
# Poissons Ratio (x) = 0.06402 0.22805
# Poissons Ratio (y) = 0.04497 -0.17429
# Poissons Ratio (z) = 0.09135 -0.09939
#
# Static dielectric constant tensor:
#      x y z
#    x 2.012200 0.000000 0.009860 
#    y 0.000000 1.867020 0.000000 
#    z 0.009860 0.000000 2.036250 
# 
# From -- ./inp_files/79377.got.cif
#   From: 2010.05.17/outbox.cif.g08.bks.cpg/sg10_40_cif.got.tgz:79377.got - 2010.06.03 11:33:40.
