data_PCOD9148541
_publ_section_title
;
Structure prediction by ZEFSAII (Michael W. Deem and Ramdas Pophale) SiO2 
 PCOD9148541
Probable space group: P 2/M
;
_chemical_formula_sum "Si O2"
_cell_formula_units_Z 28
_cell_length_a 26.869733
_cell_length_b 7.596553
_cell_length_c 9.670030
_cell_angle_alpha 90.000000
_cell_angle_beta 40.474137
_cell_angle_gamma 90.000000
_cell_volume 1281.216504
_symmetry_space_group_name_H-M "P 2/M"
_symmetry_group_IT_number 10
_symmetry_cell_setting 'monoclinic'
loop_
_space_group_symop_operation_xyz
x,y,z
-x,y,-z
-x,-y,-z
x,-y,z
loop_
_atom_site_type_symbol
_atom_site_label
_atom_site_fract_x
_atom_site_fract_y
_atom_site_fract_z
Si Si1 0.321936 0.213357 0.204010
Si Si2 0.256621 0.289794 0.924805
Si Si3 0.171385 0.298517 0.356170
Si Si4 0.084329 0.204194 0.806519
Si Si5 0.492953 0.786840 0.855764
Si Si6 0.767955 0.212223 0.342510
Si Si7 0.574914 0.704827 0.415428
O O1 0.255237 0.290500 0.250771
O O2 0.299959 0.263157 0.408226
O O3 0.317607 0.000000 0.203381
O O4 0.407890 0.266709 0.985972
O O5 0.258975 0.500000 0.943960
O O6 0.242623 0.264150 0.792697
O O7 0.340919 0.216784 0.785546
O O8 0.189326 0.221410 0.167047
O O9 0.145493 0.500000 0.399293
O O10 0.114567 0.209926 0.585130
O O11 0.152785 0.279756 0.756421
O O12 0.078042 0.000000 0.862082
O O13 0.000000 0.284079 0.000000
O O14 0.555980 0.715421 0.618280
O O15 0.497902 0.000000 0.842108
O O16 0.500000 0.732558 0.000000
O O17 0.769564 0.000000 0.342835
O O18 0.500000 0.785708 0.500000
O O19 0.578303 0.500000 0.366562
#
# Coordination Sequence:
#
# PCOD9148541 Si02
#       7
#     4   4   4   4   4   4   4
#     4   9  18  33  51  72  99 132 173 217 260 307
#     4  10  21  35  50  73 106 140 173 212 258 305
#     4  10  20  34  54  78 103 134 171 207 247 299
#     4   9  19  38  61  83 107 133 164 204 250 303
#     4  10  20  33  49  71  99 130 169 220 269 308
#     4   9  18  33  55  79 101 132 171 209 252 303
#     4  10  21  36  51  69  99 139 180 220 261 305
#
# _framework density 21.854230000000001
#
# number of rings (size 3 to 8) (size 9 to 14) (size 15 to 20)
#    0.000    2.429    0.000    3.000    0.000    7.714 
#    0.000    0.714    0.000    4.286    0.000    0.000 
#    0.000    0.000    0.000    0.000    0.000    0.000 
#
# Total GULP energy -156326.141231 kJ/mol
# GULP energy per Si atom -5583.076473 kJ/mol
# Density = 2.180449 g / cm^3
# Si number density = 21.854230 Si / 1000 Ang^3
#
#
#
# Elastic Constant Matrix: (Units=GPa)
#
#
# Indices 1 2 3 4 5 6 
#
# 1 47.0747 -0.2689 37.5418 0.0000 6.1976 0.0000
# 2 -0.2689 47.6467 -6.0055 0.0000 -5.9227 0.0000
# 3 37.5418 -6.0055 119.8312 0.0000 -2.6331 0.0000
# 4 0.0000 0.0000 0.0000 16.9827 0.0000 7.8238
# 5 6.1976 -5.9227 -2.6331 0.0000 41.0561 0.0000
# 6 0.0000 0.0000 0.0000 7.8238 0.0000 18.5131
#
#
#
# Elastic Compliance Matrix: (Units=1/GPa)
#
#
# Indices 1 2 3 4 5 6 
#
# 1 0.029447 -0.001680 -0.009426 0.000000 -0.005292 0.000000
# 2 -0.001680 0.021624 0.001686 0.000000 0.003481 0.000000
# 3 -0.009426 0.001686 0.011435 0.000000 0.002400 0.000000
# 4 0.000000 0.000000 0.000000 0.073119 0.000000 -0.030901
# 5 -0.005292 0.003481 0.002400 0.000000 0.025812 0.000000
# 6 0.000000 0.000000 0.000000 -0.030901 0.000000 0.067075
#
#
# Mechanical properties :
#
#
# Convention : Reuss Voigt Hill
#
# Bulk Modulus (GPa) = 22.90024 30.78749 26.84387
# Shear Modulus (GPa) = 19.09081 27.52939 23.31010
#
# Velocity S-wave (km/s) = 2.95880 3.55305 3.26945
# Velocity P-wave (km/s) = 4.70893 5.56331 5.15386
#
# Compressibility (1/GPa) = 0.04366767
#
# Stress axis : x y z
#
# Youngs Moduli (GPa) = 33.95922 46.24570 87.44811
#
# Poissons Ratio (x) = 0.07768 0.82428
# Poissons Ratio (y) = 0.05704 -0.14747
# Poissons Ratio (z) = 0.32010 -0.07799
#
# Static dielectric constant tensor:
#      x y z
#    x 1.810940 0.000000 0.011700 
#    y 0.000000 1.865180 0.000000 
#    z 0.011700 0.000000 1.815150 
# 
# From -- ./inp_files/37051.got.cif
#   From: 2010.05.17/outbox.cif.g08.bks.cpg/sg10_19_cif.got.tgz:37051.got - 2010.06.03 11:33:40.
