data_PCOD9148140
_publ_section_title
;
Structure prediction by ZEFSAII (Michael W. Deem and Ramdas Pophale) SiO2 
 PCOD9148140
Probable space group: P 2/M
;
_chemical_formula_sum "Si O2"
_cell_formula_units_Z 28
_cell_length_a 24.675893
_cell_length_b 11.691057
_cell_length_c 20.687064
_cell_angle_alpha 90.000000
_cell_angle_beta 163.205513
_cell_angle_gamma 90.000000
_cell_volume 1724.378921
_symmetry_space_group_name_H-M "P 2/M"
_symmetry_group_IT_number 10
_symmetry_cell_setting 'monoclinic'
loop_
_space_group_symop_operation_xyz
x,y,z
-x,y,-z
-x,-y,-z
x,-y,z
loop_
_atom_site_type_symbol
_atom_site_label
_atom_site_fract_x
_atom_site_fract_y
_atom_site_fract_z
Si Si1 0.155551 0.746696 0.733796
Si Si2 0.061700 0.360992 0.877397
Si Si3 0.134601 0.361239 0.212263
Si Si4 0.690305 0.500000 0.122942
Si Si5 0.264561 0.500000 0.670841
Si Si6 0.474466 0.863259 0.895947
Si Si7 0.523900 0.361259 0.601506
Si Si8 0.092838 0.736936 0.429911
O O1 0.218248 0.613533 0.802199
O O2 0.000000 0.765093 0.500000
O O3 0.060949 0.778111 0.693804
O O4 0.343472 0.816883 0.933191
O O5 0.047354 0.500000 0.849360
O O6 0.943517 0.332704 0.806711
O O7 0.989826 0.288684 0.734820
O O8 0.276941 0.333029 0.140244
O O9 0.133344 0.500000 0.208133
O O10 0.345379 0.322400 0.438781
O O11 0.000000 0.322583 0.000000
O O12 0.719064 0.500000 0.233081
O O13 0.464311 0.500000 0.861695
O O14 0.157900 0.613583 0.529980
O O15 0.279558 0.813989 0.646161
O O16 0.470441 0.000000 0.890502
O O17 0.500000 0.823906 0.000000
O O18 0.500000 0.322441 0.500000
O O19 0.518773 0.500000 0.593388
#
# Coordination Sequence:
#
# PCOD9148140 Si02
#       8
#     4   4   4   2   2   4   4   4
#     4  12  22  35  57  81 105 142 183 223 272 323
#     4  10  20  30  45  73 108 143 177 216 260 310
#     4   9  15  26  45  65  94 142 186 213 244 296
#     4  11  20  33  56  77 103 143 187 212 260 328
#     4  11  19  34  55  73 108 146 175 219 266 325
#     4  11  24  42  61  80 101 136 189 239 280 326
#     4   9  15  26  43  64  93 135 184 214 237 294
#     4  12  23  37  53  80 113 142 177 229 278 324
#
# _framework density 16.237729999999999
#
# number of rings (size 3 to 8) (size 9 to 14) (size 15 to 20)
#    0.000    1.429    6.429    0.643    0.000    2.000 
#    0.000    0.000    0.000    0.000    0.000    0.000 
#    0.000    1.143    0.000    0.143    0.000    0.000 
#
# Total GULP energy -156213.775212 kJ/mol
# GULP energy per Si atom -5579.063400 kJ/mol
# Density = 1.620077 g / cm^3
# Si number density = 16.237730 Si / 1000 Ang^3
#
#
#
# Elastic Constant Matrix: (Units=GPa)
#
#
# Indices 1 2 3 4 5 6 
#
# 1 140.6793 21.1945 94.9313 0.0000 10.5824 0.0000
# 2 21.1945 37.3251 30.4167 0.0000 1.8614 0.0000
# 3 94.9313 30.4167 142.1321 0.0000 15.7798 0.0000
# 4 0.0000 0.0000 0.0000 1.6920 0.0000 -5.6392
# 5 10.5824 1.8614 15.7798 0.0000 34.6397 0.0000
# 6 0.0000 0.0000 0.0000 -5.6392 0.0000 10.2012
#
#
#
# Elastic Compliance Matrix: (Units=1/GPa)
#
#
# Indices 1 2 3 4 5 6 
#
# 1 0.012945 -0.000371 -0.008563 0.000000 -0.000034 0.000000
# 2 -0.000371 0.032535 -0.006881 0.000000 0.001500 0.000000
# 3 -0.008563 -0.006881 0.014636 0.000000 -0.003682 0.000000
# 4 0.000000 0.000000 0.000000 -0.701582 0.000000 -0.387832
# 5 -0.000034 0.001500 -0.003682 0.000000 0.030476 0.000000
# 6 0.000000 0.000000 0.000000 -0.387832 0.000000 -0.116365
#
#
# Mechanical properties :
#
#
# Convention : Reuss Voigt Hill
#
# Bulk Modulus (GPa) = 35.10486 68.13572 51.62029
# Shear Modulus (GPa) = -7.28620 20.87951 6.79665
#
# Velocity S-wave (km/s) = -2.12060 3.58978 2.04812
# Velocity P-wave (km/s) = 3.95858 7.69640 6.11984
#
# Compressibility (1/GPa) = 0.02848608
#
# Stress axis : x y z
#
# Youngs Moduli (GPa) = 77.24852 30.73597 68.32241
#
# Poissons Ratio (x) = 0.01140 0.58505
# Poissons Ratio (y) = 0.02865 0.47016
# Poissons Ratio (z) = 0.66149 0.21151
#
# Static dielectric constant tensor:
#      x y z
#    x 1.555690 0.000000 0.015430 
#    y 0.000000 1.518120 0.000000 
#    z 0.015430 0.000000 1.557300 
# 
# From -- ./inp_files/79600.got.cif
#   From: 2010.05.17/outbox.cif.g08.bks.cpg/sg10_40_cif.got.tgz:79600.got - 2010.06.03 11:33:40.
