data_PCOD9148618
_publ_section_title
;
Structure prediction by ZEFSAII (Michael W. Deem and Ramdas Pophale) SiO2 
 PCOD9148618
Probable space group: P 2/M
;
_chemical_formula_sum "Si O2"
_cell_formula_units_Z 32
_cell_length_a 21.241572
_cell_length_b 7.531509
_cell_length_c 25.766157
_cell_angle_alpha 90.000000
_cell_angle_beta 157.626440
_cell_angle_gamma 90.000000
_cell_volume 1569.050556
_symmetry_space_group_name_H-M "P 2/M"
_symmetry_group_IT_number 10
_symmetry_cell_setting 'monoclinic'
loop_
_space_group_symop_operation_xyz
x,y,z
-x,y,-z
-x,-y,-z
x,-y,z
loop_
_atom_site_type_symbol
_atom_site_label
_atom_site_fract_x
_atom_site_fract_y
_atom_site_fract_z
Si Si1 0.419500 0.207620 0.601650
Si Si2 0.126257 0.285612 0.813226
Si Si3 0.168114 0.703012 0.606707
Si Si4 0.530219 0.282756 0.879594
Si Si5 0.320803 0.285656 0.117223
Si Si6 0.854348 0.793348 0.527920
Si Si7 0.022720 0.714770 0.189901
Si Si8 0.397359 0.793116 0.469530
O O1 0.589387 0.221885 0.762757
O O2 0.277878 0.283109 0.531603
O O3 0.425267 0.285445 0.548346
O O4 0.375572 0.000000 0.562007
O O5 0.124968 0.500000 0.811232
O O6 0.031862 0.220315 0.690736
O O7 0.024264 0.230088 0.787076
O O8 0.315447 0.229241 0.966958
O O9 0.171381 0.500000 0.629266
O O10 0.348533 0.781144 0.756575
O O11 0.155480 0.701291 0.534821
O O12 0.000000 0.787709 0.500000
O O13 0.526440 0.500000 0.876298
O O14 0.576648 0.229320 0.855970
O O15 0.323056 0.500000 0.119540
O O16 0.131739 0.229654 0.963528
O O17 0.814865 0.000000 0.488504
O O18 0.028104 0.500000 0.193761
O O19 0.201464 0.782547 0.310382
O O20 0.500000 0.714137 0.500000
O O21 0.448142 0.000000 0.511704
#
# Coordination Sequence:
#
# PCOD9148618 Si02
#       8
#     4   4   4   4   4   4   4   4
#     4  10  20  33  50  77 104 130 172 215 252 302
#     4   9  17  31  53  77 101 132 169 213 258 300
#     4  10  20  35  56  79 104 138 176 212 257 313
#     4   8  15  30  51  76 103 129 167 213 252 299
#     4   9  17  31  53  78 103 132 166 212 263 304
#     4  11  21  33  51  78 108 135 170 217 258 300
#     4   9  18  32  52  79 105 131 169 214 260 306
#     4  10  21  37  54  73 104 143 176 210 256 310
#
# _framework density 20.394499
#
# number of rings (size 3 to 8) (size 9 to 14) (size 15 to 20)
#    0.000    2.500    2.500    1.875    0.000    2.000 
#    0.000    3.750    0.000    7.500    0.000    0.000 
#    0.000    0.000    0.000    0.000    0.000    0.000 
#
# Total GULP energy -178554.455058 kJ/mol
# GULP energy per Si atom -5579.826721 kJ/mol
# Density = 2.034808 g / cm^3
# Si number density = 20.394499 Si / 1000 Ang^3
#
#
#
# Elastic Constant Matrix: (Units=GPa)
#
#
# Indices 1 2 3 4 5 6 
#
# 1 22.4540 -6.8646 8.9232 0.0000 -0.3158 0.0000
# 2 -6.8646 52.0752 -17.6475 0.0000 1.5380 0.0000
# 3 8.9232 -17.6475 106.6957 0.0000 -0.2198 0.0000
# 4 0.0000 0.0000 0.0000 15.4670 0.0000 -7.5736
# 5 -0.3158 1.5380 -0.2198 0.0000 26.8393 0.0000
# 6 0.0000 0.0000 0.0000 -7.5736 0.0000 2.3735
#
#
#
# Elastic Compliance Matrix: (Units=1/GPa)
#
#
# Indices 1 2 3 4 5 6 
#
# 1 0.047357 0.005184 -0.003103 0.000000 0.000235 0.000000
# 2 0.005184 0.020946 0.003029 0.000000 -0.001115 0.000000
# 3 -0.003103 0.003029 0.010133 0.000000 -0.000127 0.000000
# 4 0.000000 0.000000 0.000000 -0.114953 0.000000 -0.366797
# 5 0.000235 -0.001115 -0.000127 0.000000 0.037324 0.000000
# 6 0.000000 0.000000 0.000000 -0.366797 0.000000 -0.749081
#
#
# Mechanical properties :
#
#
# Convention : Reuss Voigt Hill
#
# Bulk Modulus (GPa) = 11.27966 16.67193 13.97580
# Shear Modulus (GPa) = -6.85925 22.05689 7.59882
#
# Velocity S-wave (km/s) = -1.83592 3.29220 1.93236
# Velocity P-wave (km/s) = 1.02403 4.75856 3.44184
#
# Compressibility (1/GPa) = 0.08865512
#
# Stress axis : x y z
#
# Youngs Moduli (GPa) = 21.11636 47.74269 98.69148
#
# Poissons Ratio (x) = -0.24751 0.30620
# Poissons Ratio (y) = -0.10947 -0.29889
# Poissons Ratio (z) = 0.06552 -0.14459
#
# Static dielectric constant tensor:
#      x y z
#    x 1.708420 0.000000 0.012230 
#    y 0.000000 1.767530 0.000000 
#    z 0.012230 0.000000 1.736650 
# 
# From -- ./inp_files/93577.got.cif
#   From: 2010.05.17/outbox.cif.g08.bks.cpg/sg10_47_cif.got.tgz:93577.got - 2010.06.03 11:33:40.
