data_PCOD9148897
_publ_section_title
;
Structure prediction by ZEFSAII (Michael W. Deem and Ramdas Pophale) SiO2 
 PCOD9148897
Probable space group: P 2/M
;
_chemical_formula_sum "Si O2"
_cell_formula_units_Z 26
_cell_length_a 13.687122
_cell_length_b 12.368885
_cell_length_c 8.791715
_cell_angle_alpha 90.000000
_cell_angle_beta 116.852065
_cell_angle_gamma 90.000000
_cell_volume 1327.904059
_symmetry_space_group_name_H-M "P 2/M"
_symmetry_group_IT_number 10
_symmetry_cell_setting 'monoclinic'
loop_
_space_group_symop_operation_xyz
x,y,z
-x,y,-z
-x,-y,-z
x,-y,z
loop_
_atom_site_type_symbol
_atom_site_label
_atom_site_fract_x
_atom_site_fract_y
_atom_site_fract_z
Si Si1 0.206354 0.128435 0.994213
Si Si2 0.690544 0.500000 0.338048
Si Si3 0.679766 0.500000 0.981968
Si Si4 0.184926 0.737810 0.283191
Si Si5 0.421068 0.259958 0.084796
Si Si6 0.424052 0.682232 0.575681
Si Si7 0.980202 0.121507 0.663953
Si Si8 0.815007 0.500000 0.756468
O O1 0.184863 0.182536 0.141348
O O2 0.311767 0.189066 0.000881
O O3 0.224450 0.000000 0.015934
O O4 0.095876 0.147862 0.822199
O O5 0.732995 0.500000 0.193122
O O6 0.615720 0.604165 0.316870
O O7 0.764111 0.500000 0.545912
O O8 0.614928 0.386399 0.933236
O O9 0.744606 0.500000 0.865393
O O10 0.311409 0.722177 0.422049
O O11 0.135291 0.620101 0.206129
O O12 0.112202 0.792942 0.360032
O O13 0.492691 0.235116 0.286374
O O14 0.500000 0.239693 0.000000
O O15 0.500000 0.627284 0.500000
O O16 0.000000 0.119268 0.500000
O O17 0.947757 0.000000 0.692380
#
# Coordination Sequence:
#
# PCOD9148897 Si02
#       8
#     4   2   2   4   4   4   4   2
#     4  11  24  44  67  90 123 170 218 265 324 387
#     4  10  20  33  60  90 131 180 223 252 307 391
#     4  12  20  39  61  96 133 182 221 257 315 391
#     4  11  22  42  67  94 131 167 215 267 321 387
#     4  12  23  37  62  96 133 169 212 260 319 388
#     4  11  20  36  57  94 131 169 207 260 319 378
#     4  10  24  46  72  95 118 164 224 275 320 381
#     4  10  22  39  63 101 135 168 214 270 329 383
#
# _framework density 19.579726000000001
#
# number of rings (size 3 to 8) (size 9 to 14) (size 15 to 20)
#    0.000    1.077    4.615    2.769    2.154    1.538 
#    0.000    5.000    0.000    0.000    0.000    0.000 
#    0.000    0.000    0.000    0.000    0.000    0.000 
#
# Total GULP energy -144878.216846 kJ/mol
# GULP energy per Si atom -5572.239109 kJ/mol
# Density = 1.953516 g / cm^3
# Si number density = 19.579726 Si / 1000 Ang^3
#
#
#
# Elastic Constant Matrix: (Units=GPa)
#
#
# Indices 1 2 3 4 5 6 
#
# 1 71.3194 52.0143 16.6812 0.0000 -8.7817 0.0000
# 2 52.0143 85.4526 26.1379 0.0000 12.5917 0.0000
# 3 16.6812 26.1379 102.2218 0.0000 -2.1306 0.0000
# 4 0.0000 0.0000 0.0000 29.9764 0.0000 -8.5957
# 5 -8.7817 12.5917 -2.1306 0.0000 31.0546 0.0000
# 6 0.0000 0.0000 0.0000 -8.5957 0.0000 23.9592
#
#
#
# Elastic Compliance Matrix: (Units=1/GPa)
#
#
# Indices 1 2 3 4 5 6 
#
# 1 0.032978 -0.023120 0.000921 0.000000 0.018763 0.000000
# 2 -0.023120 0.029869 -0.004259 0.000000 -0.018941 0.000000
# 3 0.000921 -0.004259 0.010778 0.000000 0.002727 0.000000
# 4 0.000000 0.000000 0.000000 0.037185 0.000000 0.013341
# 5 0.018763 -0.018941 0.002727 0.000000 0.045375 0.000000
# 6 0.000000 0.000000 0.000000 0.013341 0.000000 0.046524
#
#
# Mechanical properties :
#
#
# Convention : Reuss Voigt Hill
#
# Bulk Modulus (GPa) = 48.28778 49.85117 49.06948
# Shear Modulus (GPa) = 19.04548 27.94206 23.49377
#
# Velocity S-wave (km/s) = 3.12222 3.78178 3.46772
# Velocity P-wave (km/s) = 6.14112 6.67721 6.41477
#
# Compressibility (1/GPa) = 0.02070918
#
# Stress axis : x y z
#
# Youngs Moduli (GPa) = 30.32293 33.47899 92.77920
#
# Poissons Ratio (x) = 0.77404 -0.08548
# Poissons Ratio (y) = 0.70108 0.39519
# Poissons Ratio (z) = -0.02794 0.14260
#
# Static dielectric constant tensor:
#      x y z
#    x 1.671760 0.000000 0.003120 
#    y 0.000000 1.704440 0.000000 
#    z 0.003120 0.000000 1.744160 
# 
# From -- ./inp_files/28442.got.cif
#   From: 2010.05.17/outbox.cif.g08.bks.cpg/sg10_15_cif.got.tgz:28442.got - 2010.06.03 11:33:40.
