data_PCOD9148503
_publ_section_title
;
Structure prediction by ZEFSAII (Michael W. Deem and Ramdas Pophale) SiO2 
 PCOD9148503
Probable space group: P 2/M
;
_chemical_formula_sum "Si O2"
_cell_formula_units_Z 32
_cell_length_a 29.875691
_cell_length_b 14.042088
_cell_length_c 8.643343
_cell_angle_alpha 90.000000
_cell_angle_beta 150.974200
_cell_angle_gamma 90.000000
_cell_volume 1759.362130
_symmetry_space_group_name_H-M "P 2/M"
_symmetry_group_IT_number 10
_symmetry_cell_setting 'monoclinic'
loop_
_space_group_symop_operation_xyz
x,y,z
-x,y,-z
-x,-y,-z
x,-y,z
loop_
_atom_site_type_symbol
_atom_site_label
_atom_site_fract_x
_atom_site_fract_y
_atom_site_fract_z
Si Si1 0.896584 0.608671 0.751389
Si Si2 0.599884 0.889068 0.862427
Si Si3 0.406490 0.386344 0.797707
Si Si4 0.398083 0.608163 0.123786
Si Si5 0.103357 0.607760 0.877181
Si Si6 0.257161 0.736041 0.205045
Si Si7 0.398944 0.110227 0.763431
Si Si8 0.258712 0.743068 0.850560
O O1 0.866575 0.500000 0.613939
O O2 0.831410 0.694117 0.496251
O O3 0.896816 0.610748 0.937764
O O4 0.000000 0.620541 0.000000
O O5 0.500000 0.851340 0.500000
O O6 0.605543 0.000000 0.831579
O O7 0.596681 0.884519 0.037961
O O8 0.689397 0.833111 0.070124
O O9 0.410191 0.500000 0.819351
O O10 0.325130 0.352488 0.442758
O O11 0.500000 0.353226 0.000000
O O12 0.395061 0.350374 0.939980
O O13 0.500000 0.608237 0.500000
O O14 0.365147 0.500000 0.011318
O O15 0.335339 0.662810 0.053306
O O16 0.137532 0.500000 0.936265
O O17 0.000000 0.614988 0.500000
O O18 0.163824 0.695770 0.998406
O O19 0.315608 0.822810 0.455168
O O20 0.242656 0.758390 0.982321
O O21 0.382191 0.000000 0.667741
O O22 0.500000 0.135953 0.000000
#
# Coordination Sequence:
#
# PCOD9148503 Si02
#       8
#     4   4   4   4   4   4   4   4
#     4  10  21  38  59  83 112 145 183 227 273 323
#     4  10  21  38  59  82 110 144 183 228 276 327
#     4  10  20  33  48  69 101 139 177 217 261 313
#     4  10  20  33  48  69 101 139 177 217 261 313
#     4  10  21  38  59  83 112 145 183 227 273 323
#     4  12  23  34  53  79 108 142 180 222 268 322
#     4  10  21  38  59  82 110 144 183 228 276 327
#     4  12  23  34  53  79 108 142 180 222 268 322
#
# _framework density 18.188410000000001
#
# number of rings (size 3 to 8) (size 9 to 14) (size 15 to 20)
#    0.000    1.500    0.000    6.000    0.000    7.500 
#    0.000    0.000    0.000    0.750    0.000    0.000 
#    0.000    0.000    0.000    0.000    0.000    0.000 
#
# Total GULP energy -178559.086218 kJ/mol
# GULP energy per Si atom -5579.971444 kJ/mol
# Density = 1.814701 g / cm^3
# Si number density = 18.188410 Si / 1000 Ang^3
#
#
#
# Elastic Constant Matrix: (Units=GPa)
#
#
# Indices 1 2 3 4 5 6 
#
# 1 88.1432 39.9589 33.3593 0.0000 3.3871 0.0000
# 2 39.9589 104.7885 44.9891 0.0000 12.1266 0.0000
# 3 33.3593 44.9891 98.5717 0.0000 3.7087 0.0000
# 4 0.0000 0.0000 0.0000 164.8948 0.0000 -260.1799
# 5 3.3871 12.1266 3.7087 0.0000 32.5526 0.0000
# 6 0.0000 0.0000 0.0000 -260.1799 0.0000 545.4766
#
#
#
# Elastic Compliance Matrix: (Units=1/GPa)
#
#
# Indices 1 2 3 4 5 6 
#
# 1 0.014375 -0.004273 -0.002931 0.000000 0.000430 0.000000
# 2 -0.004273 0.013632 -0.004621 0.000000 -0.004107 0.000000
# 3 -0.002931 -0.004621 0.013226 0.000000 0.000519 0.000000
# 4 0.000000 0.000000 0.000000 0.024513 0.000000 0.011692
# 5 0.000430 -0.004107 0.000519 0.000000 0.032146 0.000000
# 6 0.000000 0.000000 0.000000 0.011692 0.000000 0.007410
#
#
# Mechanical properties :
#
#
# Convention : Reuss Voigt Hill
#
# Bulk Modulus (GPa) = 56.87228 58.67978 57.77603
# Shear Modulus (GPa) = 37.08859 160.13121 98.60990
#
# Velocity S-wave (km/s) = 4.52058 9.39316 7.37113
# Velocity P-wave (km/s) = 7.65400 12.24639 10.21170
#
# Compressibility (1/GPa) = 0.01758326
#
# Stress axis : x y z
#
# Youngs Moduli (GPa) = 69.56514 73.35842 75.60703
#
# Poissons Ratio (x) = 0.31347 0.22159
# Poissons Ratio (y) = 0.29726 0.34938
# Poissons Ratio (z) = 0.20388 0.33899
#
# Static dielectric constant tensor:
#      x y z
#    x 1.624520 0.000000 0.011220 
#    y 0.000000 1.664170 0.000000 
#    z 0.011220 0.000000 1.431200 
# 
# From -- ./inp_files/37747.got.cif
#   From: 2010.05.17/outbox.cif.g08.bks.cpg/sg10_19_cif.got.tgz:37747.got - 2010.06.03 11:33:40.
