data_PCOD9148687
_publ_section_title
;
Structure prediction by ZEFSAII (Michael W. Deem and Ramdas Pophale) SiO2 
 PCOD9148687
Probable space group: P 2/M
;
_chemical_formula_sum "Si O2"
_cell_formula_units_Z 32
_cell_length_a 23.976964
_cell_length_b 14.247856
_cell_length_c 9.239203
_cell_angle_alpha 90.000000
_cell_angle_beta 32.150304
_cell_angle_gamma 90.000000
_cell_volume 1679.599959
_symmetry_space_group_name_H-M "P 2/M"
_symmetry_group_IT_number 10
_symmetry_cell_setting 'monoclinic'
loop_
_space_group_symop_operation_xyz
x,y,z
-x,y,-z
-x,-y,-z
x,-y,z
loop_
_atom_site_type_symbol
_atom_site_label
_atom_site_fract_x
_atom_site_fract_y
_atom_site_fract_z
Si Si1 0.831842 0.889259 0.723956
Si Si2 0.224995 0.755947 0.620594
Si Si3 0.554491 0.895217 0.535809
Si Si4 0.888841 0.390441 0.323675
Si Si5 0.742683 0.751364 0.130971
Si Si6 0.037449 0.104963 0.084348
Si Si7 0.664430 0.110029 0.838720
Si Si8 0.892109 0.387507 0.655010
O O1 0.736937 0.865475 0.819927
O O2 0.939175 0.872007 0.401872
O O3 0.824714 0.000000 0.768907
O O4 0.822501 0.830599 0.891150
O O5 0.191122 0.676342 0.583272
O O6 0.262196 0.718985 0.692571
O O7 0.301863 0.826430 0.368894
O O8 0.125613 0.817589 0.888194
O O9 0.500000 0.901582 0.500000
O O10 0.634927 0.809678 0.351300
O O11 0.601645 0.000000 0.461612
O O12 0.457867 0.879977 0.856851
O O13 0.858794 0.500000 0.379955
O O14 0.901231 0.365815 0.464759
O O15 0.000000 0.379140 0.000000
O O16 0.787764 0.662842 0.943642
O O17 0.075523 0.000000 0.039330
O O18 0.000000 0.100923 0.000000
O O19 0.686657 0.000000 0.760728
O O20 0.883860 0.500000 0.690230
O O21 0.000000 0.358430 0.500000
#
# Coordination Sequence:
#
# PCOD9148687 Si02
#       8
#     4   4   4   4   4   4   4   4
#     4  10  20  35  55  81 116 161 207 247 294 357
#     4  12  24  35  56  88 123 160 199 245 304 369
#     4  10  21  40  64  88 118 163 214 262 307 353
#     4  10  22  40  62  87 119 161 200 239 296 368
#     4  12  25  36  59  90 122 155 203 254 306 359
#     4  10  20  33  51  78 116 159 198 235 289 360
#     4  10  20  37  61  84 113 159 210 255 298 350
#     4  10  23  43  67  95 125 156 199 252 304 364
#
# _framework density 19.052154999999999
#
# number of rings (size 3 to 8) (size 9 to 14) (size 15 to 20)
#    0.000    1.500    2.500    2.625    3.500    4.000 
#    0.000    2.500    0.000    1.125    0.000    1.750 
#    0.000    0.000    0.000    0.000    0.000    0.000 
#
# Total GULP energy -178603.856672 kJ/mol
# GULP energy per Si atom -5581.370521 kJ/mol
# Density = 1.900879 g / cm^3
# Si number density = 19.052155 Si / 1000 Ang^3
#
#
#
# Elastic Constant Matrix: (Units=GPa)
#
#
# Indices 1 2 3 4 5 6 
#
# 1 72.0576 42.0463 48.1650 0.0000 24.4355 0.0000
# 2 42.0463 75.3579 48.4780 0.0000 6.8300 0.0000
# 3 48.1650 48.4780 114.8657 0.0000 18.4655 0.0000
# 4 0.0000 0.0000 0.0000 44.2374 0.0000 10.9131
# 5 24.4355 6.8300 18.4655 0.0000 32.2814 0.0000
# 6 0.0000 0.0000 0.0000 10.9131 0.0000 29.6953
#
#
#
# Elastic Compliance Matrix: (Units=1/GPa)
#
#
# Indices 1 2 3 4 5 6 
#
# 1 0.030013 -0.012181 -0.004632 0.000000 -0.017492 0.000000
# 2 -0.012181 0.023170 -0.005908 0.000000 0.007698 0.000000
# 3 -0.004632 -0.005908 0.013631 0.000000 -0.003040 0.000000
# 4 0.000000 0.000000 0.000000 0.024859 0.000000 -0.009136
# 5 -0.017492 0.007698 -0.003040 0.000000 0.044328 0.000000
# 6 0.000000 0.000000 0.000000 -0.009136 0.000000 0.037033
#
#
# Mechanical properties :
#
#
# Convention : Reuss Voigt Hill
#
# Bulk Modulus (GPa) = 46.79353 59.96219 53.37786
# Shear Modulus (GPa) = 22.16307 29.48229 25.82268
#
# Velocity S-wave (km/s) = 3.41440 3.93803 3.68553
# Velocity P-wave (km/s) = 6.33705 7.22623 6.79620
#
# Compressibility (1/GPa) = 0.02137048
#
# Stress axis : x y z
#
# Youngs Moduli (GPa) = 33.31837 43.16011 73.36440
#
# Poissons Ratio (x) = 0.52572 0.33985
# Poissons Ratio (y) = 0.40584 0.43346
# Poissons Ratio (z) = 0.15434 0.25501
#
# Static dielectric constant tensor:
#      x y z
#    x 1.769160 0.000000 0.004820 
#    y 0.000000 1.678820 0.000000 
#    z 0.004820 0.000000 1.660910 
# 
# From -- ./inp_files/36348.got.cif
#   From: 2010.05.17/outbox.cif.g08.bks.cpg/sg10_19_cif.got.tgz:36348.got - 2010.06.03 11:33:40.
