data_PCOD9148063
_publ_section_title
;
Structure prediction by ZEFSAII (Michael W. Deem and Ramdas Pophale) SiO2 
 PCOD9148063
Probable space group: P 2/M
;
_chemical_formula_sum "Si O2"
_cell_formula_units_Z 28
_cell_length_a 20.438882
_cell_length_b 9.166089
_cell_length_c 23.755056
_cell_angle_alpha 90.000000
_cell_angle_beta 160.932336
_cell_angle_gamma 90.000000
_cell_volume 1453.870939
_symmetry_space_group_name_H-M "P 2/M"
_symmetry_group_IT_number 10
_symmetry_cell_setting 'monoclinic'
loop_
_space_group_symop_operation_xyz
x,y,z
-x,y,-z
-x,-y,-z
x,-y,z
loop_
_atom_site_type_symbol
_atom_site_label
_atom_site_fract_x
_atom_site_fract_y
_atom_site_fract_z
Si Si1 0.213380 0.843146 0.700229
Si Si2 0.087488 0.674496 0.225143
Si Si3 0.349373 0.175001 0.130387
Si Si4 0.808013 0.828973 0.803307
Si Si5 0.511962 0.329604 0.867239
Si Si6 0.421352 0.827237 0.567780
Si Si7 0.719921 0.340623 0.148258
O O1 0.328437 0.728147 0.755090
O O2 0.180119 0.787527 0.736397
O O3 0.000000 0.858350 0.500000
O O4 0.321623 0.000000 0.788370
O O5 0.073086 0.500000 0.216992
O O6 0.182426 0.727004 0.243131
O O7 0.230624 0.737432 0.390754
O O8 0.866607 0.746436 0.044957
O O9 0.455936 0.231065 0.160689
O O10 0.484326 0.212222 0.294788
O O11 0.321271 0.000000 0.107879
O O12 0.605079 0.807952 0.673355
O O13 0.817751 0.000000 0.793479
O O14 0.000000 0.803522 0.000000
O O15 0.491052 0.500000 0.835711
O O16 0.691685 0.317990 0.059193
O O17 0.371086 0.000000 0.527777
O O18 0.811746 0.500000 0.232835
O O19 0.500000 0.344756 0.000000
#
# Coordination Sequence:
#
# PCOD9148063 Si02
#       7
#     4   4   4   4   4   4   4
#     4  10  20  34  55  86 118 149 193 241 284 339
#     4  12  25  39  60  92 127 159 199 252 312 369
#     4  11  23  43  66  87 118 163 210 253 301 361
#     4  10  19  38  65  90 118 159 208 254 305 360
#     4  10  21  38  59  85 116 152 191 237 300 359
#     4  10  22  41  65  89 118 160 209 256 302 361
#     4   8  16  32  54  78 106 140 179 225 280 339
#
# _framework density 19.258932000000001
#
# number of rings (size 3 to 8) (size 9 to 14) (size 15 to 20)
#    0.000    1.857    1.429    3.857    0.000    8.000 
#    2.571    0.000    0.000    0.000    0.000    0.000 
#    0.000    0.000    0.000    0.000    0.000    0.000 
#
# Total GULP energy -156178.732838 kJ/mol
# GULP energy per Si atom -5577.811887 kJ/mol
# Density = 1.921510 g / cm^3
# Si number density = 19.258932 Si / 1000 Ang^3
#
#
#
# Elastic Constant Matrix: (Units=GPa)
#
#
# Indices 1 2 3 4 5 6 
#
# 1 87.5289 42.6672 34.2532 0.0000 -24.1678 0.0000
# 2 42.6672 104.0571 64.7550 0.0000 -27.9957 0.0000
# 3 34.2532 64.7550 94.4597 0.0000 -29.8012 0.0000
# 4 0.0000 0.0000 0.0000 -2.2151 0.0000 -35.1486
# 5 -24.1678 -27.9957 -29.8012 0.0000 19.0073 0.0000
# 6 0.0000 0.0000 0.0000 -35.1486 0.0000 -26.0009
#
#
#
# Elastic Compliance Matrix: (Units=1/GPa)
#
#
# Indices 1 2 3 4 5 6 
#
# 1 0.018140 -0.002925 0.002661 0.000000 0.022929 0.000000
# 2 -0.002925 0.019092 -0.008566 0.000000 0.010969 0.000000
# 3 0.002661 -0.008566 0.024896 0.000000 0.029800 0.000000
# 4 0.000000 0.000000 0.000000 0.022075 0.000000 -0.029842
# 5 0.022929 0.010969 0.029800 0.000000 0.144645 0.000000
# 6 0.000000 0.000000 0.000000 -0.029842 0.000000 0.001881
#
#
# Mechanical properties :
#
#
# Convention : Reuss Voigt Hill
#
# Bulk Modulus (GPa) = 22.48869 63.26629 42.87749
# Shear Modulus (GPa) = 18.99607 7.78295 13.38951
#
# Velocity S-wave (km/s) = 3.14403 2.01246 2.63959
# Velocity P-wave (km/s) = 4.98821 6.19045 5.62156
#
# Compressibility (1/GPa) = 0.04446680
#
# Stress axis : x y z
#
# Youngs Moduli (GPa) = 55.12544 52.37858 40.16770
#
# Poissons Ratio (x) = 0.15323 -0.10690
# Poissons Ratio (y) = 0.16127 0.34409
# Poissons Ratio (z) = -0.14671 0.44870
#
# Static dielectric constant tensor:
#      x y z
#    x 1.680010 0.000000 -0.014140 
#    y 0.000000 1.720520 0.000000 
#    z -0.014140 0.000000 1.695060 
# 
# From -- ./inp_files/90393.got.cif
#   From: 2010.05.17/outbox.cif.g08.bks.cpg/sg10_46_cif.got.tgz:90393.got - 2010.06.03 11:33:40.
