data_PCOD9148990
_publ_section_title
;
Structure prediction by ZEFSAII (Michael W. Deem and Ramdas Pophale) SiO2 
 PCOD9148990
Probable space group: P 2/M
;
_chemical_formula_sum "Si O2"
_cell_formula_units_Z 32
_cell_length_a 23.913913
_cell_length_b 10.245335
_cell_length_c 10.725086
_cell_angle_alpha 90.000000
_cell_angle_beta 136.370580
_cell_angle_gamma 90.000000
_cell_volume 1813.097692
_symmetry_space_group_name_H-M "P 2/M"
_symmetry_group_IT_number 10
_symmetry_cell_setting 'monoclinic'
loop_
_space_group_symop_operation_xyz
x,y,z
-x,y,-z
-x,-y,-z
x,-y,z
loop_
_atom_site_type_symbol
_atom_site_label
_atom_site_fract_x
_atom_site_fract_y
_atom_site_fract_z
Si Si1 0.636843 0.855849 0.160827
Si Si2 0.351139 0.351005 0.174668
Si Si3 0.938839 0.841427 0.509562
Si Si4 0.643282 0.347692 0.530927
Si Si5 0.527139 0.347545 0.859270
Si Si6 0.062674 0.841625 0.207677
Si Si7 0.755642 0.848348 0.588128
Si Si8 0.760108 0.851372 0.126640
O O1 0.693532 0.841267 0.372103
O O2 0.699161 0.853565 0.145400
O O3 0.598418 0.000000 0.102151
O O4 0.572139 0.743806 0.030367
O O5 0.321562 0.500000 0.111539
O O6 0.381400 0.336945 0.364327
O O7 0.421922 0.332484 0.187439
O O8 0.279861 0.248919 0.033101
O O9 0.953326 0.796116 0.675678
O O10 0.847800 0.810610 0.318670
O O11 0.000000 0.796110 0.500000
O O12 0.944147 0.000000 0.522137
O O13 0.663467 0.500000 0.539340
O O14 0.565280 0.313224 0.321383
O O15 0.717999 0.252477 0.624885
O O16 0.531297 0.500000 0.901429
O O17 0.154650 0.812264 0.314259
O O18 0.057199 0.000000 0.202551
O O19 0.000000 0.796105 0.000000
O O20 0.757745 0.000000 0.634494
O O21 0.766059 0.000000 0.087057
#
# Coordination Sequence:
#
# PCOD9148990 Si02
#       8
#     4   4   4   4   4   4   4   4
#     4   9  17  31  50  71 100 135 167 204 254 300
#     4   9  18  33  52  72  97 131 168 208 257 305
#     4   9  16  27  47  76 106 133 166 212 260 303
#     4  10  21  35  50  72 103 135 169 213 257 301
#     4   9  18  33  53  74  96 129 173 214 254 302
#     4   9  17  31  51  75 106 141 173 208 256 313
#     4  10  20  34  52  73 102 138 171 206 252 306
#     4   9  16  29  50  74 100 129 163 204 251 301
#
# _framework density 17.649352
#
# number of rings (size 3 to 8) (size 9 to 14) (size 15 to 20)
#    0.000    2.750    1.250    0.375    0.000    4.500 
#    0.000    5.000    0.000    4.500    0.000    0.000 
#    0.000    0.000    0.000    0.000    0.000    0.000 
#
# Total GULP energy -178324.345962 kJ/mol
# GULP energy per Si atom -5572.635811 kJ/mol
# Density = 1.760918 g / cm^3
# Si number density = 17.649352 Si / 1000 Ang^3
#
#
#
# Elastic Constant Matrix: (Units=GPa)
#
#
# Indices 1 2 3 4 5 6 
#
# 1 92.9062 34.7927 49.1263 0.0000 9.3359 0.0000
# 2 34.7927 45.1725 42.4531 0.0000 9.4900 0.0000
# 3 49.1263 42.4531 91.9331 0.0000 9.8969 0.0000
# 4 0.0000 0.0000 0.0000 30.4309 0.0000 -6.7482
# 5 9.3359 9.4900 9.8969 0.0000 17.6870 0.0000
# 6 0.0000 0.0000 0.0000 -6.7482 0.0000 18.9654
#
#
#
# Elastic Compliance Matrix: (Units=1/GPa)
#
#
# Indices 1 2 3 4 5 6 
#
# 1 0.016465 -0.007449 -0.005164 0.000000 -0.001804 0.000000
# 2 -0.007449 0.044843 -0.015493 0.000000 -0.011459 0.000000
# 3 -0.005164 -0.015493 0.020860 0.000000 -0.000633 0.000000
# 4 0.000000 0.000000 0.000000 0.035676 0.000000 0.012694
# 5 -0.001804 -0.011459 -0.000633 0.000000 0.063994 0.000000
# 6 0.000000 0.000000 0.000000 0.012694 0.000000 0.057244
#
#
# Mechanical properties :
#
#
# Convention : Reuss Voigt Hill
#
# Bulk Modulus (GPa) = 38.52962 53.63956 46.08459
# Shear Modulus (GPa) = 16.45012 20.32597 18.38805
#
# Velocity S-wave (km/s) = 3.05627 3.39729 3.23128
# Velocity P-wave (km/s) = 5.85938 6.77101 6.33162
#
# Compressibility (1/GPa) = 0.02595406
#
# Stress axis : x y z
#
# Youngs Moduli (GPa) = 60.73349 22.29988 47.93876
#
# Poissons Ratio (x) = 0.16612 0.24757
# Poissons Ratio (y) = 0.45243 0.74274
# Poissons Ratio (z) = 0.31365 0.34550
#
# Static dielectric constant tensor:
#      x y z
#    x 1.606910 0.000000 -0.024120 
#    y 0.000000 1.599070 0.000000 
#    z -0.024120 0.000000 1.593110 
# 
# From -- ./inp_files/34850.got.cif
#   From: 2010.05.17/outbox.cif.g08.bks.cpg/sg10_18_cif.got.tgz:34850.got - 2010.06.03 11:33:40.
