data_PCOD9148856
_publ_section_title
;
Structure prediction by ZEFSAII (Michael W. Deem and Ramdas Pophale) SiO2 
 PCOD9148856
Probable space group: P 2/M
;
_chemical_formula_sum "Si O2"
_cell_formula_units_Z 32
_cell_length_a 32.937614
_cell_length_b 8.969061
_cell_length_c 14.472983
_cell_angle_alpha 90.000000
_cell_angle_beta 153.962278
_cell_angle_gamma 90.000000
_cell_volume 1876.829739
_symmetry_space_group_name_H-M "P 2/M"
_symmetry_group_IT_number 10
_symmetry_cell_setting 'monoclinic'
loop_
_space_group_symop_operation_xyz
x,y,z
-x,y,-z
-x,-y,-z
x,-y,z
loop_
_atom_site_type_symbol
_atom_site_label
_atom_site_fract_x
_atom_site_fract_y
_atom_site_fract_z
Si Si1 0.044788 0.322392 0.403523
Si Si2 0.484135 0.320955 0.574211
Si Si3 0.661685 0.823494 0.021452
Si Si4 0.813948 0.822392 0.172687
Si Si5 0.271944 0.321259 0.183903
Si Si6 0.859982 0.178741 0.948018
Si Si7 0.801916 0.676505 0.442147
Si Si8 0.894058 0.820955 0.803980
O O1 0.034374 0.500000 0.394484
O O2 0.096111 0.250001 0.596110
O O3 0.113242 0.295886 0.456027
O O4 0.948150 0.246136 0.181853
O O5 0.500000 0.275788 0.500000
O O6 0.495180 0.500000 0.601618
O O7 0.379770 0.283958 0.389823
O O8 0.562627 0.245453 0.796189
O O9 0.729544 0.795878 0.072330
O O10 0.712682 0.750003 0.212682
O O11 0.655225 0.000000 0.020900
O O12 0.825738 0.000000 0.185855
O O13 0.785558 0.746142 0.019264
O O14 0.262545 0.500000 0.165334
O O15 0.230146 0.250003 0.190438
O O16 0.859747 0.000000 0.956948
O O17 0.869716 0.216041 0.859660
O O18 0.789542 0.500000 0.423860
O O19 0.829065 0.745453 0.595502
O O20 0.888741 0.000000 0.782301
O O21 0.000000 0.775788 0.000000
#
# Coordination Sequence:
#
# PCOD9148856 Si02
#       8
#     4   4   4   4   4   4   4   4
#     4  10  20  34  53  79 111 147 186 225 268 322
#     4  10  20  36  58  82 110 144 183 227 275 324
#     4  10  20  33  55  84 114 144 180 227 274 325
#     4  10  20  34  53  79 111 147 186 225 268 322
#     4  11  23  38  56  79 111 148 184 227 274 326
#     4  11  23  38  56  79 111 148 184 227 274 326
#     4  10  20  33  55  84 114 144 180 227 274 325
#     4  10  20  36  58  82 110 144 183 227 275 324
#
# _framework density 17.050028000000001
#
# number of rings (size 3 to 8) (size 9 to 14) (size 15 to 20)
#    0.000    1.750    2.500    2.250    0.000    5.000 
#    0.000    2.500    0.000    0.750    0.000    5.250 
#    0.000    0.000    0.000    0.000    0.000    0.000 
#
# Total GULP energy -178774.976281 kJ/mol
# GULP energy per Si atom -5586.718009 kJ/mol
# Density = 1.701122 g / cm^3
# Si number density = 17.050028 Si / 1000 Ang^3
#
#
#
# Elastic Constant Matrix: (Units=GPa)
#
#
# Indices 1 2 3 4 5 6 
#
# 1 110.4713 57.5707 71.3058 0.0000 0.5392 0.0000
# 2 57.5707 53.1208 52.9740 0.0000 0.8947 0.0000
# 3 71.3058 52.9740 132.2971 0.0000 -4.8009 0.0000
# 4 0.0000 0.0000 0.0000 35.6885 0.0000 -1.2744
# 5 0.5392 0.8947 -4.8009 0.0000 19.2352 0.0000
# 6 0.0000 0.0000 0.0000 -1.2744 0.0000 29.1567
#
#
#
# Elastic Compliance Matrix: (Units=1/GPa)
#
#
# Indices 1 2 3 4 5 6 
#
# 1 0.021915 -0.019871 -0.003879 0.000000 -0.000658 0.000000
# 2 -0.019871 0.049772 -0.009368 0.000000 -0.004096 0.000000
# 3 -0.003879 -0.009368 0.013543 0.000000 0.003925 0.000000
# 4 0.000000 0.000000 0.000000 0.028064 0.000000 0.001227
# 5 -0.000658 -0.004096 0.003925 0.000000 0.053176 0.000000
# 6 0.000000 0.000000 0.000000 0.001227 0.000000 0.034351
#
#
# Mechanical properties :
#
#
# Convention : Reuss Voigt Hill
#
# Bulk Modulus (GPa) = 52.64937 73.28778 62.96858
# Shear Modulus (GPa) = 18.28902 24.41867 21.35385
#
# Velocity S-wave (km/s) = 3.27871 3.78852 3.54280
# Velocity P-wave (km/s) = 6.72902 7.88761 7.33124
#
# Compressibility (1/GPa) = 0.01899358
#
# Stress axis : x y z
#
# Youngs Moduli (GPa) = 45.63164 20.09158 73.84040
#
# Poissons Ratio (x) = 0.39925 0.28640
# Poissons Ratio (y) = 0.90677 0.69173
# Poissons Ratio (z) = 0.17699 0.18822
#
# Static dielectric constant tensor:
#      x y z
#    x 1.579750 0.000000 0.006410 
#    y 0.000000 1.563200 0.000000 
#    z 0.006410 0.000000 1.546900 
# 
# From -- ./inp_files/58367.got.cif
#   From: 2010.05.17/outbox.cif.g08.bks.cpg/sg10_30_cif.got.tgz:58367.got - 2010.06.03 11:33:40.
