data_PCOD9148233
_publ_section_title
;
Structure prediction by ZEFSAII (Michael W. Deem and Ramdas Pophale) SiO2 
 PCOD9148233
Probable space group: P 2/M
;
_chemical_formula_sum "Si O2"
_cell_formula_units_Z 28
_cell_length_a 16.674652
_cell_length_b 7.452703
_cell_length_c 11.205032
_cell_angle_alpha 90.000000
_cell_angle_beta 83.441651
_cell_angle_gamma 90.000000
_cell_volume 1383.350897
_symmetry_space_group_name_H-M "P 2/M"
_symmetry_group_IT_number 10
_symmetry_cell_setting 'monoclinic'
loop_
_space_group_symop_operation_xyz
x,y,z
-x,y,-z
-x,-y,-z
x,-y,z
loop_
_atom_site_type_symbol
_atom_site_label
_atom_site_fract_x
_atom_site_fract_y
_atom_site_fract_z
Si Si1 0.048020 0.784400 0.374654
Si Si2 0.540505 0.782391 0.307985
Si Si3 0.416352 0.294621 0.962759
Si Si4 0.755438 0.293494 0.930595
Si Si5 0.379504 0.218085 0.461707
Si Si6 0.769147 0.217950 0.657619
Si Si7 0.940153 0.714572 0.904663
O O1 0.000000 0.718339 0.500000
O O2 0.139803 0.723233 0.377122
O O3 0.029236 0.744190 0.237551
O O4 0.045216 0.000000 0.380718
O O5 0.571248 0.705752 0.180265
O O6 0.593872 0.725122 0.411846
O O7 0.449087 0.729734 0.356462
O O8 0.542745 0.000000 0.299723
O O9 0.413217 0.500000 0.010525
O O10 0.500000 0.213134 0.000000
O O11 0.327924 0.212989 0.004069
O O12 0.758999 0.500000 0.972794
O O13 0.743190 0.286572 0.790831
O O14 0.846778 0.217247 0.933329
O O15 0.292990 0.277430 0.432002
O O16 0.380250 0.000000 0.463698
O O17 0.768197 0.000000 0.662523
O O18 0.935257 0.500000 0.918196
O O19 0.000000 0.780220 0.000000
#
# Coordination Sequence:
#
# PCOD9148233 Si02
#       7
#     4   4   4   4   4   4   4
#     4   9  18  32  49  73 102 126 154 197 245 291
#     4   9  17  30  47  66  90 118 153 191 223 265
#     4  10  20  32  45  65  95 125 149 183 233 275
#     4   9  18  32  48  67  94 122 153 192 229 271
#     4   8  15  29  47  66  89 119 151 188 230 264
#     4   9  16  29  50  69  89 120 156 187 224 275
#     4   9  18  34  54  72  93 128 167 201 240 284
#
# _framework density 20.240707
#
# number of rings (size 3 to 8) (size 9 to 14) (size 15 to 20)
#    0.000    3.000    0.000    1.714    0.000    1.429 
#    2.571    2.143    0.000    0.000    0.000    0.000 
#    0.000    0.000    0.000    0.000    0.000    0.000 
#
# Total GULP energy -155969.537350 kJ/mol
# GULP energy per Si atom -5570.340620 kJ/mol
# Density = 2.019464 g / cm^3
# Si number density = 20.240707 Si / 1000 Ang^3
#
#
#
# Elastic Constant Matrix: (Units=GPa)
#
#
# Indices 1 2 3 4 5 6 
#
# 1 140.3921 6.6060 95.5723 0.0000 7.6207 0.0000
# 2 6.6060 62.4890 -0.5183 0.0000 -1.5801 0.0000
# 3 95.5723 -0.5183 147.1153 0.0000 -20.8231 0.0000
# 4 0.0000 0.0000 0.0000 21.0611 0.0000 6.2027
# 5 7.6207 -1.5801 -20.8231 0.0000 22.2463 0.0000
# 6 0.0000 0.0000 0.0000 6.2027 0.0000 -30.1788
#
#
#
# Elastic Compliance Matrix: (Units=1/GPa)
#
#
# Indices 1 2 3 4 5 6 
#
# 1 0.018553 -0.002605 -0.014971 0.000000 -0.020554 0.000000
# 2 -0.002605 0.016405 0.002353 0.000000 0.004260 0.000000
# 3 -0.014971 0.002353 0.019920 0.000000 0.023942 0.000000
# 4 0.000000 0.000000 0.000000 0.044771 0.000000 0.009202
# 5 -0.020554 0.004260 0.023942 0.000000 0.074705 0.000000
# 6 0.000000 0.000000 0.000000 0.009202 0.000000 -0.031245
#
#
# Mechanical properties :
#
#
# Convention : Reuss Voigt Hill
#
# Bulk Modulus (GPa) = 40.92904 61.47959 51.20431
# Shear Modulus (GPa) = 27.51786 19.18147 23.34966
#
# Velocity S-wave (km/s) = 3.69118 3.08176 3.40015
# Velocity P-wave (km/s) = 6.19931 6.56530 6.38493
#
# Compressibility (1/GPa) = 0.02443253
#
# Stress axis : x y z
#
# Youngs Moduli (GPa) = 53.90020 60.95522 50.19999
#
# Poissons Ratio (x) = 0.15880 0.75155
# Poissons Ratio (y) = 0.14042 -0.11814
# Poissons Ratio (z) = 0.80695 -0.14345
#
# Static dielectric constant tensor:
#      x y z
#    x 1.744050 0.000000 -0.012310 
#    y 0.000000 1.770150 0.000000 
#    z -0.012310 0.000000 1.683560 
# 
# From -- ./inp_files/49164.got.cif
#   From: 2010.05.17/outbox.cif.g08.bks.cpg/sg10_25_cif.got.tgz:49164.got - 2010.06.03 11:33:40.
