data_PCOD9148320
_publ_section_title
;
Structure prediction by ZEFSAII (Michael W. Deem and Ramdas Pophale) SiO2 
 PCOD9148320
Probable space group: P 2/M
;
_chemical_formula_sum "Si O2"
_cell_formula_units_Z 28
_cell_length_a 19.344729
_cell_length_b 8.519530
_cell_length_c 19.298718
_cell_angle_alpha 90.000000
_cell_angle_beta 149.835896
_cell_angle_gamma 90.000000
_cell_volume 1598.174233
_symmetry_space_group_name_H-M "P 2/M"
_symmetry_group_IT_number 10
_symmetry_cell_setting 'monoclinic'
loop_
_space_group_symop_operation_xyz
x,y,z
-x,y,-z
-x,-y,-z
x,-y,z
loop_
_atom_site_type_symbol
_atom_site_label
_atom_site_fract_x
_atom_site_fract_y
_atom_site_fract_z
Si Si1 0.432830 0.308929 0.370729
Si Si2 0.766086 0.690097 0.417837
Si Si3 0.872614 0.310138 0.936678
Si Si4 0.841416 0.319093 0.336013
Si Si5 0.506265 0.689927 0.282501
Si Si6 0.062543 0.813432 0.719494
Si Si7 0.793115 0.188192 0.014301
O O1 0.500000 0.251463 0.500000
O O2 0.436655 0.500000 0.375672
O O3 0.273295 0.263745 0.223741
O O4 0.508331 0.260271 0.365088
O O5 0.766320 0.500000 0.415648
O O6 0.759584 0.744131 0.331822
O O7 0.637644 0.743386 0.352494
O O8 0.911696 0.741511 0.575996
O O9 0.874620 0.500000 0.942663
O O10 0.872178 0.244692 0.014010
O O11 0.000000 0.259190 0.000000
O O12 0.802283 0.500000 0.289176
O O13 0.844055 0.228933 0.266134
O O14 0.000000 0.318912 0.500000
O O15 0.504926 0.500000 0.280449
O O16 0.361970 0.747528 0.126353
O O17 0.047134 0.000000 0.709473
O O18 0.131988 0.757259 0.850760
O O19 0.788035 0.000000 0.010332
#
# Coordination Sequence:
#
# PCOD9148320 Si02
#       7
#     4   4   4   4   4   4   4
#     4   8  14  26  45  69  94 117 146 189 235 277
#     4   9  18  32  51  75  98 123 161 207 252 294
#     4   9  18  32  51  73  94 122 162 201 239 285
#     4   8  15  29  48  70  96 124 158 203 250 291
#     4   9  18  33  52  72  96 128 163 199 243 292
#     4  10  20  32  48  72  99 130 167 200 237 290
#     4  10  21  35  49  69 101 136 165 196 238 288
#
# _framework density 17.519991999999998
#
# number of rings (size 3 to 8) (size 9 to 14) (size 15 to 20)
#    0.000    3.000    0.000    2.571    0.000    6.857 
#    0.000    3.571    0.000   11.143    0.000    0.000 
#    0.000    0.000    0.000    0.000    0.000    0.000 
#
# Total GULP energy -155992.894976 kJ/mol
# GULP energy per Si atom -5571.174821 kJ/mol
# Density = 1.748012 g / cm^3
# Si number density = 17.519992 Si / 1000 Ang^3
#
#
#
# Elastic Constant Matrix: (Units=GPa)
#
#
# Indices 1 2 3 4 5 6 
#
# 1 197.7479 20.8956 99.4134 0.0000 -0.7634 0.0000
# 2 20.8956 7.0497 12.8815 0.0000 -1.9073 0.0000
# 3 99.4134 12.8815 87.9623 0.0000 -20.6369 0.0000
# 4 0.0000 0.0000 0.0000 15.3978 0.0000 -5.1851
# 5 -0.7634 -1.9073 -20.6369 0.0000 30.0223 0.0000
# 6 0.0000 0.0000 0.0000 -5.1851 0.0000 7.0337
#
#
#
# Elastic Compliance Matrix: (Units=1/GPa)
#
#
# Indices 1 2 3 4 5 6 
#
# 1 0.016776 -0.017512 -0.019740 0.000000 -0.014255 0.000000
# 2 -0.017512 0.213827 -0.010062 0.000000 0.006223 0.000000
# 3 -0.019740 -0.010062 0.041591 0.000000 0.027448 0.000000
# 4 0.000000 0.000000 0.000000 0.086390 0.000000 0.063686
# 5 -0.014255 0.006223 0.027448 0.000000 0.052209 0.000000
# 6 0.000000 0.000000 0.000000 0.063686 0.000000 0.189121
#
#
# Mechanical properties :
#
#
# Convention : Reuss Voigt Hill
#
# Bulk Modulus (GPa) = 5.63169 62.12678 33.87923
# Shear Modulus (GPa) = 6.63366 21.12871 13.88118
#
# Velocity S-wave (km/s) = 1.94796 3.47649 2.81785
# Velocity P-wave (km/s) = 2.87764 7.18694 5.47416
#
# Compressibility (1/GPa) = 0.17756662
#
# Stress axis : x y z
#
# Youngs Moduli (GPa) = 59.60796 4.67668 24.04342
#
# Poissons Ratio (x) = 0.08190 0.47462
# Poissons Ratio (y) = 1.04388 0.24191
# Poissons Ratio (z) = 1.17666 0.04705
#
# Static dielectric constant tensor:
#      x y z
#    x 1.616860 0.000000 -0.007030 
#    y 0.000000 1.594290 0.000000 
#    z -0.007030 0.000000 1.571070 
# 
# From -- ./inp_files/78795.got.cif
#   From: 2010.05.17/outbox.cif.g08.bks.cpg/sg10_40_cif.got.tgz:78795.got - 2010.06.03 11:33:40.
