data_PCOD9148712
_publ_section_title
;
Structure prediction by ZEFSAII (Michael W. Deem and Ramdas Pophale) SiO2 
 PCOD9148712
Probable space group: P 2/M
;
_chemical_formula_sum "Si O2"
_cell_formula_units_Z 32
_cell_length_a 17.179444
_cell_length_b 9.071421
_cell_length_c 26.261036
_cell_angle_alpha 90.000000
_cell_angle_beta 153.361965
_cell_angle_gamma 90.000000
_cell_volume 1834.914940
_symmetry_space_group_name_H-M "P 2/M"
_symmetry_group_IT_number 10
_symmetry_cell_setting 'monoclinic'
loop_
_space_group_symop_operation_xyz
x,y,z
-x,y,-z
-x,-y,-z
x,-y,z
loop_
_atom_site_type_symbol
_atom_site_label
_atom_site_fract_x
_atom_site_fract_y
_atom_site_fract_z
Si Si1 0.935132 0.821739 0.543647
Si Si2 0.913739 0.674473 0.641315
Si Si3 0.660798 0.821671 0.927231
Si Si4 0.189665 0.168571 0.238302
Si Si5 0.727451 0.178731 0.324472
Si Si6 0.917455 0.827924 0.167612
Si Si7 0.934077 0.674094 0.016661
Si Si8 0.525253 0.667079 0.454026
O O1 0.922054 0.750571 0.591227
O O2 0.785569 0.776403 0.415551
O O3 0.117099 0.780463 0.622856
O O4 0.930087 0.000000 0.545201
O O5 0.939726 0.500000 0.651439
O O6 0.720964 0.698501 0.551695
O O7 0.049817 0.739420 0.761734
O O8 0.461619 0.772796 0.805022
O O9 0.769676 0.759050 0.943502
O O10 0.668073 0.000000 0.930318
O O11 0.763483 0.777486 0.039125
O O12 0.389305 0.212801 0.355334
O O13 0.093896 0.180323 0.236945
O O14 0.162237 0.000000 0.205030
O O15 0.089493 0.284383 0.145163
O O16 0.724345 0.000000 0.323420
O O17 0.887267 0.000000 0.161925
O O18 0.899374 0.500000 0.995758
O O19 0.000000 0.721459 0.000000
O O20 0.500000 0.666362 0.500000
O O21 0.481893 0.500000 0.410822
#
# Coordination Sequence:
#
# PCOD9148712 Si02
#       8
#     4   4   4   4   4   4   4   4
#     4   9  18  35  59  83 106 137 172 215 269 322
#     4  11  22  34  51  76 108 143 179 219 264 315
#     4   9  18  34  57  82 104 133 177 224 266 312
#     4  10  20  33  52  75  99 133 178 225 263 303
#     4   8  16  35  61  83 105 134 173 217 269 327
#     4   9  18  32  50  74 103 135 172 215 260 311
#     4  10  21  35  50  72 106 144 177 212 258 316
#     4  10  20  34  50  71 103 144 178 211 259 313
#
# _framework density 17.439501
#
# number of rings (size 3 to 8) (size 9 to 14) (size 15 to 20)
#    0.000    2.500    1.250    2.625    0.000    5.250 
#    0.000    5.625    0.000    3.750    0.000    0.000 
#    0.000    0.000    0.000    0.000    0.000    0.000 
#
# Total GULP energy -178295.412358 kJ/mol
# GULP energy per Si atom -5571.731636 kJ/mol
# Density = 1.739981 g / cm^3
# Si number density = 17.439501 Si / 1000 Ang^3
#
#
#
# Elastic Constant Matrix: (Units=GPa)
#
#
# Indices 1 2 3 4 5 6 
#
# 1 111.2911 37.4035 61.7606 0.0000 -17.5198 0.0000
# 2 37.4035 23.8409 38.1711 0.0000 -4.4836 0.0000
# 3 61.7606 38.1711 122.1675 0.0000 2.2684 0.0000
# 4 0.0000 0.0000 0.0000 11.5477 0.0000 -8.6635
# 5 -17.5198 -4.4836 2.2684 0.0000 17.6798 0.0000
# 6 0.0000 0.0000 0.0000 -8.6635 0.0000 10.5740
#
#
#
# Elastic Compliance Matrix: (Units=1/GPa)
#
#
# Indices 1 2 3 4 5 6 
#
# 1 0.022222 -0.026984 -0.003092 0.000000 0.015575 0.000000
# 2 -0.026984 0.129052 -0.026856 0.000000 0.009434 0.000000
# 3 -0.003092 -0.026856 0.018367 0.000000 -0.012232 0.000000
# 4 0.000000 0.000000 0.000000 0.224744 0.000000 0.184137
# 5 0.015575 0.009434 -0.012232 0.000000 0.075957 0.000000
# 6 0.000000 0.000000 0.000000 0.184137 0.000000 0.245439
#
#
# Mechanical properties :
#
#
# Convention : Reuss Voigt Hill
#
# Bulk Modulus (GPa) = 17.92854 59.10775 38.51815
# Shear Modulus (GPa) = 5.89457 15.95792 10.92624
#
# Velocity S-wave (km/s) = 1.84047 3.02825 2.50576
# Velocity P-wave (km/s) = 3.84957 6.79659 5.52326
#
# Compressibility (1/GPa) = 0.05577698
#
# Stress axis : x y z
#
# Youngs Moduli (GPa) = 44.99967 7.74879 54.44553
#
# Poissons Ratio (x) = 0.20909 0.16836
# Poissons Ratio (y) = 1.21428 1.46218
# Poissons Ratio (z) = 0.13915 0.20810
#
# Static dielectric constant tensor:
#      x y z
#    x 1.579540 0.000000 -0.009930 
#    y 0.000000 1.583140 0.000000 
#    z -0.009930 0.000000 1.613000 
# 
# From -- ./inp_files/89632.got.cif
#   From: 2010.05.17/outbox.cif.g08.bks.cpg/sg10_45_cif.got.tgz:89632.got - 2010.06.03 11:33:40.
