data_PCOD9148957
_publ_section_title
;
Structure prediction by ZEFSAII (Michael W. Deem and Ramdas Pophale) SiO2 
 PCOD9148957
Probable space group: P 2/M
;
_chemical_formula_sum "Si O2"
_cell_formula_units_Z 32
_cell_length_a 22.064533
_cell_length_b 9.254603
_cell_length_c 11.880647
_cell_angle_alpha 90.000000
_cell_angle_beta 47.020428
_cell_angle_gamma 90.000000
_cell_volume 1774.861340
_symmetry_space_group_name_H-M "P 2/M"
_symmetry_group_IT_number 10
_symmetry_cell_setting 'monoclinic'
loop_
_space_group_symop_operation_xyz
x,y,z
-x,y,-z
-x,-y,-z
x,-y,z
loop_
_atom_site_type_symbol
_atom_site_label
_atom_site_fract_x
_atom_site_fract_y
_atom_site_fract_z
Si Si1 0.256296 0.175177 0.323204
Si Si2 0.432811 0.334127 0.498822
Si Si3 0.776041 0.173547 0.885960
Si Si4 0.175284 0.834149 0.770849
Si Si5 0.350863 0.833452 0.412335
Si Si6 0.047525 0.670917 0.320912
Si Si7 0.916103 0.174231 0.336026
Si Si8 0.740269 0.664899 0.148147
O O1 0.262462 0.216790 0.185675
O O2 0.326462 0.227712 0.320830
O O3 0.165779 0.213783 0.487111
O O4 0.259330 0.000000 0.325231
O O5 0.500000 0.270736 0.500000
O O6 0.457008 0.500000 0.444653
O O7 0.416536 0.251484 0.403716
O O8 0.344978 0.334878 0.674319
O O9 0.866908 0.243417 0.778041
O O10 0.780886 0.000000 0.884425
O O11 0.729486 0.237641 0.052116
O O12 0.262572 0.833114 0.591181
O O13 0.106554 0.793413 0.765279
O O14 0.189614 0.732541 0.859277
O O15 0.160729 0.000000 0.825510
O O16 0.376745 0.000000 0.369521
O O17 0.060149 0.500000 0.286754
O O18 0.000000 0.688770 0.500000
O O19 0.992167 0.740795 0.292663
O O20 0.927530 0.000000 0.330393
O O21 0.760280 0.500000 0.092672
#
# Coordination Sequence:
#
# PCOD9148957 Si02
#       8
#     4   4   4   4   4   4   4   4
#     4   8  15  28  48  72  96 126 163 205 247 286
#     4   9  18  33  53  77 104 133 161 192 238 295
#     4  11  21  34  53  71  96 135 173 204 244 300
#     4   8  15  29  50  72  95 125 163 205 247 296
#     4   8  14  27  48  75 101 122 156 204 245 281
#     4  11  22  33  46  71 104 132 165 211 254 291
#     4   9  16  30  51  72  94 125 168 211 251 295
#     4  10  20  34  51  73 103 131 161 203 248 294
#
# _framework density 18.029578000000001
#
# number of rings (size 3 to 8) (size 9 to 14) (size 15 to 20)
#    0.000    2.750    1.250    2.625    0.000    1.750 
#    0.000    3.750    0.000    4.500    0.000    5.250 
#    0.000    0.000    0.000    0.000    0.000    0.000 
#
# Total GULP energy -178349.508812 kJ/mol
# GULP energy per Si atom -5573.422150 kJ/mol
# Density = 1.798854 g / cm^3
# Si number density = 18.029578 Si / 1000 Ang^3
#
#
#
# Elastic Constant Matrix: (Units=GPa)
#
#
# Indices 1 2 3 4 5 6 
#
# 1 160.4022 56.7297 11.9669 0.0000 30.8113 0.0000
# 2 56.7297 66.8767 13.3562 0.0000 16.4771 0.0000
# 3 11.9669 13.3562 17.5905 0.0000 17.3993 0.0000
# 4 0.0000 0.0000 0.0000 9.6396 0.0000 -5.5365
# 5 30.8113 16.4771 17.3993 0.0000 23.3823 0.0000
# 6 0.0000 0.0000 0.0000 -5.5365 0.0000 14.6319
#
#
#
# Elastic Compliance Matrix: (Units=1/GPa)
#
#
# Indices 1 2 3 4 5 6 
#
# 1 0.014658 -0.010020 0.036963 0.000000 -0.039759 0.000000
# 2 -0.010020 0.025029 -0.029556 0.000000 0.017559 0.000000
# 3 0.036963 -0.029556 0.309588 0.000000 -0.258251 0.000000
# 4 0.000000 0.000000 0.000000 0.132545 0.000000 0.050153
# 5 -0.039759 0.017559 -0.258251 0.000000 0.274955 0.000000
# 6 0.000000 0.000000 0.000000 0.050153 0.000000 0.087321
#
#
# Mechanical properties :
#
#
# Convention : Reuss Voigt Hill
#
# Bulk Modulus (GPa) = 2.90656 45.44166 24.17411
# Shear Modulus (GPa) = 5.18670 20.38520 12.78595
#
# Velocity S-wave (km/s) = 1.69795 3.36617 2.66590
# Velocity P-wave (km/s) = 2.33658 6.35348 4.78677
#
# Compressibility (1/GPa) = 0.34404934
#
# Stress axis : x y z
#
# Youngs Moduli (GPa) = 68.22395 39.95368 3.23010
#
# Poissons Ratio (x) = 0.40033 -0.11939
# Poissons Ratio (y) = 0.68360 0.09547
# Poissons Ratio (z) = -2.52175 1.18086
#
# Static dielectric constant tensor:
#      x y z
#    x 1.625250 0.000000 0.017170 
#    y 0.000000 1.604560 0.000000 
#    z 0.017170 0.000000 1.638090 
# 
# From -- ./inp_files/55304.got.cif
#   From: 2010.05.17/outbox.cif.g08.bks.cpg/sg10_28_cif.got.tgz:55304.got - 2010.06.03 11:33:40.
