data_PCOD9148839
_publ_section_title
;
Structure prediction by ZEFSAII (Michael W. Deem and Ramdas Pophale) SiO2 
 PCOD9148839
Probable space group: P 2/M
;
_chemical_formula_sum "Si O2"
_cell_formula_units_Z 28
_cell_length_a 9.412418
_cell_length_b 11.353352
_cell_length_c 16.494673
_cell_angle_alpha 90.000000
_cell_angle_beta 116.459909
_cell_angle_gamma 90.000000
_cell_volume 1578.016649
_symmetry_space_group_name_H-M "P 2/M"
_symmetry_group_IT_number 10
_symmetry_cell_setting 'monoclinic'
loop_
_space_group_symop_operation_xyz
x,y,z
-x,y,-z
-x,-y,-z
x,-y,z
loop_
_atom_site_type_symbol
_atom_site_label
_atom_site_fract_x
_atom_site_fract_y
_atom_site_fract_z
Si Si1 0.638545 0.787824 0.270144
Si Si2 0.023301 0.141027 0.914680
Si Si3 0.675880 0.247344 0.557250
Si Si4 0.133526 0.000000 0.641859
Si Si5 0.174855 0.638039 0.549672
Si Si6 0.784730 0.000000 0.525742
Si Si7 0.303298 0.139531 0.265285
Si Si8 0.347544 0.857127 0.902979
O O1 0.775423 0.886348 0.305582
O O2 0.709467 0.694024 0.352883
O O3 0.467973 0.831109 0.260846
O O4 0.623072 0.775791 0.168987
O O5 0.182333 0.177336 0.906144
O O6 0.856684 0.159291 0.826388
O O7 0.043894 0.000000 0.927331
O O8 0.000000 0.189049 0.000000
O O9 0.500000 0.289662 0.500000
O O10 0.773474 0.338165 0.529259
O O11 0.691625 0.119060 0.518844
O O12 0.709844 0.220657 0.658788
O O13 0.162747 0.000000 0.553396
O O14 0.949248 0.000000 0.617487
O O15 0.163554 0.500000 0.564235
O O16 0.000000 0.695241 0.500000
O O17 0.310704 0.000000 0.289377
O O18 0.339665 0.000000 0.881233
O O19 0.500000 0.845076 0.000000
#
# Coordination Sequence:
#
# PCOD9148839 Si02
#       8
#     4   4   4   2   4   2   4   4
#     4  12  21  36  56  81 114 150 193 230 279 333
#     4   9  19  33  49  74 116 157 183 217 268 331
#     4  12  22  35  54  81 114 147 182 228 279 338
#     4  11  20  30  51  82 109 150 181 228 271 338
#     4  11  26  44  59  77 109 151 197 242 285 333
#     4  11  21  30  50  80 116 146 182 227 281 330
#     4  11  21  32  50  83 119 150 185 226 278 337
#     4  10  20  33  54  84 118 153 186 222 272 338
#
# _framework density 17.743794000000001
#
# number of rings (size 3 to 8) (size 9 to 14) (size 15 to 20)
#    0.000    1.143    5.000    1.929    4.000    2.571 
#    0.000    0.000    0.000    0.429    0.000    0.000 
#    0.000    2.857    0.000    0.000    0.000    0.000 
#
# Total GULP energy -155974.041324 kJ/mol
# GULP energy per Si atom -5570.501476 kJ/mol
# Density = 1.770341 g / cm^3
# Si number density = 17.743794 Si / 1000 Ang^3
#
#
#
# Elastic Constant Matrix: (Units=GPa)
#
#
# Indices 1 2 3 4 5 6 
#
# 1 118.8732 -1.2866 47.8945 0.0000 4.3431 0.0000
# 2 -1.2866 19.6402 16.0158 0.0000 3.8826 0.0000
# 3 47.8945 16.0158 117.1309 0.0000 -10.9938 0.0000
# 4 0.0000 0.0000 0.0000 17.0385 0.0000 -6.1668
# 5 4.3431 3.8826 -10.9938 0.0000 27.4793 0.0000
# 6 0.0000 0.0000 0.0000 -6.1668 0.0000 17.0245
#
#
#
# Elastic Compliance Matrix: (Units=1/GPa)
#
#
# Indices 1 2 3 4 5 6 
#
# 1 0.011030 0.006499 -0.005869 0.000000 -0.005010 0.000000
# 2 0.006499 0.064978 -0.012988 0.000000 -0.015404 0.000000
# 3 -0.005869 -0.012988 0.013479 0.000000 0.008155 0.000000
# 4 0.000000 0.000000 0.000000 0.067546 0.000000 0.024467
# 5 -0.005010 -0.015404 0.008155 0.000000 0.042622 0.000000
# 6 0.000000 0.000000 0.000000 0.024467 0.000000 0.067601
#
#
# Mechanical properties :
#
#
# Convention : Reuss Voigt Hill
#
# Bulk Modulus (GPa) = 15.43907 42.32131 28.88019
# Shear Modulus (GPa) = 15.94579 25.17652 20.56115
#
# Velocity S-wave (km/s) = 3.00103 3.77090 3.40778
# Velocity P-wave (km/s) = 4.55283 6.54696 5.63875
#
# Compressibility (1/GPa) = 0.06477075
#
# Stress axis : x y z
#
# Youngs Moduli (GPa) = 90.65860 15.38986 74.19140
#
# Poissons Ratio (x) = -0.10002 0.43544
# Poissons Ratio (y) = -0.58919 0.96359
# Poissons Ratio (z) = 0.53209 0.19988
#
# Static dielectric constant tensor:
#      x y z
#    x 1.592480 0.000000 -0.000070 
#    y 0.000000 1.582110 0.000000 
#    z -0.000070 0.000000 1.688550 
# 
# From -- ./inp_files/61051.got.cif
#   From: 2010.05.17/outbox.cif.g08.bks.cpg/sg10_31_cif.got.tgz:61051.got - 2010.06.03 11:33:40.
