data_PCOD9148060
_publ_section_title
;
Structure prediction by ZEFSAII (Michael W. Deem and Ramdas Pophale) SiO2 
 PCOD9148060
Probable space group: P 2/M
;
_chemical_formula_sum "Si O2"
_cell_formula_units_Z 30
_cell_length_a 10.637557
_cell_length_b 17.116595
_cell_length_c 10.495181
_cell_angle_alpha 90.000000
_cell_angle_beta 125.259333
_cell_angle_gamma 90.000000
_cell_volume 1560.381090
_symmetry_space_group_name_H-M "P 2/M"
_symmetry_group_IT_number 10
_symmetry_cell_setting 'monoclinic'
loop_
_space_group_symop_operation_xyz
x,y,z
-x,y,-z
-x,-y,-z
x,-y,z
loop_
_atom_site_type_symbol
_atom_site_label
_atom_site_fract_x
_atom_site_fract_y
_atom_site_fract_z
Si Si1 0.656906 0.688472 0.012186
Si Si2 0.029516 0.299730 0.663824
Si Si3 0.704067 0.669906 0.554973
Si Si4 0.377840 0.852529 0.536532
Si Si5 0.188607 0.000000 0.918715
Si Si6 0.420803 0.139382 0.093402
Si Si7 0.562253 0.592530 0.722404
Si Si8 0.969569 0.885659 0.629556
O O1 0.659046 0.775530 0.952530
O O2 0.641827 0.623810 0.895290
O O3 0.500000 0.686267 0.000000
O O4 0.805082 0.677762 0.186594
O O5 0.000000 0.320110 0.500000
O O6 0.886751 0.335703 0.655826
O O7 0.013431 0.205758 0.663724
O O8 0.657352 0.760747 0.510713
O O9 0.644597 0.634612 0.651931
O O10 0.613572 0.623229 0.391598
O O11 0.500000 0.878739 0.500000
O O12 0.453745 0.860895 0.720352
O O13 0.211000 0.893538 0.441156
O O14 0.077972 0.933147 0.786628
O O15 0.302842 0.931013 0.040694
O O16 0.500000 0.129339 0.000000
O O17 0.567680 0.500000 0.712666
O O18 0.000000 0.908480 0.500000
#
# Coordination Sequence:
#
# PCOD9148060 Si02
#       8
#     4   4   4   4   2   4   4   4
#     4  11  22  39  63  92 130 169 214 259 321 388
#     4  10  21  37  62  93 122 171 217 257 312 383
#     4  10  19  38  64  93 124 160 211 259 313 381
#     4  11  21  41  66  90 124 174 223 255 318 397
#     4  12  22  40  57  94 129 164 220 278 326 362
#     4  11  23  38  64  94 128 170 220 271 319 383
#     4  11  22  40  67  98 127 160 207 269 323 377
#     4  10  22  37  62  90 128 167 217 277 323 376
#
# _framework density 19.226073
#
# number of rings (size 3 to 8) (size 9 to 14) (size 15 to 20)
#    0.000    1.333    4.000    2.800    7.467    1.333 
#    0.000    4.667    0.000    2.800    0.000    0.000 
#    0.000    0.000    0.000    0.000    0.000    0.000 
#
# Total GULP energy -167032.958072 kJ/mol
# GULP energy per Si atom -5567.765269 kJ/mol
# Density = 1.918231 g / cm^3
# Si number density = 19.226073 Si / 1000 Ang^3
#
#
#
# Elastic Constant Matrix: (Units=GPa)
#
#
# Indices 1 2 3 4 5 6 
#
# 1 80.8429 25.2011 39.0714 0.0000 18.1866 0.0000
# 2 25.2011 82.4892 27.6716 0.0000 8.3884 0.0000
# 3 39.0714 27.6716 135.0450 0.0000 25.8810 0.0000
# 4 0.0000 0.0000 0.0000 -2.5976 0.0000 30.4158
# 5 18.1866 8.3884 25.8810 0.0000 30.4209 0.0000
# 6 0.0000 0.0000 0.0000 30.4158 0.0000 -22.9145
#
#
#
# Elastic Compliance Matrix: (Units=1/GPa)
#
#
# Indices 1 2 3 4 5 6 
#
# 1 0.016198 -0.003369 -0.002770 0.000000 -0.006398 0.000000
# 2 -0.003369 0.013782 -0.001801 0.000000 -0.000254 0.000000
# 3 -0.002770 -0.001801 0.009753 0.000000 -0.006145 0.000000
# 4 0.000000 0.000000 0.000000 0.026473 0.000000 0.035139
# 5 -0.006398 -0.000254 -0.006145 0.000000 0.041995 0.000000
# 6 0.000000 0.000000 0.000000 0.035139 0.000000 0.003001
#
#
# Mechanical properties :
#
#
# Convention : Reuss Voigt Hill
#
# Bulk Modulus (GPa) = 41.92135 53.58504 47.75319
# Shear Modulus (GPa) = 37.02842 14.74394 25.88618
#
# Velocity S-wave (km/s) = 4.39332 2.77225 3.67333
# Velocity P-wave (km/s) = 6.89832 6.17889 6.54849
#
# Compressibility (1/GPa) = 0.02385420
#
# Stress axis : x y z
#
# Youngs Moduli (GPa) = 61.73662 72.55905 102.53284
#
# Poissons Ratio (x) = 0.24443 0.28401
# Poissons Ratio (y) = 0.20798 0.18462
# Poissons Ratio (z) = 0.17100 0.13065
#
# Static dielectric constant tensor:
#      x y z
#    x 1.705810 0.000000 -0.003100 
#    y 0.000000 1.652260 0.000000 
#    z -0.003100 0.000000 1.650870 
# 
# From -- ./inp_files/47909.got.cif
#   From: 2010.05.17/outbox.cif.g08.bks.cpg/sg10_24_cif.got.tgz:47909.got - 2010.06.03 11:33:40.
