data_PCOD9148057
_publ_section_title
;
Structure prediction by ZEFSAII (Michael W. Deem and Ramdas Pophale) SiO2 
 PCOD9148057
Probable space group: P 2/M
;
_chemical_formula_sum "Si O2"
_cell_formula_units_Z 28
_cell_length_a 15.766728
_cell_length_b 8.742472
_cell_length_c 18.616293
_cell_angle_alpha 90.000000
_cell_angle_beta 144.394042
_cell_angle_gamma 90.000000
_cell_volume 1493.987077
_symmetry_space_group_name_H-M "P 2/M"
_symmetry_group_IT_number 10
_symmetry_cell_setting 'monoclinic'
loop_
_space_group_symop_operation_xyz
x,y,z
-x,y,-z
-x,-y,-z
x,-y,z
loop_
_atom_site_type_symbol
_atom_site_label
_atom_site_fract_x
_atom_site_fract_y
_atom_site_fract_z
Si Si1 0.761862 0.318831 0.814510
Si Si2 0.218588 0.680907 0.485575
Si Si3 0.528611 0.818697 0.437803
Si Si4 0.829591 0.814974 0.393260
Si Si5 0.340529 0.814270 0.866856
Si Si6 0.038374 0.318719 0.909643
Si Si7 0.929212 0.819380 0.220840
O O1 0.727155 0.500000 0.785901
O O2 0.618057 0.221212 0.706067
O O3 0.879666 0.283727 0.833506
O O4 0.845521 0.293661 0.946923
O O5 0.231452 0.500000 0.499990
O O6 0.337226 0.741689 0.510644
O O7 0.230923 0.754067 0.573093
O O8 0.060683 0.728779 0.347643
O O9 0.500000 0.764464 0.500000
O O10 0.554351 0.000000 0.457878
O O11 0.728878 0.764238 0.256999
O O12 0.000000 0.768250 0.500000
O O13 0.829432 0.000000 0.394825
O O14 0.222145 0.776690 0.845970
O O15 0.349242 0.000000 0.868733
O O16 0.500000 0.757846 0.000000
O O17 0.040172 0.500000 0.893195
O O18 0.071462 0.220106 0.863193
O O19 0.953532 0.000000 0.249578
#
# Coordination Sequence:
#
# PCOD9148057 Si02
#       7
#     4   4   4   4   4   4   4
#     4   9  19  37  58  81 116 158 196 236 292 359
#     4  12  25  39  60  88 118 157 202 246 303 368
#     4  11  24  40  59  86 119 153 198 254 302 351
#     4  10  19  38  64  88 118 156 197 248 300 352
#     4   9  19  36  59  86 117 152 190 237 299 358
#     4   9  19  36  58  84 116 156 195 236 292 357
#     4  11  21  36  58  86 116 149 197 246 296 354
#
# _framework density 18.741793999999999
#
# number of rings (size 3 to 8) (size 9 to 14) (size 15 to 20)
#    0.000    1.857    1.429    3.857    0.000    6.000 
#    0.000    2.857    0.000    3.000    0.000    0.000 
#    0.000    0.000    0.000    0.000    0.000    0.000 
#
# Total GULP energy -156386.915976 kJ/mol
# GULP energy per Si atom -5585.246999 kJ/mol
# Density = 1.869914 g / cm^3
# Si number density = 18.741794 Si / 1000 Ang^3
#
#
#
# Elastic Constant Matrix: (Units=GPa)
#
#
# Indices 1 2 3 4 5 6 
#
# 1 113.6068 28.6657 60.3642 0.0000 -11.1783 0.0000
# 2 28.6657 27.9962 23.8068 0.0000 -1.0896 0.0000
# 3 60.3642 23.8068 101.1488 0.0000 11.8222 0.0000
# 4 0.0000 0.0000 0.0000 22.6917 0.0000 6.2356
# 5 -11.1783 -1.0896 11.8222 0.0000 30.4425 0.0000
# 6 0.0000 0.0000 0.0000 6.2356 0.0000 -0.8479
#
#
#
# Elastic Compliance Matrix: (Units=1/GPa)
#
#
# Indices 1 2 3 4 5 6 
#
# 1 0.016799 -0.009236 -0.008939 0.000000 0.009309 0.000000
# 2 -0.009236 0.050788 -0.006555 0.000000 0.000972 0.000000
# 3 -0.008939 -0.006555 0.017992 0.000000 -0.010504 0.000000
# 4 0.000000 0.000000 0.000000 0.014587 0.000000 0.107284
# 5 0.009309 0.000972 -0.010504 0.000000 0.040381 0.000000
# 6 0.000000 0.000000 0.000000 0.107284 0.000000 -0.390411
#
#
# Mechanical properties :
#
#
# Convention : Reuss Voigt Hill
#
# Bulk Modulus (GPa) = 27.68776 52.04724 39.86750
# Shear Modulus (GPa) = -26.54451 19.11829 -3.71311
#
# Velocity S-wave (km/s) = -3.76749 3.19735 -1.40908
# Velocity P-wave (km/s) = 2.02978 6.43907 4.32098
#
# Compressibility (1/GPa) = 0.03611705
#
# Stress axis : x y z
#
# Youngs Moduli (GPa) = 59.52828 19.68952 55.58056
#
# Poissons Ratio (x) = 0.18186 0.49686
# Poissons Ratio (y) = 0.54983 0.36434
# Poissons Ratio (z) = 0.53215 0.12907
#
# Static dielectric constant tensor:
#      x y z
#    x 1.628470 0.000000 -0.009780 
#    y 0.000000 1.633320 0.000000 
#    z -0.009780 0.000000 1.641470 
# 
# From -- ./inp_files/77805.got.cif
#   From: 2010.05.17/outbox.cif.g08.bks.cpg/sg10_39_cif.got.tgz:77805.got - 2010.06.03 11:33:40.
