data_PCOD9148885
_publ_section_title
;
Structure prediction by ZEFSAII (Michael W. Deem and Ramdas Pophale) SiO2 
 PCOD9148885
Probable space group: P 2/M
;
_chemical_formula_sum "Si O2"
_cell_formula_units_Z 32
_cell_length_a 8.193127
_cell_length_b 21.930798
_cell_length_c 11.888694
_cell_angle_alpha 90.000000
_cell_angle_beta 48.301505
_cell_angle_gamma 90.000000
_cell_volume 1594.992443
_symmetry_space_group_name_H-M "P 2/M"
_symmetry_group_IT_number 10
_symmetry_cell_setting 'monoclinic'
loop_
_space_group_symop_operation_xyz
x,y,z
-x,y,-z
-x,-y,-z
x,-y,z
loop_
_atom_site_type_symbol
_atom_site_label
_atom_site_fract_x
_atom_site_fract_y
_atom_site_fract_z
Si Si1 0.172136 0.238445 0.191403
Si Si2 0.300928 0.899069 0.165166
Si Si3 0.195034 0.332272 0.994831
Si Si4 0.677339 0.339788 0.700440
Si Si5 0.442874 0.122946 0.350927
Si Si6 0.243279 0.569244 0.155549
Si Si7 0.306966 0.252431 0.501089
Si Si8 0.188107 0.070316 0.682637
O O1 0.277115 0.173226 0.156304
O O2 0.221448 0.269474 0.050222
O O3 0.262204 0.286027 0.240847
O O4 0.913224 0.233512 0.333796
O O5 0.362909 0.903938 0.268759
O O6 0.068987 0.923750 0.226589
O O7 0.500000 0.923528 0.000000
O O8 0.142385 0.384477 0.111159
O O9 0.416646 0.347351 0.827754
O O10 0.000000 0.326573 0.000000
O O11 0.774629 0.400454 0.712877
O O12 0.740970 0.312421 0.551253
O O13 0.384552 0.194949 0.389005
O O14 0.305563 0.091399 0.513815
O O15 0.695066 0.109669 0.271508
O O16 0.164133 0.500000 0.187458
O O17 0.500000 0.569309 0.000000
O O18 0.500000 0.264212 0.500000
O O19 0.237936 0.000000 0.684534
#
# Coordination Sequence:
#
# PCOD9148885 Si02
#       8
#     4   4   4   4   4   4   4   4
#     4  11  21  37  55  83 122 154 190 245 301 371
#     4  12  25  41  64  94 127 166 206 252 318 379
#     4  10  20  34  53  85 120 156 198 245 304 351
#     4  10  20  33  57  84 114 156 194 241 300 355
#     4  11  22  42  67  93 121 161 210 256 309 367
#     4   8  16  33  55  80 115 158 205 245 287 354
#     4  12  21  35  59  88 117 147 194 251 305 363
#     4  11  25  46  69  94 123 160 211 263 306 369
#
# _framework density 20.06279
#
# number of rings (size 3 to 8) (size 9 to 14) (size 15 to 20)
#    0.000    1.375    3.750    4.125    0.000    2.500 
#    0.000    0.625    0.000    6.375    0.000    0.000 
#    0.000    0.000    0.000    0.000    0.000    0.000 
#
# Total GULP energy -178656.440870 kJ/mol
# GULP energy per Si atom -5583.013777 kJ/mol
# Density = 2.001713 g / cm^3
# Si number density = 20.062790 Si / 1000 Ang^3
#
#
#
# Elastic Constant Matrix: (Units=GPa)
#
#
# Indices 1 2 3 4 5 6 
#
# 1 85.0772 -9.8644 16.5146 0.0000 -15.9622 0.0000
# 2 -9.8644 74.2994 -3.4007 0.0000 4.9789 0.0000
# 3 16.5146 -3.4007 54.5447 0.0000 -11.4218 0.0000
# 4 0.0000 0.0000 0.0000 41.5320 0.0000 4.6724
# 5 -15.9622 4.9789 -11.4218 0.0000 19.3397 0.0000
# 6 0.0000 0.0000 0.0000 4.6724 0.0000 13.2105
#
#
#
# Elastic Compliance Matrix: (Units=1/GPa)
#
#
# Indices 1 2 3 4 5 6 
#
# 1 0.014203 0.001106 -0.002095 0.000000 0.010200 0.000000
# 2 0.001106 0.013782 -0.000031 0.000000 -0.002654 0.000000
# 3 -0.002095 -0.000031 0.021231 0.000000 0.010818 0.000000
# 4 0.000000 0.000000 0.000000 0.025076 0.000000 -0.008869
# 5 0.010200 -0.002654 0.010818 0.000000 0.067198 0.000000
# 6 0.000000 0.000000 0.000000 -0.008869 0.000000 0.078834
#
#
# Mechanical properties :
#
#
# Convention : Reuss Voigt Hill
#
# Bulk Modulus (GPa) = 21.19743 24.49115 22.84429
# Shear Modulus (GPa) = 21.00046 28.86122 24.93084
#
# Velocity S-wave (km/s) = 3.23884 3.79693 3.52894
# Velocity P-wave (km/s) = 4.95735 5.60856 5.29298
#
# Compressibility (1/GPa) = 0.04717552
#
# Stress axis : x y z
#
# Youngs Moduli (GPa) = 70.40889 72.55671 47.10031
#
# Poissons Ratio (x) = -0.08026 0.09869
# Poissons Ratio (y) = -0.07789 0.00148
# Poissons Ratio (z) = 0.14753 0.00227
#
# Static dielectric constant tensor:
#      x y z
#    x 1.711130 0.000000 -0.020410 
#    y 0.000000 1.711480 0.000000 
#    z -0.020410 0.000000 1.748890 
# 
# From -- ./inp_files/43609.got.cif
#   From: 2010.05.17/outbox.cif.g08.bks.cpg/sg10_22_cif.got.tgz:43609.got - 2010.06.03 11:33:40.
