data_PCOD9148024
_publ_section_title
;
Structure prediction by ZEFSAII (Michael W. Deem and Ramdas Pophale) SiO2 
 PCOD9148024
Probable space group: P 2/M
;
_chemical_formula_sum "Si O2"
_cell_formula_units_Z 20
_cell_length_a 14.353903
_cell_length_b 12.594104
_cell_length_c 5.636966
_cell_angle_alpha 90.000000
_cell_angle_beta 61.048225
_cell_angle_gamma 90.000000
_cell_volume 891.670456
_symmetry_space_group_name_H-M "P 2/M"
_symmetry_group_IT_number 10
_symmetry_cell_setting 'monoclinic'
loop_
_space_group_symop_operation_xyz
x,y,z
-x,y,-z
-x,-y,-z
x,-y,z
loop_
_atom_site_type_symbol
_atom_site_label
_atom_site_fract_x
_atom_site_fract_y
_atom_site_fract_z
Si Si1 0.740678 0.500000 0.455822
Si Si2 0.419145 0.728891 0.798388
Si Si3 0.793233 0.723485 0.233060
Si Si4 0.905864 0.117139 0.804975
Si Si5 0.303288 0.880519 0.263535
Si Si6 0.390134 0.500000 0.885293
O O1 0.805975 0.610098 0.344598
O O2 0.685888 0.500000 0.784999
O O3 0.663352 0.500000 0.315561
O O4 0.500000 0.769767 0.500000
O O5 0.300153 0.708417 0.844926
O O6 0.397040 0.813689 0.028113
O O7 0.455174 0.609966 0.819560
O O8 0.742674 0.810411 0.469071
O O9 0.892951 0.782388 0.992069
O O10 0.794512 0.112009 0.800746
O O11 0.000000 0.130273 0.500000
O O12 0.918207 0.000000 0.905048
O O13 0.333238 0.000000 0.296964
#
# Coordination Sequence:
#
# PCOD9148024 Si02
#       6
#     2   4   4   4   4   2
#     4  10  20  36  62  83 118 154 196 237 296 340
#     4  10  21  36  54  80 113 149 192 238 285 337
#     4  10  20  36  55  82 111 150 185 240 283 346
#     4   9  19  36  59  85 110 140 185 239 291 344
#     4  10  20  35  56  79 110 148 187 232 288 344
#     4  10  19  38  58  88 111 153 197 249 290 340
#
# _framework density 22.42981
#
# number of rings (size 3 to 8) (size 9 to 14) (size 15 to 20)
#    0.000    2.200    2.000    0.900    0.000    2.800 
#    0.000    6.500    0.000    1.200    0.000    0.000 
#    0.000    0.000    0.000    0.000    0.000    0.000 
#
# Total GULP energy -111591.309527 kJ/mol
# GULP energy per Si atom -5579.565476 kJ/mol
# Density = 2.237876 g / cm^3
# Si number density = 22.429810 Si / 1000 Ang^3
#
#
#
# Elastic Constant Matrix: (Units=GPa)
#
#
# Indices 1 2 3 4 5 6 
#
# 1 65.8000 -5.5541 7.5977 0.0000 0.7013 0.0000
# 2 -5.5541 195.6177 71.7893 0.0000 -11.3286 0.0000
# 3 7.5977 71.7893 118.9206 0.0000 -13.6657 0.0000
# 4 0.0000 0.0000 0.0000 51.9233 0.0000 -0.0916
# 5 0.7013 -11.3286 -13.6657 0.0000 33.1923 0.0000
# 6 0.0000 0.0000 0.0000 -0.0916 0.0000 10.7318
#
#
#
# Elastic Compliance Matrix: (Units=1/GPa)
#
#
# Indices 1 2 3 4 5 6 
#
# 1 0.015485 0.001018 -0.001681 0.000000 -0.000672 0.000000
# 2 0.001018 0.006647 -0.004009 0.000000 0.000597 0.000000
# 3 -0.001681 -0.004009 0.011319 0.000000 0.003327 0.000000
# 4 0.000000 0.000000 0.000000 0.019259 0.000000 0.000164
# 5 -0.000672 0.000597 0.003327 0.000000 0.031715 0.000000
# 6 0.000000 0.000000 0.000000 0.000164 0.000000 0.093182
#
#
# Mechanical properties :
#
#
# Convention : Reuss Voigt Hill
#
# Bulk Modulus (GPa) = 41.48357 58.66713 50.07535
# Shear Modulus (GPa) = 25.64283 39.60319 32.62301
#
# Velocity S-wave (km/s) = 3.38486 4.20652 3.81786
# Velocity P-wave (km/s) = 5.81476 7.05732 6.46595
#
# Compressibility (1/GPa) = 0.02410593
#
# Stress axis : x y z
#
# Youngs Moduli (GPa) = 64.57988 150.45154 88.34879
#
# Poissons Ratio (x) = -0.15309 0.14850
# Poissons Ratio (y) = -0.06571 0.35418
# Poissons Ratio (z) = 0.10855 0.60314
#
# Static dielectric constant tensor:
#      x y z
#    x 1.925380 0.000000 0.054790 
#    y 0.000000 1.889710 0.000000 
#    z 0.054790 0.000000 1.823510 
# 
# From -- ./inp_files/6736.got.cif
#   From: 2010.05.17/outbox.cif.g08.bks.cpg/sg10_4_cif.got.tgz:6736.got - 2010.06.03 11:33:40.
