data_PCOD9148386
_publ_section_title
;
Structure prediction by ZEFSAII (Michael W. Deem and Ramdas Pophale) SiO2 
 PCOD9148386
Probable space group: P 2/M
;
_chemical_formula_sum "Si O2"
_cell_formula_units_Z 30
_cell_length_a 17.212479
_cell_length_b 9.140437
_cell_length_c 28.094241
_cell_angle_alpha 90.000000
_cell_angle_beta 22.765072
_cell_angle_gamma 90.000000
_cell_volume 1710.355976
_symmetry_space_group_name_H-M "P 2/M"
_symmetry_group_IT_number 10
_symmetry_cell_setting 'monoclinic'
loop_
_space_group_symop_operation_xyz
x,y,z
-x,y,-z
-x,-y,-z
x,-y,z
loop_
_atom_site_type_symbol
_atom_site_label
_atom_site_fract_x
_atom_site_fract_y
_atom_site_fract_z
Si Si1 0.267596 0.176587 0.174853
Si Si2 0.505329 0.671328 0.314019
Si Si3 0.090413 0.824989 0.898170
Si Si4 0.700908 0.323979 0.940613
Si Si5 0.899952 0.835633 0.451290
Si Si6 0.231347 0.173254 0.002560
Si Si7 0.552394 0.663444 0.765083
Si Si8 0.000000 0.751964 0.500000
O O1 0.208720 0.246281 0.157275
O O2 0.097011 0.204985 0.310235
O O3 0.298558 0.000000 0.153923
O O4 0.474369 0.258327 0.071043
O O5 0.518095 0.500000 0.316008
O O6 0.693205 0.753114 0.230609
O O7 0.288610 0.731849 0.451264
O O8 0.513581 0.693184 0.251983
O O9 0.114764 0.000000 0.887231
O O10 0.000000 0.774585 0.000000
O O11 0.933997 0.794236 0.944422
O O12 0.698012 0.500000 0.938170
O O13 0.804376 0.267290 0.930088
O O14 0.949125 0.834084 0.479802
O O15 0.842496 0.000000 0.469936
O O16 0.445797 0.220323 0.859131
O O17 0.230887 0.000000 0.013144
O O18 0.485854 0.500000 0.816528
O O19 0.793794 0.668120 0.628402
#
# Coordination Sequence:
#
# PCOD9148386 Si02
#       8
#     4   4   4   4   4   4   4   2
#     4  10  20  37  59  82 111 147 187 227 269 319
#     4  10  21  34  52  77 108 144 180 219 267 325
#     4  10  20  36  56  79 107 144 184 227 274 326
#     4  11  22  36  56  83 112 144 182 228 279 327
#     4  10  21  35  54  78 107 145 184 222 264 319
#     4  11  22  35  55  80 108 141 181 229 276 322
#     4  10  20  33  48  72 107 145 180 218 264 319
#     4  10  20  32  50  78 110 146 180 218 260 314
#
# _framework density 17.540209000000001
#
# number of rings (size 3 to 8) (size 9 to 14) (size 15 to 20)
#    0.000    1.733    1.333    4.400    0.000    6.667 
#    0.000    0.000    0.000    0.800    0.000    5.600 
#    0.000    0.000    0.000    0.000    0.000    0.000 
#
# Total GULP energy -167406.167367 kJ/mol
# GULP energy per Si atom -5580.205579 kJ/mol
# Density = 1.750029 g / cm^3
# Si number density = 17.540209 Si / 1000 Ang^3
#
#
#
# Elastic Constant Matrix: (Units=GPa)
#
#
# Indices 1 2 3 4 5 6 
#
# 1 84.7230 45.3580 38.9017 0.0000 1.3532 0.0000
# 2 45.3580 70.1518 30.2672 0.0000 6.3142 0.0000
# 3 38.9017 30.2672 83.3956 0.0000 4.2545 0.0000
# 4 0.0000 0.0000 0.0000 166.8255 0.0000 17.5261
# 5 1.3532 6.3142 4.2545 0.0000 24.0366 0.0000
# 6 0.0000 0.0000 0.0000 17.5261 0.0000 23.7268
#
#
#
# Elastic Compliance Matrix: (Units=1/GPa)
#
#
# Indices 1 2 3 4 5 6 
#
# 1 0.020137 -0.010850 -0.005594 0.000000 0.002707 0.000000
# 2 -0.010850 0.023025 -0.003045 0.000000 -0.004899 0.000000
# 3 -0.005594 -0.003045 0.015791 0.000000 -0.001680 0.000000
# 4 0.000000 0.000000 0.000000 0.006499 0.000000 -0.004800
# 5 0.002707 -0.004899 -0.001680 0.000000 0.043035 0.000000
# 6 0.000000 0.000000 0.000000 -0.004800 0.000000 0.045692
#
#
# Mechanical properties :
#
#
# Convention : Reuss Voigt Hill
#
# Bulk Modulus (GPa) = 50.06232 51.92491 50.99362
# Shear Modulus (GPa) = 25.02297 51.16736 38.09516
#
# Velocity S-wave (km/s) = 3.78114 5.40692 4.66540
# Velocity P-wave (km/s) = 6.90407 8.28537 7.62606
#
# Compressibility (1/GPa) = 0.01997510
#
# Stress axis : x y z
#
# Youngs Moduli (GPa) = 49.65918 43.43068 63.32617
#
# Poissons Ratio (x) = 0.47124 0.35422
# Poissons Ratio (y) = 0.53882 0.19285
# Poissons Ratio (z) = 0.27777 0.13226
#
# Static dielectric constant tensor:
#      x y z
#    x 1.610100 0.000000 0.003700 
#    y 0.000000 1.599950 0.000000 
#    z 0.003700 0.000000 1.587950 
# 
# From -- ./inp_files/95491.got.cif
#   From: 2010.05.17/outbox.cif.g08.bks.cpg/sg10_48_cif.got.tgz:95491.got - 2010.06.03 11:33:40.
