data_PCOD9148240
_publ_section_title
;
Structure prediction by ZEFSAII (Michael W. Deem and Ramdas Pophale) SiO2 
 PCOD9148240
Probable space group: P 2/M
;
_chemical_formula_sum "Si O2"
_cell_formula_units_Z 28
_cell_length_a 19.812714
_cell_length_b 9.879528
_cell_length_c 18.538801
_cell_angle_alpha 90.000000
_cell_angle_beta 159.541402
_cell_angle_gamma 90.000000
_cell_volume 1268.372522
_symmetry_space_group_name_H-M "P 2/M"
_symmetry_group_IT_number 10
_symmetry_cell_setting 'monoclinic'
loop_
_space_group_symop_operation_xyz
x,y,z
-x,y,-z
-x,-y,-z
x,-y,z
loop_
_atom_site_type_symbol
_atom_site_label
_atom_site_fract_x
_atom_site_fract_y
_atom_site_fract_z
Si Si1 0.823634 0.343732 0.686326
Si Si2 0.102158 0.150240 0.365867
Si Si3 0.903913 0.845928 0.482668
Si Si4 0.553708 0.650651 0.136746
Si Si5 0.721103 0.335650 0.736475
Si Si6 0.639347 0.656504 0.812068
Si Si7 0.434623 0.155679 0.133021
O O1 0.885494 0.500000 0.746355
O O2 0.919088 0.260768 0.717324
O O3 0.840597 0.290764 0.785813
O O4 0.591105 0.343323 0.437982
O O5 0.997978 0.164428 0.339637
O O6 0.333120 0.154425 0.616504
O O7 0.059890 0.000000 0.295224
O O8 0.760993 0.720116 0.343140
O O9 0.000000 0.838921 0.500000
O O10 0.816321 0.000000 0.396489
O O11 0.552603 0.500000 0.168252
O O12 0.420394 0.753654 0.047199
O O13 0.500000 0.641944 0.000000
O O14 0.500000 0.293276 0.500000
O O15 0.727313 0.500000 0.739374
O O16 0.750715 0.304053 0.850105
O O17 0.683282 0.500000 0.876013
O O18 0.662518 0.764263 0.898660
O O19 0.377821 0.000000 0.068053
#
# Coordination Sequence:
#
# PCOD9148240 Si02
#       7
#     4   4   4   4   4   4   4
#     4   8  12  18  29  44  63  91 127 161 193 234
#     4   8  14  23  34  50  72  97 127 163 201 240
#     4   9  18  32  48  65  86 113 144 177 214 257
#     4  10  20  32  46  65  87 111 142 179 216 254
#     4   7  10  16  26  41  61  88 123 159 193 231
#     4   8  12  19  31  45  64  92 126 163 199 235
#     4   9  16  25  37  53  74 101 133 167 204 248
#
# _framework density 22.075533
#
# number of rings (size 3 to 8) (size 9 to 14) (size 15 to 20)
#    0.000    3.571    0.000    3.429    0.000    4.857 
#    0.000    0.714    0.000    4.286    0.000    0.000 
#    0.000    0.000    0.000    1.286    0.000   27.429 
#
# Total GULP energy -156092.495492 kJ/mol
# GULP energy per Si atom -5574.731982 kJ/mol
# Density = 2.202529 g / cm^3
# Si number density = 22.075533 Si / 1000 Ang^3
#
#
#
# Elastic Constant Matrix: (Units=GPa)
#
#
# Indices 1 2 3 4 5 6 
#
# 1 214.8426 100.4350 31.7178 0.0000 -25.7153 0.0000
# 2 100.4350 151.0036 30.6389 0.0000 -27.5423 0.0000
# 3 31.7178 30.6389 47.7752 0.0000 -5.4561 0.0000
# 4 0.0000 0.0000 0.0000 -1.5481 0.0000 0.9757
# 5 -25.7153 -27.5423 -5.4561 0.0000 43.0320 0.0000
# 6 0.0000 0.0000 0.0000 0.9757 0.0000 23.8834
#
#
#
# Elastic Compliance Matrix: (Units=1/GPa)
#
#
# Indices 1 2 3 4 5 6 
#
# 1 0.006969 -0.004000 -0.001906 0.000000 0.001363 0.000000
# 2 -0.004000 0.010790 -0.003804 0.000000 0.004034 0.000000
# 3 -0.001906 -0.003804 0.024584 0.000000 -0.000456 0.000000
# 4 0.000000 0.000000 0.000000 -0.629740 0.000000 0.025726
# 5 0.001363 0.004034 -0.000456 0.000000 0.026577 0.000000
# 6 0.000000 0.000000 0.000000 0.025726 0.000000 0.040819
#
#
# Mechanical properties :
#
#
# Convention : Reuss Voigt Hill
#
# Bulk Modulus (GPa) = 43.62215 82.13386 62.87800
# Shear Modulus (GPa) = -10.14321 29.79544 9.82611
#
# Velocity S-wave (km/s) = -2.14587 3.67782 2.11206
# Velocity P-wave (km/s) = 3.69644 7.43786 5.87305
#
# Compressibility (1/GPa) = 0.02292414
#
# Stress axis : x y z
#
# Youngs Moduli (GPa) = 143.49423 92.67620 40.67699
#
# Poissons Ratio (x) = 0.37069 0.07752
# Poissons Ratio (y) = 0.57396 0.15473
# Poissons Ratio (z) = 0.27348 0.35252
#
# Static dielectric constant tensor:
#      x y z
#    x 1.850830 0.000000 0.045390 
#    y 0.000000 1.741190 0.000000 
#    z 0.045390 0.000000 1.966170 
# 
# From -- ./inp_files/79293.got.cif
#   From: 2010.05.17/outbox.cif.g08.bks.cpg/sg10_40_cif.got.tgz:79293.got - 2010.06.03 11:33:40.
