data_PCOD9148139
_publ_section_title
;
Structure prediction by ZEFSAII (Michael W. Deem and Ramdas Pophale) SiO2 
 PCOD9148139
Probable space group: P 2/M
;
_chemical_formula_sum "Si O2"
_cell_formula_units_Z 32
_cell_length_a 12.731959
_cell_length_b 14.215571
_cell_length_c 10.082488
_cell_angle_alpha 90.000000
_cell_angle_beta 94.232366
_cell_angle_gamma 90.000000
_cell_volume 1819.873880
_symmetry_space_group_name_H-M "P 2/M"
_symmetry_group_IT_number 10
_symmetry_cell_setting 'monoclinic'
loop_
_space_group_symop_operation_xyz
x,y,z
-x,y,-z
-x,-y,-z
x,-y,z
loop_
_atom_site_type_symbol
_atom_site_label
_atom_site_fract_x
_atom_site_fract_y
_atom_site_fract_z
Si Si1 0.463540 0.109341 0.643109
Si Si2 0.130812 0.886813 0.377126
Si Si3 0.893092 0.886991 0.315127
Si Si4 0.310530 0.108190 0.195428
Si Si5 0.617986 0.737507 0.971949
Si Si6 0.658037 0.611040 0.433713
Si Si7 0.714769 0.756253 0.247352
Si Si8 0.576295 0.611203 0.710816
O O1 0.500000 0.140740 0.500000
O O2 0.570931 0.111098 0.736558
O O3 0.375406 0.174100 0.701068
O O4 0.426651 0.000000 0.629105
O O5 0.135891 0.865654 0.533413
O O6 0.228767 0.855268 0.298104
O O7 0.015816 0.860770 0.311321
O O8 0.133522 0.000000 0.373326
O O9 0.814131 0.822198 0.226695
O O10 0.881222 0.000000 0.292887
O O11 0.314088 0.174371 0.069876
O O12 0.285243 0.000000 0.161783
O O13 0.605177 0.668027 0.845495
O O14 0.500000 0.767381 0.000000
O O15 0.671645 0.704065 0.112423
O O16 0.682022 0.500000 0.429208
O O17 0.735590 0.678291 0.361457
O O18 0.643975 0.637176 0.586789
O O19 0.544269 0.624621 0.350074
O O20 0.589363 0.500000 0.736253
#
# Coordination Sequence:
#
# PCOD9148139 Si02
#       8
#     4   4   4   4   4   4   4   4
#     4  10  20  30  45  72 104 140 178 211 256 309
#     4   8  16  34  56  77  99 134 186 232 266 301
#     4   9  18  33  55  81 106 135 178 228 270 305
#     4  10  20  33  48  68 104 147 179 210 251 304
#     4  12  23  34  45  76 112 148 178 206 256 319
#     4   9  19  34  54  77 100 134 179 223 264 310
#     4  12  22  31  51  78 112 140 171 215 267 312
#     4   9  19  36  54  72 102 141 178 218 262 313
#
# _framework density 17.583635999999998
#
# number of rings (size 3 to 8) (size 9 to 14) (size 15 to 20)
#    0.000    2.125    2.500    2.625    5.250    4.000 
#    0.000    0.625    0.000    2.250    0.000    2.625 
#    0.000    2.000    0.000    0.000    0.000    0.000 
#
# Total GULP energy -178437.614757 kJ/mol
# GULP energy per Si atom -5576.175461 kJ/mol
# Density = 1.754362 g / cm^3
# Si number density = 17.583636 Si / 1000 Ang^3
#
#
#
# Elastic Constant Matrix: (Units=GPa)
#
#
# Indices 1 2 3 4 5 6 
#
# 1 40.9373 16.0046 9.1238 0.0000 4.4372 0.0000
# 2 16.0046 60.3360 31.0844 0.0000 -2.7818 0.0000
# 3 9.1238 31.0844 78.9486 0.0000 1.8772 0.0000
# 4 0.0000 0.0000 0.0000 14.7777 0.0000 0.4749
# 5 4.4372 -2.7818 1.8772 0.0000 13.6253 0.0000
# 6 0.0000 0.0000 0.0000 0.4749 0.0000 10.8544
#
#
#
# Elastic Compliance Matrix: (Units=1/GPa)
#
#
# Indices 1 2 3 4 5 6 
#
# 1 0.028814 -0.008248 0.000181 0.000000 -0.011092 0.000000
# 2 -0.008248 0.023554 -0.008527 0.000000 0.008670 0.000000
# 3 0.000181 -0.008527 0.016098 0.000000 -0.004018 0.000000
# 4 0.000000 0.000000 0.000000 0.067765 0.000000 -0.002965
# 5 -0.011092 0.008670 -0.004018 0.000000 0.079329 0.000000
# 6 0.000000 0.000000 0.000000 -0.002965 0.000000 0.092258
#
#
# Mechanical properties :
#
#
# Convention : Reuss Voigt Hill
#
# Bulk Modulus (GPa) = 28.34512 32.51639 30.43076
# Shear Modulus (GPa) = 14.17368 16.11874 15.14621
#
# Velocity S-wave (km/s) = 2.84222 3.03097 2.93811
# Velocity P-wave (km/s) = 5.18904 5.54812 5.37158
#
# Compressibility (1/GPa) = 0.03527944
#
# Stress axis : x y z
#
# Youngs Moduli (GPa) = 34.70529 42.45479 62.11800
#
# Poissons Ratio (x) = 0.35017 -0.01126
# Poissons Ratio (y) = 0.28625 0.52968
# Poissons Ratio (z) = -0.00629 0.36201
#
# Static dielectric constant tensor:
#      x y z
#    x 1.609370 0.000000 0.009530 
#    y 0.000000 1.622430 0.000000 
#    z 0.009530 0.000000 1.634600 
# 
# From -- ./inp_files/25343.got.cif
#   From: 2010.05.17/outbox.cif.g08.bks.cpg/sg10_13_cif.got.tgz:25343.got - 2010.06.03 11:33:40.
