data_PCOD9148969
_publ_section_title
;
Structure prediction by ZEFSAII (Michael W. Deem and Ramdas Pophale) SiO2 
 PCOD9148969
Probable space group: P 2/M
;
_chemical_formula_sum "Si O2"
_cell_formula_units_Z 28
_cell_length_a 29.094348
_cell_length_b 7.678419
_cell_length_c 10.228216
_cell_angle_alpha 90.000000
_cell_angle_beta 37.197549
_cell_angle_gamma 90.000000
_cell_volume 1381.412423
_symmetry_space_group_name_H-M "P 2/M"
_symmetry_group_IT_number 10
_symmetry_cell_setting 'monoclinic'
loop_
_space_group_symop_operation_xyz
x,y,z
-x,y,-z
-x,-y,-z
x,-y,z
loop_
_atom_site_type_symbol
_atom_site_label
_atom_site_fract_x
_atom_site_fract_y
_atom_site_fract_z
Si Si1 0.995196 0.797293 0.658530
Si Si2 0.299107 0.294883 0.195199
Si Si3 0.549551 0.786582 0.763772
Si Si4 0.128485 0.706074 0.544104
Si Si5 0.293545 0.200671 0.498083
Si Si6 0.877457 0.788129 0.142562
Si Si7 0.454802 0.789464 0.728299
O O1 0.074156 0.787755 0.558758
O O2 0.000000 0.722802 0.500000
O O3 0.973654 0.000000 0.690421
O O4 0.933962 0.723809 0.901383
O O5 0.291634 0.500000 0.239653
O O6 0.216045 0.231327 0.338796
O O7 0.318441 0.205804 0.289494
O O8 0.367816 0.267251 0.940471
O O9 0.636276 0.723180 0.580232
O O10 0.503635 0.730634 0.741562
O O11 0.552557 0.000000 0.757671
O O12 0.500000 0.732687 0.000000
O O13 0.127183 0.500000 0.523920
O O14 0.102675 0.737825 0.753016
O O15 0.208535 0.275666 0.691639
O O16 0.285182 0.000000 0.558287
O O17 0.877899 0.000000 0.141780
O O18 0.500000 0.728126 0.500000
O O19 0.453946 0.000000 0.729608
#
# Coordination Sequence:
#
# PCOD9148969 Si02
#       7
#     4   4   4   4   4   4   4
#     4  10  21  37  54  79 112 140 171 214 266 321
#     4  10  20  34  52  75 105 135 171 215 259 306
#     4   9  15  27  50  75 100 128 164 210 254 298
#     4  10  21  36  56  80 103 137 181 219 260 313
#     4   9  16  30  53  76 100 132 171 215 261 302
#     4   9  18  33  55  80 105 136 174 217 265 314
#     4  10  20  34  51  76 104 136 177 214 253 306
#
# _framework density 20.269109
#
# number of rings (size 3 to 8) (size 9 to 14) (size 15 to 20)
#    0.000    2.429    1.429    1.286    0.000    4.571 
#    2.571    1.429    0.000    0.000    0.000    0.000 
#    0.000    0.000    0.000    0.000    0.000    0.000 
#
# Total GULP energy -156184.936820 kJ/mol
# GULP energy per Si atom -5578.033458 kJ/mol
# Density = 2.022298 g / cm^3
# Si number density = 20.269109 Si / 1000 Ang^3
#
#
#
# Elastic Constant Matrix: (Units=GPa)
#
#
# Indices 1 2 3 4 5 6 
#
# 1 124.5383 -4.2953 80.9559 0.0000 3.6164 0.0000
# 2 -4.2953 36.9201 -6.2686 0.0000 1.3881 0.0000
# 3 80.9559 -6.2686 143.0618 0.0000 5.4883 0.0000
# 4 0.0000 0.0000 0.0000 -214.9507 0.0000 -409.5034
# 5 3.6164 1.3881 5.4883 0.0000 29.2205 0.0000
# 6 0.0000 0.0000 0.0000 -409.5034 0.0000 -736.4287
#
#
#
# Elastic Compliance Matrix: (Units=1/GPa)
#
#
# Indices 1 2 3 4 5 6 
#
# 1 0.012706 0.000270 -0.007169 0.000000 -0.000239 0.000000
# 2 0.000270 0.027363 0.001105 0.000000 -0.001541 0.000000
# 3 -0.007169 0.001105 0.011144 0.000000 -0.001258 0.000000
# 4 0.000000 0.000000 0.000000 0.078367 0.000000 -0.043577
# 5 -0.000239 -0.001541 -0.001258 0.000000 0.034562 0.000000
# 6 0.000000 0.000000 0.000000 -0.043577 0.000000 0.022874
#
#
# Mechanical properties :
#
#
# Convention : Reuss Voigt Hill
#
# Bulk Modulus (GPa) = 25.23690 49.47823 37.35756
# Shear Modulus (GPa) = 23.60591 -168.82323 -72.60866
#
# Velocity S-wave (km/s) = 3.41636 -9.13629 -5.99167
# Velocity P-wave (km/s) = 5.29528 9.31837 5.42181
#
# Compressibility (1/GPa) = 0.03962452
#
# Stress axis : x y z
#
# Youngs Moduli (GPa) = 78.70146 36.54629 89.73752
#
# Poissons Ratio (x) = -0.00987 0.64335
# Poissons Ratio (y) = -0.02125 -0.09919
# Poissons Ratio (z) = 0.56423 -0.04039
#
# Static dielectric constant tensor:
#      x y z
#    x 1.707800 0.000000 -0.022030 
#    y 0.000000 1.755860 0.000000 
#    z -0.022030 0.000000 1.731220 
# 
# From -- ./inp_files/36939.got.cif
#   From: 2010.05.17/outbox.cif.g08.bks.cpg/sg10_19_cif.got.tgz:36939.got - 2010.06.03 11:33:40.
