data_PCOD9148914
_publ_section_title
;
Structure prediction by ZEFSAII (Michael W. Deem and Ramdas Pophale) SiO2 
 PCOD9148914
Probable space group: P 2/M
;
_chemical_formula_sum "Si O2"
_cell_formula_units_Z 28
_cell_length_a 18.928008
_cell_length_b 8.759930
_cell_length_c 14.383039
_cell_angle_alpha 90.000000
_cell_angle_beta 131.684227
_cell_angle_gamma 90.000000
_cell_volume 1781.036797
_symmetry_space_group_name_H-M "P 2/M"
_symmetry_group_IT_number 10
_symmetry_cell_setting 'monoclinic'
loop_
_space_group_symop_operation_xyz
x,y,z
-x,y,-z
-x,-y,-z
x,-y,z
loop_
_atom_site_type_symbol
_atom_site_label
_atom_site_fract_x
_atom_site_fract_y
_atom_site_fract_z
Si Si1 0.607115 0.822889 0.134405
Si Si2 0.171393 0.680845 0.002434
Si Si3 0.222755 0.816070 0.248593
Si Si4 0.471419 0.814656 0.745352
Si Si5 0.978213 0.175613 0.870113
Si Si6 0.678775 0.185072 0.005864
Si Si7 0.415898 0.317113 0.497788
O O1 0.595279 0.758995 0.227643
O O2 0.669463 0.758587 0.104656
O O3 0.635484 0.000000 0.170057
O O4 0.500000 0.823677 0.000000
O O5 0.180758 0.500000 0.015560
O O6 0.234595 0.747062 0.974942
O O7 0.061302 0.727469 0.897212
O O8 0.208585 0.752294 0.132110
O O9 0.130250 0.770681 0.228314
O O10 0.318724 0.755147 0.376409
O O11 0.222854 0.000000 0.243670
O O12 0.442238 0.745049 0.622246
O O13 0.465958 0.000000 0.736989
O O14 0.579889 0.776534 0.867393
O O15 0.984841 0.000000 0.843920
O O16 0.000000 0.175414 0.000000
O O17 0.684563 0.000000 0.012257
O O18 0.500000 0.276670 0.500000
O O19 0.407352 0.500000 0.492360
#
# Coordination Sequence:
#
# PCOD9148914 Si02
#       7
#     4   4   4   4   4   4   4
#     4   7  12  25  45  67  87 111 149 192 226 258
#     4  11  20  28  43  69  98 122 145 179 225 274
#     4  10  20  34  50  65  85 118 158 193 222 259
#     4   9  17  30  48  67  88 119 158 192 222 260
#     4   8  16  31  48  65  85 112 149 188 224 265
#     4   9  16  28  47  68  92 121 151 186 225 263
#     4  11  23  34  44  64  95 126 154 184 219 263
#
# _framework density 15.72118
#
# number of rings (size 3 to 8) (size 9 to 14) (size 15 to 20)
#    0.000    2.714    0.000    5.571    0.000    7.143 
#    0.000    0.714    0.000    2.571    0.000    1.000 
#    0.000    8.000    0.000    0.000    0.000    0.000 
#
# Total GULP energy -155963.124173 kJ/mol
# GULP energy per Si atom -5570.111578 kJ/mol
# Density = 1.568540 g / cm^3
# Si number density = 15.721180 Si / 1000 Ang^3
#
#
#
# Elastic Constant Matrix: (Units=GPa)
#
#
# Indices 1 2 3 4 5 6 
#
# 1 166.9677 49.8838 69.2052 0.0000 1.7847 0.0000
# 2 49.8838 40.6337 30.2152 0.0000 4.9141 0.0000
# 3 69.2052 30.2152 77.3330 0.0000 5.1153 0.0000
# 4 0.0000 0.0000 0.0000 2.5851 0.0000 14.9464
# 5 1.7847 4.9141 5.1153 0.0000 26.5788 0.0000
# 6 0.0000 0.0000 0.0000 14.9464 0.0000 -7.9936
#
#
#
# Elastic Compliance Matrix: (Units=1/GPa)
#
#
# Indices 1 2 3 4 5 6 
#
# 1 0.011637 -0.009453 -0.006872 0.000000 0.002289 0.000000
# 2 -0.009453 0.042762 -0.007867 0.000000 -0.005757 0.000000
# 3 -0.006872 -0.007867 0.022312 0.000000 -0.002378 0.000000
# 4 0.000000 0.000000 0.000000 0.032753 0.000000 0.061241
# 5 0.002289 -0.005757 -0.002378 0.000000 0.038992 0.000000
# 6 0.000000 0.000000 0.000000 0.061241 0.000000 -0.010592
#
#
# Mechanical properties :
#
#
# Convention : Reuss Voigt Hill
#
# Bulk Modulus (GPa) = 35.30317 64.83809 50.07063
# Shear Modulus (GPa) = 25.55042 13.27607 19.41325
#
# Velocity S-wave (km/s) = 4.03578 2.90913 3.51785
# Velocity P-wave (km/s) = 6.64990 7.25369 6.95835
#
# Compressibility (1/GPa) = 0.02832607
#
# Stress axis : x y z
#
# Youngs Moduli (GPa) = 85.92988 23.38542 44.81878
#
# Poissons Ratio (x) = 0.22107 0.30800
# Poissons Ratio (y) = 0.81232 0.35259
# Poissons Ratio (z) = 0.59052 0.18398
#
# Static dielectric constant tensor:
#      x y z
#    x 1.548620 0.000000 0.005150 
#    y 0.000000 1.523420 0.000000 
#    z 0.005150 0.000000 1.504740 
# 
# From -- ./inp_files/68701.got.cif
#   From: 2010.05.17/outbox.cif.g08.bks.cpg/sg10_35_cif.got.tgz:68701.got - 2010.06.03 11:33:40.
