data_PCOD9148846
_publ_section_title
;
Structure prediction by ZEFSAII (Michael W. Deem and Ramdas Pophale) SiO2 
 PCOD9148846
Probable space group: P 2/M
;
_chemical_formula_sum "Si O2"
_cell_formula_units_Z 32
_cell_length_a 23.452996
_cell_length_b 9.406395
_cell_length_c 14.858155
_cell_angle_alpha 90.000000
_cell_angle_beta 150.648863
_cell_angle_gamma 90.000000
_cell_volume 1606.663076
_symmetry_space_group_name_H-M "P 2/M"
_symmetry_group_IT_number 10
_symmetry_cell_setting 'monoclinic'
loop_
_space_group_symop_operation_xyz
x,y,z
-x,y,-z
-x,-y,-z
x,-y,z
loop_
_atom_site_type_symbol
_atom_site_label
_atom_site_fract_x
_atom_site_fract_y
_atom_site_fract_z
Si Si1 0.197584 0.330598 0.611002
Si Si2 0.201712 0.233086 0.087840
Si Si3 0.754370 0.836307 0.149505
Si Si4 0.654324 0.836701 0.544339
Si Si5 0.401171 0.829900 0.239203
Si Si6 0.225406 0.170545 0.472008
Si Si7 0.037260 0.842241 0.700317
Si Si8 0.015305 0.348011 0.127796
O O1 0.201441 0.500000 0.610439
O O2 0.253777 0.271462 0.779836
O O3 0.254650 0.252993 0.603542
O O4 0.063780 0.273115 0.429896
O O5 0.247754 0.165095 0.243869
O O6 0.319689 0.258502 0.194510
O O7 0.122642 0.154855 0.904253
O O8 0.109931 0.346831 0.997533
O O9 0.877127 0.816043 0.266028
O O10 0.750049 0.000000 0.175191
O O11 0.655940 0.820359 0.937981
O O12 0.533337 0.777766 0.415881
O O13 0.701640 0.779141 0.514960
O O14 0.624808 0.000000 0.483907
O O15 0.395605 0.000000 0.259359
O O16 0.093461 0.218040 0.268047
O O17 0.232941 0.000000 0.492293
O O18 0.984423 0.000000 0.618419
O O19 0.073946 0.500000 0.229212
O O20 0.000000 0.337418 0.000000
#
# Coordination Sequence:
#
# PCOD9148846 Si02
#       8
#     4   4   4   4   4   4   4   4
#     4  12  24  37  56  82 114 155 195 243 303 358
#     4  11  19  32  59  90 121 161 192 231 284 351
#     4   9  19  37  59  83 113 152 193 242 298 351
#     4  10  20  35  57  90 122 154 198 245 290 342
#     4   9  19  36  60  89 122 153 191 247 304 344
#     4  11  23  37  58  87 118 154 200 247 290 348
#     4  10  20  33  54  86 121 154 190 235 289 351
#     4  11  23  39  56  81 123 166 199 240 291 346
#
# _framework density 19.917058000000001
#
# number of rings (size 3 to 8) (size 9 to 14) (size 15 to 20)
#    0.000    1.625    2.500    4.125    0.000    4.250 
#    0.000    2.500    0.000    9.000    0.000    0.000 
#    0.000    0.000    0.000    0.000    0.000    0.000 
#
# Total GULP energy -178412.750347 kJ/mol
# GULP energy per Si atom -5575.398448 kJ/mol
# Density = 1.987173 g / cm^3
# Si number density = 19.917058 Si / 1000 Ang^3
#
#
#
# Elastic Constant Matrix: (Units=GPa)
#
#
# Indices 1 2 3 4 5 6 
#
# 1 117.7786 40.6251 21.4887 0.0000 -11.8369 0.0000
# 2 40.6251 81.6463 13.7362 0.0000 -11.3597 0.0000
# 3 21.4887 13.7362 52.8314 0.0000 -7.3492 0.0000
# 4 0.0000 0.0000 0.0000 -21.1305 0.0000 26.7690
# 5 -11.8369 -11.3597 -7.3492 0.0000 38.3450 0.0000
# 6 0.0000 0.0000 0.0000 26.7690 0.0000 -78.9882
#
#
#
# Elastic Compliance Matrix: (Units=1/GPa)
#
#
# Indices 1 2 3 4 5 6 
#
# 1 0.010784 -0.004674 -0.002980 0.000000 0.001373 0.000000
# 2 -0.004674 0.015238 -0.001679 0.000000 0.002750 0.000000
# 3 -0.002980 -0.001679 0.020938 0.000000 0.002596 0.000000
# 4 0.000000 0.000000 0.000000 -0.082929 0.000000 -0.028105
# 5 0.001373 0.002750 0.002596 0.000000 0.027815 0.000000
# 6 0.000000 0.000000 0.000000 -0.028105 0.000000 -0.022185
#
#
# Mechanical properties :
#
#
# Convention : Reuss Voigt Hill
#
# Bulk Modulus (GPa) = 35.34081 44.88403 40.11242
# Shear Modulus (GPa) = -2230.54002 -0.59431 -1115.56717
#
# Velocity S-wave (km/s) = -33.50143 -0.54685 -23.69224
# Velocity P-wave (km/s) = 38.45359 4.71017 26.98604
#
# Compressibility (1/GPa) = 0.02829590
#
# Stress axis : x y z
#
# Youngs Moduli (GPa) = 92.72730 65.62381 47.76041
#
# Poissons Ratio (x) = 0.30669 0.14234
# Poissons Ratio (y) = 0.43336 0.08017
# Poissons Ratio (z) = 0.27635 0.11015
#
# Static dielectric constant tensor:
#      x y z
#    x 1.748680 0.000000 -0.001980 
#    y 0.000000 1.679370 0.000000 
#    z -0.001980 0.000000 1.720000 
# 
# From -- ./inp_files/71598.got.cif
#   From: 2010.05.17/outbox.cif.g08.bks.cpg/sg10_36_cif.got.tgz:71598.got - 2010.06.03 11:33:40.
