data_PCOD9148021
_publ_section_title
;
Structure prediction by ZEFSAII (Michael W. Deem and Ramdas Pophale) SiO2 
 PCOD9148021
Probable space group: P 2/M
;
_chemical_formula_sum "Si O2"
_cell_formula_units_Z 20
_cell_length_a 17.333964
_cell_length_b 8.599867
_cell_length_c 7.133876
_cell_angle_alpha 90.000000
_cell_angle_beta 133.367331
_cell_angle_gamma 90.000000
_cell_volume 773.088958
_symmetry_space_group_name_H-M "P 2/M"
_symmetry_group_IT_number 10
_symmetry_cell_setting 'monoclinic'
loop_
_space_group_symop_operation_xyz
x,y,z
-x,y,-z
-x,-y,-z
x,-y,z
loop_
_atom_site_type_symbol
_atom_site_label
_atom_site_fract_x
_atom_site_fract_y
_atom_site_fract_z
Si Si1 0.660349 0.000000 0.614633
Si Si2 0.312515 0.000000 0.896257
Si Si3 0.344386 0.323250 0.286887
Si Si4 0.151456 0.000000 0.371971
Si Si5 0.900893 0.329533 0.220725
Si Si6 0.000000 0.266549 0.000000
Si Si7 0.397505 0.668348 0.958051
O O1 0.762551 0.000000 0.652432
O O2 0.659502 0.000000 0.841173
O O3 0.618599 0.178499 0.522392
O O4 0.348934 0.158965 0.855976
O O5 0.189131 0.000000 0.648471
O O6 0.340006 0.500000 0.360063
O O7 0.222491 0.278699 0.013828
O O8 0.410976 0.334921 0.206301
O O9 0.086333 0.154058 0.233656
O O10 0.888721 0.500000 0.291794
O O11 0.000000 0.252401 0.500000
O O12 0.943593 0.344225 0.080553
O O13 0.339901 0.500000 0.823900
O O14 0.500000 0.663195 0.000000
#
# Coordination Sequence:
#
# PCOD9148021 Si02
#       7
#     2   2   4   2   4   2   4
#     4  10  19  38  56  79 114 152 188 240 291 332
#     4  10  22  37  63  88 116 157 198 237 297 357
#     4   9  18  34  56  83 112 150 191 231 290 351
#     4  11  24  37  53  85 116 155 208 243 286 357
#     4  10  21  36  56  83 117 154 198 245 294 351
#     4  11  23  36  54  80 119 155 202 253 283 342
#     4   9  18  35  62  93 120 150 194 244 297 356
#
# _framework density 25.870242000000001
#
# number of rings (size 3 to 8) (size 9 to 14) (size 15 to 20)
#    0.000    2.200    2.000    0.600    5.600    0.000 
#    0.000    4.500    0.000    9.600    0.000   12.600 
#    0.000    0.000    0.000    0.000    0.000    0.000 
#
# Total GULP energy -111350.210250 kJ/mol
# GULP energy per Si atom -5567.510512 kJ/mol
# Density = 2.581136 g / cm^3
# Si number density = 25.870242 Si / 1000 Ang^3
#
#
#
# Elastic Constant Matrix: (Units=GPa)
#
#
# Indices 1 2 3 4 5 6 
#
# 1 149.5180 24.1779 12.3999 0.0000 0.9992 0.0000
# 2 24.1779 224.7258 19.4306 0.0000 12.8020 0.0000
# 3 12.3999 19.4306 74.0977 0.0000 -9.9836 0.0000
# 4 0.0000 0.0000 0.0000 8.0000 0.0000 16.5587
# 5 0.9992 12.8020 -9.9836 0.0000 31.6012 0.0000
# 6 0.0000 0.0000 0.0000 16.5587 0.0000 -59.1367
#
#
#
# Elastic Compliance Matrix: (Units=1/GPa)
#
#
# Indices 1 2 3 4 5 6 
#
# 1 0.006878 -0.000635 -0.001022 0.000000 -0.000283 0.000000
# 2 -0.000635 0.004781 -0.001468 0.000000 -0.002380 0.000000
# 3 -0.001022 -0.001468 0.014765 0.000000 0.005292 0.000000
# 4 0.000000 0.000000 0.000000 0.079136 0.000000 0.022159
# 5 -0.000283 -0.002380 0.005292 0.000000 0.034289 0.000000
# 6 0.000000 0.000000 0.000000 0.022159 0.000000 -0.010705
#
#
# Mechanical properties :
#
#
# Convention : Reuss Voigt Hill
#
# Bulk Modulus (GPa) = 49.57552 62.26205 55.91878
# Shear Modulus (GPa) = 35.18192 22.24841 28.71516
#
# Velocity S-wave (km/s) = 3.69173 2.93576 3.33523
# Velocity P-wave (km/s) = 6.11364 5.96748 6.04100
#
# Compressibility (1/GPa) = 0.02017125
#
# Stress axis : x y z
#
# Youngs Moduli (GPa) = 145.39961 209.17115 67.72895
#
# Poissons Ratio (x) = 0.13291 0.06925
# Poissons Ratio (y) = 0.09239 0.09943
# Poissons Ratio (z) = 0.14866 0.30708
#
# Static dielectric constant tensor:
#      x y z
#    x 1.959980 0.000000 0.059740 
#    y 0.000000 2.190800 0.000000 
#    z 0.059740 0.000000 2.097220 
# 
# From -- ./inp_files/31754.got.cif
#   From: 2010.05.17/outbox.cif.g08.bks.cpg/sg10_16_cif.got.tgz:31754.got - 2010.06.03 11:33:40.
