data_PCOD9148488
_publ_section_title
;
Structure prediction by ZEFSAII (Michael W. Deem and Ramdas Pophale) SiO2 
 PCOD9148488
Probable space group: P 2/M
;
_chemical_formula_sum "Si O2"
_cell_formula_units_Z 32
_cell_length_a 30.662542
_cell_length_b 15.724318
_cell_length_c 8.835408
_cell_angle_alpha 90.000000
_cell_angle_beta 30.180120
_cell_angle_gamma 90.000000
_cell_volume 2141.572489
_symmetry_space_group_name_H-M "P 2/M"
_symmetry_group_IT_number 10
_symmetry_cell_setting 'monoclinic'
loop_
_space_group_symop_operation_xyz
x,y,z
-x,y,-z
-x,-y,-z
x,-y,z
loop_
_atom_site_type_symbol
_atom_site_label
_atom_site_fract_x
_atom_site_fract_y
_atom_site_fract_z
Si Si1 0.402859 0.093292 0.722881
Si Si2 0.272283 0.600839 0.112948
Si Si3 0.402859 0.093292 0.359966
Si Si4 0.272283 0.600839 0.753355
Si Si5 0.403438 0.733081 0.220146
Si Si6 0.596562 0.266919 0.140772
Si Si7 0.089514 0.396630 0.807352
Si Si8 0.089514 0.603370 0.155562
O O1 0.500000 0.090362 0.500000
O O2 0.407577 0.103086 0.527268
O O3 0.364569 0.178095 0.911580
O O4 0.363159 0.000000 0.874455
O O5 0.282881 0.500000 0.112446
O O6 0.176058 0.626375 0.456691
O O7 0.280370 0.613432 0.908889
O O8 0.343432 0.656020 0.985778
O O9 0.364569 0.178095 0.401005
O O10 0.363159 0.000000 0.446589
O O11 0.500000 0.090362 0.000000
O O12 0.282881 0.500000 0.690268
O O13 0.343432 0.656021 0.453632
O O14 0.176058 0.626375 0.986961
O O15 0.500000 0.723462 0.000000
O O16 0.409818 0.737187 0.020546
O O17 0.500000 0.276539 0.500000
O O18 0.086564 0.500000 0.816100
O O19 0.095516 0.368978 0.963453
O O20 0.000000 0.367128 0.000000
O O21 0.086564 0.500000 0.164514
O O22 0.000000 0.632872 0.500000
#
# Coordination Sequence:
#
# PCOD9148488 Si02
#       8
#     4   4   4   4   4   4   4   4
#     4   9  16  27  44  64  85 109 139 177 220 263
#     4  10  20  33  47  63  86 117 152 188 223 260
#     4   9  16  27  44  64  85 109 139 177 220 263
#     4  10  20  33  47  63  86 117 152 188 223 260
#     4  11  21  32  46  63  87 118 151 186 221 261
#     4  11  21  32  46  63  87 118 151 186 221 261
#     4   9  16  27  44  65  87 111 141 178 221 265
#     4   9  16  27  44  65  87 111 141 178 221 265
#
# _framework density 14.942291000000001
#
# number of rings (size 3 to 8) (size 9 to 14) (size 15 to 20)
#    0.000    2.250    0.000    6.000    0.000    6.500 
#    0.000    0.000    0.000    0.000    0.000    0.000 
#    0.000    1.000    0.000    3.750    0.000    6.250 
#
# Total GULP energy -178295.899935 kJ/mol
# GULP energy per Si atom -5571.746873 kJ/mol
# Density = 1.490828 g / cm^3
# Si number density = 14.942291 Si / 1000 Ang^3
#
#
#
# Elastic Constant Matrix: (Units=GPa)
#
#
# Indices 1 2 3 4 5 6 
#
# 1 106.9496 51.5725 42.6427 0.0000 10.0339 0.0000
# 2 51.5725 69.2544 44.6113 0.0000 5.1990 0.0000
# 3 42.6427 44.6113 80.8573 0.0000 9.4532 0.0000
# 4 0.0000 0.0000 0.0000 3.9381 0.0000 10.2896
# 5 10.0339 5.1990 9.4532 0.0000 25.8694 0.0000
# 6 0.0000 0.0000 0.0000 10.2896 0.0000 17.7157
#
#
#
# Elastic Compliance Matrix: (Units=1/GPa)
#
#
# Indices 1 2 3 4 5 6 
#
# 1 0.015196 -0.009548 -0.002383 0.000000 -0.003104 0.000000
# 2 -0.009548 0.028400 -0.010864 0.000000 0.001965 0.000000
# 3 -0.002383 -0.010864 0.020114 0.000000 -0.004242 0.000000
# 4 0.000000 0.000000 0.000000 -0.490591 0.000000 0.284946
# 5 -0.003104 0.001965 -0.004242 0.000000 0.041015 0.000000
# 6 0.000000 0.000000 0.000000 0.284946 0.000000 -0.109055
#
#
# Mechanical properties :
#
#
# Convention : Reuss Voigt Hill
#
# Bulk Modulus (GPa) = 55.18570 59.41271 57.29920
# Shear Modulus (GPa) = -11.27923 17.38694 3.05386
#
# Velocity S-wave (km/s) = -2.75044 3.41487 1.43115
# Velocity P-wave (km/s) = 5.18904 7.44286 6.41570
#
# Compressibility (1/GPa) = 0.01812064
#
# Stress axis : x y z
#
# Youngs Moduli (GPa) = 65.80798 35.21143 49.71638
#
# Poissons Ratio (x) = 0.33619 0.11849
# Poissons Ratio (y) = 0.62831 0.54010
# Poissons Ratio (z) = 0.15684 0.38252
#
# Static dielectric constant tensor:
#      x y z
#    x 1.492660 0.000000 0.010480 
#    y 0.000000 1.522340 0.000000 
#    z 0.010480 0.000000 1.478630 
# 
# From -- ./inp_files/38297.got.cif
#   From: 2010.05.17/outbox.cif.g08.bks.cpg/sg10_20_cif.got.tgz:38297.got - 2010.06.03 11:33:40.
