data_PCOD9148933
_publ_section_title
;
Structure prediction by ZEFSAII (Michael W. Deem and Ramdas Pophale) SiO2 
 PCOD9148933
Probable space group: P 2/M
;
_chemical_formula_sum "Si O2"
_cell_formula_units_Z 18
_cell_length_a 5.235448
_cell_length_b 13.260313
_cell_length_c 17.089633
_cell_angle_alpha 90.000000
_cell_angle_beta 125.365514
_cell_angle_gamma 90.000000
_cell_volume 967.501648
_symmetry_space_group_name_H-M "P 2/M"
_symmetry_group_IT_number 10
_symmetry_cell_setting 'monoclinic'
loop_
_space_group_symop_operation_xyz
x,y,z
-x,y,-z
-x,-y,-z
x,-y,z
loop_
_atom_site_type_symbol
_atom_site_label
_atom_site_fract_x
_atom_site_fract_y
_atom_site_fract_z
Si Si1 0.500000 0.274459 0.500000
Si Si2 0.374541 0.117768 0.064209
Si Si3 0.668135 0.806925 0.268982
Si Si4 0.625491 0.114967 0.633891
Si Si5 0.916822 0.384570 0.392180
O O1 0.401058 0.193638 0.548519
O O2 0.749759 0.348535 0.583169
O O3 0.526798 0.186819 0.157675
O O4 0.459010 0.000000 0.096060
O O5 0.500000 0.141098 0.000000
O O6 0.000000 0.125702 0.000000
O O7 0.451023 0.871712 0.288553
O O8 0.687693 0.696587 0.312656
O O9 0.020096 0.852704 0.325311
O O10 0.570869 0.000000 0.601794
O O11 0.836494 0.500000 0.362453
O O12 0.000000 0.375672 0.500000
#
# Coordination Sequence:
#
# PCOD9148933 Si02
#       5
#     2   4   4   4   4
#     4  10  20  34  50  80 110 150 188 226 262 332
#     4  10  20  35  57  81 108 143 181 224 276 332
#     4  11  22  37  56  84 112 147 190 228 275 330
#     4  11  21  33  52  78 116 151 180 221 270 329
#     4  10  20  37  57  79 110 148 192 235 274 322
#
# _framework density 18.604620000000001
#
# number of rings (size 3 to 8) (size 9 to 14) (size 15 to 20)
#    0.000    1.556    2.222    4.000    0.000    1.778 
#    0.000    3.333    0.000    1.333    0.000    0.000 
#    0.000    0.000    0.000    0.000    0.000    0.000 
#
# Total GULP energy -100325.293682 kJ/mol
# GULP energy per Si atom -5573.627427 kJ/mol
# Density = 1.856227 g / cm^3
# Si number density = 18.604620 Si / 1000 Ang^3
#
#
#
# Elastic Constant Matrix: (Units=GPa)
#
#
# Indices 1 2 3 4 5 6 
#
# 1 83.9773 30.3428 19.7022 0.0000 -19.1656 0.0000
# 2 30.3428 148.9317 55.8559 0.0000 -11.8032 0.0000
# 3 19.7022 55.8559 99.9699 0.0000 -23.0782 0.0000
# 4 0.0000 0.0000 0.0000 20.7275 0.0000 -5.2872
# 5 -19.1656 -11.8032 -23.0782 0.0000 28.7709 0.0000
# 6 0.0000 0.0000 0.0000 -5.2872 0.0000 10.7112
#
#
#
# Elastic Compliance Matrix: (Units=1/GPa)
#
#
# Indices 1 2 3 4 5 6 
#
# 1 0.014798 -0.002517 0.000647 0.000000 0.009344 0.000000
# 2 -0.002517 0.008926 -0.004950 0.000000 -0.001985 0.000000
# 3 0.000647 -0.004950 0.015061 0.000000 0.010481 0.000000
# 4 0.000000 0.000000 0.000000 0.055195 0.000000 0.027245
# 5 0.009344 -0.001985 0.010481 0.000000 0.048575 0.000000
# 6 0.000000 0.000000 0.000000 0.027245 0.000000 0.106808
#
#
# Mechanical properties :
#
#
# Convention : Reuss Voigt Hill
#
# Bulk Modulus (GPa) = 39.76797 60.52009 50.14403
# Shear Modulus (GPa) = 18.42408 27.17379 22.79893
#
# Velocity S-wave (km/s) = 3.15031 3.82592 3.50443
# Velocity P-wave (km/s) = 5.88679 7.21922 6.58678
#
# Compressibility (1/GPa) = 0.02514587
#
# Stress axis : x y z
#
# Youngs Moduli (GPa) = 67.57581 112.02873 66.39876
#
# Poissons Ratio (x) = 0.28198 -0.04296
# Poissons Ratio (y) = 0.17009 0.32864
# Poissons Ratio (z) = -0.04372 0.55449
#
# Static dielectric constant tensor:
#      x y z
#    x 1.768570 0.000000 -0.002480 
#    y 0.000000 1.625790 0.000000 
#    z -0.002480 0.000000 1.672620 
# 
# From -- ./inp_files/6557.got.cif
#   From: 2010.05.17/outbox.cif.g08.bks.cpg/sg10_4_cif.got.tgz:6557.got - 2010.06.03 11:33:40.
