data_PCOD9148872
_publ_section_title
;
Structure prediction by ZEFSAII (Michael W. Deem and Ramdas Pophale) SiO2 
 PCOD9148872
Probable space group: P 2/M
;
_chemical_formula_sum "Si O2"
_cell_formula_units_Z 29
_cell_length_a 15.356468
_cell_length_b 8.077608
_cell_length_c 19.915513
_cell_angle_alpha 90.000000
_cell_angle_beta 143.075823
_cell_angle_gamma 90.000000
_cell_volume 1484.105907
_symmetry_space_group_name_H-M "P 2/M"
_symmetry_group_IT_number 10
_symmetry_cell_setting 'monoclinic'
loop_
_space_group_symop_operation_xyz
x,y,z
-x,y,-z
-x,-y,-z
x,-y,z
loop_
_atom_site_type_symbol
_atom_site_label
_atom_site_fract_x
_atom_site_fract_y
_atom_site_fract_z
Si Si1 0.466426 0.697949 0.314537
Si Si2 0.231850 0.305311 0.436332
Si Si3 0.482984 0.699146 0.175323
Si Si4 0.363093 0.799703 0.961119
Si Si5 0.000000 0.500000 0.500000
Si Si6 0.922004 0.810049 0.287034
Si Si7 0.809764 0.813463 0.370714
Si Si8 0.349160 0.803592 0.375599
O O1 0.477198 0.500000 0.319300
O O2 0.626187 0.764484 0.436602
O O3 0.429150 0.750933 0.216127
O O4 0.350425 0.742169 0.300279
O O5 0.252939 0.500000 0.446345
O O6 0.232602 0.242310 0.359878
O O7 0.077872 0.270883 0.374736
O O8 0.500977 0.500000 0.184901
O O9 0.638904 0.784836 0.263545
O O10 0.387879 0.750111 0.053085
O O11 0.210624 0.736296 0.837778
O O12 0.360910 0.000000 0.954536
O O13 0.500000 0.742609 0.000000
O O14 0.882409 0.649565 0.446619
O O15 0.866561 0.809084 0.329149
O O16 0.941852 0.000000 0.278284
O O17 0.840437 0.000000 0.417393
O O18 0.500000 0.735150 0.500000
O O19 0.358330 0.000000 0.378517
#
# Coordination Sequence:
#
# PCOD9148872 Si02
#       8
#     4   4   4   4   1   4   4   4
#     4   9  20  35  54  80 116 150 185 230 285 343
#     4  10  20  33  56  82 115 151 185 228 286 348
#     4  11  22  37  57  86 115 150 196 245 289 346
#     4  10  20  39  60  77 108 149 197 249 292 343
#     4  12  26  40  56  80 124 154 202 232 298 362
#     4  10  22  38  57  82 110 150 197 243 291 342
#     4  11  24  40  58  81 117 160 197 240 291 345
#     4   9  17  32  53  80 111 145 186 230 273 338
#
# _framework density 19.540384
#
# number of rings (size 3 to 8) (size 9 to 14) (size 15 to 20)
#    0.000    1.931    2.069    1.448    2.897    4.138 
#    0.000    0.000    0.000    0.828    0.000    5.793 
#    0.000    0.000    0.000    0.000    0.000    0.000 
#
# Total GULP energy -161527.400889 kJ/mol
# GULP energy per Si atom -5569.910375 kJ/mol
# Density = 1.949591 g / cm^3
# Si number density = 19.540384 Si / 1000 Ang^3
#
#
#
# Elastic Constant Matrix: (Units=GPa)
#
#
# Indices 1 2 3 4 5 6 
#
# 1 94.4875 5.9134 27.8924 0.0000 -30.6581 0.0000
# 2 5.9134 59.4871 28.2560 0.0000 -5.2331 0.0000
# 3 27.8924 28.2560 70.4186 0.0000 -19.5895 0.0000
# 4 0.0000 0.0000 0.0000 14.9112 0.0000 -2.2110
# 5 -30.6581 -5.2331 -19.5895 0.0000 26.1771 0.0000
# 6 0.0000 0.0000 0.0000 -2.2110 0.0000 17.6590
#
#
#
# Elastic Compliance Matrix: (Units=1/GPa)
#
#
# Indices 1 2 3 4 5 6 
#
# 1 0.017234 0.000856 -0.001904 0.000000 0.018931 0.000000
# 2 0.000856 0.020956 -0.009224 0.000000 -0.001710 0.000000
# 3 -0.001904 -0.009224 0.022130 0.000000 0.012487 0.000000
# 4 0.000000 0.000000 0.000000 0.068332 0.000000 0.008555
# 5 0.018931 -0.001710 0.012487 0.000000 0.069376 0.000000
# 6 0.000000 0.000000 0.000000 0.008555 0.000000 0.057700
#
#
# Mechanical properties :
#
#
# Convention : Reuss Voigt Hill
#
# Bulk Modulus (GPa) = 25.13952 38.72408 31.93180
# Shear Modulus (GPa) = 17.26941 22.57153 19.92047
#
# Velocity S-wave (km/s) = 2.97607 3.40240 3.19635
# Velocity P-wave (km/s) = 4.97018 5.94101 5.47714
#
# Compressibility (1/GPa) = 0.03977801
#
# Stress axis : x y z
#
# Youngs Moduli (GPa) = 58.02385 47.71893 45.18804
#
# Poissons Ratio (x) = -0.04087 0.08602
# Poissons Ratio (y) = -0.04969 0.41680
# Poissons Ratio (z) = 0.11046 0.44015
#
# Static dielectric constant tensor:
#      x y z
#    x 1.704610 0.000000 -0.018840 
#    y 0.000000 1.711300 0.000000 
#    z -0.018840 0.000000 1.721100 
# 
# From -- ./inp_files/77839.got.cif
#   From: 2010.05.17/outbox.cif.g08.bks.cpg/sg10_39_cif.got.tgz:77839.got - 2010.06.03 11:33:40.
