data_PCOD9148468
_publ_section_title
;
Structure prediction by ZEFSAII (Michael W. Deem and Ramdas Pophale) SiO2 
 PCOD9148468
Probable space group: P 2/M
;
_chemical_formula_sum "Si O2"
_cell_formula_units_Z 30
_cell_length_a 14.729659
_cell_length_b 7.314286
_cell_length_c 22.707567
_cell_angle_alpha 90.000000
_cell_angle_beta 31.377873
_cell_angle_gamma 90.000000
_cell_volume 1273.814237
_symmetry_space_group_name_H-M "P 2/M"
_symmetry_group_IT_number 10
_symmetry_cell_setting 'monoclinic'
loop_
_space_group_symop_operation_xyz
x,y,z
-x,y,-z
-x,-y,-z
x,-y,z
loop_
_atom_site_type_symbol
_atom_site_label
_atom_site_fract_x
_atom_site_fract_y
_atom_site_fract_z
Si Si1 0.433542 0.288378 0.664540
Si Si2 0.296703 0.220937 0.381282
Si Si3 0.124967 0.000000 0.832971
Si Si4 0.363010 0.221404 0.211719
Si Si5 0.270673 0.290809 0.585082
Si Si6 0.009854 0.277926 0.171779
Si Si7 0.360336 0.291856 0.032846
Si Si8 0.003425 0.220309 0.629524
O O1 0.384600 0.500000 0.680305
O O2 0.560924 0.285057 0.650453
O O3 0.555638 0.218076 0.542355
O O4 0.271644 0.159508 0.765530
O O5 0.332934 0.281782 0.295179
O O6 0.108659 0.271614 0.512083
O O7 0.301975 0.000000 0.378192
O O8 0.985614 0.837773 0.889806
O O9 0.195738 0.279159 0.265468
O O10 0.367073 0.000000 0.208997
O O11 0.539067 0.289670 0.084914
O O12 0.310037 0.500000 0.577416
O O13 0.172777 0.214125 0.696347
O O14 0.119952 0.289019 0.618727
O O15 0.013998 0.500000 0.164084
O O16 0.168157 0.219466 0.126927
O O17 0.334542 0.500000 0.067331
O O18 0.500000 0.203839 0.000000
O O19 0.004808 0.000000 0.633107
#
# Coordination Sequence:
#
# PCOD9148468 Si02
#       8
#     4   4   2   4   4   4   4   4
#     4  10  21  37  59  88 117 150 193 238 293 355
#     4   9  17  34  55  82 120 158 189 234 292 346
#     4  12  24  39  63  85 115 156 188 247 296 351
#     4  10  20  32  55  87 117 151 196 240 280 339
#     4   9  19  35  54  80 119 157 190 236 286 343
#     4  10  23  40  58  85 118 153 197 241 286 340
#     4  10  22  41  61  82 116 158 194 234 284 336
#     4   9  17  29  51  83 120 158 192 227 281 346
#
# _framework density 23.551313
#
# number of rings (size 3 to 8) (size 9 to 14) (size 15 to 20)
#    0.000    2.267    0.667    1.600    2.800    5.067 
#    0.000    2.000    0.000    5.600    0.000    2.800 
#    0.000    0.000    0.000    0.000    0.000    0.000 
#
# Total GULP energy -167148.611968 kJ/mol
# GULP energy per Si atom -5571.620399 kJ/mol
# Density = 2.349771 g / cm^3
# Si number density = 23.551313 Si / 1000 Ang^3
#
#
#
# Elastic Constant Matrix: (Units=GPa)
#
#
# Indices 1 2 3 4 5 6 
#
# 1 58.3482 6.7293 25.1023 0.0000 -22.7963 0.0000
# 2 6.7293 130.7265 6.3184 0.0000 -9.9052 0.0000
# 3 25.1023 6.3184 62.1858 0.0000 -10.5473 0.0000
# 4 0.0000 0.0000 0.0000 9.0214 0.0000 -2.3831
# 5 -22.7963 -9.9052 -10.5473 0.0000 46.8372 0.0000
# 6 0.0000 0.0000 0.0000 -2.3831 0.0000 28.8536
#
#
#
# Elastic Compliance Matrix: (Units=1/GPa)
#
#
# Indices 1 2 3 4 5 6 
#
# 1 0.024640 -0.000104 -0.008219 0.000000 0.010120 0.000000
# 2 -0.000104 0.007791 -0.000498 0.000000 0.001485 0.000000
# 3 -0.008219 -0.000498 0.019498 0.000000 0.000285 0.000000
# 4 0.000000 0.000000 0.000000 0.113320 0.000000 0.009359
# 5 0.010120 0.001485 0.000285 0.000000 0.026654 0.000000
# 6 0.000000 0.000000 0.000000 0.009359 0.000000 0.035431
#
#
# Mechanical properties :
#
#
# Convention : Reuss Voigt Hill
#
# Bulk Modulus (GPa) = 29.16594 36.39561 32.78077
# Shear Modulus (GPa) = 19.50034 31.14981 25.32508
#
# Velocity S-wave (km/s) = 2.88061 3.64075 3.28276
# Velocity P-wave (km/s) = 4.84508 5.75854 5.32144
#
# Compressibility (1/GPa) = 0.03428657
#
# Stress axis : x y z
#
# Youngs Moduli (GPa) = 40.58375 128.34502 51.28824
#
# Poissons Ratio (x) = 0.01339 0.42156
# Poissons Ratio (y) = 0.00423 0.02552
# Poissons Ratio (z) = 0.33358 0.06387
#
# Static dielectric constant tensor:
#      x y z
#    x 1.914750 0.000000 0.024560 
#    y 0.000000 1.731670 0.000000 
#    z 0.024560 0.000000 1.896520 
# 
# From -- ./inp_files/89362.got.cif
#   From: 2010.05.17/outbox.cif.g08.bks.cpg/sg10_45_cif.got.tgz:89362.got - 2010.06.03 11:33:40.
