data_PCOD9148668
_publ_section_title
;
Structure prediction by ZEFSAII (Michael W. Deem and Ramdas Pophale) SiO2 
 PCOD9148668
Probable space group: P 2/M
;
_chemical_formula_sum "Si O2"
_cell_formula_units_Z 32
_cell_length_a 34.190910
_cell_length_b 7.494106
_cell_length_c 12.479635
_cell_angle_alpha 90.000000
_cell_angle_beta 25.151694
_cell_angle_gamma 90.000000
_cell_volume 1359.057847
_symmetry_space_group_name_H-M "P 2/M"
_symmetry_group_IT_number 10
_symmetry_cell_setting 'monoclinic'
loop_
_space_group_symop_operation_xyz
x,y,z
-x,y,-z
-x,-y,-z
x,-y,z
loop_
_atom_site_type_symbol
_atom_site_label
_atom_site_fract_x
_atom_site_fract_y
_atom_site_fract_z
Si Si1 0.497164 0.783080 0.180167
Si Si2 0.769184 0.789387 0.798184
Si Si3 0.910463 0.202271 0.282363
Si Si4 0.059492 0.717764 0.200317
Si Si5 0.139254 0.285518 0.218139
Si Si6 0.645250 0.784728 0.630942
Si Si7 0.837013 0.705585 0.255059
Si Si8 0.433172 0.218530 0.762032
O O1 0.400606 0.725067 0.366968
O O2 0.525598 0.721402 0.226814
O O3 0.494678 0.000000 0.189454
O O4 0.575134 0.734807 0.900249
O O5 0.857575 0.713051 0.514339
O O6 0.783037 0.770685 0.891249
O O7 0.770017 0.000000 0.771833
O O8 0.671168 0.719910 0.000942
O O9 0.835371 0.199003 0.372642
O O10 0.936838 0.000000 0.245345
O O11 0.000000 0.282380 0.000000
O O12 0.060682 0.500000 0.195025
O O13 0.132054 0.774488 0.112585
O O14 0.958398 0.772580 0.488253
O O15 0.086010 0.779112 0.016725
O O16 0.139926 0.500000 0.214520
O O17 0.744014 0.715257 0.418202
O O18 0.650413 0.000000 0.616564
O O19 0.855885 0.500000 0.232238
O O20 0.500000 0.271870 0.500000
O O21 0.431190 0.000000 0.768198
#
# Coordination Sequence:
#
# PCOD9148668 Si02
#       8
#     4   4   4   4   4   4   4   4
#     4   8  15  30  50  68  89 124 167 202 240 297
#     4  10  20  33  51  77 105 129 162 211 255 292
#     4  10  21  36  53  74 104 140 172 206 251 298
#     4   8  17  33  51  71  97 132 168 203 242 291
#     4   9  17  34  56  71  92 132 174 202 239 298
#     4   9  17  31  52  73  93 123 163 205 248 296
#     4  11  21  32  49  76 106 131 163 206 251 299
#     4   9  17  29  46  69  98 129 159 197 246 297
#
# _framework density 23.545722999999999
#
# number of rings (size 3 to 8) (size 9 to 14) (size 15 to 20)
#    0.000    2.750    0.000    3.375    0.000    3.750 
#    0.000    5.625    0.000    1.125    0.000    0.000 
#    0.000    0.000    0.000    0.000    0.000    0.000 
#
# Total GULP energy -178703.455644 kJ/mol
# GULP energy per Si atom -5584.482989 kJ/mol
# Density = 2.349213 g / cm^3
# Si number density = 23.545723 Si / 1000 Ang^3
#
#
#
# Elastic Constant Matrix: (Units=GPa)
#
#
# Indices 1 2 3 4 5 6 
#
# 1 168.4809 11.0618 22.1475 0.0000 -7.8995 0.0000
# 2 11.0618 70.6966 10.2160 0.0000 -0.5137 0.0000
# 3 22.1475 10.2160 49.7224 0.0000 -10.5763 0.0000
# 4 0.0000 0.0000 0.0000 3.4203 0.0000 -7.7929
# 5 -7.8995 -0.5137 -10.5763 0.0000 37.1805 0.0000
# 6 0.0000 0.0000 0.0000 -7.7929 0.0000 18.0160
#
#
#
# Elastic Compliance Matrix: (Units=1/GPa)
#
#
# Indices 1 2 3 4 5 6 
#
# 1 0.006342 -0.000617 -0.002569 0.000000 0.000608 0.000000
# 2 -0.000617 0.014655 -0.002896 0.000000 -0.000752 0.000000
# 3 -0.002569 -0.002896 0.023126 0.000000 0.005992 0.000000
# 4 0.000000 0.000000 0.000000 20.235168 0.000000 8.752820
# 5 0.000608 -0.000752 0.005992 0.000000 0.028719 0.000000
# 6 0.000000 0.000000 0.000000 8.752820 0.000000 3.841581
#
#
# Mechanical properties :
#
#
# Convention : Reuss Voigt Hill
#
# Bulk Modulus (GPa) = 31.29052 41.75005 36.52029
# Shear Modulus (GPa) = 0.20685 28.08834 14.14759
#
# Velocity S-wave (km/s) = 0.29672 3.45762 2.45390
# Velocity P-wave (km/s) = 3.66545 5.80605 4.85519
#
# Compressibility (1/GPa) = 0.03195856
#
# Stress axis : x y z
#
# Youngs Moduli (GPa) = 157.67698 68.23840 43.24215
#
# Poissons Ratio (x) = 0.04208 0.11108
# Poissons Ratio (y) = 0.09724 0.12524
# Poissons Ratio (z) = 0.40504 0.19764
#
# Static dielectric constant tensor:
#      x y z
#    x 1.891230 0.000000 -0.027360 
#    y 0.000000 1.881670 0.000000 
#    z -0.027360 0.000000 1.895130 
# 
# From -- ./inp_files/58138.got.cif
#   From: 2010.05.17/outbox.cif.g08.bks.cpg/sg10_30_cif.got.tgz:58138.got - 2010.06.03 11:33:40.
