data_PCOD9148108
_publ_section_title
;
Structure prediction by ZEFSAII (Michael W. Deem and Ramdas Pophale) SiO2 
 PCOD9148108
Probable space group: P 2/M
;
_chemical_formula_sum "Si O2"
_cell_formula_units_Z 21
_cell_length_a 12.625364
_cell_length_b 12.551077
_cell_length_c 14.130132
_cell_angle_alpha 90.000000
_cell_angle_beta 156.154561
_cell_angle_gamma 90.000000
_cell_volume 905.197782
_symmetry_space_group_name_H-M "P 2/M"
_symmetry_group_IT_number 10
_symmetry_cell_setting 'monoclinic'
loop_
_space_group_symop_operation_xyz
x,y,z
-x,y,-z
-x,-y,-z
x,-y,z
loop_
_atom_site_type_symbol
_atom_site_label
_atom_site_fract_x
_atom_site_fract_y
_atom_site_fract_z
Si Si1 0.284228 0.233499 0.208711
Si Si2 0.500000 0.500000 0.000000
Si Si3 0.670346 0.000000 0.760265
Si Si4 0.279193 0.691083 0.706569
Si Si5 0.040492 0.000000 0.253979
Si Si6 0.212750 0.214506 0.929978
Si Si7 0.249834 0.374893 0.464863
O O1 0.535546 0.310188 0.422457
O O2 0.287589 0.114958 0.256727
O O3 0.290643 0.206468 0.103115
O O4 0.000000 0.282877 0.000000
O O5 0.309014 0.593088 0.801557
O O6 0.355988 0.000000 0.517804
O O7 0.873659 0.000000 0.016763
O O8 0.304721 0.642298 0.621335
O O9 0.000000 0.742403 0.500000
O O10 0.524643 0.769402 0.913384
O O11 0.948465 0.109626 0.227063
O O12 0.029631 0.318616 0.776561
O O13 0.248480 0.500000 0.441673
#
# Coordination Sequence:
#
# PCOD9148108 Si02
#       7
#     4   1   2   4   2   4   4
#     4  10  22  40  62  93 129 173 220 271 323 383
#     4  12  22  40  64  96 126 156 210 270 328 380
#     4  10  19  40  66 100 127 165 230 288 331 379
#     4  11  24  39  63  96 127 161 211 272 325 389
#     4  10  20  42  68  95 130 179 218 272 335 392
#     4  10  23  40  64  92 130 171 214 270 324 389
#     4  11  23  40  61  91 131 170 212 261 326 394
#
# _framework density 23.199351
#
# number of rings (size 3 to 8) (size 9 to 14) (size 15 to 20)
#    0.000    1.524    2.857    1.714    4.000    1.905 
#    0.000    3.333    0.000    4.000    0.000    0.000 
#    0.000    0.000    0.000    0.000    0.000    0.000 
#
# Total GULP energy -116980.459253 kJ/mol
# GULP energy per Si atom -5570.498060 kJ/mol
# Density = 2.314655 g / cm^3
# Si number density = 23.199351 Si / 1000 Ang^3
#
#
#
# Elastic Constant Matrix: (Units=GPa)
#
#
# Indices 1 2 3 4 5 6 
#
# 1 68.2090 23.0817 37.3373 0.0000 26.1144 0.0000
# 2 23.0817 139.0102 58.6810 0.0000 32.2036 0.0000
# 3 37.3373 58.6810 175.7519 0.0000 55.4885 0.0000
# 4 0.0000 0.0000 0.0000 9.0553 0.0000 -10.5816
# 5 26.1144 32.2036 55.4885 0.0000 60.4135 0.0000
# 6 0.0000 0.0000 0.0000 -10.5816 0.0000 -3.1315
#
#
#
# Elastic Compliance Matrix: (Units=1/GPa)
#
#
# Indices 1 2 3 4 5 6 
#
# 1 0.018124 -0.000953 -0.001717 0.000000 -0.005750 0.000000
# 2 -0.000953 0.008741 -0.001937 0.000000 -0.002469 0.000000
# 3 -0.001717 -0.001937 0.008649 0.000000 -0.006169 0.000000
# 4 0.000000 0.000000 0.000000 0.022316 0.000000 -0.075407
# 5 -0.005750 -0.002469 -0.006169 0.000000 0.026020 0.000000
# 6 0.000000 0.000000 0.000000 -0.075407 0.000000 -0.064530
#
#
# Mechanical properties :
#
#
# Convention : Reuss Voigt Hill
#
# Bulk Modulus (GPa) = 38.01994 69.01900 53.51947
# Shear Modulus (GPa) = 134.04284 30.85887 82.45086
#
# Velocity S-wave (km/s) = 7.60948 3.65109 5.96802
# Velocity P-wave (km/s) = 9.67623 6.89848 8.40293
#
# Compressibility (1/GPa) = 0.02630199
#
# Stress axis : x y z
#
# Youngs Moduli (GPa) = 55.17426 114.39765 115.61952
#
# Poissons Ratio (x) = 0.10898 0.19853
# Poissons Ratio (y) = 0.05256 0.22393
# Poissons Ratio (z) = 0.09474 0.22156
#
# Static dielectric constant tensor:
#      x y z
#    x 1.950770 0.000000 -0.056520 
#    y 0.000000 1.856080 0.000000 
#    z -0.056520 0.000000 1.938090 
# 
# From -- ./inp_files/78168.got.cif
#   From: 2010.05.17/outbox.cif.g08.bks.cpg/sg10_40_cif.got.tgz:78168.got - 2010.06.03 11:33:40.
