data_PCOD9148624
_publ_section_title
;
Structure prediction by ZEFSAII (Michael W. Deem and Ramdas Pophale) SiO2 
 PCOD9148624
Probable space group: P 2/M
;
_chemical_formula_sum "Si O2"
_cell_formula_units_Z 30
_cell_length_a 5.319579
_cell_length_b 16.254808
_cell_length_c 16.560946
_cell_angle_alpha 90.000000
_cell_angle_beta 84.600116
_cell_angle_gamma 90.000000
_cell_volume 1425.649044
_symmetry_space_group_name_H-M "P 2/M"
_symmetry_group_IT_number 10
_symmetry_cell_setting 'monoclinic'
loop_
_space_group_symop_operation_xyz
x,y,z
-x,y,-z
-x,-y,-z
x,-y,z
loop_
_atom_site_type_symbol
_atom_site_label
_atom_site_fract_x
_atom_site_fract_y
_atom_site_fract_z
Si Si1 0.000000 0.343949 0.000000
Si Si2 0.337209 0.849395 0.720401
Si Si3 0.797591 0.907088 0.800029
Si Si4 0.779687 0.265119 0.855991
Si Si5 0.395902 0.411129 0.877875
Si Si6 0.227779 0.904412 0.550022
Si Si7 0.764822 0.400479 0.448666
Si Si8 0.186814 0.672065 0.732235
O O1 0.964328 0.284231 0.924751
O O2 0.217102 0.403424 0.960569
O O3 0.599572 0.895732 0.731382
O O4 0.257491 0.853949 0.630098
O O5 0.361310 0.752875 0.739559
O O6 0.093354 0.889349 0.772266
O O7 0.712201 0.830541 0.857777
O O8 0.771621 0.000000 0.830801
O O9 0.570439 0.332309 0.878392
O O10 0.917619 0.290908 0.768402
O O11 0.524158 0.500000 0.871641
O O12 0.252357 0.397151 0.796582
O O13 0.500000 0.902564 0.500000
O O14 0.000000 0.875748 0.500000
O O15 0.171286 0.000000 0.573358
O O16 0.500000 0.377345 0.500000
O O17 0.764161 0.500000 0.438992
O O18 0.795361 0.360483 0.359207
O O19 0.000000 0.379090 0.500000
#
# Coordination Sequence:
#
# PCOD9148624 Si02
#       8
#     2   4   4   4   4   4   4   4
#     4  10  23  42  63  96 138 166 205 262 327 396
#     4  11  22  38  61  89 122 164 215 271 323 388
#     4  11  22  40  65  92 125 168 217 265 319 379
#     4  10  23  41  64  97 130 170 213 272 322 395
#     4  11  22  40  67  96 131 171 211 262 327 395
#     4  10  20  33  50  79 116 154 201 258 322 385
#     4  10  23  40  60  88 127 175 226 277 329 386
#     4  10  23  40  61  91 130 166 224 273 328 381
#
# _framework density 21.043047999999999
#
# number of rings (size 3 to 8) (size 9 to 14) (size 15 to 20)
#    0.000    1.600    1.333    3.000    1.867    5.867 
#    0.000    0.333    0.000    1.600    0.000    0.000 
#    0.000    0.000    0.000    0.000    0.000    0.000 
#
# Total GULP energy -167341.694896 kJ/mol
# GULP energy per Si atom -5578.056497 kJ/mol
# Density = 2.099515 g / cm^3
# Si number density = 21.043048 Si / 1000 Ang^3
#
#
#
# Elastic Constant Matrix: (Units=GPa)
#
#
# Indices 1 2 3 4 5 6 
#
# 1 86.6446 22.9665 22.6523 0.0000 -0.6928 0.0000
# 2 22.9665 136.4724 39.7941 0.0000 -0.9809 0.0000
# 3 22.6523 39.7941 95.8113 0.0000 -9.0761 0.0000
# 4 0.0000 0.0000 0.0000 52.8440 0.0000 -56.6928
# 5 -0.6928 -0.9809 -9.0761 0.0000 26.3852 0.0000
# 6 0.0000 0.0000 0.0000 -56.6928 0.0000 68.8778
#
#
#
# Elastic Compliance Matrix: (Units=1/GPa)
#
#
# Indices 1 2 3 4 5 6 
#
# 1 0.012546 -0.001405 -0.002436 0.000000 -0.000561 0.000000
# 2 -0.001405 0.008516 -0.003285 0.000000 -0.000850 0.000000
# 3 -0.002436 -0.003285 0.012776 0.000000 0.004209 0.000000
# 4 0.000000 0.000000 0.000000 0.161797 0.000000 0.133174
# 5 -0.000561 -0.000850 0.004209 0.000000 0.039301 0.000000
# 6 0.000000 0.000000 0.000000 0.133174 0.000000 0.124133
#
#
# Mechanical properties :
#
#
# Convention : Reuss Voigt Hill
#
# Bulk Modulus (GPa) = 51.05716 54.41710 52.73713
# Shear Modulus (GPa) = 13.16306 45.18910 29.17608
#
# Velocity S-wave (km/s) = 2.50377 4.63910 3.72761
# Velocity P-wave (km/s) = 5.71615 7.38992 6.60626
#
# Compressibility (1/GPa) = 0.01958589
#
# Stress axis : x y z
#
# Youngs Moduli (GPa) = 79.70556 117.42875 78.27023
#
# Poissons Ratio (x) = 0.16500 0.19065
# Poissons Ratio (y) = 0.11200 0.25714
# Poissons Ratio (z) = 0.19414 0.38579
#
# Static dielectric constant tensor:
#      x y z
#    x 1.845760 0.000000 0.031870 
#    y 0.000000 1.794850 0.000000 
#    z 0.031870 0.000000 1.736860 
# 
# From -- ./inp_files/73512.got.cif
#   From: 2010.05.17/outbox.cif.g08.bks.cpg/sg10_37_cif.got.tgz:73512.got - 2010.06.03 11:33:40.
