data_PCOD9148481
_publ_section_title
;
Structure prediction by ZEFSAII (Michael W. Deem and Ramdas Pophale) SiO2 
 PCOD9148481
Probable space group: P 2/M
;
_chemical_formula_sum "Si O2"
_cell_formula_units_Z 24
_cell_length_a 12.116672
_cell_length_b 9.444941
_cell_length_c 20.874873
_cell_angle_alpha 90.000000
_cell_angle_beta 140.513923
_cell_angle_gamma 90.000000
_cell_volume 1519.108917
_symmetry_space_group_name_H-M "P 2/M"
_symmetry_group_IT_number 10
_symmetry_cell_setting 'monoclinic'
loop_
_space_group_symop_operation_xyz
x,y,z
-x,y,-z
-x,-y,-z
x,-y,z
loop_
_atom_site_type_symbol
_atom_site_label
_atom_site_fract_x
_atom_site_fract_y
_atom_site_fract_z
Si Si1 0.044188 0.835658 0.273909
Si Si2 0.390611 0.331516 0.634593
Si Si3 0.664090 0.167154 0.267062
Si Si4 0.654312 0.172641 0.115710
Si Si5 0.073302 0.839646 0.440521
Si Si6 0.621854 0.330207 0.614984
O O1 0.078228 0.833040 0.365652
O O2 0.193162 0.744783 0.307876
O O3 0.845845 0.783473 0.177818
O O4 0.054020 0.000000 0.257797
O O5 0.386032 0.500000 0.640141
O O6 0.427133 0.255215 0.718199
O O7 0.204964 0.272954 0.527710
O O8 0.524679 0.296006 0.637720
O O9 0.626724 0.214694 0.177423
O O10 0.872796 0.181869 0.369064
O O11 0.624169 0.000000 0.254316
O O12 0.659344 0.000000 0.118839
O O13 0.500000 0.217803 0.000000
O O14 0.124355 0.000000 0.482987
O O15 0.500000 0.287400 0.500000
O O16 0.642572 0.500000 0.620427
#
# Coordination Sequence:
#
# PCOD9148481 Si02
#       6
#     4   4   4   4   4   4
#     4   9  17  29  49  75  95 119 159 198 232 276
#     4  11  21  30  43  64  93 130 164 191 225 273
#     4   9  18  31  47  69  95 122 152 189 237 284
#     4   8  15  31  55  78  97 117 147 195 249 290
#     4   9  17  29  44  65  95 125 153 189 231 276
#     4  10  20  33  45  62  95 135 167 194 229 271
#
# _framework density 15.798735000000001
#
# number of rings (size 3 to 8) (size 9 to 14) (size 15 to 20)
#    0.000    2.667    1.667    3.000    0.000    4.333 
#    0.000    2.500    0.000    3.000    0.000    7.000 
#    0.000    0.000    0.000    0.000    0.000    0.000 
#
# Total GULP energy -133766.106326 kJ/mol
# GULP energy per Si atom -5573.587764 kJ/mol
# Density = 1.576278 g / cm^3
# Si number density = 15.798735 Si / 1000 Ang^3
#
#
#
# Elastic Constant Matrix: (Units=GPa)
#
#
# Indices 1 2 3 4 5 6 
#
# 1 134.0006 59.5013 61.3833 0.0000 -7.6884 0.0000
# 2 59.5013 39.0107 33.1187 0.0000 -1.0697 0.0000
# 3 61.3833 33.1187 98.5289 0.0000 1.7119 0.0000
# 4 0.0000 0.0000 0.0000 -19.0549 0.0000 -26.0962
# 5 -7.6884 -1.0697 1.7119 0.0000 8.5560 0.0000
# 6 0.0000 0.0000 0.0000 -26.0962 0.0000 5.4024
#
#
#
# Elastic Compliance Matrix: (Units=1/GPa)
#
#
# Indices 1 2 3 4 5 6 
#
# 1 0.027311 -0.036842 -0.004995 0.000000 0.020935 0.000000
# 2 -0.036842 0.085982 -0.005580 0.000000 -0.021239 0.000000
# 3 -0.004995 -0.005580 0.015280 0.000000 -0.008243 0.000000
# 4 0.000000 0.000000 0.000000 -0.006891 0.000000 -0.033288
# 5 0.020935 -0.021239 -0.008243 0.000000 0.134682 0.000000
# 6 0.000000 0.000000 0.000000 -0.033288 0.000000 0.024306
#
#
# Mechanical properties :
#
#
# Convention : Reuss Voigt Hill
#
# Bulk Modulus (GPa) = 29.63850 64.39408 47.01629
# Shear Modulus (GPa) = 12.92829 6.81649 9.87239
#
# Velocity S-wave (km/s) = 2.86372 2.07941 2.50248
# Velocity P-wave (km/s) = 5.45301 6.82735 6.17851
#
# Compressibility (1/GPa) = 0.03373990
#
# Stress axis : x y z
#
# Youngs Moduli (GPa) = 36.61549 11.63036 65.44605
#
# Poissons Ratio (x) = 0.42848 0.32688
# Poissons Ratio (y) = 1.34898 0.36518
# Poissons Ratio (z) = 0.18288 0.06490
#
# Static dielectric constant tensor:
#      x y z
#    x 1.537210 0.000000 -0.015840 
#    y 0.000000 1.523810 0.000000 
#    z -0.015840 0.000000 1.523130 
# 
# From -- ./inp_files/45127.got.cif
#   From: 2010.05.17/outbox.cif.g08.bks.cpg/sg10_23_cif.got.tgz:45127.got - 2010.06.03 11:33:40.
