data_PCOD9148210
_publ_section_title
;
Structure prediction by ZEFSAII (Michael W. Deem and Ramdas Pophale) SiO2 
 PCOD9148210
Probable space group: P 2/M
;
_chemical_formula_sum "Si O2"
_cell_formula_units_Z 28
_cell_length_a 14.192115
_cell_length_b 15.897052
_cell_length_c 8.654453
_cell_angle_alpha 90.000000
_cell_angle_beta 133.768697
_cell_angle_gamma 90.000000
_cell_volume 1410.014891
_symmetry_space_group_name_H-M "P 2/M"
_symmetry_group_IT_number 10
_symmetry_cell_setting 'monoclinic'
loop_
_space_group_symop_operation_xyz
x,y,z
-x,y,-z
-x,-y,-z
x,-y,z
loop_
_atom_site_type_symbol
_atom_site_label
_atom_site_fract_x
_atom_site_fract_y
_atom_site_fract_z
Si Si1 0.213810 0.599635 0.557292
Si Si2 0.559349 0.400124 0.407838
Si Si3 0.829594 0.000000 0.154709
Si Si4 0.246768 0.184150 0.059303
Si Si5 0.007892 0.720045 0.329978
Si Si6 0.142328 0.000000 0.457576
Si Si7 0.859920 0.840550 0.749575
Si Si8 0.608612 0.703166 0.008120
O O1 0.230073 0.500000 0.607336
O O2 0.296182 0.619679 0.494256
O O3 0.061700 0.625596 0.377854
O O4 0.276010 0.659346 0.761760
O O5 0.500000 0.364302 0.500000
O O6 0.558389 0.500000 0.421372
O O7 0.461985 0.371595 0.163513
O O8 0.781096 0.088337 0.027530
O O9 0.801506 0.000000 0.306151
O O10 0.985500 0.000000 0.304291
O O11 0.354317 0.225999 0.073473
O O12 0.127657 0.249588 0.893472
O O13 0.249024 0.180045 0.247003
O O14 0.112486 0.770191 0.346284
O O15 0.000000 0.746001 0.500000
O O16 0.175946 0.920691 0.391657
O O17 0.000000 0.855031 0.000000
O O18 0.500000 0.738739 0.000000
#
# Coordination Sequence:
#
# PCOD9148210 Si02
#       8
#     4   4   2   4   4   2   4   4
#     4  10  21  36  57  81 113 147 186 229 276 332
#     4   9  19  37  59  83 108 140 186 237 281 323
#     4  11  21  32  56  79 114 147 186 223 277 321
#     4  11  22  37  55  84 114 150 181 231 278 335
#     4  11  20  34  53  82 116 146 184 221 278 331
#     4  11  18  31  52  82 110 145 187 221 268 338
#     4  10  20  31  52  77 115 145 181 225 271 328
#     4  10  21  38  60  81 107 144 194 230 276 323
#
# _framework density 19.857945000000001
#
# number of rings (size 3 to 8) (size 9 to 14) (size 15 to 20)
#    0.000    1.714    4.286    1.929    2.000    2.000 
#    0.000    0.357    0.000    3.857    0.000    1.500 
#    0.000    0.000    0.000    0.000    0.000    0.000 
#
# Total GULP energy -155972.313704 kJ/mol
# GULP energy per Si atom -5570.439775 kJ/mol
# Density = 1.981275 g / cm^3
# Si number density = 19.857945 Si / 1000 Ang^3
#
#
#
# Elastic Constant Matrix: (Units=GPa)
#
#
# Indices 1 2 3 4 5 6 
#
# 1 120.3646 37.7236 33.1772 0.0000 -45.6554 0.0000
# 2 37.7236 57.4607 11.5807 0.0000 -10.4269 0.0000
# 3 33.1772 11.5807 28.9220 0.0000 -19.5141 0.0000
# 4 0.0000 0.0000 0.0000 14.5638 0.0000 -13.8546
# 5 -45.6554 -10.4269 -19.5141 0.0000 38.3114 0.0000
# 6 0.0000 0.0000 0.0000 -13.8546 0.0000 26.5446
#
#
#
# Elastic Compliance Matrix: (Units=1/GPa)
#
#
# Indices 1 2 3 4 5 6 
#
# 1 0.019401 -0.008130 -0.007456 0.000000 0.017110 0.000000
# 2 -0.008130 0.022435 -0.003161 0.000000 -0.005192 0.000000
# 3 -0.007456 -0.003161 0.057622 0.000000 0.019604 0.000000
# 4 0.000000 0.000000 0.000000 0.136377 0.000000 0.071180
# 5 0.017110 -0.005192 0.019604 0.000000 0.055064 0.000000
# 6 0.000000 0.000000 0.000000 0.071180 0.000000 0.074824
#
#
# Mechanical properties :
#
#
# Convention : Reuss Voigt Hill
#
# Bulk Modulus (GPa) = 16.13805 41.30114 28.71960
# Shear Modulus (GPa) = 11.79607 24.16836 17.98222
#
# Velocity S-wave (km/s) = 2.43990 3.49243 3.01249
# Velocity P-wave (km/s) = 4.01022 6.09148 5.15694
#
# Compressibility (1/GPa) = 0.06196536
#
# Stress axis : x y z
#
# Youngs Moduli (GPa) = 51.54364 44.57277 17.35453
#
# Poissons Ratio (x) = 0.36236 0.12940
# Poissons Ratio (y) = 0.41903 0.05485
# Poissons Ratio (z) = 0.38432 0.14088
#
# Static dielectric constant tensor:
#      x y z
#    x 1.767240 0.000000 0.005070 
#    y 0.000000 1.720480 0.000000 
#    z 0.005070 0.000000 1.735240 
# 
# From -- ./inp_files/29646.got.cif
#   From: 2010.05.17/outbox.cif.g08.bks.cpg/sg10_15_cif.got.tgz:29646.got - 2010.06.03 11:33:40.
