data_PCOD9148898
_publ_section_title
;
Structure prediction by ZEFSAII (Michael W. Deem and Ramdas Pophale) SiO2 
 PCOD9148898
Probable space group: P 2/M
;
_chemical_formula_sum "Si O2"
_cell_formula_units_Z 14
_cell_length_a 8.739486
_cell_length_b 7.870452
_cell_length_c 18.004170
_cell_angle_alpha 90.000000
_cell_angle_beta 149.523717
_cell_angle_gamma 90.000000
_cell_volume 628.090477
_symmetry_space_group_name_H-M "P 2/M"
_symmetry_group_IT_number 10
_symmetry_cell_setting 'monoclinic'
loop_
_space_group_symop_operation_xyz
x,y,z
-x,y,-z
-x,-y,-z
x,-y,z
loop_
_atom_site_type_symbol
_atom_site_label
_atom_site_fract_x
_atom_site_fract_y
_atom_site_fract_z
Si Si1 0.548356 0.000000 0.405765
Si Si2 0.500000 0.248859 0.000000
Si Si3 0.357457 0.691047 0.659807
Si Si4 0.973962 0.000000 0.271389
Si Si5 0.264751 0.794773 0.051142
O O1 0.518228 0.166914 0.343224
O O2 0.270206 0.000000 0.344803
O O3 0.872913 0.000000 0.583403
O O4 0.704861 0.304481 0.014319
O O5 0.242623 0.153168 0.844164
O O6 0.471051 0.500000 0.693603
O O7 0.444406 0.749600 0.778271
O O8 0.000000 0.689636 0.500000
O O9 0.242313 0.000000 0.026527
O O10 0.000000 0.753166 0.000000
#
# Coordination Sequence:
#
# PCOD9148898 Si02
#       5
#     2   2   4   2   4
#     4  11  21  39  63  88 123 167 207 264 313 365
#     4  11  20  36  59 100 127 153 214 265 297 384
#     4  11  24  39  61  93 124 165 216 256 311 379
#     4  10  20  33  60  95 117 164 216 243 323 381
#     4  11  21  37  65  94 127 164 209 258 316 372
#
# _framework density 22.289784999999998
#
# number of rings (size 3 to 8) (size 9 to 14) (size 15 to 20)
#    0.000    1.143    4.286    3.857    0.000    0.571 
#    0.000    3.571    0.000   10.286    0.000    2.000 
#    0.000    0.000    0.000    0.000    0.000    0.000 
#
# Total GULP energy -77990.160228 kJ/mol
# GULP energy per Si atom -5570.725731 kJ/mol
# Density = 2.223905 g / cm^3
# Si number density = 22.289785 Si / 1000 Ang^3
#
#
#
# Elastic Constant Matrix: (Units=GPa)
#
#
# Indices 1 2 3 4 5 6 
#
# 1 172.8035 48.9999 34.4150 0.0000 -21.3784 0.0000
# 2 48.9999 113.5216 9.8359 0.0000 -6.2253 0.0000
# 3 34.4150 9.8359 116.6829 0.0000 -20.5386 0.0000
# 4 0.0000 0.0000 0.0000 -12.7006 0.0000 -13.3319
# 5 -21.3784 -6.2253 -20.5386 0.0000 48.1081 0.0000
# 6 0.0000 0.0000 0.0000 -13.3319 0.0000 -18.0193
#
#
#
# Elastic Compliance Matrix: (Units=1/GPa)
#
#
# Indices 1 2 3 4 5 6 
#
# 1 0.007159 -0.002841 -0.001488 0.000000 0.002178 0.000000
# 2 -0.002841 0.010037 -0.000002 0.000000 0.000035 0.000000
# 3 -0.001488 -0.000002 0.009616 0.000000 0.003443 0.000000
# 4 0.000000 0.000000 0.000000 -0.352517 0.000000 0.260816
# 5 0.002178 0.000035 0.003443 0.000000 0.023229 0.000000
# 6 0.000000 0.000000 0.000000 0.260816 0.000000 -0.248466
#
#
# Mechanical properties :
#
#
# Convention : Reuss Voigt Hill
#
# Bulk Modulus (GPa) = 55.10249 65.50108 60.30178
# Shear Modulus (GPa) = -9.32437 24.12813 7.40188
#
# Velocity S-wave (km/s) = -2.04752 3.29367 1.82427
# Velocity P-wave (km/s) = 4.38005 6.62678 5.61690
#
# Compressibility (1/GPa) = 0.01814800
#
# Stress axis : x y z
#
# Youngs Moduli (GPa) = 139.69348 99.62671 103.99852
#
# Poissons Ratio (x) = 0.28309 0.15480
# Poissons Ratio (y) = 0.39693 0.00019
# Poissons Ratio (z) = 0.20793 0.00018
#
# Static dielectric constant tensor:
#      x y z
#    x 1.931650 0.000000 0.052120 
#    y 0.000000 1.844630 0.000000 
#    z 0.052120 0.000000 1.852990 
# 
# From -- ./inp_files/74523.got.cif
#   From: 2010.05.17/outbox.cif.g08.bks.cpg/sg10_38_cif.got.tgz:74523.got - 2010.06.03 11:33:40.
