data_PCOD9148051
_publ_section_title
;
Structure prediction by ZEFSAII (Michael W. Deem and Ramdas Pophale) SiO2 
 PCOD9148051
Probable space group: P 2/M
;
_chemical_formula_sum "Si O2"
_cell_formula_units_Z 28
_cell_length_a 10.530728
_cell_length_b 8.716676
_cell_length_c 30.933464
_cell_angle_alpha 90.000000
_cell_angle_beta 146.505917
_cell_angle_gamma 90.000000
_cell_volume 1566.966037
_symmetry_space_group_name_H-M "P 2/M"
_symmetry_group_IT_number 10
_symmetry_cell_setting 'monoclinic'
loop_
_space_group_symop_operation_xyz
x,y,z
-x,y,-z
-x,-y,-z
x,-y,z
loop_
_atom_site_type_symbol
_atom_site_label
_atom_site_fract_x
_atom_site_fract_y
_atom_site_fract_z
Si Si1 0.584640 0.683925 0.241721
Si Si2 0.679269 0.313318 0.170879
Si Si3 0.141303 0.817445 0.163763
Si Si4 0.099868 0.184594 0.596591
Si Si5 0.346726 0.315166 0.998907
Si Si6 0.839738 0.316183 0.734087
Si Si7 0.640736 0.184355 0.419310
O O1 0.567832 0.500000 0.237443
O O2 0.622616 0.736569 0.203260
O O3 0.353581 0.752925 0.196527
O O4 0.794342 0.736034 0.331747
O O5 0.679848 0.500000 0.170986
O O6 0.931558 0.264988 0.226323
O O7 0.489585 0.266764 0.081697
O O8 0.155470 0.752187 0.216387
O O9 0.899333 0.763493 0.075267
O O10 0.155789 0.000000 0.169580
O O11 0.839537 0.227570 0.509775
O O12 0.256994 0.222112 0.599240
O O13 0.108315 0.000000 0.603996
O O14 0.314418 0.500000 0.990888
O O15 0.500000 0.281235 0.000000
O O16 0.844100 0.500000 0.738684
O O17 0.604283 0.262747 0.644972
O O18 0.614845 0.000000 0.413396
#
# Coordination Sequence:
#
# PCOD9148051 Si02
#       7
#     4   4   4   4   4   4   4
#     4  11  22  38  59  84 114 151 191 230 280 337
#     4   9  21  39  59  84 115 147 184 236 289 332
#     4  12  24  37  56  85 119 149 186 234 282 334
#     4   9  18  34  55  81 117 152 183 228 283 333
#     4  10  19  38  64  85 110 146 191 237 281 329
#     4  11  20  36  60  87 112 146 193 236 279 333
#     4   9  18  33  55  84 116 148 184 232 283 329
#
# _framework density 17.868925000000001
#
# number of rings (size 3 to 8) (size 9 to 14) (size 15 to 20)
#    0.000    1.857    2.857    3.000    0.000    1.429 
#    0.000    9.286    0.000    4.286    0.000    0.000 
#    0.000    0.000    0.000    0.000    0.000    0.000 
#
# Total GULP energy -156360.653748 kJ/mol
# GULP energy per Si atom -5584.309062 kJ/mol
# Density = 1.782825 g / cm^3
# Si number density = 17.868925 Si / 1000 Ang^3
#
#
#
# Elastic Constant Matrix: (Units=GPa)
#
#
# Indices 1 2 3 4 5 6 
#
# 1 138.3813 41.7850 88.4577 0.0000 -2.5338 0.0000
# 2 41.7850 48.3185 48.5608 0.0000 0.7991 0.0000
# 3 88.4577 48.5608 164.7285 0.0000 4.2433 0.0000
# 4 0.0000 0.0000 0.0000 47.0747 0.0000 11.9824
# 5 -2.5338 0.7991 4.2433 0.0000 30.8170 0.0000
# 6 0.0000 0.0000 0.0000 11.9824 0.0000 -3.5161
#
#
#
# Elastic Compliance Matrix: (Units=1/GPa)
#
#
# Indices 1 2 3 4 5 6 
#
# 1 0.012058 -0.005546 -0.004887 0.000000 0.001808 0.000000
# 2 -0.005546 0.031966 -0.006435 0.000000 -0.000399 0.000000
# 3 -0.004887 -0.006435 0.010635 0.000000 -0.001699 0.000000
# 4 0.000000 0.000000 0.000000 0.011375 0.000000 0.038766
# 5 0.001808 -0.000399 -0.001699 0.000000 0.032843 0.000000
# 6 0.000000 0.000000 0.000000 0.038766 0.000000 -0.152297
#
#
# Mechanical properties :
#
#
# Convention : Reuss Voigt Hill
#
# Bulk Modulus (GPa) = 47.79205 78.78168 63.28687
# Shear Modulus (GPa) = -393.38683 26.38344 -183.50169
#
# Velocity S-wave (km/s) = -14.85360 3.84669 -10.14476
# Velocity P-wave (km/s) = 16.35140 7.99461 10.08600
#
# Compressibility (1/GPa) = 0.02092398
#
# Stress axis : x y z
#
# Youngs Moduli (GPa) = 82.93327 31.28327 94.02645
#
# Poissons Ratio (x) = 0.17351 0.45946
# Poissons Ratio (y) = 0.45997 0.60504
# Poissons Ratio (z) = 0.40526 0.20130
#
# Static dielectric constant tensor:
#      x y z
#    x 1.586700 0.000000 0.001020 
#    y 0.000000 1.601610 0.000000 
#    z 0.001020 0.000000 1.607900 
# 
# From -- ./inp_files/92103.got.cif
#   From: 2010.05.17/outbox.cif.g08.bks.cpg/sg10_47_cif.got.tgz:92103.got - 2010.06.03 11:33:40.
