data_PCOD9148727
_publ_section_title
;
Structure prediction by ZEFSAII (Michael W. Deem and Ramdas Pophale) SiO2 
 PCOD9148727
Probable space group: P 2/M
;
_chemical_formula_sum "Si O2"
_cell_formula_units_Z 24
_cell_length_a 5.189650
_cell_length_b 18.229098
_cell_length_c 14.359908
_cell_angle_alpha 90.000000
_cell_angle_beta 121.737486
_cell_angle_gamma 90.000000
_cell_volume 1155.347003
_symmetry_space_group_name_H-M "P 2/M"
_symmetry_group_IT_number 10
_symmetry_cell_setting 'monoclinic'
loop_
_space_group_symop_operation_xyz
x,y,z
-x,y,-z
-x,-y,-z
x,-y,z
loop_
_atom_site_type_symbol
_atom_site_label
_atom_site_fract_x
_atom_site_fract_y
_atom_site_fract_z
Si Si1 0.708108 0.697723 0.784242
Si Si2 0.827860 0.714077 0.595426
Si Si3 0.699401 0.824938 0.297343
Si Si4 0.699519 0.912976 0.632667
Si Si5 0.840147 0.419239 0.102440
Si Si6 0.184123 0.582264 0.676872
O O1 0.839022 0.724036 0.709841
O O2 0.535464 0.767270 0.797358
O O3 0.470924 0.633506 0.712187
O O4 0.961361 0.651345 0.886424
O O5 0.500000 0.735473 0.500000
O O6 0.096568 0.764848 0.610148
O O7 0.899740 0.629511 0.588114
O O8 0.497056 0.876125 0.323622
O O9 0.966465 0.875852 0.306039
O O10 0.500000 0.902586 0.500000
O O11 0.731800 0.000000 0.651784
O O12 0.966397 0.500000 0.098678
O O13 0.832221 0.419912 0.213484
O O14 0.500000 0.413804 0.000000
O O15 0.206854 0.500000 0.645790
#
# Coordination Sequence:
#
# PCOD9148727 Si02
#       6
#     4   4   4   4   4   4
#     4  10  20  33  52  77 109 146 192 235 279 338
#     4  10  21  34  51  74 103 151 197 234 274 325
#     4  11  21  35  54  76 111 149 185 224 276 329
#     4  11  23  36  55  83 113 146 187 230 276 333
#     4   9  18  34  55  80 112 148 187 236 294 347
#     4   9  19  33  50  74 106 145 188 239 285 330
#
# _framework density 20.772978999999999
#
# number of rings (size 3 to 8) (size 9 to 14) (size 15 to 20)
#    0.000    2.000    1.667    2.000    2.333    5.000 
#    0.000    3.333    0.000    0.000    0.000    0.000 
#    0.000    4.000    0.000    0.000    0.000    0.000 
#
# Total GULP energy -133834.218559 kJ/mol
# GULP energy per Si atom -5576.425773 kJ/mol
# Density = 2.072570 g / cm^3
# Si number density = 20.772979 Si / 1000 Ang^3
#
#
#
# Elastic Constant Matrix: (Units=GPa)
#
#
# Indices 1 2 3 4 5 6 
#
# 1 116.1420 63.5906 19.0819 0.0000 16.1301 0.0000
# 2 63.5906 198.9433 33.2774 0.0000 27.2954 0.0000
# 3 19.0819 33.2774 52.9615 0.0000 13.5420 0.0000
# 4 0.0000 0.0000 0.0000 25.4512 0.0000 25.0054
# 5 16.1301 27.2954 13.5420 0.0000 27.4527 0.0000
# 6 0.0000 0.0000 0.0000 25.0054 0.0000 35.9904
#
#
#
# Elastic Compliance Matrix: (Units=1/GPa)
#
#
# Indices 1 2 3 4 5 6 
#
# 1 0.010778 -0.002824 -0.001382 0.000000 -0.002843 0.000000
# 2 -0.002824 0.006863 -0.002259 0.000000 -0.004050 0.000000
# 3 -0.001382 -0.002259 0.022906 0.000000 -0.008241 0.000000
# 4 0.000000 0.000000 0.000000 0.123793 0.000000 -0.086009
# 5 -0.002843 -0.004050 -0.008241 0.000000 0.046189 0.000000
# 6 0.000000 0.000000 0.000000 -0.086009 0.000000 0.087542
#
#
# Mechanical properties :
#
#
# Convention : Reuss Voigt Hill
#
# Bulk Modulus (GPa) = 36.20923 66.66073 51.43498
# Shear Modulus (GPa) = 15.61493 34.58534 25.10013
#
# Velocity S-wave (km/s) = 2.74468 4.08477 3.47984
# Velocity P-wave (km/s) = 5.24529 7.37610 6.40000
#
# Compressibility (1/GPa) = 0.02761727
#
# Stress axis : x y z
#
# Youngs Moduli (GPa) = 92.77937 145.71503 43.65624
#
# Poissons Ratio (x) = 0.41148 0.06033
# Poissons Ratio (y) = 0.26200 0.09862
# Poissons Ratio (z) = 0.12822 0.32919
#
# Static dielectric constant tensor:
#      x y z
#    x 1.871270 0.000000 -0.013550 
#    y 0.000000 1.793700 0.000000 
#    z -0.013550 0.000000 1.744150 
# 
# From -- ./inp_files/11605.got.cif
#   From: 2010.05.17/outbox.cif.g08.bks.cpg/sg10_6_cif.got.tgz:11605.got - 2010.06.03 11:33:40.
