data_PCOD9148700
_publ_section_title
;
Structure prediction by ZEFSAII (Michael W. Deem and Ramdas Pophale) SiO2 
 PCOD9148700
Probable space group: P 2/M
;
_chemical_formula_sum "Si O2"
_cell_formula_units_Z 24
_cell_length_a 12.567615
_cell_length_b 8.160504
_cell_length_c 21.152915
_cell_angle_alpha 90.000000
_cell_angle_beta 140.823912
_cell_angle_gamma 90.000000
_cell_volume 1370.424011
_symmetry_space_group_name_H-M "P 2/M"
_symmetry_group_IT_number 10
_symmetry_cell_setting 'monoclinic'
loop_
_space_group_symop_operation_xyz
x,y,z
-x,y,-z
-x,-y,-z
x,-y,z
loop_
_atom_site_type_symbol
_atom_site_label
_atom_site_fract_x
_atom_site_fract_y
_atom_site_fract_z
Si Si1 0.976074 0.806646 0.098534
Si Si2 0.603920 0.189674 0.891259
Si Si3 0.365550 0.691724 0.884592
Si Si4 0.682611 0.318796 0.800336
Si Si5 0.997659 0.812268 0.739046
Si Si6 0.779214 0.500000 0.608570
Si Si7 0.544566 0.500000 0.624523
O O1 0.126859 0.727455 0.128896
O O2 0.009765 0.787031 0.188498
O O3 0.977564 0.000000 0.084228
O O4 0.788852 0.745740 0.996692
O O5 0.458436 0.284227 0.860788
O O6 0.600655 0.202574 0.814116
O O7 0.593015 0.000000 0.906098
O O8 0.327599 0.500000 0.878280
O O9 0.192676 0.789952 0.810006
O O10 0.500000 0.744954 0.000000
O O11 0.681137 0.500000 0.829394
O O12 0.584427 0.346090 0.689036
O O13 0.890099 0.665578 0.658909
O O14 0.943144 0.000000 0.700333
O O15 0.674925 0.500000 0.626528
O O16 0.640706 0.500000 0.489496
#
# Coordination Sequence:
#
# PCOD9148700 Si02
#       7
#     4   4   4   4   4   2   2
#     4  10  20  33  51  81 119 157 187 225 277 338
#     4  11  22  34  52  79 121 161 190 227 274 340
#     4  11  22  35  55  84 118 157 196 233 276 332
#     4  10  20  36  53  80 108 149 192 230 287 339
#     4  11  21  36  60  86 119 154 189 234 287 340
#     4  11  20  44  61  87 116 145 194 243 304 347
#     4   9  22  38  63  80 114 146 182 253 301 337
#
# _framework density 17.512827000000001
#
# number of rings (size 3 to 8) (size 9 to 14) (size 15 to 20)
#    0.500    1.000    4.167    2.000    0.000    4.000 
#    0.000    3.333    0.000    2.000    0.000    2.333 
#    0.000    0.000    0.000    0.000    0.000    0.000 
#
# Total GULP energy -133864.212242 kJ/mol
# GULP energy per Si atom -5577.675510 kJ/mol
# Density = 1.747297 g / cm^3
# Si number density = 17.512827 Si / 1000 Ang^3
#
#
#
# Elastic Constant Matrix: (Units=GPa)
#
#
# Indices 1 2 3 4 5 6 
#
# 1 79.3955 10.5392 18.3835 0.0000 6.4502 0.0000
# 2 10.5392 68.3010 31.1638 0.0000 9.3986 0.0000
# 3 18.3835 31.1638 77.1887 0.0000 9.8649 0.0000
# 4 0.0000 0.0000 0.0000 15.1565 0.0000 1.5477
# 5 6.4502 9.3986 9.8649 0.0000 18.4293 0.0000
# 6 0.0000 0.0000 0.0000 1.5477 0.0000 40.1592
#
#
#
# Elastic Compliance Matrix: (Units=1/GPa)
#
#
# Indices 1 2 3 4 5 6 
#
# 1 0.013518 -0.000456 -0.002641 0.000000 -0.003085 0.000000
# 2 -0.000456 0.018530 -0.006640 0.000000 -0.005736 0.000000
# 3 -0.002641 -0.006640 0.016868 0.000000 -0.004719 0.000000
# 4 0.000000 0.000000 0.000000 0.066239 0.000000 -0.002553
# 5 -0.003085 -0.005736 -0.004719 0.000000 0.060792 0.000000
# 6 0.000000 0.000000 0.000000 -0.002553 0.000000 0.024999
#
#
# Mechanical properties :
#
#
# Convention : Reuss Voigt Hill
#
# Bulk Modulus (GPa) = 33.96472 38.33981 36.15226
# Shear Modulus (GPa) = 21.71699 25.73558 23.72628
#
# Velocity S-wave (km/s) = 3.52527 3.83760 3.68475
# Velocity P-wave (km/s) = 6.00053 6.44796 6.22826
#
# Compressibility (1/GPa) = 0.02944232
#
# Stress axis : x y z
#
# Youngs Moduli (GPa) = 73.97624 53.96572 59.28415
#
# Poissons Ratio (x) = 0.02463 0.15657
# Poissons Ratio (y) = 0.03376 0.39362
# Poissons Ratio (z) = 0.19537 0.35831
#
# Static dielectric constant tensor:
#      x y z
#    x 1.584680 0.000000 -0.014470 
#    y 0.000000 1.612380 0.000000 
#    z -0.014470 0.000000 1.578840 
# 
# From -- ./inp_files/83450.got.cif
#   From: 2010.05.17/outbox.cif.g08.bks.cpg/sg10_42_cif.got.tgz:83450.got - 2010.06.03 11:33:40.
