data_PCOD9148034
_publ_section_title
;
Structure prediction by ZEFSAII (Michael W. Deem and Ramdas Pophale) SiO2 
 PCOD9148034
Probable space group: P 2/M
;
_chemical_formula_sum "Si O2"
_cell_formula_units_Z 28
_cell_length_a 8.789171
_cell_length_b 15.477560
_cell_length_c 11.474169
_cell_angle_alpha 90.000000
_cell_angle_beta 65.724000
_cell_angle_gamma 90.000000
_cell_volume 1422.867078
_symmetry_space_group_name_H-M "P 2/M"
_symmetry_group_IT_number 10
_symmetry_cell_setting 'monoclinic'
loop_
_space_group_symop_operation_xyz
x,y,z
-x,y,-z
-x,-y,-z
x,-y,z
loop_
_atom_site_type_symbol
_atom_site_label
_atom_site_fract_x
_atom_site_fract_y
_atom_site_fract_z
Si Si1 0.864477 0.218155 0.132669
Si Si2 0.161690 0.636379 0.521701
Si Si3 0.169206 0.407376 0.785627
Si Si4 0.447830 0.596145 0.248350
Si Si5 0.500032 0.775997 0.865683
Si Si6 0.750719 0.900632 0.654056
Si Si7 0.882385 0.835403 0.388972
O O1 0.913204 0.318123 0.146819
O O2 0.685630 0.220063 0.127393
O O3 0.853032 0.169603 0.260158
O O4 0.000000 0.182157 0.000000
O O5 0.168541 0.595065 0.646243
O O6 0.324019 0.614951 0.394786
O O7 0.142854 0.738573 0.553063
O O8 0.000000 0.608434 0.500000
O O9 0.097404 0.500000 0.846606
O O10 0.361645 0.403865 0.766565
O O11 0.411076 0.500000 0.212512
O O12 0.432586 0.677466 0.167235
O O13 0.615004 0.837857 0.752218
O O14 0.500000 0.802109 0.000000
O O15 0.763083 0.891289 0.509864
O O16 0.930560 0.868839 0.645709
O O17 0.723125 0.000000 0.694171
#
# Coordination Sequence:
#
# PCOD9148034 Si02
#       7
#     4   4   4   4   4   4   4
#     4  10  22  38  61  86 117 165 201 244 304 354
#     4  11  18  30  52  83 120 152 193 243 296 343
#     4   9  20  34  51  78 115 159 205 247 290 347
#     4  10  20  36  55  80 118 163 203 241 292 350
#     4  11  23  41  62  88 124 159 204 251 297 356
#     4  11  22  41  68  94 120 155 194 245 308 362
#     4  10  19  38  62  90 123 151 195 241 297 359
#
# _framework density 19.678578999999999
#
# number of rings (size 3 to 8) (size 9 to 14) (size 15 to 20)
#    0.000    1.714    2.857    2.571    0.000    4.857 
#    0.000    2.143    0.000    3.000    0.000    0.000 
#    0.000    0.000    0.000    0.000    0.000    0.000 
#
# Total GULP energy -156299.277241 kJ/mol
# GULP energy per Si atom -5582.117044 kJ/mol
# Density = 1.963379 g / cm^3
# Si number density = 19.678579 Si / 1000 Ang^3
#
#
#
# Elastic Constant Matrix: (Units=GPa)
#
#
# Indices 1 2 3 4 5 6 
#
# 1 27.5964 19.3350 32.0365 0.0000 9.1154 0.0000
# 2 19.3350 108.2010 22.3736 0.0000 -8.3617 0.0000
# 3 32.0365 22.3736 124.7519 0.0000 3.8318 0.0000
# 4 0.0000 0.0000 0.0000 0.9579 0.0000 -1.5788
# 5 9.1154 -8.3617 3.8318 0.0000 25.1114 0.0000
# 6 0.0000 0.0000 0.0000 -1.5788 0.0000 26.7699
#
#
#
# Elastic Compliance Matrix: (Units=1/GPa)
#
#
# Indices 1 2 3 4 5 6 
#
# 1 0.071352 -0.011690 -0.015384 0.000000 -0.027446 0.000000
# 2 -0.011690 0.011825 0.000633 0.000000 0.008085 0.000000
# 3 -0.015384 0.000633 0.011730 0.000000 0.004005 0.000000
# 4 0.000000 0.000000 0.000000 1.156369 0.000000 0.068198
# 5 -0.027446 0.008085 0.004005 0.000000 0.051866 0.000000
# 6 0.000000 0.000000 0.000000 0.068198 0.000000 0.041377
#
#
# Mechanical properties :
#
#
# Convention : Reuss Voigt Hill
#
# Bulk Modulus (GPa) = 23.79546 45.33773 34.56660
# Shear Modulus (GPa) = 3.54256 23.02144 13.28200
#
# Velocity S-wave (km/s) = 1.34317 3.42405 2.60079
# Velocity P-wave (km/s) = 3.81101 6.22265 5.15971
#
# Compressibility (1/GPa) = 0.04202482
#
# Stress axis : x y z
#
# Youngs Moduli (GPa) = 14.01506 84.56713 85.25203
#
# Poissons Ratio (x) = 0.98861 1.31149
# Poissons Ratio (y) = 0.16384 -0.05397
# Poissons Ratio (z) = 0.21560 -0.05353
#
# Static dielectric constant tensor:
#      x y z
#    x 1.665650 0.000000 0.006690 
#    y 0.000000 1.725340 0.000000 
#    z 0.006690 0.000000 1.664380 
# 
# From -- ./inp_files/25221.got.cif
#   From: 2010.05.17/outbox.cif.g08.bks.cpg/sg10_13_cif.got.tgz:25221.got - 2010.06.03 11:33:40.
