data_PCOD9148783
_publ_section_title
;
Structure prediction by ZEFSAII (Michael W. Deem and Ramdas Pophale) SiO2 
 PCOD9148783
Probable space group: P 2/M
;
_chemical_formula_sum "Si O2"
_cell_formula_units_Z 28
_cell_length_a 9.667309
_cell_length_b 7.372834
_cell_length_c 28.230749
_cell_angle_alpha 90.000000
_cell_angle_beta 142.755464
_cell_angle_gamma 90.000000
_cell_volume 1217.795449
_symmetry_space_group_name_H-M "P 2/M"
_symmetry_group_IT_number 10
_symmetry_cell_setting 'monoclinic'
loop_
_space_group_symop_operation_xyz
x,y,z
-x,y,-z
-x,-y,-z
x,-y,z
loop_
_atom_site_type_symbol
_atom_site_label
_atom_site_fract_x
_atom_site_fract_y
_atom_site_fract_z
Si Si1 0.799920 0.221838 0.481519
Si Si2 0.087756 0.791617 0.382933
Si Si3 0.706569 0.721668 0.023962
Si Si4 0.737231 0.720271 0.927808
Si Si5 0.443077 0.719947 0.757509
Si Si6 0.717669 0.217430 0.663889
Si Si7 0.162239 0.714737 0.200106
O O1 0.543051 0.278464 0.398278
O O2 0.000000 0.280917 0.500000
O O3 0.838260 0.285357 0.546065
O O4 0.807646 0.000000 0.483464
O O5 0.813538 0.788479 0.309081
O O6 0.183157 0.714080 0.359352
O O7 0.169155 0.000000 0.405969
O O8 0.715238 0.500000 0.026455
O O9 0.949069 0.784437 0.111172
O O10 0.500000 0.780000 0.000000
O O11 0.650575 0.775932 0.955388
O O12 0.739283 0.500000 0.925676
O O13 0.587931 0.778592 0.842876
O O14 0.000000 0.778543 0.000000
O O15 0.426481 0.500000 0.752531
O O16 0.594452 0.781505 0.753841
O O17 0.860659 0.259527 0.750069
O O18 0.713537 0.000000 0.659554
O O19 0.165353 0.500000 0.192296
#
# Coordination Sequence:
#
# PCOD9148783 Si02
#       7
#     4   4   4   4   4   4   4
#     4   9  17  33  58  81 100 132 176 214 252 306
#     4  10  21  36  55  80 108 137 172 214 258 309
#     4   9  17  28  46  73 102 134 174 216 257 304
#     4   9  15  28  48  71 100 134 173 217 258 299
#     4  10  20  33  53  80 108 138 175 218 263 309
#     4  10  21  36  55  79 108 139 172 212 259 309
#     4  10  20  34  52  79 110 138 174 218 262 309
#
# _framework density 22.992366000000001
#
# number of rings (size 3 to 8) (size 9 to 14) (size 15 to 20)
#    0.000    2.429    1.429    1.286    2.000    4.000 
#    0.000    0.714    0.000    6.000    0.000    0.000 
#    0.000    0.000    0.000    0.000    0.000    0.000 
#
# Total GULP energy -156398.291403 kJ/mol
# GULP energy per Si atom -5585.653264 kJ/mol
# Density = 2.294003 g / cm^3
# Si number density = 22.992366 Si / 1000 Ang^3
#
#
#
# Elastic Constant Matrix: (Units=GPa)
#
#
# Indices 1 2 3 4 5 6 
#
# 1 130.7118 -1.9952 11.4347 0.0000 -17.6855 0.0000
# 2 -1.9952 81.0625 -9.1865 0.0000 0.6138 0.0000
# 3 11.4347 -9.1865 84.7894 0.0000 -17.5524 0.0000
# 4 0.0000 0.0000 0.0000 7.7920 0.0000 2.4278
# 5 -17.6855 0.6138 -17.5524 0.0000 43.2975 0.0000
# 6 0.0000 0.0000 0.0000 2.4278 0.0000 0.0413
#
#
#
# Elastic Compliance Matrix: (Units=1/GPa)
#
#
# Indices 1 2 3 4 5 6 
#
# 1 0.008115 0.000127 -0.000431 0.000000 0.003138 0.000000
# 2 0.000127 0.012498 0.001431 0.000000 0.000455 0.000000
# 3 -0.000431 0.001431 0.013063 0.000000 0.005099 0.000000
# 4 0.000000 0.000000 0.000000 -0.007405 0.000000 0.435655
# 5 0.003138 0.000455 0.005099 0.000000 0.026439 0.000000
# 6 0.000000 0.000000 0.000000 0.435655 0.000000 -1.398212
#
#
# Mechanical properties :
#
#
# Convention : Reuss Voigt Hill
#
# Bulk Modulus (GPa) = 27.83192 33.00774 30.41983
# Shear Modulus (GPa) = -3.74313 29.98021 13.11854
#
# Velocity S-wave (km/s) = -1.27731 3.61490 2.39123
# Velocity P-wave (km/s) = 3.15528 5.64008 4.56981
#
# Compressibility (1/GPa) = 0.03592997
#
# Stress axis : x y z
#
# Youngs Moduli (GPa) = 123.23400 80.01265 76.55384
#
# Poissons Ratio (x) = -0.01017 0.03299
# Poissons Ratio (y) = -0.01567 -0.10956
# Poissons Ratio (z) = 0.05311 -0.11451
#
# Static dielectric constant tensor:
#      x y z
#    x 1.886790 0.000000 -0.031800 
#    y 0.000000 1.913420 0.000000 
#    z -0.031800 0.000000 1.815080 
# 
# From -- ./inp_files/28194.got.cif
#   From: 2010.05.17/outbox.cif.g08.bks.cpg/sg10_15_cif.got.tgz:28194.got - 2010.06.03 11:33:40.
