data_PCOD9148437
_publ_section_title
;
Structure prediction by ZEFSAII (Michael W. Deem and Ramdas Pophale) SiO2 
 PCOD9148437
Probable space group: P 2/M
;
_chemical_formula_sum "Si O2"
_cell_formula_units_Z 30
_cell_length_a 15.742068
_cell_length_b 7.391615
_cell_length_c 24.761290
_cell_angle_alpha 90.000000
_cell_angle_beta 24.697863
_cell_angle_gamma 90.000000
_cell_volume 1203.863706
_symmetry_space_group_name_H-M "P 2/M"
_symmetry_group_IT_number 10
_symmetry_cell_setting 'monoclinic'
loop_
_space_group_symop_operation_xyz
x,y,z
-x,y,-z
-x,-y,-z
x,-y,z
loop_
_atom_site_type_symbol
_atom_site_label
_atom_site_fract_x
_atom_site_fract_y
_atom_site_fract_z
Si Si1 0.281949 0.280895 0.788338
Si Si2 0.379597 0.286028 0.321862
Si Si3 0.048691 0.000000 0.868363
Si Si4 0.377331 0.214442 0.196537
Si Si5 0.387419 0.295956 0.488748
Si Si6 0.924557 0.276954 0.246774
Si Si7 0.329307 0.296383 0.061626
Si Si8 0.055173 0.206379 0.594633
O O1 0.254437 0.500000 0.802447
O O2 0.416892 0.234228 0.762987
O O3 0.086700 0.161086 0.891788
O O4 0.427575 0.217133 0.653075
O O5 0.359982 0.500000 0.340420
O O6 0.382550 0.245060 0.257226
O O7 0.184538 0.205062 0.464487
O O8 0.034438 0.160366 0.829553
O O9 0.167308 0.280879 0.290616
O O10 0.387457 0.000000 0.181999
O O11 0.568939 0.298970 0.056026
O O12 0.452653 0.500000 0.462725
O O13 0.201156 0.300929 0.553358
O O14 0.286516 0.225392 0.601824
O O15 0.929758 0.500000 0.236605
O O16 0.105304 0.224701 0.183734
O O17 0.303343 0.500000 0.097668
O O18 0.500000 0.205195 0.000000
O O19 0.032486 0.000000 0.625972
#
# Coordination Sequence:
#
# PCOD9148437 Si02
#       8
#     4   4   2   4   4   4   4   4
#     4   9  21  38  58  89 119 152 199 243 297 365
#     4  10  21  37  58  84 118 157 195 242 292 350
#     4  12  24  37  65  85 117 164 188 249 312 357
#     4  11  23  35  56  88 121 154 196 245 288 347
#     4   9  19  36  56  81 121 161 194 243 291 347
#     4  10  23  40  59  89 121 153 205 251 289 352
#     4  10  22  42  65  87 118 160 199 238 286 343
#     4  10  20  32  52  86 125 158 193 237 288 351
#
# _framework density 24.919765000000002
#
# number of rings (size 3 to 8) (size 9 to 14) (size 15 to 20)
#    0.000    2.000    0.000    3.600    6.533    6.133 
#    0.000    2.000    0.000    1.600    0.000    3.733 
#    0.000    0.000    0.000    0.000    0.000    0.000 
#
# Total GULP energy -167219.240823 kJ/mol
# GULP energy per Si atom -5573.974694 kJ/mol
# Density = 2.486305 g / cm^3
# Si number density = 24.919765 Si / 1000 Ang^3
#
#
#
# Elastic Constant Matrix: (Units=GPa)
#
#
# Indices 1 2 3 4 5 6 
#
# 1 93.5393 25.9877 31.3692 0.0000 -14.0771 0.0000
# 2 25.9877 125.0662 -6.7208 0.0000 -1.5250 0.0000
# 3 31.3692 -6.7208 65.8599 0.0000 6.0796 0.0000
# 4 0.0000 0.0000 0.0000 12.3988 0.0000 5.6252
# 5 -14.0771 -1.5250 6.0796 0.0000 34.1629 0.0000
# 6 0.0000 0.0000 0.0000 5.6252 0.0000 40.8024
#
#
#
# Elastic Compliance Matrix: (Units=1/GPa)
#
#
# Indices 1 2 3 4 5 6 
#
# 1 0.015776 -0.003645 -0.008613 0.000000 0.007871 0.000000
# 2 -0.003645 0.008884 0.002791 0.000000 -0.001602 0.000000
# 3 -0.008613 0.002791 0.020219 0.000000 -0.007023 0.000000
# 4 0.000000 0.000000 0.000000 0.086034 0.000000 -0.011861
# 5 0.007871 -0.001602 -0.007023 0.000000 0.033693 0.000000
# 6 0.000000 0.000000 0.000000 -0.011861 0.000000 0.026144
#
#
# Mechanical properties :
#
#
# Convention : Reuss Voigt Hill
#
# Bulk Modulus (GPa) = 38.54391 42.85971 40.70181
# Shear Modulus (GPa) = 22.90092 33.06145 27.98119
#
# Velocity S-wave (km/s) = 3.03477 3.64636 3.35453
# Velocity P-wave (km/s) = 5.27072 5.91307 5.60111
#
# Compressibility (1/GPa) = 0.02594443
#
# Stress axis : x y z
#
# Youngs Moduli (GPa) = 63.38646 112.56697 49.45828
#
# Poissons Ratio (x) = 0.41031 0.42597
# Poissons Ratio (y) = 0.23105 -0.13802
# Poissons Ratio (z) = 0.54593 -0.31413
#
# Static dielectric constant tensor:
#      x y z
#    x 1.997380 0.000000 0.002490 
#    y 0.000000 1.938170 0.000000 
#    z 0.002490 0.000000 2.020290 
# 
# From -- ./inp_files/89361.got.cif
#   From: 2010.05.17/outbox.cif.g08.bks.cpg/sg10_45_cif.got.tgz:89361.got - 2010.06.03 11:33:40.
