data_PCOD9148187
_publ_section_title
;
Structure prediction by ZEFSAII (Michael W. Deem and Ramdas Pophale) SiO2 
 PCOD9148187
Probable space group: P 2/M
;
_chemical_formula_sum "Si O2"
_cell_formula_units_Z 32
_cell_length_a 21.317178
_cell_length_b 7.371744
_cell_length_c 26.946846
_cell_angle_alpha 90.000000
_cell_angle_beta 21.127433
_cell_angle_gamma 90.000000
_cell_volume 1526.318080
_symmetry_space_group_name_H-M "P 2/M"
_symmetry_group_IT_number 10
_symmetry_cell_setting 'monoclinic'
loop_
_space_group_symop_operation_xyz
x,y,z
-x,y,-z
-x,-y,-z
x,-y,z
loop_
_atom_site_type_symbol
_atom_site_label
_atom_site_fract_x
_atom_site_fract_y
_atom_site_fract_z
Si Si1 0.298793 0.719777 0.149160
Si Si2 0.801087 0.221107 0.143593
Si Si3 0.524370 0.218456 0.152424
Si Si4 0.519914 0.221119 0.269611
Si Si5 0.238148 0.778720 0.556383
Si Si6 0.519035 0.220747 0.429995
Si Si7 0.823316 0.284490 0.654381
Si Si8 0.151067 0.209435 0.151196
O O1 0.293910 0.500000 0.151855
O O2 0.213648 0.785237 0.263041
O O3 0.209350 0.785063 0.165242
O O4 0.500000 0.774749 0.000000
O O5 0.686619 0.276139 0.180034
O O6 0.691454 0.276375 0.272982
O O7 0.803413 0.000000 0.140908
O O8 0.000000 0.282282 0.000000
O O9 0.523387 0.282083 0.210151
O O10 0.346308 0.260043 0.254726
O O11 0.534928 0.000000 0.145791
O O12 0.692234 0.286848 0.997780
O O13 0.345884 0.277388 0.427882
O O14 0.520528 0.000000 0.268796
O O15 0.356604 0.727257 0.515656
O O16 0.042480 0.711176 0.707272
O O17 0.232735 0.000000 0.558351
O O18 0.500000 0.284877 0.500000
O O19 0.521788 0.000000 0.429076
O O20 0.847135 0.500000 0.642419
O O21 0.000000 0.210839 0.500000
O O22 0.133619 0.000000 0.148076
#
# Coordination Sequence:
#
# PCOD9148187 Si02
#       8
#     4   4   4   4   4   4   4   4
#     4  10  20  36  54  69  90 121 151 186 234 277
#     4   8  13  21  34  53  78 113 153 185 218 263
#     4  10  20  32  47  70  96 121 153 191 229 272
#     4   8  15  27  40  57  87 122 152 186 228 271
#     4   8  15  27  40  58  87 121 153 185 227 272
#     4   8  13  21  34  53  79 113 151 186 219 261
#     4  10  22  38  53  70  92 118 151 191 232 275
#     4  10  20  31  47  71  95 121 154 191 228 271
#
# _framework density 20.965485000000001
#
# number of rings (size 3 to 8) (size 9 to 14) (size 15 to 20)
#    0.000    3.000    1.250    1.500    1.750    2.000 
#    0.000    5.000    0.000    0.000    0.000    0.000 
#    0.000    1.000    0.000    2.000    0.000    2.500 
#
# Total GULP energy -178592.108867 kJ/mol
# GULP energy per Si atom -5581.003402 kJ/mol
# Density = 2.091777 g / cm^3
# Si number density = 20.965485 Si / 1000 Ang^3
#
#
#
# Elastic Constant Matrix: (Units=GPa)
#
#
# Indices 1 2 3 4 5 6 
#
# 1 152.5209 -7.6101 118.3482 0.0000 31.2434 0.0000
# 2 -7.6101 72.9364 4.4218 0.0000 4.1736 0.0000
# 3 118.3482 4.4218 236.1998 0.0000 4.3196 0.0000
# 4 0.0000 0.0000 0.0000 -1.8408 0.0000 -33.0393
# 5 31.2434 4.1736 4.3196 0.0000 35.2706 0.0000
# 6 0.0000 0.0000 0.0000 -33.0393 0.0000 58.9939
#
#
#
# Elastic Compliance Matrix: (Units=1/GPa)
#
#
# Indices 1 2 3 4 5 6 
#
# 1 0.014974 0.002732 -0.007322 0.000000 -0.012691 0.000000
# 2 0.002732 0.014315 -0.001565 0.000000 -0.003923 0.000000
# 3 -0.007322 -0.001565 0.007827 0.000000 0.005712 0.000000
# 4 0.000000 0.000000 0.000000 -0.049154 0.000000 -0.027528
# 5 -0.012691 -0.003923 0.005712 0.000000 0.039358 0.000000
# 6 0.000000 0.000000 0.000000 -0.027528 0.000000 0.001534
#
#
# Mechanical properties :
#
#
# Convention : Reuss Voigt Hill
#
# Bulk Modulus (GPa) = 40.31182 76.88633 58.59907
# Shear Modulus (GPa) = 101.14879 41.58454 71.36667
#
# Velocity S-wave (km/s) = 6.95343 4.45846 5.84072
# Velocity P-wave (km/s) = 9.15075 7.95338 8.57299
#
# Compressibility (1/GPa) = 0.02480662
#
# Stress axis : x y z
#
# Youngs Moduli (GPa) = 66.78402 69.85661 127.76202
#
# Poissons Ratio (x) = -0.19088 0.93543
# Poissons Ratio (y) = -0.18248 0.19999
# Poissons Ratio (z) = 0.48897 0.10935
#
# Static dielectric constant tensor:
#      x y z
#    x 1.717620 0.000000 0.010950 
#    y 0.000000 1.808270 0.000000 
#    z 0.010950 0.000000 1.740780 
# 
# From -- ./inp_files/93655.got.cif
#   From: 2010.05.17/outbox.cif.g08.bks.cpg/sg10_47_cif.got.tgz:93655.got - 2010.06.03 11:33:40.
