data_PCOD9148110
_publ_section_title
;
Structure prediction by ZEFSAII (Michael W. Deem and Ramdas Pophale) SiO2 
 PCOD9148110
Probable space group: P 2/M
;
_chemical_formula_sum "Si O2"
_cell_formula_units_Z 32
_cell_length_a 19.808284
_cell_length_b 13.872512
_cell_length_c 15.356981
_cell_angle_alpha 90.000000
_cell_angle_beta 159.126376
_cell_angle_gamma 90.000000
_cell_volume 1503.603281
_symmetry_space_group_name_H-M "P 2/M"
_symmetry_group_IT_number 10
_symmetry_cell_setting 'monoclinic'
loop_
_space_group_symop_operation_xyz
x,y,z
-x,y,-z
-x,-y,-z
x,-y,z
loop_
_atom_site_type_symbol
_atom_site_label
_atom_site_fract_x
_atom_site_fract_y
_atom_site_fract_z
Si Si1 0.105730 0.890741 0.508914
Si Si2 0.690243 0.816905 0.978523
Si Si3 0.351729 0.608516 0.021304
Si Si4 0.691492 0.888380 0.434374
Si Si5 0.194373 0.389105 0.469321
Si Si6 0.722257 0.696770 0.246943
Si Si7 0.685450 0.109439 0.782367
Si Si8 0.026259 0.242379 0.131782
O O1 0.187539 0.881827 0.508845
O O2 0.199984 0.803741 0.675014
O O3 0.883580 0.868801 0.237475
O O4 0.144292 0.000000 0.585333
O O5 0.710484 0.701225 0.998034
O O6 0.512451 0.840296 0.825809
O O7 0.635240 0.861214 0.819566
O O8 0.305859 0.500000 0.995705
O O9 0.581258 0.614382 0.286384
O O10 0.260758 0.629552 0.816821
O O11 0.800866 0.831608 0.641817
O O12 0.667955 0.000000 0.427777
O O13 0.137895 0.500000 0.402957
O O14 0.180202 0.344982 0.548953
O O15 0.075047 0.329214 0.255700
O O16 0.500000 0.702194 0.000000
O O17 0.500000 0.112430 0.500000
O O18 0.763266 0.000000 0.875205
O O19 0.841073 0.184099 0.937148
O O20 0.000000 0.271011 0.000000
#
# Coordination Sequence:
#
# PCOD9148110 Si02
#       8
#     4   4   4   4   4   4   4   4
#     4  11  23  40  62  91 132 173 209 259 322 390
#     4  12  22  41  65  93 133 170 213 268 323 385
#     4  10  22  40  66  95 125 166 219 276 324 377
#     4  11  21  38  64  94 127 171 216 259 317 382
#     4  10  20  39  66  95 127 169 217 270 332 385
#     4  10  19  40  67  96 129 169 219 271 321 382
#     4  11  24  41  63  94 134 176 217 266 321 380
#     4  12  23  39  64  98 130 168 219 268 319 388
#
# _framework density 21.282209000000002
#
# number of rings (size 3 to 8) (size 9 to 14) (size 15 to 20)
#    0.000    1.125    3.750    3.375    0.000    4.500 
#    0.000    6.250    0.000    0.750    0.000    0.000 
#    0.000    0.000    0.000    0.000    0.000    0.000 
#
# Total GULP energy -179107.609150 kJ/mol
# GULP energy per Si atom -5597.112786 kJ/mol
# Density = 2.123377 g / cm^3
# Si number density = 21.282209 Si / 1000 Ang^3
#
#
#
# Elastic Constant Matrix: (Units=GPa)
#
#
# Indices 1 2 3 4 5 6 
#
# 1 69.3700 29.0208 43.5071 0.0000 -15.1294 0.0000
# 2 29.0208 189.0651 56.3050 0.0000 -13.8890 0.0000
# 3 43.5071 56.3050 98.0661 0.0000 -10.1009 0.0000
# 4 0.0000 0.0000 0.0000 26.9913 0.0000 -1.6776
# 5 -15.1294 -13.8890 -10.1009 0.0000 36.2416 0.0000
# 6 0.0000 0.0000 0.0000 -1.6776 0.0000 18.3217
#
#
#
# Elastic Compliance Matrix: (Units=1/GPa)
#
#
# Indices 1 2 3 4 5 6 
#
# 1 0.021354 -0.000220 -0.008687 0.000000 0.006409 0.000000
# 2 -0.000220 0.006459 -0.003465 0.000000 0.001418 0.000000
# 3 -0.008687 -0.003465 0.015989 0.000000 -0.000498 0.000000
# 4 0.000000 0.000000 0.000000 0.037261 0.000000 0.003412
# 5 0.006409 0.001418 -0.000498 0.000000 0.030673 0.000000
# 6 0.000000 0.000000 0.000000 0.003412 0.000000 0.054892
#
#
# Mechanical properties :
#
#
# Convention : Reuss Voigt Hill
#
# Bulk Modulus (GPa) = 52.47112 68.24079 60.35595
# Shear Modulus (GPa) = 25.28774 31.48882 28.38828
#
# Velocity S-wave (km/s) = 3.45078 3.85071 3.65622
# Velocity P-wave (km/s) = 6.37069 7.20451 6.80039
#
# Compressibility (1/GPa) = 0.01905810
#
# Stress axis : x y z
#
# Youngs Moduli (GPa) = 46.83063 154.82408 62.54149
#
# Poissons Ratio (x) = 0.03403 0.54331
# Poissons Ratio (y) = 0.01029 0.21670
# Poissons Ratio (z) = 0.40683 0.53645
#
# Static dielectric constant tensor:
#      x y z
#    x 1.811730 0.000000 0.016600 
#    y 0.000000 1.749990 0.000000 
#    z 0.016600 0.000000 1.751940 
# 
# From -- ./inp_files/70778.got.cif
#   From: 2010.05.17/outbox.cif.g08.bks.cpg/sg10_36_cif.got.tgz:70778.got - 2010.06.03 11:33:40.
