data_PCOD9148090
_publ_section_title
;
Structure prediction by ZEFSAII (Michael W. Deem and Ramdas Pophale) SiO2 
 PCOD9148090
Probable space group: P 2/M
;
_chemical_formula_sum "Si O2"
_cell_formula_units_Z 11
_cell_length_a 4.968583
_cell_length_b 15.430199
_cell_length_c 5.329680
_cell_angle_alpha 90.000000
_cell_angle_beta 90.555799
_cell_angle_gamma 90.000000
_cell_volume 408.587218
_symmetry_space_group_name_H-M "P 2/M"
_symmetry_group_IT_number 10
_symmetry_cell_setting 'monoclinic'
loop_
_space_group_symop_operation_xyz
x,y,z
-x,y,-z
-x,-y,-z
x,-y,z
loop_
_atom_site_type_symbol
_atom_site_label
_atom_site_fract_x
_atom_site_fract_y
_atom_site_fract_z
Si Si1 0.184633 0.500000 0.751504
Si Si2 0.349535 0.878084 0.747625
Si Si3 0.818264 0.314172 0.248370
Si Si4 0.000000 0.000000 0.000000
O O1 0.332481 0.407224 0.751899
O O2 0.000000 0.500000 0.500000
O O3 0.000000 0.500000 0.000000
O O4 0.500000 0.904999 0.500000
O O5 0.345267 0.774217 0.751911
O O6 0.500000 0.910008 0.000000
O O7 0.065396 0.923201 0.789969
O O8 0.000000 0.311411 0.500000
O O9 0.000000 0.311856 0.000000
#
# Coordination Sequence:
#
# PCOD9148090 Si02
#       4
#     2   4   4   1
#     4   8  16  30  60  94 124 171 217 248 312 393
#     4  12  27  45  69 101 130 171 224 272 328 397
#     4  10  19  39  65  94 133 174 212 264 324 381
#     4  12  28  50  72  90 138 172 222 270 350 372
#
# _framework density 26.922035999999999
#
# number of rings (size 3 to 8) (size 9 to 14) (size 15 to 20)
#    0.000    1.455    1.818    3.273    0.000    1.455 
#    0.000    1.818    0.000    0.000    0.000    0.000 
#    0.000    0.000    0.000    0.000    0.000    0.000 
#
# Total GULP energy -61358.050369 kJ/mol
# GULP energy per Si atom -5578.004579 kJ/mol
# Density = 2.686076 g / cm^3
# Si number density = 26.922036 Si / 1000 Ang^3
#
#
#
# Elastic Constant Matrix: (Units=GPa)
#
#
# Indices 1 2 3 4 5 6 
#
# 1 47.3177 6.8750 57.1557 0.0000 10.7891 0.0000
# 2 6.8750 312.3109 38.5416 0.0000 -15.2142 0.0000
# 3 57.1557 38.5416 301.4456 0.0000 -20.5679 0.0000
# 4 0.0000 0.0000 0.0000 134.6723 0.0000 -24.7959
# 5 10.7891 -15.2142 -20.5679 0.0000 68.6916 0.0000
# 6 0.0000 0.0000 0.0000 -24.7959 0.0000 47.8854
#
#
#
# Elastic Compliance Matrix: (Units=1/GPa)
#
#
# Indices 1 2 3 4 5 6 
#
# 1 0.030069 -0.000228 -0.006123 0.000000 -0.006607 0.000000
# 2 -0.000228 0.003280 -0.000331 0.000000 0.000663 0.000000
# 3 -0.006123 -0.000331 0.004677 0.000000 0.002289 0.000000
# 4 0.000000 0.000000 0.000000 0.008208 0.000000 0.004250
# 5 -0.006607 0.000663 0.002289 0.000000 0.016428 0.000000
# 6 0.000000 0.000000 0.000000 0.004250 0.000000 0.023084
#
#
# Mechanical properties :
#
#
# Convention : Reuss Voigt Hill
#
# Bulk Modulus (GPa) = 40.54777 96.24655 68.39716
# Shear Modulus (GPa) = 46.58506 87.48333 67.03420
#
# Velocity S-wave (km/s) = 4.16428 5.70663 4.99534
# Velocity P-wave (km/s) = 6.18187 8.90216 7.66368
#
# Compressibility (1/GPa) = 0.02466227
#
# Stress axis : x y z
#
# Youngs Moduli (GPa) = 33.25651 304.86856 213.82354
#
# Poissons Ratio (x) = 0.06956 1.30922
# Poissons Ratio (y) = 0.00759 0.07075
# Poissons Ratio (z) = 0.20363 0.10087
#
# Static dielectric constant tensor:
#      x y z
#    x 2.406740 0.000000 0.021420 
#    y 0.000000 2.094700 0.000000 
#    z 0.021420 0.000000 2.026010 
# 
# From -- ./inp_files/355.got.cif
#   From: 2010.05.17/outbox.cif.g08.bks.cpg/sg10_1_cif.got.tgz:355.got - 2010.06.03 11:33:40.
