data_PCOD9148387
_publ_section_title
;
Structure prediction by ZEFSAII (Michael W. Deem and Ramdas Pophale) SiO2 
 PCOD9148387
Probable space group: P 2/M
;
_chemical_formula_sum "Si O2"
_cell_formula_units_Z 28
_cell_length_a 12.091356
_cell_length_b 15.669366
_cell_length_c 9.272745
_cell_angle_alpha 90.000000
_cell_angle_beta 50.454269
_cell_angle_gamma 90.000000
_cell_volume 1354.736491
_symmetry_space_group_name_H-M "P 2/M"
_symmetry_group_IT_number 10
_symmetry_cell_setting 'monoclinic'
loop_
_space_group_symop_operation_xyz
x,y,z
-x,y,-z
-x,-y,-z
x,-y,z
loop_
_atom_site_type_symbol
_atom_site_label
_atom_site_fract_x
_atom_site_fract_y
_atom_site_fract_z
Si Si1 0.347051 0.092770 0.708444
Si Si2 0.756865 0.776862 0.432029
Si Si3 0.313741 0.670463 0.907799
Si Si4 0.331231 0.599904 0.598308
Si Si5 0.962384 0.500000 0.698323
Si Si6 0.499959 0.830874 0.827133
Si Si7 0.022295 0.687135 0.308970
Si Si8 0.619319 0.500000 0.019029
O O1 0.500000 0.094514 0.500000
O O2 0.264920 0.171662 0.700297
O O3 0.396739 0.101199 0.833347
O O4 0.278291 0.000000 0.740370
O O5 0.698840 0.678551 0.483417
O O6 0.661425 0.828244 0.628500
O O7 0.922696 0.761062 0.328962
O O8 0.251589 0.637179 0.807443
O O9 0.424634 0.746693 0.823883
O O10 0.186368 0.694875 0.122877
O O11 0.400757 0.587140 0.882126
O O12 0.500000 0.602784 0.500000
O O13 0.298748 0.500000 0.592466
O O14 0.015859 0.590439 0.714363
O O15 0.788932 0.500000 0.843998
O O16 0.000000 0.500000 0.500000
O O17 0.500000 0.832813 0.000000
O O18 0.000000 0.687280 0.500000
O O19 0.500000 0.500000 0.000000
#
# Coordination Sequence:
#
# PCOD9148387 Si02
#       8
#     4   4   4   4   2   4   4   2
#     4   9  19  38  64  91 119 149 191 246 305 367
#     4  11  21  39  62  85 116 160 199 242 301 360
#     4  11  20  36  53  80 117 154 201 249 292 348
#     4  11  21  37  55  83 118 155 204 254 294 343
#     4   8  18  36  47  70 117 155 198 248 287 346
#     4  11  21  36  61  89 119 151 196 245 299 359
#     4  10  22  37  54  81 119 158 201 248 302 349
#     4  10  20  32  50  78 110 154 201 244 293 339
#
# _framework density 20.668225
#
# number of rings (size 3 to 8) (size 9 to 14) (size 15 to 20)
#    0.000    1.714    3.571    1.714    1.000    3.143 
#    0.000    0.714    0.000    2.143    0.000    0.000 
#    0.000    0.000    0.000    0.000    0.000    0.000 
#
# Total GULP energy -155876.031018 kJ/mol
# GULP energy per Si atom -5567.001108 kJ/mol
# Density = 2.062118 g / cm^3
# Si number density = 20.668225 Si / 1000 Ang^3
#
#
#
# Elastic Constant Matrix: (Units=GPa)
#
#
# Indices 1 2 3 4 5 6 
#
# 1 65.6948 31.6296 12.0297 0.0000 9.3124 0.0000
# 2 31.6296 104.3643 -5.7067 0.0000 -0.7712 0.0000
# 3 12.0297 -5.7067 61.1568 0.0000 10.5691 0.0000
# 4 0.0000 0.0000 0.0000 11.3634 0.0000 9.7719
# 5 9.3124 -0.7712 10.5691 0.0000 25.2595 0.0000
# 6 0.0000 0.0000 0.0000 9.7719 0.0000 46.1042
#
#
#
# Elastic Compliance Matrix: (Units=1/GPa)
#
#
# Indices 1 2 3 4 5 6 
#
# 1 0.019683 -0.006196 -0.003410 0.000000 -0.006019 0.000000
# 2 -0.006196 0.011582 0.001987 0.000000 0.001806 0.000000
# 3 -0.003410 0.001987 0.018303 0.000000 -0.006341 0.000000
# 4 0.000000 0.000000 0.000000 0.107617 0.000000 -0.022809
# 5 -0.006019 0.001806 -0.006341 0.000000 0.044516 0.000000
# 6 0.000000 0.000000 0.000000 -0.022809 0.000000 0.026524
#
#
# Mechanical properties :
#
#
# Convention : Reuss Voigt Hill
#
# Bulk Modulus (GPa) = 29.12833 34.12459 31.62646
# Shear Modulus (GPa) = 19.61512 29.42965 24.52239
#
# Velocity S-wave (km/s) = 3.08400 3.77756 3.44827
# Velocity P-wave (km/s) = 5.17739 5.96432 5.58473
#
# Compressibility (1/GPa) = 0.03433084
#
# Stress axis : x y z
#
# Youngs Moduli (GPa) = 50.80616 86.34320 54.63483
#
# Poissons Ratio (x) = 0.53499 0.18628
# Poissons Ratio (y) = 0.31480 -0.10858
# Poissons Ratio (z) = 0.17323 -0.17159
#
# Static dielectric constant tensor:
#      x y z
#    x 0.277130 0.000000 -1.411680 
#    y 0.000000 1.775120 0.000000 
#    z -1.411680 0.000000 0.385920 
# 
# From -- ./inp_files/25256.got.cif
#   From: 2010.05.17/outbox.cif.g08.bks.cpg/sg10_13_cif.got.tgz:25256.got - 2010.06.03 11:33:40.
