data_PCOD9148499
_publ_section_title
;
Structure prediction by ZEFSAII (Michael W. Deem and Ramdas Pophale) SiO2 
 PCOD9148499
Probable space group: P 2/M
;
_chemical_formula_sum "Si O2"
_cell_formula_units_Z 32
_cell_length_a 10.064794
_cell_length_b 14.660504
_cell_length_c 15.569417
_cell_angle_alpha 90.000000
_cell_angle_beta 121.280242
_cell_angle_gamma 90.000000
_cell_volume 1963.397827
_symmetry_space_group_name_H-M "P 2/M"
_symmetry_group_IT_number 10
_symmetry_cell_setting 'monoclinic'
loop_
_space_group_symop_operation_xyz
x,y,z
-x,y,-z
-x,-y,-z
x,-y,z
loop_
_atom_site_type_symbol
_atom_site_label
_atom_site_fract_x
_atom_site_fract_y
_atom_site_fract_z
Si Si1 0.152206 0.790821 0.239164
Si Si2 0.683991 0.893471 0.551186
Si Si3 0.832837 0.398316 0.832755
Si Si4 0.791835 0.398311 0.016846
Si Si5 0.273852 0.108243 0.109680
Si Si6 0.211744 0.791822 0.912689
Si Si7 0.826725 0.110646 0.420093
Si Si8 0.363819 0.891374 0.808284
O O1 0.227839 0.834963 0.348204
O O2 0.204775 0.686599 0.240008
O O3 0.205894 0.847020 0.172838
O O4 0.964948 0.792504 0.181465
O O5 0.500000 0.888162 0.500000
O O6 0.724095 0.865193 0.467895
O O7 0.731473 0.000000 0.577623
O O8 0.789373 0.500000 0.788202
O O9 0.020414 0.397571 0.908021
O O10 0.765223 0.384707 0.906021
O O11 0.736886 0.500000 0.022470
O O12 0.734349 0.311502 0.050062
O O13 0.460206 0.121532 0.165077
O O14 0.242512 0.000000 0.098688
O O15 0.206835 0.155875 0.002105
O O16 0.323472 0.841118 0.882812
O O17 0.752859 0.141184 0.305848
O O18 0.000000 0.142083 0.500000
O O19 0.829571 0.000000 0.415726
O O20 0.342459 0.000000 0.814728
#
# Coordination Sequence:
#
# PCOD9148499 Si02
#       8
#     4   4   4   4   4   4   4   4
#     4  11  20  31  51  77  96 120 162 207 245 278
#     4  10  20  33  48  68  96 126 158 201 248 287
#     4   8  14  27  47  71  98 124 152 192 242 291
#     4   8  14  27  47  70  97 125 155 195 238 282
#     4  11  22  33  44  65 103 140 161 184 232 296
#     4  11  20  31  49  74  98 126 164 201 233 278
#     4   9  17  31  49  66  85 116 162 208 238 265
#     4  10  21  35  48  64  95 138 169 190 233 293
#
# _framework density 16.298276000000001
#
# number of rings (size 3 to 8) (size 9 to 14) (size 15 to 20)
#    0.000    2.250    1.250    3.750    0.000    6.500 
#    0.000    0.000    0.000    2.625    0.000    0.875 
#    0.000    5.000    0.000    0.000    0.000    0.000 
#
# Total GULP energy -178453.488006 kJ/mol
# GULP energy per Si atom -5576.671500 kJ/mol
# Density = 1.626118 g / cm^3
# Si number density = 16.298276 Si / 1000 Ang^3
#
#
#
# Elastic Constant Matrix: (Units=GPa)
#
#
# Indices 1 2 3 4 5 6 
#
# 1 44.9174 13.4121 -8.0953 0.0000 -10.0000 0.0000
# 2 13.4121 83.8044 19.1359 0.0000 -2.7639 0.0000
# 3 -8.0953 19.1359 46.3440 0.0000 -2.9963 0.0000
# 4 0.0000 0.0000 0.0000 56.5332 0.0000 18.3825
# 5 -10.0000 -2.7639 -2.9963 0.0000 20.2308 0.0000
# 6 0.0000 0.0000 0.0000 18.3825 0.0000 24.3669
#
#
#
# Elastic Compliance Matrix: (Units=1/GPa)
#
#
# Indices 1 2 3 4 5 6 
#
# 1 0.028886 -0.006081 0.008507 0.000000 0.014708 0.000000
# 2 -0.006081 0.014475 -0.007174 0.000000 -0.002091 0.000000
# 3 0.008507 -0.007174 0.026488 0.000000 0.007148 0.000000
# 4 0.000000 0.000000 0.000000 0.023438 0.000000 -0.017682
# 5 0.014708 -0.002091 0.007148 0.000000 0.057473 0.000000
# 6 0.000000 0.000000 0.000000 -0.017682 0.000000 0.054378
#
#
# Mechanical properties :
#
#
# Convention : Reuss Voigt Hill
#
# Bulk Modulus (GPa) = 16.56862 24.88567 20.72714
# Shear Modulus (GPa) = 21.29913 30.26707 25.78310
#
# Velocity S-wave (km/s) = 3.61894 4.31405 3.98169
# Velocity P-wave (km/s) = 5.25835 6.33378 5.82095
#
# Compressibility (1/GPa) = 0.06035507
#
# Stress axis : x y z
#
# Youngs Moduli (GPa) = 34.61843 69.08527 37.75262
#
# Poissons Ratio (x) = 0.42007 -0.32118
# Poissons Ratio (y) = 0.21050 0.27084
# Poissons Ratio (z) = -0.29451 0.49563
#
# Static dielectric constant tensor:
#      x y z
#    x 1.535170 0.000000 0.010440 
#    y 0.000000 1.555620 0.000000 
#    z 0.010440 0.000000 1.529570 
# 
# From -- ./inp_files/35171.got.cif
#   From: 2010.05.17/outbox.cif.g08.bks.cpg/sg10_18_cif.got.tgz:35171.got - 2010.06.03 11:33:40.
