data_PCOD9148268
_publ_section_title
;
Structure prediction by ZEFSAII (Michael W. Deem and Ramdas Pophale) SiO2 
 PCOD9148268
Probable space group: P 2/M
;
_chemical_formula_sum "Si O2"
_cell_formula_units_Z 32
_cell_length_a 11.220650
_cell_length_b 7.483919
_cell_length_c 20.215009
_cell_angle_alpha 90.000000
_cell_angle_beta 119.965147
_cell_angle_gamma 90.000000
_cell_volume 1470.632241
_symmetry_space_group_name_H-M "P 2/M"
_symmetry_group_IT_number 10
_symmetry_cell_setting 'monoclinic'
loop_
_space_group_symop_operation_xyz
x,y,z
-x,y,-z
-x,-y,-z
x,-y,z
loop_
_atom_site_type_symbol
_atom_site_label
_atom_site_fract_x
_atom_site_fract_y
_atom_site_fract_z
Si Si1 0.303522 0.701205 0.980625
Si Si2 0.301054 0.717722 0.836514
Si Si3 0.455319 0.282102 0.745702
Si Si4 0.018481 0.284476 0.259823
Si Si5 0.067284 0.717807 0.417039
Si Si6 0.996029 0.200326 0.888517
Si Si7 0.214352 0.282096 0.587645
Si Si8 0.278233 0.284344 0.117424
O O1 0.360675 0.500000 0.999694
O O2 0.347415 0.780713 0.922185
O O3 0.136123 0.688435 0.929802
O O4 0.325474 0.784374 0.058589
O O5 0.304272 0.500000 0.839863
O O6 0.385205 0.771001 0.795697
O O7 0.142196 0.769077 0.782196
O O8 0.453761 0.500000 0.742810
O O9 0.356984 0.220765 0.659238
O O10 0.613311 0.225895 0.796689
O O11 0.024146 0.500000 0.260405
O O12 0.086848 0.222822 0.347086
O O13 0.069236 0.221624 0.202618
O O14 0.068714 0.500000 0.416957
O O15 0.175757 0.775877 0.502810
O O16 0.915445 0.768119 0.401897
O O17 0.877279 0.237973 0.907868
O O18 0.045514 0.000000 0.910999
O O19 0.215987 0.500000 0.587765
O O20 0.283266 0.500000 0.115388
#
# Coordination Sequence:
#
# PCOD9148268 Si02
#       8
#     4   4   4   4   4   4   4   4
#     4   9  18  32  50  70  93 117 149 193 236 276
#     4   8  13  23  41  67  96 121 143 177 225 270
#     4   9  15  24  41  67 101 129 151 180 219 273
#     4   9  15  27  48  72  97 122 149 187 231 273
#     4   8  12  19  38  69 103 128 145 174 225 274
#     4  11  22  34  49  67  87 116 157 203 240 272
#     4   8  12  19  35  68 106 129 144 174 221 273
#     4  10  20  32  47  68  92 124 158 190 228 271
#
# _framework density 21.759347999999999
#
# number of rings (size 3 to 8) (size 9 to 14) (size 15 to 20)
#    0.000    3.000    1.250    3.000    0.000    2.500 
#    0.000    2.500    0.000    3.750    0.000   12.250 
#    0.000    0.000    0.000    0.000    0.000    0.000 
#
# Total GULP energy -178518.778908 kJ/mol
# GULP energy per Si atom -5578.711841 kJ/mol
# Density = 2.170982 g / cm^3
# Si number density = 21.759348 Si / 1000 Ang^3
#
#
#
# Elastic Constant Matrix: (Units=GPa)
#
#
# Indices 1 2 3 4 5 6 
#
# 1 41.9085 0.5285 16.5210 0.0000 5.6601 0.0000
# 2 0.5285 66.7649 3.1595 0.0000 1.6713 0.0000
# 3 16.5210 3.1595 152.4446 0.0000 7.0883 0.0000
# 4 0.0000 0.0000 0.0000 0.9422 0.0000 -28.2282
# 5 5.6601 1.6713 7.0883 0.0000 26.4025 0.0000
# 6 0.0000 0.0000 0.0000 -28.2282 0.0000 38.1760
#
#
#
# Elastic Compliance Matrix: (Units=1/GPa)
#
#
# Indices 1 2 3 4 5 6 
#
# 1 0.025510 0.000038 -0.002543 0.000000 -0.004789 0.000000
# 2 0.000038 0.015013 -0.000274 0.000000 -0.000885 0.000000
# 3 -0.002543 -0.000274 0.006901 0.000000 -0.001290 0.000000
# 4 0.000000 0.000000 0.000000 -0.050175 0.000000 -0.037100
# 5 -0.004789 -0.000885 -0.001290 0.000000 0.039304 0.000000
# 6 0.000000 0.000000 0.000000 -0.037100 0.000000 -0.001238
#
#
# Mechanical properties :
#
#
# Convention : Reuss Voigt Hill
#
# Bulk Modulus (GPa) = 23.88537 33.50400 28.69468
# Shear Modulus (GPa) = 91.19464 29.16476 60.17970
#
# Velocity S-wave (km/s) = 6.48086 3.66503 5.26469
# Velocity P-wave (km/s) = 8.18553 5.77415 7.08321
#
# Compressibility (1/GPa) = 0.04186663
#
# Stress axis : x y z
#
# Youngs Moduli (GPa) = 39.20007 66.61006 144.90639
#
# Poissons Ratio (x) = -0.00255 0.36846
# Poissons Ratio (y) = -0.00150 0.03973
# Poissons Ratio (z) = 0.09968 0.01826
#
# Static dielectric constant tensor:
#      x y z
#    x 1.750300 0.000000 -0.001520 
#    y 0.000000 1.841690 0.000000 
#    z -0.001520 0.000000 1.838850 
# 
# From -- ./inp_files/83379.got.cif
#   From: 2010.05.17/outbox.cif.g08.bks.cpg/sg10_42_cif.got.tgz:83379.got - 2010.06.03 11:33:40.
