data_PCOD9148403
_publ_section_title
;
Structure prediction by ZEFSAII (Michael W. Deem and Ramdas Pophale) SiO2 
 PCOD9148403
Probable space group: P 2/M
;
_chemical_formula_sum "Si O2"
_cell_formula_units_Z 28
_cell_length_a 5.411196
_cell_length_b 12.930074
_cell_length_c 20.708344
_cell_angle_alpha 90.000000
_cell_angle_beta 75.363642
_cell_angle_gamma 90.000000
_cell_volume 1401.885758
_symmetry_space_group_name_H-M "P 2/M"
_symmetry_group_IT_number 10
_symmetry_cell_setting 'monoclinic'
loop_
_space_group_symop_operation_xyz
x,y,z
-x,y,-z
-x,-y,-z
x,-y,z
loop_
_atom_site_type_symbol
_atom_site_label
_atom_site_fract_x
_atom_site_fract_y
_atom_site_fract_z
Si Si1 0.709413 0.379487 0.543013
Si Si2 0.546594 0.619244 0.207102
Si Si3 0.475459 0.762993 0.328651
Si Si4 0.988533 0.876783 0.292472
Si Si5 0.931188 0.316772 0.070784
Si Si6 0.628790 0.889998 0.061627
Si Si7 0.782104 0.215383 0.839734
O O1 0.500000 0.366873 0.500000
O O2 0.695226 0.500000 0.565357
O O3 0.639698 0.302092 0.604949
O O4 0.000000 0.361748 0.500000
O O5 0.487072 0.500000 0.222061
O O6 0.596953 0.679672 0.270143
O O7 0.763660 0.627897 0.137087
O O8 0.316781 0.686974 0.193840
O O9 0.714190 0.834320 0.334203
O O10 0.240017 0.826335 0.310538
O O11 0.002291 0.840204 0.216221
O O12 0.001551 0.000000 0.296730
O O13 0.784731 0.214480 0.056992
O O14 0.161439 0.267621 0.095481
O O15 0.000000 0.374791 0.000000
O O16 0.423088 0.873019 0.131799
O O17 0.766002 0.000000 0.062930
O O18 0.500000 0.894188 0.000000
#
# Coordination Sequence:
#
# PCOD9148403 Si02
#       7
#     4   4   4   4   4   4   4
#     4  10  21  39  67 103 137 171 208 254 315 372
#     4  10  23  40  59  84 114 156 204 253 310 371
#     4  11  22  42  66  97 131 167 208 261 310 365
#     4  11  23  40  64  92 127 170 217 259 311 371
#     4  11  21  37  55  78 114 149 196 256 313 380
#     4  10  20  32  51  76 104 141 187 244 314 374
#     4  10  21  39  53  80 111 151 201 258 308 368
#
# _framework density 19.973099000000001
#
# number of rings (size 3 to 8) (size 9 to 14) (size 15 to 20)
#    0.000    1.571    2.857    2.143    0.000    2.286 
#    0.000    2.143    0.000    8.571    0.000    0.000 
#    0.000    0.000    0.000    0.000    0.000    0.000 
#
# Total GULP energy -156046.956048 kJ/mol
# GULP energy per Si atom -5573.105573 kJ/mol
# Density = 1.992764 g / cm^3
# Si number density = 19.973099 Si / 1000 Ang^3
#
#
#
# Elastic Constant Matrix: (Units=GPa)
#
#
# Indices 1 2 3 4 5 6 
#
# 1 75.2695 38.7930 27.1292 0.0000 -13.0026 0.0000
# 2 38.7930 151.7247 56.2885 0.0000 -6.5801 0.0000
# 3 27.1292 56.2885 98.0752 0.0000 -16.4648 0.0000
# 4 0.0000 0.0000 0.0000 -66.4725 0.0000 106.7583
# 5 -13.0026 -6.5801 -16.4648 0.0000 28.7546 0.0000
# 6 0.0000 0.0000 0.0000 106.7583 0.0000 -93.1488
#
#
#
# Elastic Compliance Matrix: (Units=1/GPa)
#
#
# Indices 1 2 3 4 5 6 
#
# 1 0.016633 -0.003373 -0.001695 0.000000 0.005779 0.000000
# 2 -0.003373 0.009080 -0.004631 0.000000 -0.002099 0.000000
# 3 -0.001695 -0.004631 0.014401 0.000000 0.006420 0.000000
# 4 0.000000 0.000000 0.000000 0.017894 0.000000 0.020509
# 5 0.005779 -0.002099 0.006420 0.000000 0.040586 0.000000
# 6 0.000000 0.000000 0.000000 0.020509 0.000000 0.012770
#
#
# Mechanical properties :
#
#
# Convention : Reuss Voigt Hill
#
# Bulk Modulus (GPa) = 48.27098 63.27675 55.77387
# Shear Modulus (GPa) = 36.31942 -12.64940 11.83501
#
# Velocity S-wave (km/s) = 4.26892 -2.51932 2.43687
# Velocity P-wave (km/s) = 6.96553 4.82567 5.99190
#
# Compressibility (1/GPa) = 0.02071638
#
# Stress axis : x y z
#
# Youngs Moduli (GPa) = 60.11999 110.12800 69.44195
#
# Poissons Ratio (x) = 0.37151 0.11769
# Poissons Ratio (y) = 0.20281 0.32157
# Poissons Ratio (z) = 0.10189 0.50997
#
# Static dielectric constant tensor:
#      x y z
#    x 1.832260 0.000000 -0.001550 
#    y 0.000000 1.670480 0.000000 
#    z -0.001550 0.000000 1.788930 
# 
# From -- ./inp_files/12263.got.cif
#   From: 2010.05.17/outbox.cif.g08.bks.cpg/sg10_7_cif.got.tgz:12263.got - 2010.06.03 11:33:40.
