data_PCOD9148954
_publ_section_title
;
Structure prediction by ZEFSAII (Michael W. Deem and Ramdas Pophale) SiO2 
 PCOD9148954
Probable space group: P 2/M
;
_chemical_formula_sum "Si O2"
_cell_formula_units_Z 24
_cell_length_a 23.342606
_cell_length_b 7.423931
_cell_length_c 10.399032
_cell_angle_alpha 90.000000
_cell_angle_beta 139.525966
_cell_angle_gamma 90.000000
_cell_volume 1169.741899
_symmetry_space_group_name_H-M "P 2/M"
_symmetry_group_IT_number 10
_symmetry_cell_setting 'monoclinic'
loop_
_space_group_symop_operation_xyz
x,y,z
-x,y,-z
-x,-y,-z
x,-y,z
loop_
_atom_site_type_symbol
_atom_site_label
_atom_site_fract_x
_atom_site_fract_y
_atom_site_fract_z
Si Si1 0.573498 0.780210 0.726559
Si Si2 0.229289 0.220006 0.637461
Si Si3 0.059347 0.794705 0.212229
Si Si4 0.571037 0.780412 0.017539
Si Si5 0.773454 0.217243 0.071651
Si Si6 0.961091 0.708794 0.299349
O O1 0.500000 0.719652 0.500000
O O2 0.554294 0.725472 0.841149
O O3 0.573139 0.000000 0.724863
O O4 0.674163 0.724984 0.866330
O O5 0.153527 0.285582 0.412859
O O6 0.210534 0.274638 0.752890
O O7 0.226425 0.000000 0.632553
O O8 0.329140 0.273441 0.777036
O O9 0.002842 0.798832 0.246474
O O10 0.078125 0.000000 0.201413
O O11 0.000000 0.708804 0.000000
O O12 0.569529 0.000000 0.014914
O O13 0.500000 0.718588 0.000000
O O14 0.855427 0.278786 0.126835
O O15 0.773984 0.000000 0.070805
O O16 0.987276 0.500000 0.336679
O O17 0.000000 0.783072 0.500000
#
# Coordination Sequence:
#
# PCOD9148954 Si02
#       6
#     4   4   4   4   4   4
#     4   8  14  25  41  66  96 122 151 191 241 290
#     4   8  14  26  44  65  93 126 157 190 234 289
#     4  10  20  34  51  73 101 130 162 201 248 295
#     4   8  13  22  37  58  88 124 151 179 228 283
#     4   9  16  29  51  72  96 130 161 198 247 289
#     4  11  22  34  51  74  98 128 171 211 245 291
#
# _framework density 20.517346
#
# number of rings (size 3 to 8) (size 9 to 14) (size 15 to 20)
#    0.000    3.000    1.667    2.500    0.000    1.000 
#    3.000    0.000    0.000    0.500    0.000    0.000 
#    0.000    4.000    0.000    0.000    0.000    0.000 
#
# Total GULP energy -133888.711910 kJ/mol
# GULP energy per Si atom -5578.696330 kJ/mol
# Density = 2.047065 g / cm^3
# Si number density = 20.517346 Si / 1000 Ang^3
#
#
#
# Elastic Constant Matrix: (Units=GPa)
#
#
# Indices 1 2 3 4 5 6 
#
# 1 123.2353 -6.6136 72.3285 0.0000 19.1369 0.0000
# 2 -6.6136 67.4197 4.8387 0.0000 -0.9050 0.0000
# 3 72.3285 4.8387 203.9946 0.0000 19.6249 0.0000
# 4 0.0000 0.0000 0.0000 -9.4812 0.0000 -17.1138
# 5 19.1369 -0.9050 19.6249 0.0000 24.7824 0.0000
# 6 0.0000 0.0000 0.0000 -17.1138 0.0000 -78.5194
#
#
#
# Elastic Compliance Matrix: (Units=1/GPa)
#
#
# Indices 1 2 3 4 5 6 
#
# 1 0.011080 0.001253 -0.003398 0.000000 -0.005819 0.000000
# 2 0.001253 0.015018 -0.000823 0.000000 0.000233 0.000000
# 3 -0.003398 -0.000823 0.006362 0.000000 -0.002443 0.000000
# 4 0.000000 0.000000 0.000000 -0.173880 0.000000 0.037898
# 5 -0.005819 0.000233 -0.002443 0.000000 0.046788 0.000000
# 6 0.000000 0.000000 0.000000 0.037898 0.000000 -0.020996
#
#
# Mechanical properties :
#
#
# Convention : Reuss Voigt Hill
#
# Bulk Modulus (GPa) = 37.70430 59.52853 48.61642
# Shear Modulus (GPa) = -49.57811 8.96277 -20.30767
#
# Velocity S-wave (km/s) = -4.92102 2.09234 -3.14949
# Velocity P-wave (km/s) = 3.72450 5.90880 3.24361
#
# Compressibility (1/GPa) = 0.02652217
#
# Stress axis : x y z
#
# Youngs Moduli (GPa) = 90.25277 66.58893 157.19240
#
# Poissons Ratio (x) = -0.08342 0.53421
# Poissons Ratio (y) = -0.11306 0.12933
# Poissons Ratio (z) = 0.30672 0.05479
#
# Static dielectric constant tensor:
#      x y z
#    x 1.691270 0.000000 0.018700 
#    y 0.000000 1.772120 0.000000 
#    z 0.018700 0.000000 1.734920 
# 
# From -- ./inp_files/33960.got.cif
#   From: 2010.05.17/outbox.cif.g08.bks.cpg/sg10_17_cif.got.tgz:33960.got - 2010.06.03 11:33:40.
