data_PCOD9148349
_publ_section_title
;
Structure prediction by ZEFSAII (Michael W. Deem and Ramdas Pophale) SiO2 
 PCOD9148349
Probable space group: P 2/M
;
_chemical_formula_sum "Si O2"
_cell_formula_units_Z 32
_cell_length_a 23.263977
_cell_length_b 8.965750
_cell_length_c 17.260246
_cell_angle_alpha 90.000000
_cell_angle_beta 31.259088
_cell_angle_gamma 90.000000
_cell_volume 1868.136676
_symmetry_space_group_name_H-M "P 2/M"
_symmetry_group_IT_number 10
_symmetry_cell_setting 'monoclinic'
loop_
_space_group_symop_operation_xyz
x,y,z
-x,y,-z
-x,-y,-z
x,-y,z
loop_
_atom_site_type_symbol
_atom_site_label
_atom_site_fract_x
_atom_site_fract_y
_atom_site_fract_z
Si Si1 0.873464 0.179489 0.479312
Si Si2 0.443618 0.321104 0.402139
Si Si3 0.134167 0.170730 0.339743
Si Si4 0.106875 0.173915 0.829389
Si Si5 0.328625 0.827496 0.676348
Si Si6 0.312009 0.320676 0.862540
Si Si7 0.769993 0.678357 0.450211
Si Si8 0.116858 0.321494 0.201580
O O1 0.830464 0.220312 0.615168
O O2 0.797338 0.243107 0.499274
O O3 0.997231 0.245937 0.327140
O O4 0.880141 0.000000 0.468713
O O5 0.435927 0.500000 0.419401
O O6 0.414343 0.249154 0.518708
O O7 0.569369 0.282355 0.235621
O O8 0.348648 0.276863 0.450338
O O9 0.160209 0.272700 0.236489
O O10 0.000000 0.168139 0.500000
O O11 0.170331 0.000000 0.284057
O O12 0.211752 0.179755 0.765708
O O13 0.138542 0.268960 0.717854
O O14 0.089446 0.000000 0.826925
O O15 0.000000 0.225816 0.000000
O O16 0.314926 0.747317 0.773758
O O17 0.357940 0.000000 0.654138
O O18 0.306993 0.500000 0.862090
O O19 0.206487 0.272867 0.034361
O O20 0.772876 0.500000 0.455303
O O21 0.104040 0.500000 0.213353
#
# Coordination Sequence:
#
# PCOD9148349 Si02
#       8
#     4   4   4   4   4   4   4   4
#     4  10  20  34  53  75 104 136 163 196 246 306
#     4   9  19  37  54  68  96 136 170 206 253 296
#     4   8  16  32  51  72 100 135 164 192 243 304
#     4   9  19  34  48  66  98 137 166 197 248 299
#     4  10  20  32  49  74  98 127 173 214 244 287
#     4  10  21  35  51  72 101 134 166 204 253 300
#     4  10  20  33  52  76  96 125 171 212 244 286
#     4  10  20  32  50  79 106 129 163 206 247 292
#
# _framework density 17.129367999999999
#
# number of rings (size 3 to 8) (size 9 to 14) (size 15 to 20)
#    0.000    2.500    0.000    2.625    1.750    7.000 
#    0.000    0.000    0.000    0.750    0.000    5.250 
#    0.000    0.000    0.000    0.000    0.000    0.000 
#
# Total GULP energy -178449.057669 kJ/mol
# GULP energy per Si atom -5576.533052 kJ/mol
# Density = 1.709038 g / cm^3
# Si number density = 17.129368 Si / 1000 Ang^3
#
#
#
# Elastic Constant Matrix: (Units=GPa)
#
#
# Indices 1 2 3 4 5 6 
#
# 1 102.8721 32.0784 24.0315 0.0000 20.6594 0.0000
# 2 32.0784 33.9049 17.8244 0.0000 4.4594 0.0000
# 3 24.0315 17.8244 46.8284 0.0000 4.7223 0.0000
# 4 0.0000 0.0000 0.0000 -629.8693 0.0000 245.5047
# 5 20.6594 4.4594 4.7223 0.0000 14.8096 0.0000
# 6 0.0000 0.0000 0.0000 245.5047 0.0000 -57.8913
#
#
#
# Elastic Compliance Matrix: (Units=1/GPa)
#
#
# Indices 1 2 3 4 5 6 
#
# 1 0.018871 -0.013852 -0.002250 0.000000 -0.021436 0.000000
# 2 -0.013852 0.047725 -0.011941 0.000000 0.008760 0.000000
# 3 -0.002250 -0.011941 0.027251 0.000000 -0.001955 0.000000
# 4 0.000000 0.000000 0.000000 0.002432 0.000000 0.010312
# 5 -0.021436 0.008760 -0.001955 0.000000 0.095413 0.000000
# 6 0.000000 0.000000 0.000000 0.010312 0.000000 0.026456
#
#
# Mechanical properties :
#
#
# Convention : Reuss Voigt Hill
#
# Bulk Modulus (GPa) = 26.48141 36.83047 31.65594
# Shear Modulus (GPa) = 17.43254 -127.27880 -54.92313
#
# Velocity S-wave (km/s) = 3.19360 -8.62935 -5.66863
# Velocity P-wave (km/s) = 5.39370 8.81701 4.93192
#
# Compressibility (1/GPa) = 0.03776234
#
# Stress axis : x y z
#
# Youngs Moduli (GPa) = 52.99195 20.95336 36.69538
#
# Poissons Ratio (x) = 0.29024 0.08257
# Poissons Ratio (y) = 0.73404 0.43816
# Poissons Ratio (z) = 0.11923 0.25020
#
# Static dielectric constant tensor:
#      x y z
#    x 1.591710 0.000000 -0.012600 
#    y 0.000000 1.575790 0.000000 
#    z -0.012600 0.000000 1.568270 
# 
# From -- ./inp_files/79922.got.cif
#   From: 2010.05.17/outbox.cif.g08.bks.cpg/sg10_40_cif.got.tgz:79922.got - 2010.06.03 11:33:40.
