data_PCOD9148169
_publ_section_title
;
Structure prediction by ZEFSAII (Michael W. Deem and Ramdas Pophale) SiO2 
 PCOD9148169
Probable space group: P 2/M
;
_chemical_formula_sum "Si O2"
_cell_formula_units_Z 32
_cell_length_a 5.538265
_cell_length_b 19.995515
_cell_length_c 14.340748
_cell_angle_alpha 90.000000
_cell_angle_beta 122.163689
_cell_angle_gamma 90.000000
_cell_volume 1344.376295
_symmetry_space_group_name_H-M "P 2/M"
_symmetry_group_IT_number 10
_symmetry_cell_setting 'monoclinic'
loop_
_space_group_symop_operation_xyz
x,y,z
-x,y,-z
-x,-y,-z
x,-y,z
loop_
_atom_site_type_symbol
_atom_site_label
_atom_site_fract_x
_atom_site_fract_y
_atom_site_fract_z
Si Si1 0.406627 0.805482 0.832043
Si Si2 0.343912 0.420870 0.061632
Si Si3 0.611342 0.146262 0.616421
Si Si4 0.072794 0.768452 0.157368
Si Si5 0.694464 0.364904 0.755965
Si Si6 0.821410 0.572104 0.605603
Si Si7 0.154230 0.292509 0.619505
Si Si8 0.802586 0.920778 0.324684
O O1 0.728428 0.781004 0.890337
O O2 0.231739 0.758404 0.719403
O O3 0.375636 0.881241 0.791184
O O4 0.237652 0.796750 0.892105
O O5 0.397444 0.500000 0.077765
O O6 0.452144 0.387152 0.178432
O O7 0.500000 0.396609 0.000000
O O8 0.000000 0.412077 0.000000
O O9 0.500000 0.181843 0.500000
O O10 0.745769 0.193774 0.723076
O O11 0.350877 0.106939 0.612937
O O12 0.871284 0.099866 0.632442
O O13 0.067516 0.689491 0.172495
O O14 0.805091 0.423553 0.714593
O O15 0.455611 0.323890 0.651096
O O16 0.500000 0.571580 0.500000
O O17 0.955418 0.500000 0.605749
O O18 0.972198 0.641175 0.607462
O O19 0.000000 0.258719 0.500000
O O20 0.776778 0.000000 0.317790
#
# Coordination Sequence:
#
# PCOD9148169 Si02
#       8
#     4   4   4   4   4   4   4   4
#     4   9  19  33  49  72  99 140 181 227 265 318
#     4  10  24  44  64  86 110 140 184 233 283 341
#     4  10  20  31  44  64  95 134 174 224 266 312
#     4   9  19  32  51  73  97 125 175 213 267 321
#     4  11  22  38  60  81 107 146 184 230 282 331
#     4  11  23  36  52  79 112 144 182 229 280 333
#     4  11  22  36  53  78 112 148 186 229 278 340
#     4  10  20  32  44  63  91 131 184 235 271 298
#
# _framework density 23.802858000000001
#
# number of rings (size 3 to 8) (size 9 to 14) (size 15 to 20)
#    0.000    1.875    2.500    1.125    1.750    9.250 
#    0.000    0.000    0.000    0.000    0.000    0.000 
#    0.000    0.000    0.000    0.000    0.000  496.250 
#
# Total GULP energy -178761.768776 kJ/mol
# GULP energy per Si atom -5586.305274 kJ/mol
# Density = 2.374868 g / cm^3
# Si number density = 23.802858 Si / 1000 Ang^3
#
#
#
# Elastic Constant Matrix: (Units=GPa)
#
#
# Indices 1 2 3 4 5 6 
#
# 1 164.1937 39.2793 34.2984 0.0000 -25.6467 0.0000
# 2 39.2793 120.6481 27.8158 0.0000 -13.5393 0.0000
# 3 34.2984 27.8158 77.9948 0.0000 -12.8910 0.0000
# 4 0.0000 0.0000 0.0000 60.1976 0.0000 -6.2906
# 5 -25.6467 -13.5393 -12.8910 0.0000 35.3922 0.0000
# 6 0.0000 0.0000 0.0000 -6.2906 0.0000 36.6687
#
#
#
# Elastic Compliance Matrix: (Units=1/GPa)
#
#
# Indices 1 2 3 4 5 6 
#
# 1 0.007532 -0.001507 -0.002094 0.000000 0.004119 0.000000
# 2 -0.001507 0.009533 -0.002463 0.000000 0.001658 0.000000
# 3 -0.002094 -0.002463 0.015125 0.000000 0.003049 0.000000
# 4 0.000000 0.000000 0.000000 0.016915 0.000000 0.002902
# 5 0.004119 0.001658 0.003049 0.000000 0.032984 0.000000
# 6 0.000000 0.000000 0.000000 0.002902 0.000000 0.027769
#
#
# Mechanical properties :
#
#
# Convention : Reuss Voigt Hill
#
# Bulk Modulus (GPa) = 49.84765 62.84708 56.34736
# Shear Modulus (GPa) = 38.85825 43.88124 41.36975
#
# Velocity S-wave (km/s) = 4.04481 4.29829 4.17347
# Velocity P-wave (km/s) = 6.54227 7.14802 6.85184
#
# Compressibility (1/GPa) = 0.02006113
#
# Stress axis : x y z
#
# Youngs Moduli (GPa) = 132.77401 104.89715 66.11762
#
# Poissons Ratio (x) = 0.15809 0.13844
# Poissons Ratio (y) = 0.20011 0.16286
# Poissons Ratio (z) = 0.27801 0.25838
#
# Static dielectric constant tensor:
#      x y z
#    x 2.009280 0.000000 0.022810 
#    y 0.000000 1.854160 0.000000 
#    z 0.022810 0.000000 1.995740 
# 
# From -- ./inp_files/59635.got.cif
#   From: 2010.05.17/outbox.cif.g08.bks.cpg/sg10_30_cif.got.tgz:59635.got - 2010.06.03 11:33:40.
