data_PCOD9148924
_publ_section_title
;
Structure prediction by ZEFSAII (Michael W. Deem and Ramdas Pophale) SiO2 
 PCOD9148924
Probable space group: P 2/M
;
_chemical_formula_sum "Si O2"
_cell_formula_units_Z 32
_cell_length_a 16.019886
_cell_length_b 8.759591
_cell_length_c 28.274120
_cell_angle_alpha 90.000000
_cell_angle_beta 28.162501
_cell_angle_gamma 90.000000
_cell_volume 1872.622769
_symmetry_space_group_name_H-M "P 2/M"
_symmetry_group_IT_number 10
_symmetry_cell_setting 'monoclinic'
loop_
_space_group_symop_operation_xyz
x,y,z
-x,y,-z
-x,-y,-z
x,-y,z
loop_
_atom_site_type_symbol
_atom_site_label
_atom_site_fract_x
_atom_site_fract_y
_atom_site_fract_z
Si Si1 0.210635 0.815413 0.341866
Si Si2 0.807685 0.185341 0.540352
Si Si3 0.197887 0.683951 0.080116
Si Si4 0.817285 0.817926 0.808101
Si Si5 0.200636 0.682475 0.618868
Si Si6 0.446756 0.817316 0.416802
Si Si7 0.565751 0.317461 0.853451
Si Si8 0.799420 0.682341 0.269909
O O1 0.235238 0.769257 0.384353
O O2 0.351743 0.746367 0.235827
O O3 0.009858 0.768473 0.428255
O O4 0.218426 0.000000 0.335457
O O5 0.667078 0.235782 0.571655
O O6 0.808245 0.000000 0.539895
O O7 0.196231 0.500000 0.088377
O O8 0.223173 0.760416 0.118671
O O9 0.003138 0.725842 0.158521
O O10 0.360968 0.722972 0.964961
O O11 0.679411 0.749786 0.839912
O O12 0.014117 0.757949 0.698050
O O13 0.813966 0.000000 0.807774
O O14 0.187619 0.500000 0.620791
O O15 0.353872 0.745733 0.509210
O O16 0.230304 0.716860 0.659475
O O17 0.649502 0.765327 0.315016
O O18 0.436282 0.000000 0.424774
O O19 0.580625 0.500000 0.846628
O O20 0.781524 0.500000 0.272892
#
# Coordination Sequence:
#
# PCOD9148924 Si02
#       8
#     4   4   4   4   4   4   4   4
#     4   9  17  34  56  74  97 130 163 196 241 297
#     4   8  17  33  52  74 101 130 157 193 247 302
#     4   9  20  37  52  67  97 137 170 205 248 290
#     4  11  21  32  49  75 104 132 166 205 243 290
#     4  10  20  34  50  70 101 138 170 202 244 293
#     4  11  20  30  49  77 103 128 164 208 251 296
#     4  11  21  33  51  75 101 130 165 204 249 297
#     4   9  19  35  50  66  94 135 174 204 242 291
#
# _framework density 17.088334
#
# number of rings (size 3 to 8) (size 9 to 14) (size 15 to 20)
#    0.000    2.250    0.000    5.250    0.000    7.500 
#    0.000    3.125    0.000    0.750    0.000    5.250 
#    0.000    0.000    0.000    0.000    0.000    0.000 
#
# Total GULP energy -178616.823621 kJ/mol
# GULP energy per Si atom -5581.775738 kJ/mol
# Density = 1.704944 g / cm^3
# Si number density = 17.088334 Si / 1000 Ang^3
#
#
#
# Elastic Constant Matrix: (Units=GPa)
#
#
# Indices 1 2 3 4 5 6 
#
# 1 79.1828 28.9739 60.7707 0.0000 -20.3717 0.0000
# 2 28.9739 35.7675 37.9211 0.0000 -4.7695 0.0000
# 3 60.7707 37.9211 137.1525 0.0000 -7.8357 0.0000
# 4 0.0000 0.0000 0.0000 19.3840 0.0000 -2.9575
# 5 -20.3717 -4.7695 -7.8357 0.0000 18.6890 0.0000
# 6 0.0000 0.0000 0.0000 -2.9575 0.0000 -14.0138
#
#
#
# Elastic Compliance Matrix: (Units=1/GPa)
#
#
# Indices 1 2 3 4 5 6 
#
# 1 0.030511 -0.011954 -0.008696 0.000000 0.026561 0.000000
# 2 -0.011954 0.044826 -0.007364 0.000000 -0.004678 0.000000
# 3 -0.008696 -0.007364 0.012839 0.000000 -0.005976 0.000000
# 4 0.000000 0.000000 0.000000 0.049980 0.000000 -0.010548
# 5 0.026561 -0.004678 -0.005976 0.000000 0.078761 0.000000
# 6 0.000000 0.000000 0.000000 -0.010548 0.000000 -0.069132
#
#
# Mechanical properties :
#
#
# Convention : Reuss Voigt Hill
#
# Bulk Modulus (GPa) = 31.10771 56.38158 43.74464
# Shear Modulus (GPa) = 23.30688 13.10764 18.20726
#
# Velocity S-wave (km/s) = 3.69712 2.77258 3.26771
# Velocity P-wave (km/s) = 6.03891 6.58144 6.31601
#
# Compressibility (1/GPa) = 0.03214638
#
# Stress axis : x y z
#
# Youngs Moduli (GPa) = 32.77520 22.30862 77.88625
#
# Poissons Ratio (x) = 0.26667 0.67733
# Poissons Ratio (y) = 0.39179 0.57359
# Poissons Ratio (z) = 0.28503 0.16429
#
# Static dielectric constant tensor:
#      x y z
#    x 1.567910 0.000000 -0.013530 
#    y 0.000000 1.575280 0.000000 
#    z -0.013530 0.000000 1.580190 
# 
# From -- ./inp_files/66460.got.cif
#   From: 2010.05.17/outbox.cif.g08.bks.cpg/sg10_34_cif.got.tgz:66460.got - 2010.06.03 11:33:40.
