data_PCOD9148180
_publ_section_title
;
Structure prediction by ZEFSAII (Michael W. Deem and Ramdas Pophale) SiO2 
 PCOD9148180
Probable space group: P 2/M
;
_chemical_formula_sum "Si O2"
_cell_formula_units_Z 32
_cell_length_a 26.598292
_cell_length_b 8.644879
_cell_length_c 14.827208
_cell_angle_alpha 90.000000
_cell_angle_beta 147.129765
_cell_angle_gamma 90.000000
_cell_volume 1850.386433
_symmetry_space_group_name_H-M "P 2/M"
_symmetry_group_IT_number 10
_symmetry_cell_setting 'monoclinic'
loop_
_space_group_symop_operation_xyz
x,y,z
-x,y,-z
-x,-y,-z
x,-y,z
loop_
_atom_site_type_symbol
_atom_site_label
_atom_site_fract_x
_atom_site_fract_y
_atom_site_fract_z
Si Si1 0.434474 0.317268 0.260292
Si Si2 0.735794 0.816539 0.887050
Si Si3 0.360389 0.813408 0.640804
Si Si4 0.268203 0.813578 0.680164
Si Si5 0.901153 0.814042 0.453434
Si Si6 0.105389 0.683345 0.751858
Si Si7 0.563058 0.682927 0.950234
Si Si8 0.363081 0.813196 0.439086
O O1 0.425613 0.500000 0.265548
O O2 0.357078 0.224964 0.197768
O O3 0.421099 0.292388 0.132851
O O4 0.538226 0.260829 0.437787
O O5 0.713454 0.771858 0.750242
O O6 0.752519 0.000000 0.916521
O O7 0.820765 0.730370 0.061700
O O8 0.287519 0.762152 0.606755
O O9 0.462205 0.751964 0.819612
O O10 0.340804 0.765311 0.508212
O O11 0.363786 0.000000 0.646752
O O12 0.173867 0.761355 0.585997
O O13 0.266161 0.000000 0.677630
O O14 0.355472 0.759802 0.870599
O O15 0.869235 0.762074 0.305564
O O16 0.002477 0.742277 0.620240
O O17 0.908665 0.000000 0.466174
O O18 0.104206 0.500000 0.737221
O O19 0.561919 0.500000 0.965560
O O20 0.373759 0.000000 0.453373
#
# Coordination Sequence:
#
# PCOD9148180 Si02
#       8
#     4   4   4   4   4   4   4   4
#     4  10  20  32  47  71 103 135 166 203 246 292
#     4  11  21  33  51  74  98 129 169 206 244 291
#     4   9  18  34  51  69  97 131 167 205 243 283
#     4  10  20  32  51  75  97 127 165 202 242 289
#     4  10  20  36  56  78 103 129 158 196 243 294
#     4  11  22  36  54  77 103 130 159 195 244 296
#     4  10  20  31  45  70 103 135 166 199 239 288
#     4   9  19  34  51  70  97 133 169 206 245 286
#
# _framework density 17.293686000000001
#
# number of rings (size 3 to 8) (size 9 to 14) (size 15 to 20)
#    0.000    2.000    0.000    4.875    0.000    9.000 
#    0.000    0.000    0.000    0.750    0.000    5.250 
#    0.000    0.000    0.000    0.000    0.000    0.000 
#
# Total GULP energy -178683.691348 kJ/mol
# GULP energy per Si atom -5583.865355 kJ/mol
# Density = 1.725432 g / cm^3
# Si number density = 17.293686 Si / 1000 Ang^3
#
#
#
# Elastic Constant Matrix: (Units=GPa)
#
#
# Indices 1 2 3 4 5 6 
#
# 1 104.7819 14.3746 40.6780 0.0000 11.3118 0.0000
# 2 14.3746 24.0483 11.3079 0.0000 -2.0015 0.0000
# 3 40.6780 11.3079 87.1207 0.0000 -8.2793 0.0000
# 4 0.0000 0.0000 0.0000 -213.8928 0.0000 -130.5884
# 5 11.3118 -2.0015 -8.2793 0.0000 11.8831 0.0000
# 6 0.0000 0.0000 0.0000 -130.5884 0.0000 -64.3260
#
#
#
# Elastic Compliance Matrix: (Units=1/GPa)
#
#
# Indices 1 2 3 4 5 6 
#
# 1 0.016596 -0.007642 -0.008975 0.000000 -0.023338 0.000000
# 2 -0.007642 0.047957 -0.001282 0.000000 0.014459 0.000000
# 3 -0.008975 -0.001282 0.017805 0.000000 0.020733 0.000000
# 4 0.000000 0.000000 0.000000 0.019526 0.000000 -0.039639
# 5 -0.023338 0.014459 0.020733 0.000000 0.123249 0.000000
# 6 0.000000 0.000000 0.000000 -0.039639 0.000000 0.064925
#
#
# Mechanical properties :
#
#
# Convention : Reuss Voigt Hill
#
# Bulk Modulus (GPa) = 21.47764 38.74131 30.10948
# Shear Modulus (GPa) = 14.64659 -43.29445 -14.32393
#
# Velocity S-wave (km/s) = 2.91337 -5.00891 -2.88110
# Velocity P-wave (km/s) = 4.87476 3.31687 2.52603
#
# Compressibility (1/GPa) = 0.04656004
#
# Stress axis : x y z
#
# Youngs Moduli (GPa) = 60.25704 20.85185 56.16261
#
# Poissons Ratio (x) = 0.15935 0.50404
# Poissons Ratio (y) = 0.46049 0.07202
# Poissons Ratio (z) = 0.54079 0.02674
#
# Static dielectric constant tensor:
#      x y z
#    x 1.606720 0.000000 -0.022240 
#    y 0.000000 1.576590 0.000000 
#    z -0.022240 0.000000 1.562830 
# 
# From -- ./inp_files/72198.got.cif
#   From: 2010.05.17/outbox.cif.g08.bks.cpg/sg10_37_cif.got.tgz:72198.got - 2010.06.03 11:33:40.
