data_PCOD9148433
_publ_section_title
;
Structure prediction by ZEFSAII (Michael W. Deem and Ramdas Pophale) SiO2 
 PCOD9148433
Probable space group: P 2/M
;
_chemical_formula_sum "Si O2"
_cell_formula_units_Z 32
_cell_length_a 27.636702
_cell_length_b 13.847898
_cell_length_c 9.660898
_cell_angle_alpha 90.000000
_cell_angle_beta 153.030387
_cell_angle_gamma 90.000000
_cell_volume 1676.802797
_symmetry_space_group_name_H-M "P 2/M"
_symmetry_group_IT_number 10
_symmetry_cell_setting 'monoclinic'
loop_
_space_group_symop_operation_xyz
x,y,z
-x,y,-z
-x,-y,-z
x,-y,z
loop_
_atom_site_type_symbol
_atom_site_label
_atom_site_fract_x
_atom_site_fract_y
_atom_site_fract_z
Si Si1 0.497249 0.886366 0.326289
Si Si2 0.972200 0.612370 0.266296
Si Si3 0.306975 0.763428 0.292324
Si Si4 0.279238 0.384990 0.439945
Si Si5 0.828664 0.267865 0.313926
Si Si6 0.808093 0.110314 0.768961
Si Si7 0.704450 0.757400 0.276528
Si Si8 0.040919 0.892450 0.461392
O O1 0.500000 0.885392 0.500000
O O2 0.601171 0.832019 0.532656
O O3 0.490452 0.000000 0.265817
O O4 0.399057 0.819972 0.026421
O O5 0.987655 0.500000 0.272193
O O6 0.000000 0.624241 0.500000
O O7 0.060594 0.673582 0.410275
O O8 0.848351 0.634411 0.915587
O O9 0.340987 0.676492 0.480624
O O10 0.234763 0.833344 0.204884
O O11 0.244161 0.712887 0.005894
O O12 0.295021 0.500000 0.474749
O O13 0.311355 0.336292 0.666847
O O14 0.765500 0.274853 0.294255
O O15 0.865042 0.158593 0.377844
O O16 0.772817 0.169942 0.546010
O O17 0.767956 0.000000 0.665773
O O18 0.935528 0.106469 0.100957
O O19 0.000000 0.844182 0.500000
O O20 0.075580 0.000000 0.588338
#
# Coordination Sequence:
#
# PCOD9148433 Si02
#       8
#     4   4   4   4   4   4   4   4
#     4  11  24  43  66  93 123 159 209 263 311 366
#     4  10  20  36  63  96 124 158 204 250 298 364
#     4  11  21  38  66  91 114 158 214 258 305 361
#     4  10  23  43  66  94 129 163 201 254 314 373
#     4  12  21  35  60  89 122 159 202 251 307 358
#     4  10  21  37  55  84 121 157 199 250 304 368
#     4  11  25  41  59  88 126 162 200 256 318 370
#     4  10  20  32  52  83 119 159 203 243 292 369
#
# _framework density 19.083936999999999
#
# number of rings (size 3 to 8) (size 9 to 14) (size 15 to 20)
#    0.000    1.375    3.750    2.625    0.000    6.000 
#    0.000    6.875    0.000    0.750    0.000    0.000 
#    0.000    0.000    0.000    0.000    0.000    0.000 
#
# Total GULP energy -178557.535929 kJ/mol
# GULP energy per Si atom -5579.922998 kJ/mol
# Density = 1.904050 g / cm^3
# Si number density = 19.083937 Si / 1000 Ang^3
#
#
#
# Elastic Constant Matrix: (Units=GPa)
#
#
# Indices 1 2 3 4 5 6 
#
# 1 104.5433 40.7300 14.0558 0.0000 -7.4072 0.0000
# 2 40.7300 128.2596 11.2897 0.0000 1.4216 0.0000
# 3 14.0558 11.2897 42.8688 0.0000 -7.1719 0.0000
# 4 0.0000 0.0000 0.0000 26.7251 0.0000 -3.8367
# 5 -7.4072 1.4216 -7.1719 0.0000 25.6168 0.0000
# 6 0.0000 0.0000 0.0000 -3.8367 0.0000 17.9522
#
#
#
# Elastic Compliance Matrix: (Units=1/GPa)
#
#
# Indices 1 2 3 4 5 6 
#
# 1 0.011429 -0.003453 -0.002364 0.000000 0.002835 0.000000
# 2 -0.003453 0.009054 -0.001577 0.000000 -0.001942 0.000000
# 3 -0.002364 -0.001577 0.025618 0.000000 0.006576 0.000000
# 4 0.000000 0.000000 0.000000 0.038602 0.000000 0.008250
# 5 0.002835 -0.001942 0.006576 0.000000 0.041805 0.000000
# 6 0.000000 0.000000 0.000000 0.008250 0.000000 0.057467
#
#
# Mechanical properties :
#
#
# Convention : Reuss Voigt Hill
#
# Bulk Modulus (GPa) = 31.93591 45.31363 38.62477
# Shear Modulus (GPa) = 23.90055 28.03189 25.96622
#
# Velocity S-wave (km/s) = 3.54275 3.83675 3.69268
# Velocity P-wave (km/s) = 5.78840 6.58965 6.20198
#
# Compressibility (1/GPa) = 0.03131272
#
# Stress axis : x y z
#
# Youngs Moduli (GPa) = 87.49439 110.45437 39.03568
#
# Poissons Ratio (x) = 0.38138 0.09228
# Poissons Ratio (y) = 0.30210 0.06156
# Poissons Ratio (z) = 0.20683 0.17420
#
# Static dielectric constant tensor:
#      x y z
#    x 1.672420 0.000000 -0.024580 
#    y 0.000000 1.693560 0.000000 
#    z -0.024580 0.000000 1.701940 
# 
# From -- ./inp_files/36388.got.cif
#   From: 2010.05.17/outbox.cif.g08.bks.cpg/sg10_19_cif.got.tgz:36388.got - 2010.06.03 11:33:40.
