data_PCOD9148830
_publ_section_title
;
Structure prediction by ZEFSAII (Michael W. Deem and Ramdas Pophale) SiO2 
 PCOD9148830
Probable space group: P 2/M
;
_chemical_formula_sum "Si O2"
_cell_formula_units_Z 32
_cell_length_a 21.368115
_cell_length_b 15.546861
_cell_length_c 7.349759
_cell_angle_alpha 90.000000
_cell_angle_beta 36.195458
_cell_angle_gamma 90.000000
_cell_volume 1441.891539
_symmetry_space_group_name_H-M "P 2/M"
_symmetry_group_IT_number 10
_symmetry_cell_setting 'monoclinic'
loop_
_space_group_symop_operation_xyz
x,y,z
-x,y,-z
-x,-y,-z
x,-y,z
loop_
_atom_site_type_symbol
_atom_site_label
_atom_site_fract_x
_atom_site_fract_y
_atom_site_fract_z
Si Si1 0.112915 0.096495 0.248310
Si Si2 0.692538 0.800169 0.313137
Si Si3 0.877010 0.903747 0.343703
Si Si4 0.833915 0.644212 0.984868
Si Si5 0.960270 0.403293 0.343673
Si Si6 0.692909 0.775675 0.720772
Si Si7 0.488841 0.099322 0.803096
Si Si8 0.770994 0.403669 0.526091
O O1 0.135987 0.095335 0.407850
O O2 0.000000 0.143141 0.500000
O O3 0.097796 0.000000 0.213031
O O4 0.210295 0.133848 0.911652
O O5 0.657613 0.770471 0.594466
O O6 0.591487 0.852509 0.480278
O O7 0.755470 0.717334 0.090508
O O8 0.805796 0.823964 0.450583
O O9 0.842657 0.000000 0.360429
O O10 0.000000 0.893928 0.000000
O O11 0.877163 0.596053 0.706600
O O12 0.947732 0.664056 0.818541
O O13 0.775292 0.602077 0.295750
O O14 0.008028 0.500000 0.223055
O O15 0.888700 0.390125 0.334368
O O16 0.704598 0.677585 0.755498
O O17 0.612076 0.841111 0.003494
O O18 0.478710 0.000000 0.768647
O O19 0.500000 0.095663 0.000000
O O20 0.737286 0.500000 0.657985
#
# Coordination Sequence:
#
# PCOD9148830 Si02
#       8
#     4   4   4   4   4   4   4   4
#     4  10  21  34  51  76 113 152 184 227 285 351
#     4  10  21  34  55  83 111 147 191 239 295 345
#     4  10  21  36  54  80 116 152 188 234 291 354
#     4  10  20  33  54  82 115 153 194 243 286 357
#     4  10  20  34  55  81 115 159 195 239 302 355
#     4  10  21  36  59  85 111 149 197 244 294 353
#     4   9  18  36  61  85 112 147 195 249 296 354
#     4  10  21  36  56  84 118 154 196 245 297 356
#
# _framework density 22.193069000000001
#
# number of rings (size 3 to 8) (size 9 to 14) (size 15 to 20)
#    0.000    2.125    0.000    3.375    3.500    5.500 
#    0.000    0.625    0.000   13.125    0.000    1.750 
#    0.000    0.000    0.000    0.000    0.000    0.000 
#
# Total GULP energy -178283.512577 kJ/mol
# GULP energy per Si atom -5571.359768 kJ/mol
# Density = 2.214256 g / cm^3
# Si number density = 22.193069 Si / 1000 Ang^3
#
#
#
# Elastic Constant Matrix: (Units=GPa)
#
#
# Indices 1 2 3 4 5 6 
#
# 1 34.0186 24.5737 20.4542 0.0000 18.5405 0.0000
# 2 24.5737 165.4997 60.9736 0.0000 -28.8793 0.0000
# 3 20.4542 60.9736 89.9779 0.0000 -20.1198 0.0000
# 4 0.0000 0.0000 0.0000 32.4953 0.0000 -7.6237
# 5 18.5405 -28.8793 -20.1198 0.0000 34.1015 0.0000
# 6 0.0000 0.0000 0.0000 -7.6237 0.0000 20.8184
#
#
#
# Elastic Compliance Matrix: (Units=1/GPa)
#
#
# Indices 1 2 3 4 5 6 
#
# 1 0.144429 -0.028080 -0.042255 0.000000 -0.127234 0.000000
# 2 -0.028080 0.014055 0.003380 0.000000 0.029164 0.000000
# 3 -0.042255 0.003380 0.027885 0.000000 0.042287 0.000000
# 4 0.000000 0.000000 0.000000 0.033666 0.000000 0.012329
# 5 -0.127234 0.029164 0.042287 0.000000 0.148146 0.000000
# 6 0.000000 0.000000 0.000000 0.012329 0.000000 0.052549
#
#
# Mechanical properties :
#
#
# Convention : Reuss Voigt Hill
#
# Bulk Modulus (GPa) = 19.06197 55.72212 37.39204
# Shear Modulus (GPa) = 8.73932 29.71601 19.22767
#
# Velocity S-wave (km/s) = 1.98656 3.66317 2.94663
# Velocity P-wave (km/s) = 3.72420 6.56157 5.33497
#
# Compressibility (1/GPa) = 0.05246049
#
# Stress axis : x y z
#
# Youngs Moduli (GPa) = 6.92381 71.14688 35.86177
#
# Poissons Ratio (x) = 1.99778 1.51532
# Poissons Ratio (y) = 0.19442 -0.12120
# Poissons Ratio (z) = 0.29256 -0.24045
#
# Static dielectric constant tensor:
#      x y z
#    x 1.892920 0.000000 0.037620 
#    y 0.000000 1.853510 0.000000 
#    z 0.037620 0.000000 1.835260 
# 
# From -- ./inp_files/36353.got.cif
#   From: 2010.05.17/outbox.cif.g08.bks.cpg/sg10_19_cif.got.tgz:36353.got - 2010.06.03 11:33:40.
