data_PCOD9148964
_publ_section_title
;
Structure prediction by ZEFSAII (Michael W. Deem and Ramdas Pophale) SiO2 
 PCOD9148964
Probable space group: P 2/M
;
_chemical_formula_sum "Si O2"
_cell_formula_units_Z 32
_cell_length_a 8.892501
_cell_length_b 14.809834
_cell_length_c 15.295855
_cell_angle_alpha 90.000000
_cell_angle_beta 131.152402
_cell_angle_gamma 90.000000
_cell_volume 1516.773890
_symmetry_space_group_name_H-M "P 2/M"
_symmetry_group_IT_number 10
_symmetry_cell_setting 'monoclinic'
loop_
_space_group_symop_operation_xyz
x,y,z
-x,y,-z
-x,-y,-z
x,-y,z
loop_
_atom_site_type_symbol
_atom_site_label
_atom_site_fract_x
_atom_site_fract_y
_atom_site_fract_z
Si Si1 0.810386 0.149424 0.985746
Si Si2 0.793054 0.395764 0.767582
Si Si3 0.397392 0.896293 0.736664
Si Si4 0.702279 0.894164 0.120902
Si Si5 0.727916 0.602490 0.551080
Si Si6 0.772085 0.648916 0.031049
Si Si7 0.657366 0.397182 0.181497
Si Si8 0.386680 0.705137 0.658184
O O1 0.617159 0.105716 0.866211
O O2 0.855382 0.116395 0.101383
O O3 0.767387 0.254586 0.982969
O O4 0.000000 0.133399 0.000000
O O5 0.722473 0.500000 0.744369
O O6 0.840555 0.374298 0.683587
O O7 0.614849 0.331805 0.732112
O O8 0.004983 0.387849 0.895980
O O9 0.258892 0.864912 0.766050
O O10 0.387866 0.813600 0.666005
O O11 0.355112 0.000000 0.692400
O O12 0.663776 0.000000 0.117765
O O13 0.500000 0.853251 0.000000
O O14 0.500000 0.602496 0.500000
O O15 0.776100 0.500000 0.542130
O O16 0.734351 0.668676 0.471812
O O17 0.728150 0.650719 0.118898
O O18 0.583687 0.596784 0.920228
O O19 0.736506 0.500000 0.214363
O O20 0.694079 0.341542 0.283934
#
# Coordination Sequence:
#
# PCOD9148964 Si02
#       8
#     4   4   4   4   4   4   4   4
#     4  11  20  31  47  75 105 140 177 218 260 308
#     4  10  20  36  56  78 108 142 181 224 266 315
#     4  10  20  34  51  74 105 139 176 219 267 317
#     4   8  16  30  48  66  92 133 173 211 258 308
#     4   8  16  32  55  80 104 135 175 224 272 311
#     4  11  22  34  49  74 115 149 174 211 262 320
#     4  11  22  35  52  75 109 150 180 215 263 314
#     4  11  19  34  57  82 103 134 186 227 263 321
#
# _framework density 21.09741
#
# number of rings (size 3 to 8) (size 9 to 14) (size 15 to 20)
#    0.000    2.000    1.250    6.000    3.500    1.000 
#    0.000    1.875    0.000    5.625    0.000    0.000 
#    0.000    3.000    0.000    0.000    0.000    0.000 
#
# Total GULP energy -178507.918071 kJ/mol
# GULP energy per Si atom -5578.372440 kJ/mol
# Density = 2.104939 g / cm^3
# Si number density = 21.097410 Si / 1000 Ang^3
#
#
#
# Elastic Constant Matrix: (Units=GPa)
#
#
# Indices 1 2 3 4 5 6 
#
# 1 67.8279 20.8217 20.4800 0.0000 -19.8901 0.0000
# 2 20.8217 106.3322 38.7369 0.0000 -26.1585 0.0000
# 3 20.4800 38.7369 66.9443 0.0000 -19.6868 0.0000
# 4 0.0000 0.0000 0.0000 34.0406 0.0000 -4.0635
# 5 -19.8901 -26.1585 -19.6868 0.0000 34.6941 0.0000
# 6 0.0000 0.0000 0.0000 -4.0635 0.0000 18.5728
#
#
#
# Elastic Compliance Matrix: (Units=1/GPa)
#
#
# Indices 1 2 3 4 5 6 
#
# 1 0.018227 -0.000450 -0.002812 0.000000 0.008515 0.000000
# 2 -0.000450 0.013105 -0.005540 0.000000 0.006479 0.000000
# 3 -0.002812 -0.005540 0.020767 0.000000 0.005995 0.000000
# 4 0.000000 0.000000 0.000000 0.030164 0.000000 0.006600
# 5 0.008515 0.006479 0.005995 0.000000 0.041992 0.000000
# 6 0.000000 0.000000 0.000000 0.006600 0.000000 0.055286
#
#
# Mechanical properties :
#
#
# Convention : Reuss Voigt Hill
#
# Bulk Modulus (GPa) = 28.98977 44.57574 36.78276
# Shear Modulus (GPa) = 23.96445 28.19923 26.08184
#
# Velocity S-wave (km/s) = 3.37396 3.65995 3.51986
# Velocity P-wave (km/s) = 5.38042 6.24778 5.83025
#
# Compressibility (1/GPa) = 0.03449493
#
# Stress axis : x y z
#
# Youngs Moduli (GPa) = 54.86283 76.30847 48.15442
#
# Poissons Ratio (x) = 0.03436 0.13539
# Poissons Ratio (y) = 0.02470 0.26677
# Poissons Ratio (z) = 0.15426 0.42274
#
# Static dielectric constant tensor:
#      x y z
#    x 1.832520 0.000000 -0.020390 
#    y 0.000000 1.784810 0.000000 
#    z -0.020390 0.000000 1.808990 
# 
# From -- ./inp_files/61883.got.cif
#   From: 2010.05.17/outbox.cif.g08.bks.cpg/sg10_31_cif.got.tgz:61883.got - 2010.06.03 11:33:40.
