data_PCOD9148627
_publ_section_title
;
Structure prediction by ZEFSAII (Michael W. Deem and Ramdas Pophale) SiO2 
 PCOD9148627
Probable space group: P 2/M
;
_chemical_formula_sum "Si O2"
_cell_formula_units_Z 32
_cell_length_a 13.811156
_cell_length_b 18.449196
_cell_length_c 15.675976
_cell_angle_alpha 90.000000
_cell_angle_beta 28.231889
_cell_angle_gamma 90.000000
_cell_volume 1889.474479
_symmetry_space_group_name_H-M "P 2/M"
_symmetry_group_IT_number 10
_symmetry_cell_setting 'monoclinic'
loop_
_space_group_symop_operation_xyz
x,y,z
-x,y,-z
-x,-y,-z
x,-y,z
loop_
_atom_site_type_symbol
_atom_site_label
_atom_site_fract_x
_atom_site_fract_y
_atom_site_fract_z
Si Si1 0.325434 0.690666 0.286142
Si Si2 0.889770 0.678357 0.999998
Si Si3 0.289244 0.213384 0.000001
Si Si4 0.841355 0.913012 0.000000
Si Si5 0.705635 0.912125 0.294365
Si Si6 0.928456 0.584546 0.285709
Si Si7 0.499871 0.415454 0.714295
Si Si8 0.897721 0.690666 0.713856
O O1 0.437683 0.623499 0.245406
O O2 0.259307 0.675424 0.240693
O O3 0.117738 0.704432 0.499999
O O4 0.479510 0.758023 0.172029
O O5 0.812990 0.743430 0.999999
O O6 0.036983 0.628416 0.827754
O O7 0.692496 0.628416 0.172240
O O8 0.000000 0.702787 0.000000
O O9 0.258523 0.130251 0.000001
O O10 0.176429 0.241977 0.172031
O O11 0.081486 0.892641 0.824510
O O12 0.829968 0.000000 0.000000
O O13 0.730503 0.892641 0.175492
O O14 0.500000 0.884693 0.500000
O O15 0.698384 0.000000 0.301616
O O16 0.978026 0.500000 0.237711
O O17 0.697293 0.590591 0.500002
O O18 0.071500 0.623499 0.245409
O O19 0.453446 0.500000 0.762293
#
# Coordination Sequence:
#
# PCOD9148627 Si02
#       8
#     4   4   4   4   4   4   4   4
#     4   9  18  33  52  73  96 125 160 199 249 300
#     4  10  21  33  46  64  95 133 165 192 231 283
#     4  10  20  33  51  70 100 126 162 199 243 283
#     4   9  18  31  50  74  99 127 163 201 239 287
#     4   8  15  29  48  71  99 126 153 191 239 284
#     4   9  18  32  49  71  96 121 158 206 245 283
#     4   9  18  32  49  71  96 121 158 206 245 283
#     4   9  18  33  52  73  96 125 160 199 249 300
#
# _framework density 16.935925000000001
#
# number of rings (size 3 to 8) (size 9 to 14) (size 15 to 20)
#    0.000    2.875    0.000    1.500    1.750    3.000 
#    0.000    3.750    0.000    6.000    0.000    1.750 
#    0.000    0.000    0.000    0.000    0.000    0.000 
#
# Total GULP energy -178367.512767 kJ/mol
# GULP energy per Si atom -5573.984774 kJ/mol
# Density = 1.689738 g / cm^3
# Si number density = 16.935925 Si / 1000 Ang^3
#
#
#
# Elastic Constant Matrix: (Units=GPa)
#
#
# Indices 1 2 3 4 5 6 
#
# 1 63.1716 -4.8021 12.8912 0.0000 -0.9632 0.0000
# 2 -4.8021 35.9112 9.4321 0.0000 1.0161 0.0000
# 3 12.8912 9.4321 69.1354 0.0000 1.3895 0.0000
# 4 0.0000 0.0000 0.0000 16.4894 0.0000 0.1205
# 5 -0.9632 1.0161 1.3895 0.0000 18.5594 0.0000
# 6 0.0000 0.0000 0.0000 0.1205 0.0000 14.7999
#
#
#
# Elastic Compliance Matrix: (Units=1/GPa)
#
#
# Indices 1 2 3 4 5 6 
#
# 1 0.016817 0.003164 -0.003587 0.000000 0.000968 0.000000
# 2 0.003164 0.029507 -0.004593 0.000000 -0.001107 0.000000
# 3 -0.003587 -0.004593 0.015782 0.000000 -0.001116 0.000000
# 4 0.000000 0.000000 0.000000 0.060649 0.000000 -0.000494
# 5 0.000968 -0.001107 -0.001116 0.000000 0.054076 0.000000
# 6 0.000000 0.000000 0.000000 -0.000494 0.000000 0.067572
#
#
# Mechanical properties :
#
#
# Convention : Reuss Voigt Hill
#
# Bulk Modulus (GPa) = 19.20365 22.58451 20.89408
# Shear Modulus (GPa) = 18.39630 20.01621 19.20626
#
# Velocity S-wave (km/s) = 3.29938 3.44158 3.37123
# Velocity P-wave (km/s) = 5.08705 5.39970 5.24571
#
# Compressibility (1/GPa) = 0.05207344
#
# Stress axis : x y z
#
# Youngs Moduli (GPa) = 59.46332 33.88992 63.36218
#
# Poissons Ratio (x) = -0.10721 0.22727
# Poissons Ratio (y) = -0.18811 0.29104
# Poissons Ratio (z) = 0.21328 0.15567
#
# Static dielectric constant tensor:
#      x y z
#    x 1.557450 0.000000 0.004300 
#    y 0.000000 1.561010 0.000000 
#    z 0.004300 0.000000 1.617580 
# 
# From -- ./inp_files/65365.got.cif
#   From: 2010.05.17/outbox.cif.g08.bks.cpg/sg10_33_cif.got.tgz:65365.got - 2010.06.03 11:33:40.
