data_PCOD9148527
_publ_section_title
;
Structure prediction by ZEFSAII (Michael W. Deem and Ramdas Pophale) SiO2 
 PCOD9148527
Probable space group: P 2/M
;
_chemical_formula_sum "Si O2"
_cell_formula_units_Z 30
_cell_length_a 18.180970
_cell_length_b 10.037249
_cell_length_c 30.061318
_cell_angle_alpha 90.000000
_cell_angle_beta 162.160696
_cell_angle_gamma 90.000000
_cell_volume 1680.565146
_symmetry_space_group_name_H-M "P 2/M"
_symmetry_group_IT_number 10
_symmetry_cell_setting 'monoclinic'
loop_
_space_group_symop_operation_xyz
x,y,z
-x,y,-z
-x,-y,-z
x,-y,z
loop_
_atom_site_type_symbol
_atom_site_label
_atom_site_fract_x
_atom_site_fract_y
_atom_site_fract_z
Si Si1 0.768215 0.350108 0.298586
Si Si2 0.535372 0.654223 0.317190
Si Si3 0.890978 0.854103 0.031779
Si Si4 0.235444 0.663151 0.865359
Si Si5 0.327993 0.847672 0.682758
Si Si6 0.797266 0.346734 0.051741
Si Si7 0.891226 0.656023 0.591197
Si Si8 0.000000 0.740110 0.000000
O O1 0.813781 0.500000 0.343048
O O2 0.807645 0.232093 0.356343
O O3 0.924359 0.333710 0.344113
O O4 0.487385 0.347179 0.123489
O O5 0.609464 0.500000 0.352842
O O6 0.651833 0.752411 0.348283
O O7 0.637351 0.699511 0.424008
O O8 0.249733 0.661030 0.146421
O O9 0.930012 0.742787 0.091638
O O10 0.970270 0.000000 0.092359
O O11 0.603867 0.856659 0.858569
O O12 0.994273 0.822426 0.042526
O O13 0.238793 0.500000 0.866696
O O14 0.186760 0.701847 0.888226
O O15 0.028131 0.713477 0.712634
O O16 0.500000 0.703695 0.000000
O O17 0.252013 0.000000 0.630136
O O18 0.879832 0.500000 0.096650
O O19 0.859517 0.500000 0.583359
#
# Coordination Sequence:
#
# PCOD9148527 Si02
#       8
#     4   4   4   4   4   4   4   2
#     4   9  15  26  45  69  97 128 160 192 228 280
#     4  10  20  33  49  70  94 122 160 207 249 286
#     4   9  18  32  51  73  96 124 162 204 245 293
#     4   9  14  25  47  75 104 132 161 193 233 282
#     4   9  18  31  46  66  96 132 163 193 236 290
#     4   9  16  26  47  77 103 127 158 194 233 283
#     4   9  17  28  45  71 100 128 160 197 239 284
#     4  10  20  34  54  72  90 124 166 208 250 294
#
# _framework density 17.851139
#
# number of rings (size 3 to 8) (size 9 to 14) (size 15 to 20)
#    0.000    2.800    1.333    0.800    0.000    4.800 
#    0.000    3.333    0.000    2.800    0.000    4.667 
#    0.000    0.000    0.000    0.000    0.000    0.000 
#
# Total GULP energy -167036.852483 kJ/mol
# GULP energy per Si atom -5567.895083 kJ/mol
# Density = 1.781051 g / cm^3
# Si number density = 17.851139 Si / 1000 Ang^3
#
#
#
# Elastic Constant Matrix: (Units=GPa)
#
#
# Indices 1 2 3 4 5 6 
#
# 1 105.8695 53.8172 29.1451 0.0000 -19.4270 0.0000
# 2 53.8172 90.3781 21.0814 0.0000 -11.4357 0.0000
# 3 29.1451 21.0814 69.5506 0.0000 -15.9764 0.0000
# 4 0.0000 0.0000 0.0000 -0.6271 0.0000 3.7021
# 5 -19.4270 -11.4357 -15.9764 0.0000 29.6371 0.0000
# 6 0.0000 0.0000 0.0000 3.7021 0.0000 -0.4910
#
#
#
# Elastic Compliance Matrix: (Units=1/GPa)
#
#
# Indices 1 2 3 4 5 6 
#
# 1 0.015097 -0.007657 -0.002752 0.000000 0.005458 0.000000
# 2 -0.007657 0.016032 -0.001578 0.000000 0.000316 0.000000
# 3 -0.002752 -0.001578 0.017640 0.000000 0.007096 0.000000
# 4 0.000000 0.000000 0.000000 0.036647 0.000000 0.276326
# 5 0.005458 0.000316 0.007096 0.000000 0.041267 0.000000
# 6 0.000000 0.000000 0.000000 0.276326 0.000000 0.046810
#
#
# Mechanical properties :
#
#
# Convention : Reuss Voigt Hill
#
# Bulk Modulus (GPa) = 40.33107 52.65397 46.49252
# Shear Modulus (GPa) = 24.30334 16.48741 20.39538
#
# Velocity S-wave (km/s) = 3.69378 3.04239 3.38379
# Velocity P-wave (km/s) = 6.39015 6.47315 6.43178
#
# Compressibility (1/GPa) = 0.02479478
#
# Stress axis : x y z
#
# Youngs Moduli (GPa) = 66.23733 62.37335 56.69091
#
# Poissons Ratio (x) = 0.47762 0.15599
# Poissons Ratio (y) = 0.50721 0.08947
# Poissons Ratio (z) = 0.18226 0.09843
#
# Static dielectric constant tensor:
#      x y z
#    x 1.608120 0.000000 -0.003720 
#    y 0.000000 1.612120 0.000000 
#    z -0.003720 0.000000 1.656680 
# 
# From -- ./inp_files/95526.got.cif
#   From: 2010.05.17/outbox.cif.g08.bks.cpg/sg10_48_cif.got.tgz:95526.got - 2010.06.03 11:33:40.
