data_PCOD9148264
_publ_section_title
;
Structure prediction by ZEFSAII (Michael W. Deem and Ramdas Pophale) SiO2 
 PCOD9148264
Probable space group: P 2/M
;
_chemical_formula_sum "Si O2"
_cell_formula_units_Z 32
_cell_length_a 24.253367
_cell_length_b 7.535033
_cell_length_c 17.402046
_cell_angle_alpha 90.000000
_cell_angle_beta 30.964844
_cell_angle_gamma 90.000000
_cell_volume 1636.262749
_symmetry_space_group_name_H-M "P 2/M"
_symmetry_group_IT_number 10
_symmetry_cell_setting 'monoclinic'
loop_
_space_group_symop_operation_xyz
x,y,z
-x,y,-z
-x,-y,-z
x,-y,z
loop_
_atom_site_type_symbol
_atom_site_label
_atom_site_fract_x
_atom_site_fract_y
_atom_site_fract_z
Si Si1 0.886263 0.218363 0.462396
Si Si2 0.438125 0.285752 0.387342
Si Si3 0.130020 0.204310 0.349928
Si Si4 0.120329 0.215503 0.838954
Si Si5 0.330011 0.706926 0.673295
Si Si6 0.335786 0.286315 0.838195
Si Si7 0.771156 0.790134 0.447612
Si Si8 0.130762 0.211861 0.182809
O O1 0.846606 0.280512 0.593833
O O2 0.815118 0.279142 0.475786
O O3 0.011038 0.273323 0.303957
O O4 0.884907 0.000000 0.466198
O O5 0.435704 0.500000 0.392110
O O6 0.391935 0.219161 0.524947
O O7 0.561157 0.227395 0.235704
O O8 0.353790 0.233690 0.422802
O O9 0.163730 0.284413 0.227821
O O10 0.000000 0.201499 0.500000
O O11 0.168138 0.000000 0.306109
O O12 0.205193 0.277823 0.800792
O O13 0.163947 0.279567 0.704197
O O14 0.122539 0.000000 0.836589
O O15 0.000000 0.272635 0.000000
O O16 0.361070 0.500000 0.639853
O O17 0.348038 0.782426 0.736314
O O18 0.339860 0.500000 0.829187
O O19 0.222596 0.242341 0.011227
O O20 0.792113 0.000000 0.424064
O O21 0.120262 0.000000 0.205063
#
# Coordination Sequence:
#
# PCOD9148264 Si02
#       8
#     4   4   4   4   4   4   4   4
#     4   8  14  26  47  71  95 120 147 181 220 266
#     4   9  18  34  50  62  84 120 158 193 228 262
#     4   7  11  23  43  68  93 117 146 179 215 262
#     4   9  18  29  42  63  95 125 144 174 224 273
#     4   9  18  32  48  64  82 115 160 193 220 260
#     4  10  20  32  47  67  91 118 150 192 234 268
#     4   9  17  29  46  68  90 117 152 186 221 264
#     4   9  17  28  47  73  96 118 146 180 225 275
#
# _framework density 19.556761999999999
#
# number of rings (size 3 to 8) (size 9 to 14) (size 15 to 20)
#    0.000    3.250    0.000    1.875    1.750    2.750 
#    0.000    0.625    0.000    8.625    0.000    5.250 
#    0.000    0.000    0.000    0.000    0.000    0.000 
#
# Total GULP energy -178278.030262 kJ/mol
# GULP energy per Si atom -5571.188446 kJ/mol
# Density = 1.951225 g / cm^3
# Si number density = 19.556762 Si / 1000 Ang^3
#
#
#
# Elastic Constant Matrix: (Units=GPa)
#
#
# Indices 1 2 3 4 5 6 
#
# 1 168.3625 3.9660 39.5292 0.0000 0.0985 0.0000
# 2 3.9660 46.5884 -3.0785 0.0000 2.7539 0.0000
# 3 39.5292 -3.0785 39.2333 0.0000 -6.9451 0.0000
# 4 0.0000 0.0000 0.0000 32.2824 0.0000 4.2179
# 5 0.0985 2.7539 -6.9451 0.0000 18.1367 0.0000
# 6 0.0000 0.0000 0.0000 4.2179 0.0000 15.4425
#
#
#
# Elastic Compliance Matrix: (Units=1/GPa)
#
#
# Indices 1 2 3 4 5 6 
#
# 1 0.008017 -0.001069 -0.008732 0.000000 -0.003225 0.000000
# 2 -0.001069 0.021854 0.002366 0.000000 -0.002407 0.000000
# 3 -0.008732 0.002366 0.036920 0.000000 0.013826 0.000000
# 4 0.000000 0.000000 0.000000 0.032123 0.000000 -0.008774
# 5 -0.003225 -0.002407 0.013826 0.000000 0.060814 0.000000
# 6 0.000000 0.000000 0.000000 -0.008774 0.000000 0.067153
#
#
# Mechanical properties :
#
#
# Convention : Reuss Voigt Hill
#
# Bulk Modulus (GPa) = 19.26037 37.22420 28.24228
# Shear Modulus (GPa) = 19.30073 27.42348 23.36210
#
# Velocity S-wave (km/s) = 3.14492 3.74873 3.46002
# Velocity P-wave (km/s) = 4.80179 6.14919 5.51678
#
# Compressibility (1/GPa) = 0.05192008
#
# Stress axis : x y z
#
# Youngs Moduli (GPa) = 124.73827 45.75796 27.08594
#
# Poissons Ratio (x) = 0.04891 0.23651
# Poissons Ratio (y) = 0.13332 -0.06408
# Poissons Ratio (z) = 1.08922 -0.10825
#
# Static dielectric constant tensor:
#      x y z
#    x 1.708460 0.000000 0.020090 
#    y 0.000000 1.757100 0.000000 
#    z 0.020090 0.000000 1.668740 
# 
# From -- ./inp_files/54772.got.cif
#   From: 2010.05.17/outbox.cif.g08.bks.cpg/sg10_28_cif.got.tgz:54772.got - 2010.06.03 11:33:40.
