data_PCOD9148227
_publ_section_title
;
Structure prediction by ZEFSAII (Michael W. Deem and Ramdas Pophale) SiO2 
 PCOD9148227
Probable space group: P 2/M
;
_chemical_formula_sum "Si O2"
_cell_formula_units_Z 24
_cell_length_a 14.151551
_cell_length_b 7.390125
_cell_length_c 18.599127
_cell_angle_alpha 90.000000
_cell_angle_beta 150.329693
_cell_angle_gamma 90.000000
_cell_volume 962.855223
_symmetry_space_group_name_H-M "P 2/M"
_symmetry_group_IT_number 10
_symmetry_cell_setting 'monoclinic'
loop_
_space_group_symop_operation_xyz
x,y,z
-x,y,-z
-x,-y,-z
x,-y,z
loop_
_atom_site_type_symbol
_atom_site_label
_atom_site_fract_x
_atom_site_fract_y
_atom_site_fract_z
Si Si1 0.788578 0.722535 0.142589
Si Si2 0.401528 0.296692 0.118384
Si Si3 0.374463 0.291985 0.600168
Si Si4 0.955529 0.291572 0.393379
Si Si5 0.006549 0.786990 0.922692
Si Si6 0.803766 0.282419 0.655028
O O1 0.783642 0.500000 0.139852
O O2 0.804431 0.782281 0.235726
O O3 0.991063 0.778943 0.241054
O O4 0.623912 0.781452 0.978541
O O5 0.482617 0.500000 0.163858
O O6 0.510300 0.207473 0.257255
O O7 0.184301 0.307629 0.002287
O O8 0.445966 0.500000 0.640724
O O9 0.157353 0.296812 0.485446
O O10 0.355499 0.215596 0.506786
O O11 0.896889 0.500000 0.368502
O O12 0.000000 0.206879 0.500000
O O13 0.048995 0.000000 0.952127
O O14 0.000000 0.722723 0.000000
O O15 0.819237 0.762104 0.749387
O O16 0.797069 0.500000 0.645583
#
# Coordination Sequence:
#
# PCOD9148227 Si02
#       6
#     4   4   4   4   4   4
#     4   7  11  20  35  55  79 110 144 171 198 238
#     4   9  16  28  46  64  85 114 145 177 211 250
#     4   8  14  25  42  64  87 112 144 179 211 245
#     4   8  12  19  33  56  89 122 144 168 208 251
#     4  10  20  32  45  63  86 109 137 176 217 256
#     4   8  14  27  46  63  82 111 144 174 205 249
#
# _framework density 24.925865000000002
#
# number of rings (size 3 to 8) (size 9 to 14) (size 15 to 20)
#    0.000    3.667    0.000    3.500    0.000    1.333 
#    0.000    2.500    0.000   10.000    0.000    0.000 
#    0.000   78.667    0.000    0.000    0.000    0.000 
#
# Total GULP energy -133648.501444 kJ/mol
# GULP energy per Si atom -5568.687560 kJ/mol
# Density = 2.486913 g / cm^3
# Si number density = 24.925865 Si / 1000 Ang^3
#
#
#
# Elastic Constant Matrix: (Units=GPa)
#
#
# Indices 1 2 3 4 5 6 
#
# 1 51.8286 -0.9280 50.1335 0.0000 -23.0262 0.0000
# 2 -0.9280 91.2787 10.5177 0.0000 -3.6216 0.0000
# 3 50.1335 10.5177 300.0988 0.0000 -84.0749 0.0000
# 4 0.0000 0.0000 0.0000 94.8993 0.0000 -55.3402
# 5 -23.0262 -3.6216 -84.0749 0.0000 56.9363 0.0000
# 6 0.0000 0.0000 0.0000 -55.3402 0.0000 24.3820
#
#
#
# Elastic Compliance Matrix: (Units=1/GPa)
#
#
# Indices 1 2 3 4 5 6 
#
# 1 0.024422 0.000770 -0.002262 0.000000 0.006586 0.000000
# 2 0.000770 0.011026 -0.000395 0.000000 0.000430 0.000000
# 3 -0.002262 -0.000395 0.005902 0.000000 0.007776 0.000000
# 4 0.000000 0.000000 0.000000 -0.032565 0.000000 -0.073914
# 5 0.006586 0.000430 0.007776 0.000000 0.031737 0.000000
# 6 0.000000 0.000000 0.000000 -0.073914 0.000000 -0.126751
#
#
# Mechanical properties :
#
#
# Convention : Reuss Voigt Hill
#
# Bulk Modulus (GPa) = 26.61140 62.51695 44.56418
# Shear Modulus (GPa) = -71.49855 60.80904 -5.34476
#
# Velocity S-wave (km/s) = -5.36160 4.94458 -1.46592
# Velocity P-wave (km/s) = 5.25639 7.59830 3.87973
#
# Compressibility (1/GPa) = 0.03757788
#
# Stress axis : x y z
#
# Youngs Moduli (GPa) = 40.94691 90.69616 169.42246
#
# Poissons Ratio (x) = -0.06986 0.38319
# Poissons Ratio (y) = -0.03154 0.06685
# Poissons Ratio (z) = 0.09261 0.03579
#
# Static dielectric constant tensor:
#      x y z
#    x 1.979900 0.000000 -0.071950 
#    y 0.000000 1.921280 0.000000 
#    z -0.071950 0.000000 2.096210 
# 
# From -- ./inp_files/33440.got.cif
#   From: 2010.05.17/outbox.cif.g08.bks.cpg/sg10_17_cif.got.tgz:33440.got - 2010.06.03 11:33:40.
