data_PCOD9148480
_publ_section_title
;
Structure prediction by ZEFSAII (Michael W. Deem and Ramdas Pophale) SiO2 
 PCOD9148480
Probable space group: P 2/M
;
_chemical_formula_sum "Si O2"
_cell_formula_units_Z 32
_cell_length_a 28.922410
_cell_length_b 7.646945
_cell_length_c 20.653832
_cell_angle_alpha 90.000000
_cell_angle_beta 21.298045
_cell_angle_gamma 90.000000
_cell_volume 1659.174901
_symmetry_space_group_name_H-M "P 2/M"
_symmetry_group_IT_number 10
_symmetry_cell_setting 'monoclinic'
loop_
_space_group_symop_operation_xyz
x,y,z
-x,y,-z
-x,-y,-z
x,-y,z
loop_
_atom_site_type_symbol
_atom_site_label
_atom_site_fract_x
_atom_site_fract_y
_atom_site_fract_z
Si Si1 0.608808 0.215069 0.808788
Si Si2 0.837226 0.211089 0.926448
Si Si3 0.570063 0.293236 0.218140
Si Si4 0.879637 0.201976 0.292266
Si Si5 0.427759 0.291030 0.530317
Si Si6 0.156583 0.788826 0.932937
Si Si7 0.607971 0.793470 0.663011
Si Si8 0.887501 0.202778 0.439754
O O1 0.584665 0.272206 0.766155
O O2 0.752189 0.275969 0.638745
O O3 0.609983 0.000000 0.808153
O O4 0.500000 0.272060 0.000000
O O5 0.974625 0.278867 0.723304
O O6 0.845514 0.000000 0.918388
O O7 0.717561 0.257589 0.039082
O O8 0.817419 0.271585 0.026812
O O9 0.551705 0.500000 0.240850
O O10 0.491654 0.219779 0.381921
O O11 0.509767 0.226375 0.230767
O O12 0.740336 0.280397 0.460019
O O13 0.884254 0.202517 0.365164
O O14 0.879805 0.000000 0.269037
O O15 0.017008 0.277697 0.093324
O O16 0.500000 0.221389 0.500000
O O17 0.446920 0.500000 0.505058
O O18 0.277890 0.257959 0.732080
O O19 0.147976 0.000000 0.946278
O O20 0.633339 0.000000 0.637476
O O21 0.888596 0.000000 0.459098
#
# Coordination Sequence:
#
# PCOD9148480 Si02
#       8
#     4   4   4   4   4   4   4   4
#     4   8  13  24  48  80 104 119 140 178 228 273
#     4   9  16  27  45  68  91 117 152 191 229 266
#     4  11  22  33  45  62  90 125 158 192 229 271
#     4   7  12  25  44  66  90 115 143 183 230 268
#     4  10  20  33  44  59  88 122 154 192 239 277
#     4   9  16  27  47  70  87 108 149 198 234 269
#     4   9  17  31  50  70  95 123 151 182 221 273
#     4   7  11  21  40  68  97 118 141 180 224 265
#
# _framework density 19.286695000000002
#
# number of rings (size 3 to 8) (size 9 to 14) (size 15 to 20)
#    0.000    3.250    1.250    3.375    0.000    1.250 
#    0.000    1.250    0.000    9.375    0.000    5.250 
#    0.000    0.000    0.000    0.000    0.000    0.000 
#
# Total GULP energy -178194.294578 kJ/mol
# GULP energy per Si atom -5568.571706 kJ/mol
# Density = 1.924280 g / cm^3
# Si number density = 19.286695 Si / 1000 Ang^3
#
#
#
# Elastic Constant Matrix: (Units=GPa)
#
#
# Indices 1 2 3 4 5 6 
#
# 1 75.0520 -0.6062 58.1267 0.0000 -17.3798 0.0000
# 2 -0.6062 32.0849 -5.4949 0.0000 5.0932 0.0000
# 3 58.1267 -5.4949 164.6966 0.0000 -14.6557 0.0000
# 4 0.0000 0.0000 0.0000 241.7118 0.0000 -111.9331
# 5 -17.3798 5.0932 -14.6557 0.0000 22.0692 0.0000
# 6 0.0000 0.0000 0.0000 -111.9331 0.0000 40.1320
#
#
#
# Elastic Compliance Matrix: (Units=1/GPa)
#
#
# Indices 1 2 3 4 5 6 
#
# 1 0.021353 -0.002793 -0.006457 0.000000 0.013172 0.000000
# 2 -0.002793 0.032748 0.001286 0.000000 -0.008903 0.000000
# 3 -0.006457 0.001286 0.008412 0.000000 0.000204 0.000000
# 4 0.000000 0.000000 0.000000 -0.014188 0.000000 -0.039571
# 5 0.013172 -0.008903 0.000204 0.000000 0.057876 0.000000
# 6 0.000000 0.000000 0.000000 -0.039571 0.000000 -0.085452
#
#
# Mechanical properties :
#
#
# Convention : Reuss Voigt Hill
#
# Bulk Modulus (GPa) = 21.46656 41.76494 31.61575
# Shear Modulus (GPa) = 95.77566 75.43648 85.60607
#
# Velocity S-wave (km/s) = 7.05455 6.26084 6.66952
# Velocity P-wave (km/s) = 8.80398 8.60035 8.70276
#
# Compressibility (1/GPa) = 0.04658409
#
# Stress axis : x y z
#
# Youngs Moduli (GPa) = 46.83234 30.53606 118.88083
#
# Poissons Ratio (x) = 0.08530 0.76763
# Poissons Ratio (y) = 0.13082 -0.15291
# Poissons Ratio (z) = 0.30240 -0.03928
#
# Static dielectric constant tensor:
#      x y z
#    x 1.665120 0.000000 -0.030680 
#    y 0.000000 1.723770 0.000000 
#    z -0.030680 0.000000 1.713580 
# 
# From -- ./inp_files/87173.got.cif
#   From: 2010.05.17/outbox.cif.g08.bks.cpg/sg10_44_cif.got.tgz:87173.got - 2010.06.03 11:33:40.
