data_PCOD9148170
_publ_section_title
;
Structure prediction by ZEFSAII (Michael W. Deem and Ramdas Pophale) SiO2 
 PCOD9148170
Probable space group: P 2/M
;
_chemical_formula_sum "Si O2"
_cell_formula_units_Z 28
_cell_length_a 19.501546
_cell_length_b 9.924719
_cell_length_c 18.195395
_cell_angle_alpha 90.000000
_cell_angle_beta 159.723111
_cell_angle_gamma 90.000000
_cell_volume 1220.460752
_symmetry_space_group_name_H-M "P 2/M"
_symmetry_group_IT_number 10
_symmetry_cell_setting 'monoclinic'
loop_
_space_group_symop_operation_xyz
x,y,z
-x,y,-z
-x,-y,-z
x,-y,z
loop_
_atom_site_type_symbol
_atom_site_label
_atom_site_fract_x
_atom_site_fract_y
_atom_site_fract_z
Si Si1 0.777757 0.340885 0.638147
Si Si2 0.108357 0.850195 0.368196
Si Si3 0.903173 0.848283 0.482983
Si Si4 0.550229 0.648101 0.135644
Si Si5 0.735423 0.349283 0.759488
Si Si6 0.618968 0.840966 0.762883
Si Si7 0.417955 0.148875 0.110835
O O1 0.743388 0.500000 0.588220
O O2 0.909441 0.270249 0.707926
O O3 0.843386 0.333113 0.789426
O O4 0.579194 0.250013 0.437334
O O5 0.997686 0.842560 0.336015
O O6 0.344754 0.849189 0.628685
O O7 0.074092 0.000000 0.301116
O O8 0.755081 0.725469 0.340144
O O9 0.000000 0.836612 0.500000
O O10 0.812528 0.000000 0.390548
O O11 0.564341 0.500000 0.182642
O O12 0.400193 0.737215 0.031989
O O13 0.500000 0.639628 0.000000
O O14 0.500000 0.350947 0.500000
O O15 0.774238 0.500000 0.829161
O O16 0.752033 0.229660 0.834825
O O17 0.687432 0.833389 0.916525
O O18 0.583675 0.000000 0.711919
O O19 0.379991 0.000000 0.042467
#
# Coordination Sequence:
#
# PCOD9148170 Si02
#       7
#     4   4   4   4   4   4   4
#     4   9  15  21  29  43  65  93 125 158 192 235
#     4   8  14  24  37  53  72  95 127 165 201 239
#     4   9  18  32  48  65  85 111 144 179 215 257
#     4  10  20  31  44  65  89 112 142 178 214 254
#     4   8  14  21  27  39  61  90 123 156 191 232
#     4   9  15  21  30  45  64  88 123 163 197 233
#     4   8  15  26  38  53  73 100 134 168 204 247
#
# _framework density 22.942156000000001
#
# number of rings (size 3 to 8) (size 9 to 14) (size 15 to 20)
#    0.000    3.286    0.000    3.857    0.000   10.286 
#    0.000    0.000    0.000    0.000    0.000    0.000 
#    0.000    0.000    0.000    1.286    0.000   26.571 
#
# Total GULP energy -156094.865544 kJ/mol
# GULP energy per Si atom -5574.816627 kJ/mol
# Density = 2.288994 g / cm^3
# Si number density = 22.942156 Si / 1000 Ang^3
#
#
#
# Elastic Constant Matrix: (Units=GPa)
#
#
# Indices 1 2 3 4 5 6 
#
# 1 173.1272 117.6327 11.4441 0.0000 -14.9847 0.0000
# 2 117.6327 232.0304 37.1279 0.0000 -19.7512 0.0000
# 3 11.4441 37.1279 42.1385 0.0000 -6.8332 0.0000
# 4 0.0000 0.0000 0.0000 58.7586 0.0000 5.1315
# 5 -14.9847 -19.7512 -6.8332 0.0000 39.2984 0.0000
# 6 0.0000 0.0000 0.0000 5.1315 0.0000 45.4706
#
#
#
# Elastic Compliance Matrix: (Units=1/GPa)
#
#
# Indices 1 2 3 4 5 6 
#
# 1 0.009000 -0.004761 0.001975 0.000000 0.001382 0.000000
# 2 -0.004761 0.007663 -0.005278 0.000000 0.001118 0.000000
# 3 0.001975 -0.005278 0.028336 0.000000 0.003028 0.000000
# 4 0.000000 0.000000 0.000000 0.017188 0.000000 -0.001940
# 5 0.001382 0.001118 0.003028 0.000000 0.027062 0.000000
# 6 0.000000 0.000000 0.000000 -0.001940 0.000000 0.022211
#
#
# Mechanical properties :
#
#
# Convention : Reuss Voigt Hill
#
# Bulk Modulus (GPa) = 34.63611 86.63394 60.63502
# Shear Modulus (GPa) = 36.43984 47.44494 41.94239
#
# Velocity S-wave (km/s) = 3.98972 4.55249 4.28036
# Velocity P-wave (km/s) = 6.02940 8.09181 7.13551
#
# Compressibility (1/GPa) = 0.02887161
#
# Stress axis : x y z
#
# Youngs Moduli (GPa) = 111.10820 130.49272 35.29084
#
# Poissons Ratio (x) = 0.62130 -0.06970
# Poissons Ratio (y) = 0.52901 0.18625
# Poissons Ratio (z) = -0.21943 0.68869
#
# Static dielectric constant tensor:
#      x y z
#    x 1.956700 0.000000 0.064850 
#    y 0.000000 1.796560 0.000000 
#    z 0.064850 0.000000 2.062370 
# 
# From -- ./inp_files/79294.got.cif
#   From: 2010.05.17/outbox.cif.g08.bks.cpg/sg10_40_cif.got.tgz:79294.got - 2010.06.03 11:33:40.
