data_PCOD9148236
_publ_section_title
;
Structure prediction by ZEFSAII (Michael W. Deem and Ramdas Pophale) SiO2 
 PCOD9148236
Probable space group: P 2/M
;
_chemical_formula_sum "Si O2"
_cell_formula_units_Z 28
_cell_length_a 12.530035
_cell_length_b 8.947686
_cell_length_c 19.462154
_cell_angle_alpha 90.000000
_cell_angle_beta 49.922994
_cell_angle_gamma 90.000000
_cell_volume 1669.619249
_symmetry_space_group_name_H-M "P 2/M"
_symmetry_group_IT_number 10
_symmetry_cell_setting 'monoclinic'
loop_
_space_group_symop_operation_xyz
x,y,z
-x,y,-z
-x,-y,-z
x,-y,z
loop_
_atom_site_type_symbol
_atom_site_label
_atom_site_fract_x
_atom_site_fract_y
_atom_site_fract_z
Si Si1 0.871434 0.332225 0.000001
Si Si2 0.075241 0.680244 0.252247
Si Si3 0.420265 0.680244 0.252247
Si Si4 0.064132 0.178473 0.812540
Si Si5 0.603577 0.681489 0.896422
Si Si6 0.310789 0.178473 0.812538
Si Si7 0.101962 0.681654 0.398038
O O1 0.825155 0.500000 0.000002
O O2 0.755841 0.243932 0.089938
O O3 0.000000 0.344733 0.000000
O O4 0.935716 0.243936 0.910062
O O5 0.067673 0.500000 0.250150
O O6 0.233216 0.724402 0.163874
O O7 0.058654 0.723813 0.338736
O O8 0.959512 0.753513 0.252271
O O9 0.432027 0.500000 0.250150
O O10 0.439039 0.724403 0.163873
O O11 0.535946 0.753511 0.252271
O O12 0.263874 0.723813 0.338736
O O13 0.206106 0.222211 0.793893
O O14 0.057898 0.000000 0.814096
O O15 0.601065 0.500000 0.898933
O O16 0.500000 0.734038 0.000000
O O17 0.313913 0.000000 0.814092
O O18 0.099520 0.500000 0.400480
O O19 0.000000 0.736528 0.500000
#
# Coordination Sequence:
#
# PCOD9148236 Si02
#       7
#     4   4   4   4   4   4   4
#     4   9  17  29  45  64  87 124 173 209 229 265
#     4   9  17  29  49  74  94 123 164 198 238 293
#     4   9  17  29  49  74  94 123 164 198 238 293
#     4  10  20  32  45  65  99 136 164 198 244 285
#     4   8  15  27  42  64  94 122 150 192 240 280
#     4  10  20  32  45  65  99 136 164 198 244 285
#     4   8  15  31  54  78 101 121 150 201 258 301
#
# _framework density 16.770289999999999
#
# number of rings (size 3 to 8) (size 9 to 14) (size 15 to 20)
#    0.000    3.000    0.000    3.000    2.000    3.429 
#    0.000    2.857    0.000    3.429    0.000    6.000 
#    0.000    0.000    0.000    0.000    0.000    0.000 
#
# Total GULP energy -155973.880257 kJ/mol
# GULP energy per Si atom -5570.495723 kJ/mol
# Density = 1.673212 g / cm^3
# Si number density = 16.770290 Si / 1000 Ang^3
#
#
#
# Elastic Constant Matrix: (Units=GPa)
#
#
# Indices 1 2 3 4 5 6 
#
# 1 136.4807 40.7747 65.9532 0.0000 -2.2776 0.0000
# 2 40.7747 33.0756 23.7118 0.0000 -0.8436 0.0000
# 3 65.9532 23.7118 121.2157 0.0000 1.5239 0.0000
# 4 0.0000 0.0000 0.0000 7.3097 0.0000 -0.4643
# 5 -2.2776 -0.8436 1.5239 0.0000 12.4356 0.0000
# 6 0.0000 0.0000 0.0000 -0.4643 0.0000 16.6904
#
#
#
# Elastic Compliance Matrix: (Units=1/GPa)
#
#
# Indices 1 2 3 4 5 6 
#
# 1 0.013707 -0.013347 -0.004875 0.000000 0.002202 0.000000
# 2 -0.013347 0.048291 -0.002199 0.000000 0.001101 0.000000
# 3 -0.004875 -0.002199 0.011363 0.000000 -0.002434 0.000000
# 4 0.000000 0.000000 0.000000 0.137046 0.000000 0.003812
# 5 0.002202 0.001101 -0.002434 0.000000 0.081191 0.000000
# 6 0.000000 0.000000 0.000000 0.003812 0.000000 0.060021
#
#
# Mechanical properties :
#
#
# Convention : Reuss Voigt Hill
#
# Bulk Modulus (GPa) = 30.74927 61.29459 46.02193
# Shear Modulus (GPa) = 12.39775 17.97597 15.18686
#
# Velocity S-wave (km/s) = 2.72190 3.27753 3.01255
# Velocity P-wave (km/s) = 5.31542 7.13805 6.29307
#
# Compressibility (1/GPa) = 0.03252110
#
# Stress axis : x y z
#
# Youngs Moduli (GPa) = 72.95606 20.70770 88.00664
#
# Poissons Ratio (x) = 0.27638 0.42901
# Poissons Ratio (y) = 0.97371 0.19349
# Poissons Ratio (z) = 0.35564 0.04553
#
# Static dielectric constant tensor:
#      x y z
#    x 1.591400 0.000000 -0.001330 
#    y 0.000000 1.556370 0.000000 
#    z -0.001330 0.000000 1.564500 
# 
# From -- ./inp_files/55004.got.cif
#   From: 2010.05.17/outbox.cif.g08.bks.cpg/sg10_28_cif.got.tgz:55004.got - 2010.06.03 11:33:40.
