data_PCOD9148851
_publ_section_title
;
Structure prediction by ZEFSAII (Michael W. Deem and Ramdas Pophale) SiO2 
 PCOD9148851
Probable space group: P 2/M
;
_chemical_formula_sum "Si O2"
_cell_formula_units_Z 22
_cell_length_a 7.681127
_cell_length_b 17.222546
_cell_length_c 10.192251
_cell_angle_alpha 90.000000
_cell_angle_beta 134.663274
_cell_angle_gamma 90.000000
_cell_volume 958.991613
_symmetry_space_group_name_H-M "P 2/M"
_symmetry_group_IT_number 10
_symmetry_cell_setting 'monoclinic'
loop_
_space_group_symop_operation_xyz
x,y,z
-x,y,-z
-x,-y,-z
x,-y,z
loop_
_atom_site_type_symbol
_atom_site_label
_atom_site_fract_x
_atom_site_fract_y
_atom_site_fract_z
Si Si1 0.137620 0.248538 0.935436
Si Si2 0.302747 0.752004 0.499297
Si Si3 0.161491 0.083256 0.953189
Si Si4 0.805354 0.084049 0.514749
Si Si5 0.000000 0.643953 0.500000
Si Si6 0.782573 0.583282 0.117283
O O1 0.948686 0.242860 0.714895
O O2 0.291141 0.167864 0.010273
O O3 0.218517 0.337590 0.967238
O O4 0.000000 0.243586 0.000000
O O5 0.500000 0.721047 0.500000
O O6 0.365021 0.840359 0.571084
O O7 0.232753 0.698183 0.584253
O O8 0.966089 0.081889 0.731449
O O9 0.298123 0.000000 0.018176
O O10 0.000000 0.082869 0.000000
O O11 0.000000 0.092795 0.500000
O O12 0.679878 0.000000 0.436889
O O13 0.930678 0.597282 0.332042
O O14 0.866769 0.500000 0.103690
O O15 0.500000 0.575315 0.000000
#
# Coordination Sequence:
#
# PCOD9148851 Si02
#       6
#     4   4   4   4   2   4
#     4   9  19  34  54  83 112 145 190 243 293 346
#     4  10  20  33  55  83 111 152 198 237 298 360
#     4   8  14  27  48  74 107 149 190 231 289 351
#     4   9  16  28  47  74 111 151 195 248 297 346
#     4  10  21  40  61  84 122 150 189 250 296 350
#     4  10  22  39  62  86 112 155 197 239 303 361
#
# _framework density 22.940761999999999
#
# number of rings (size 3 to 8) (size 9 to 14) (size 15 to 20)
#    0.000    2.727    0.909    0.273    2.545    0.727 
#    0.000    0.000    0.000    3.273    0.000    0.000 
#    0.000    0.000    0.000    0.000    0.000    0.000 
#
# Total GULP energy -122529.673965 kJ/mol
# GULP energy per Si atom -5569.530635 kJ/mol
# Density = 2.288855 g / cm^3
# Si number density = 22.940762 Si / 1000 Ang^3
#
#
#
# Elastic Constant Matrix: (Units=GPa)
#
#
# Indices 1 2 3 4 5 6 
#
# 1 71.5687 33.0570 -6.0613 0.0000 -18.6209 0.0000
# 2 33.0570 242.2498 -3.5248 0.0000 1.8195 0.0000
# 3 -6.0613 -3.5248 86.9757 0.0000 -15.6748 0.0000
# 4 0.0000 0.0000 0.0000 -158.0912 0.0000 -24.4382
# 5 -18.6209 1.8195 -15.6748 0.0000 24.7886 0.0000
# 6 0.0000 0.0000 0.0000 -24.4382 0.0000 49.7452
#
#
#
# Elastic Compliance Matrix: (Units=1/GPa)
#
#
# Indices 1 2 3 4 5 6 
#
# 1 0.020529 -0.002873 0.004663 0.000000 0.018580 0.000000
# 2 -0.002873 0.004534 -0.000525 0.000000 -0.002823 0.000000
# 3 0.004663 -0.000525 0.014039 0.000000 0.012419 0.000000
# 4 0.000000 0.000000 0.000000 -0.005879 0.000000 -0.002888
# 5 0.018580 -0.002823 0.012419 0.000000 0.062358 0.000000
# 6 0.000000 0.000000 0.000000 -0.002888 0.000000 0.018684
#
#
# Mechanical properties :
#
#
# Convention : Reuss Voigt Hill
#
# Bulk Modulus (GPa) = 24.02087 49.74844 36.88466
# Shear Modulus (GPa) = 39.80497 8.44342 24.12420
#
# Velocity S-wave (km/s) = 4.17000 1.92055 3.24634
# Velocity P-wave (km/s) = 5.80334 5.16243 5.49224
#
# Compressibility (1/GPa) = 0.04163047
#
# Stress axis : x y z
#
# Youngs Moduli (GPa) = 48.71211 220.57617 71.22900
#
# Poissons Ratio (x) = 0.63372 -0.33212
# Poissons Ratio (y) = 0.13995 0.03741
# Poissons Ratio (z) = -0.22713 0.11586
#
# Static dielectric constant tensor:
#      x y z
#    x 1.814520 0.000000 -0.005160 
#    y 0.000000 2.069240 0.000000 
#    z -0.005160 0.000000 1.828040 
# 
# From -- ./inp_files/42546.got.cif
#   From: 2010.05.17/outbox.cif.g08.bks.cpg/sg10_22_cif.got.tgz:42546.got - 2010.06.03 11:33:40.
