data_PCOD9148178
_publ_section_title
;
Structure prediction by ZEFSAII (Michael W. Deem and Ramdas Pophale) SiO2 
 PCOD9148178
Probable space group: P 2/M
;
_chemical_formula_sum "Si O2"
_cell_formula_units_Z 28
_cell_length_a 21.392532
_cell_length_b 7.463726
_cell_length_c 17.711343
_cell_angle_alpha 90.000000
_cell_angle_beta 159.196437
_cell_angle_gamma 90.000000
_cell_volume 1004.383684
_symmetry_space_group_name_H-M "P 2/M"
_symmetry_group_IT_number 10
_symmetry_cell_setting 'monoclinic'
loop_
_space_group_symop_operation_xyz
x,y,z
-x,y,-z
-x,-y,-z
x,-y,z
loop_
_atom_site_type_symbol
_atom_site_label
_atom_site_fract_x
_atom_site_fract_y
_atom_site_fract_z
Si Si1 0.220714 0.704014 0.203228
Si Si2 0.076380 0.785065 0.768055
Si Si3 0.948388 0.709566 0.781507
Si Si4 0.562248 0.793510 0.293848
Si Si5 0.199880 0.782421 0.752183
Si Si6 0.466801 0.206687 0.344930
Si Si7 0.322867 0.781575 0.734208
O O1 0.190547 0.500000 0.192421
O O2 0.334463 0.792997 0.397081
O O3 0.351488 0.701335 0.278423
O O4 0.043653 0.778615 0.964685
O O5 0.080193 0.723784 0.858501
O O6 0.204120 0.722518 0.844412
O O7 0.878616 0.740091 0.517129
O O8 0.087549 0.000000 0.782299
O O9 0.910893 0.500000 0.749905
O O10 0.767924 0.798248 0.551532
O O11 0.470001 0.716174 0.264182
O O12 0.567536 0.717132 0.215026
O O13 0.502894 0.000000 0.220627
O O14 0.325834 0.723458 0.825429
O O15 0.000000 0.740732 0.500000
O O16 0.212340 0.000000 0.766629
O O17 0.408655 0.000000 0.275800
O O18 0.342238 0.000000 0.756540
#
# Coordination Sequence:
#
# PCOD9148178 Si02
#       7
#     4   4   4   4   4   4   4
#     4  10  21  36  51  67  90 122 155 184 221 271
#     4   8  13  22  38  60  86 116 149 185 223 259
#     4  10  20  31  45  67  94 124 155 185 221 267
#     4   9  18  31  48  71  96 120 147 184 230 272
#     4   7   9  15  32  57  82 112 147 177 212 260
#     4  10  20  34  53  74  91 112 148 191 231 269
#     4   7  10  19  36  59  87 115 143 176 216 264
#
# _framework density 27.877793
#
# number of rings (size 3 to 8) (size 9 to 14) (size 15 to 20)
#    0.000    3.286    0.000    4.714    0.000    4.000 
#    0.000    2.857    0.000   10.714    0.000    1.000 
#    0.000    8.000    0.000    0.000    0.000    0.000 
#
# Total GULP energy -156586.404804 kJ/mol
# GULP energy per Si atom -5592.371600 kJ/mol
# Density = 2.781434 g / cm^3
# Si number density = 27.877793 Si / 1000 Ang^3
#
#
#
# Elastic Constant Matrix: (Units=GPa)
#
#
# Indices 1 2 3 4 5 6 
#
# 1 272.6884 12.5245 48.4215 0.0000 -18.9971 0.0000
# 2 12.5245 86.6195 -6.2288 0.0000 -1.6430 0.0000
# 3 48.4215 -6.2288 119.8995 0.0000 -26.5576 0.0000
# 4 0.0000 0.0000 0.0000 -2.6416 0.0000 -6.0044
# 5 -18.9971 -1.6430 -26.5576 0.0000 77.5022 0.0000
# 6 0.0000 0.0000 0.0000 -6.0044 0.0000 33.3944
#
#
#
# Elastic Compliance Matrix: (Units=1/GPa)
#
#
# Indices 1 2 3 4 5 6 
#
# 1 0.004005 -0.000683 -0.001557 0.000000 0.000434 0.000000
# 2 -0.000683 0.011722 0.000977 0.000000 0.000416 0.000000
# 3 -0.001557 0.000977 0.009674 0.000000 0.002954 0.000000
# 4 0.000000 0.000000 0.000000 -0.268729 0.000000 -0.048318
# 5 0.000434 0.000416 0.002954 0.000000 0.014030 0.000000
# 6 0.000000 0.000000 0.000000 -0.048318 0.000000 0.021258
#
#
# Mechanical properties :
#
#
# Convention : Reuss Voigt Hill
#
# Bulk Modulus (GPa) = 43.71568 65.40467 54.56017
# Shear Modulus (GPa) = -25.26670 49.95034 12.34182
#
# Velocity S-wave (km/s) = -3.01381 4.23751 2.10635
# Velocity P-wave (km/s) = 1.89855 6.88870 5.05265
#
# Compressibility (1/GPa) = 0.02287509
#
# Stress axis : x y z
#
# Youngs Moduli (GPa) = 249.67325 85.31254 103.36816
#
# Poissons Ratio (x) = 0.05826 0.16094
# Poissons Ratio (y) = 0.17049 -0.10097
# Poissons Ratio (z) = 0.38872 -0.08333
#
# Static dielectric constant tensor:
#      x y z
#    x 2.186380 0.000000 0.048550 
#    y 0.000000 1.999050 0.000000 
#    z 0.048550 0.000000 2.266090 
# 
# From -- ./inp_files/79283.got.cif
#   From: 2010.05.17/outbox.cif.g08.bks.cpg/sg10_40_cif.got.tgz:79283.got - 2010.06.03 11:33:40.
