data_PCOD9148763
_publ_section_title
;
Structure prediction by ZEFSAII (Michael W. Deem and Ramdas Pophale) SiO2 
 PCOD9148763
Probable space group: P 2/M
;
_chemical_formula_sum "Si O2"
_cell_formula_units_Z 20
_cell_length_a 12.859465
_cell_length_b 8.509806
_cell_length_c 9.602989
_cell_angle_alpha 90.000000
_cell_angle_beta 51.813571
_cell_angle_gamma 90.000000
_cell_volume 825.987332
_symmetry_space_group_name_H-M "P 2/M"
_symmetry_group_IT_number 10
_symmetry_cell_setting 'monoclinic'
loop_
_space_group_symop_operation_xyz
x,y,z
-x,y,-z
-x,-y,-z
x,-y,z
loop_
_atom_site_type_symbol
_atom_site_label
_atom_site_fract_x
_atom_site_fract_y
_atom_site_fract_z
Si Si1 0.905428 0.681562 0.251987
Si Si2 0.476249 0.811444 0.860851
Si Si3 0.848007 0.823052 0.590866
Si Si4 0.368738 0.188238 0.532389
Si Si5 0.198664 0.688159 0.068791
O O1 0.908410 0.500000 0.210767
O O2 0.864765 0.707892 0.446550
O O3 0.773834 0.756107 0.294650
O O4 0.057672 0.743636 0.117364
O O5 0.598133 0.773037 0.657636
O O6 0.462046 0.000000 0.877369
O O7 0.500000 0.755931 0.000000
O O8 0.341994 0.746816 0.902598
O O9 0.795662 0.748073 0.775701
O O10 0.000000 0.850180 0.500000
O O11 0.792114 0.000000 0.608654
O O12 0.500000 0.249629 0.500000
O O13 0.368277 0.000000 0.546021
O O14 0.193114 0.500000 0.069662
#
# Coordination Sequence:
#
# PCOD9148763 Si02
#       5
#     4   4   4   4   4
#     4  10  20  34  54  81 112 148 191 236 283 341
#     4  10  21  37  58  85 115 148 189 235 284 340
#     4   9  16  27  47  76 110 147 184 225 276 331
#     4  10  22  40  60  83 113 150 192 237 287 344
#     4  10  20  33  52  82 116 148 187 236 287 339
#
# _framework density 24.213445
#
# number of rings (size 3 to 8) (size 9 to 14) (size 15 to 20)
#    0.000    2.200    0.000    3.000    0.000    8.000 
#    0.000    1.000    0.000    6.000    0.000    0.000 
#    0.000    0.000    0.000    0.000    0.000    0.000 
#
# Total GULP energy -111544.125998 kJ/mol
# GULP energy per Si atom -5577.206300 kJ/mol
# Density = 2.415833 g / cm^3
# Si number density = 24.213445 Si / 1000 Ang^3
#
#
#
# Elastic Constant Matrix: (Units=GPa)
#
#
# Indices 1 2 3 4 5 6 
#
# 1 153.9745 19.3818 60.2742 0.0000 -38.2511 0.0000
# 2 19.3818 35.3433 26.2256 0.0000 -9.4905 0.0000
# 3 60.2742 26.2256 130.3288 0.0000 -38.5191 0.0000
# 4 0.0000 0.0000 0.0000 17.1512 0.0000 -23.7098
# 5 -38.2511 -9.4905 -38.5191 0.0000 59.0976 0.0000
# 6 0.0000 0.0000 0.0000 -23.7098 0.0000 31.5623
#
#
#
# Elastic Compliance Matrix: (Units=1/GPa)
#
#
# Indices 1 2 3 4 5 6 
#
# 1 0.008626 -0.001871 -0.002541 0.000000 0.003626 0.000000
# 2 -0.001871 0.033736 -0.005797 0.000000 0.000428 0.000000
# 3 -0.002541 -0.005797 0.011461 0.000000 0.004895 0.000000
# 4 0.000000 0.000000 0.000000 -1.515537 0.000000 -1.138485
# 5 0.003626 0.000428 0.004895 0.000000 0.022528 0.000000
# 6 0.000000 0.000000 0.000000 -1.138485 0.000000 -0.823556
#
#
# Mechanical properties :
#
#
# Convention : Reuss Voigt Hill
#
# Bulk Modulus (GPa) = 29.93485 59.04551 44.49018
# Shear Modulus (GPa) = -2.24096 35.81321 16.78613
#
# Velocity S-wave (km/s) = -0.96307 3.85003 2.63583
# Velocity P-wave (km/s) = 3.33962 6.64846 5.26094
#
# Compressibility (1/GPa) = 0.03340588
#
# Stress axis : x y z
#
# Youngs Moduli (GPa) = 115.93371 29.64165 87.25169
#
# Poissons Ratio (x) = 0.05546 0.22170
# Poissons Ratio (y) = 0.21691 0.50577
# Poissons Ratio (z) = 0.29457 0.17182
#
# Static dielectric constant tensor:
#      x y z
#    x 2.098190 0.000000 0.048320 
#    y 0.000000 1.839680 0.000000 
#    z 0.048320 0.000000 1.999910 
# 
# From -- ./inp_files/48601.got.cif
#   From: 2010.05.17/outbox.cif.g08.bks.cpg/sg10_25_cif.got.tgz:48601.got - 2010.06.03 11:33:40.
