data_PCOD9148109
_publ_section_title
;
Structure prediction by ZEFSAII (Michael W. Deem and Ramdas Pophale) SiO2 
 PCOD9148109
Probable space group: P 2/M
;
_chemical_formula_sum "Si O2"
_cell_formula_units_Z 24
_cell_length_a 8.689607
_cell_length_b 21.187630
_cell_length_c 8.743570
_cell_angle_alpha 90.000000
_cell_angle_beta 48.423632
_cell_angle_gamma 90.000000
_cell_volume 1204.244383
_symmetry_space_group_name_H-M "P 2/M"
_symmetry_group_IT_number 10
_symmetry_cell_setting 'monoclinic'
loop_
_space_group_symop_operation_xyz
x,y,z
-x,y,-z
-x,-y,-z
x,-y,z
loop_
_atom_site_type_symbol
_atom_site_label
_atom_site_fract_x
_atom_site_fract_y
_atom_site_fract_z
Si Si1 0.913725 0.323052 0.386032
Si Si2 0.382583 0.782009 0.352761
Si Si3 0.647455 0.671424 0.046429
Si Si4 0.421493 0.429834 0.381291
Si Si5 0.000000 0.144047 0.500000
Si Si6 0.951382 0.071591 0.205372
Si Si7 0.500000 0.888234 0.500000
O O1 0.754776 0.266319 0.452988
O O2 0.784775 0.387649 0.479493
O O3 0.000000 0.312359 0.500000
O O4 0.113367 0.324520 0.149062
O O5 0.554273 0.737085 0.168321
O O6 0.489105 0.839832 0.366152
O O7 0.207414 0.813780 0.362802
O O8 0.594968 0.613080 0.188775
O O9 0.500000 0.657858 0.000000
O O10 0.500000 0.436773 0.500000
O O11 0.393133 0.500000 0.332346
O O12 0.995919 0.106841 0.667336
O O13 0.704893 0.071929 0.368048
O O14 0.034906 0.000000 0.156837
O O15 0.000000 0.097480 0.000000
#
# Coordination Sequence:
#
# PCOD9148109 Si02
#       7
#     4   4   4   4   2   4   2
#     4  11  21  40  60  88 120 158 195 248 306 361
#     4  10  21  37  58  88 127 155 201 251 303 369
#     4  11  21  38  62  86 118 158 194 246 307 361
#     4  10  24  43  60  85 118 151 201 256 301 363
#     4  10  19  40  66  90 125 168 208 258 312 362
#     4  10  22  41  63  92 127 165 212 258 305 363
#     4  10  23  38  60  92 123 164 202 246 312 360
#
# _framework density 19.929508999999999
#
# number of rings (size 3 to 8) (size 9 to 14) (size 15 to 20)
#    0.000    1.667    4.167    0.500    4.667    6.000 
#    0.000    4.167    0.000    9.000    0.000    0.000 
#    0.000    0.000    0.000    0.000    0.000    0.000 
#
# Total GULP energy -133694.362973 kJ/mol
# GULP energy per Si atom -5570.598457 kJ/mol
# Density = 1.988415 g / cm^3
# Si number density = 19.929509 Si / 1000 Ang^3
#
#
#
# Elastic Constant Matrix: (Units=GPa)
#
#
# Indices 1 2 3 4 5 6 
#
# 1 55.8345 28.0630 22.1943 0.0000 0.2336 0.0000
# 2 28.0630 108.9283 43.4879 0.0000 2.0368 0.0000
# 3 22.1943 43.4879 128.8242 0.0000 -13.5551 0.0000
# 4 0.0000 0.0000 0.0000 13.6078 0.0000 -20.7457
# 5 0.2336 2.0368 -13.5551 0.0000 34.4697 0.0000
# 6 0.0000 0.0000 0.0000 -20.7457 0.0000 43.8235
#
#
#
# Elastic Compliance Matrix: (Units=1/GPa)
#
#
# Indices 1 2 3 4 5 6 
#
# 1 0.021061 -0.004546 -0.002170 0.000000 -0.000728 0.000000
# 2 -0.004546 0.011743 -0.003391 0.000000 -0.001997 0.000000
# 3 -0.002170 -0.003391 0.009705 0.000000 0.004032 0.000000
# 4 0.000000 0.000000 0.000000 0.264061 0.000000 0.125004
# 5 -0.000728 -0.001997 0.004032 0.000000 0.030719 0.000000
# 6 0.000000 0.000000 0.000000 0.125004 0.000000 0.081995
#
#
# Mechanical properties :
#
#
# Convention : Reuss Voigt Hill
#
# Bulk Modulus (GPa) = 44.85434 53.45303 49.15369
# Shear Modulus (GPa) = 11.18746 31.70300 21.44523
#
# Velocity S-wave (km/s) = 2.37186 3.99276 3.28388
# Velocity P-wave (km/s) = 5.48236 6.93797 6.25267
#
# Compressibility (1/GPa) = 0.02229438
#
# Stress axis : x y z
#
# Youngs Moduli (GPa) = 47.48211 85.16041 103.03584
#
# Poissons Ratio (x) = 0.38711 0.22363
# Poissons Ratio (y) = 0.21584 0.34939
# Poissons Ratio (z) = 0.10306 0.28877
#
# Static dielectric constant tensor:
#      x y z
#    x 1.752690 0.000000 0.004320 
#    y 0.000000 1.775110 0.000000 
#    z 0.004320 0.000000 1.689790 
# 
# From -- ./inp_files/20153.got.cif
#   From: 2010.05.17/outbox.cif.g08.bks.cpg/sg10_11_cif.got.tgz:20153.got - 2010.06.03 11:33:40.
