data_PCOD9148777
_publ_section_title
;
Structure prediction by ZEFSAII (Michael W. Deem and Ramdas Pophale) SiO2 
 PCOD9148777
Probable space group: P 2/M
;
_chemical_formula_sum "Si O2"
_cell_formula_units_Z 30
_cell_length_a 9.681793
_cell_length_b 13.832451
_cell_length_c 17.673828
_cell_angle_alpha 90.000000
_cell_angle_beta 142.097149
_cell_angle_gamma 90.000000
_cell_volume 1454.063483
_symmetry_space_group_name_H-M "P 2/M"
_symmetry_group_IT_number 10
_symmetry_cell_setting 'monoclinic'
loop_
_space_group_symop_operation_xyz
x,y,z
-x,y,-z
-x,-y,-z
x,-y,z
loop_
_atom_site_type_symbol
_atom_site_label
_atom_site_fract_x
_atom_site_fract_y
_atom_site_fract_z
Si Si1 0.678675 0.613159 0.519013
Si Si2 0.686571 0.685613 0.733971
Si Si3 0.255789 0.888609 0.200482
Si Si4 0.375466 0.386815 0.137497
Si Si5 0.285452 0.111212 0.036082
Si Si6 0.145679 0.388427 0.873457
Si Si7 0.891359 0.617784 0.372546
Si Si8 0.500000 0.757340 0.000000
O O1 0.500000 0.658887 0.500000
O O2 0.700666 0.500000 0.547432
O O3 0.537564 0.625590 0.380683
O O4 0.927354 0.651126 0.611844
O O5 0.648111 0.800021 0.709538
O O6 0.747912 0.667735 0.848008
O O7 0.888722 0.643348 0.771399
O O8 0.330939 0.876596 0.145289
O O9 0.305434 0.000000 0.243773
O O10 0.984646 0.875718 0.087840
O O11 0.372347 0.500000 0.156311
O O12 0.634562 0.352669 0.249235
O O13 0.255725 0.380238 0.005010
O O14 0.417135 0.178626 0.034785
O O15 0.335590 0.000000 0.038770
O O16 0.165988 0.500000 0.857094
O O17 0.295056 0.314237 0.891220
O O18 0.892625 0.500000 0.371229
O O19 0.000000 0.646645 0.500000
#
# Coordination Sequence:
#
# PCOD9148777 Si02
#       8
#     4   4   4   4   4   4   4   2
#     4  10  21  35  54  80 110 145 188 234 273 314
#     4  12  20  34  57  80 110 146 187 229 279 337
#     4   9  19  36  56  80 105 136 181 235 285 331
#     4  10  20  33  53  78 108 147 190 230 267 321
#     4   9  18  34  56  77 102 138 185 235 279 323
#     4  11  24  34  46  76 121 160 184 211 269 342
#     4   9  16  32  53  73  98 134 186 235 265 294
#     4  12  20  34  48  74 110 152 188 216 264 326
#
# _framework density 20.631837000000001
#
# number of rings (size 3 to 8) (size 9 to 14) (size 15 to 20)
#    0.000    1.867    2.667    3.600    1.867    2.133 
#    0.000    2.667    0.000    0.400    0.000    1.867 
#    0.000    0.000    0.000    0.000    0.000    0.000 
#
# Total GULP energy -167549.370559 kJ/mol
# GULP energy per Si atom -5584.979019 kJ/mol
# Density = 2.058488 g / cm^3
# Si number density = 20.631837 Si / 1000 Ang^3
#
#
#
# Elastic Constant Matrix: (Units=GPa)
#
#
# Indices 1 2 3 4 5 6 
#
# 1 119.9055 54.1300 19.4388 0.0000 23.8205 0.0000
# 2 54.1300 104.5196 6.1480 0.0000 9.5301 0.0000
# 3 19.4388 6.1480 73.0048 0.0000 15.7662 0.0000
# 4 0.0000 0.0000 0.0000 9.6160 0.0000 3.9723
# 5 23.8205 9.5301 15.7662 0.0000 34.0725 0.0000
# 6 0.0000 0.0000 0.0000 3.9723 0.0000 33.6420
#
#
#
# Elastic Compliance Matrix: (Units=1/GPa)
#
#
# Indices 1 2 3 4 5 6 
#
# 1 0.012461 -0.005783 -0.001443 0.000000 -0.006426 0.000000
# 2 -0.005783 0.012506 0.000410 0.000000 0.000355 0.000000
# 3 -0.001443 0.000410 0.015393 0.000000 -0.006228 0.000000
# 4 0.000000 0.000000 0.000000 0.109325 0.000000 -0.012909
# 5 -0.006426 0.000355 -0.006228 0.000000 0.036625 0.000000
# 6 0.000000 0.000000 0.000000 -0.012909 0.000000 0.031249
#
#
# Mechanical properties :
#
#
# Convention : Reuss Voigt Hill
#
# Bulk Modulus (GPa) = 37.41445 50.76262 44.08854
# Shear Modulus (GPa) = 20.82470 29.98030 25.40250
#
# Velocity S-wave (km/s) = 3.18047 3.81610 3.51269
# Velocity P-wave (km/s) = 5.62680 6.63885 6.15366
#
# Compressibility (1/GPa) = 0.02672764
#
# Stress axis : x y z
#
# Youngs Moduli (GPa) = 80.24996 79.96228 64.96660
#
# Poissons Ratio (x) = 0.46239 0.09376
# Poissons Ratio (y) = 0.46406 -0.02663
# Poissons Ratio (z) = 0.11581 -0.03277
#
# Static dielectric constant tensor:
#      x y z
#    x 1.828700 0.000000 -0.058430 
#    y 0.000000 1.743900 0.000000 
#    z -0.058430 0.000000 1.783240 
# 
# From -- ./inp_files/82773.got.cif
#   From: 2010.05.17/outbox.cif.g08.bks.cpg/sg10_42_cif.got.tgz:82773.got - 2010.06.03 11:33:40.
