data_PCOD9148245
_publ_section_title
;
Structure prediction by ZEFSAII (Michael W. Deem and Ramdas Pophale) SiO2 
 PCOD9148245
Probable space group: P 2/M
;
_chemical_formula_sum "Si O2"
_cell_formula_units_Z 28
_cell_length_a 19.436229
_cell_length_b 9.553929
_cell_length_c 18.137032
_cell_angle_alpha 90.000000
_cell_angle_beta 159.055540
_cell_angle_gamma 90.000000
_cell_volume 1203.901902
_symmetry_space_group_name_H-M "P 2/M"
_symmetry_group_IT_number 10
_symmetry_cell_setting 'monoclinic'
loop_
_space_group_symop_operation_xyz
x,y,z
-x,y,-z
-x,-y,-z
x,-y,z
loop_
_atom_site_type_symbol
_atom_site_label
_atom_site_fract_x
_atom_site_fract_y
_atom_site_fract_z
Si Si1 0.907926 0.659180 0.826293
Si Si2 0.548160 0.846426 0.463121
Si Si3 0.566501 0.659637 0.773059
Si Si4 0.185850 0.160625 0.563895
Si Si5 0.730242 0.661122 0.213127
Si Si6 0.895609 0.656404 0.651956
Si Si7 0.646476 0.160578 0.990387
O O1 0.821499 0.500000 0.738828
O O2 0.761177 0.786446 0.675378
O O3 0.000582 0.669238 0.836738
O O4 0.000000 0.668314 0.000000
O O5 0.500000 0.853597 0.500000
O O6 0.418674 0.737047 0.289924
O O7 0.533367 0.000000 0.413666
O O8 0.627298 0.500000 0.832456
O O9 0.335045 0.659559 0.559469
O O10 0.664837 0.747630 0.935544
O O11 0.170694 0.265829 0.617645
O O12 0.084968 0.225200 0.390486
O O13 0.416198 0.157564 0.777215
O O14 0.130380 0.000000 0.524663
O O15 0.788654 0.500000 0.259069
O O16 0.500000 0.656825 0.000000
O O17 0.745200 0.760550 0.157193
O O18 0.935083 0.500000 0.661460
O O19 0.707080 0.000000 0.042496
#
# Coordination Sequence:
#
# PCOD9148245 Si02
#       7
#     4   4   4   4   4   4   4
#     4   9  18  32  49  68  89 115 149 187 226 269
#     4  10  20  32  46  66  91 118 149 185 225 268
#     4   9  16  26  40  56  75 103 139 175 212 256
#     4   9  15  21  30  45  66  94 129 166 203 245
#     4   9  15  21  29  42  63  93 129 166 203 244
#     4   8  14  24  37  53  74 100 131 168 209 253
#     4   9  15  22  32  47  69  96 128 167 208 250
#
# _framework density 23.257707
#
# number of rings (size 3 to 8) (size 9 to 14) (size 15 to 20)
#    0.000    3.000    0.000    3.000    0.000   10.000 
#    0.000    0.000    0.000    0.000    0.000    0.000 
#    0.000    0.000    0.000    1.286    0.000   26.286 
#
# Total GULP energy -156394.945120 kJ/mol
# GULP energy per Si atom -5585.533754 kJ/mol
# Density = 2.320477 g / cm^3
# Si number density = 23.257707 Si / 1000 Ang^3
#
#
#
# Elastic Constant Matrix: (Units=GPa)
#
#
# Indices 1 2 3 4 5 6 
#
# 1 77.6359 70.3781 34.5452 0.0000 -38.4608 0.0000
# 2 70.3781 229.9581 60.3393 0.0000 -51.6016 0.0000
# 3 34.5452 60.3393 124.5862 0.0000 -30.6435 0.0000
# 4 0.0000 0.0000 0.0000 9.0137 0.0000 -19.3677
# 5 -38.4608 -51.6016 -30.6435 0.0000 55.1518 0.0000
# 6 0.0000 0.0000 0.0000 -19.3677 0.0000 5.6063
#
#
#
# Elastic Compliance Matrix: (Units=1/GPa)
#
#
# Indices 1 2 3 4 5 6 
#
# 1 0.022832 -0.004042 -0.001607 0.000000 0.011247 0.000000
# 2 -0.004042 0.006518 -0.001424 0.000000 0.002488 0.000000
# 3 -0.001607 -0.001424 0.009913 0.000000 0.003055 0.000000
# 4 0.000000 0.000000 0.000000 -0.017273 0.000000 -0.059671
# 5 0.011247 0.002488 0.003055 0.000000 0.030001 0.000000
# 6 0.000000 0.000000 0.000000 -0.059671 0.000000 -0.027771
#
#
# Mechanical properties :
#
#
# Convention : Reuss Voigt Hill
#
# Bulk Modulus (GPa) = 39.81325 84.74503 62.27914
# Shear Modulus (GPa) = 106.98116 31.74886 69.36501
#
# Velocity S-wave (km/s) = 6.78955 3.69872 5.46711
# Velocity P-wave (km/s) = 8.86676 7.39981 8.16629
#
# Compressibility (1/GPa) = 0.02511727
#
# Stress axis : x y z
#
# Youngs Moduli (GPa) = 43.79862 153.42983 100.87611
#
# Poissons Ratio (x) = 0.62019 0.16207
# Poissons Ratio (y) = 0.17704 0.14363
# Poissons Ratio (z) = 0.07037 0.21845
#
# Static dielectric constant tensor:
#      x y z
#    x 1.943040 0.000000 0.085360 
#    y 0.000000 1.798030 0.000000 
#    z 0.085360 0.000000 1.931090 
# 
# From -- ./inp_files/79320.got.cif
#   From: 2010.05.17/outbox.cif.g08.bks.cpg/sg10_40_cif.got.tgz:79320.got - 2010.06.03 11:33:40.
