data_PCOD9148135
_publ_section_title
;
Structure prediction by ZEFSAII (Michael W. Deem and Ramdas Pophale) SiO2 
 PCOD9148135
Probable space group: P 2/M
;
_chemical_formula_sum "Si O2"
_cell_formula_units_Z 18
_cell_length_a 10.570494
_cell_length_b 19.522019
_cell_length_c 5.138722
_cell_angle_alpha 90.000000
_cell_angle_beta 58.739127
_cell_angle_gamma 90.000000
_cell_volume 906.455449
_symmetry_space_group_name_H-M "P 2/M"
_symmetry_group_IT_number 10
_symmetry_cell_setting 'monoclinic'
loop_
_space_group_symop_operation_xyz
x,y,z
-x,y,-z
-x,-y,-z
x,-y,z
loop_
_atom_site_type_symbol
_atom_site_label
_atom_site_fract_x
_atom_site_fract_y
_atom_site_fract_z
Si Si1 0.107236 0.926450 0.634946
Si Si2 0.892708 0.777781 0.365285
Si Si3 0.174752 0.639643 0.753548
Si Si4 0.894190 0.500000 0.366811
Si Si5 0.601322 0.420351 0.133443
O O1 0.185418 0.852286 0.538280
O O2 0.000000 0.926514 0.500000
O O3 0.189643 0.000000 0.548170
O O4 0.000000 0.926706 0.000000
O O5 0.792635 0.710921 0.424247
O O6 0.000000 0.768070 0.500000
O O7 0.000000 0.782273 0.000000
O O8 0.196319 0.570428 0.561789
O O9 0.262571 0.627172 0.926386
O O10 0.000000 0.641982 0.000000
O O11 0.000000 0.500000 0.500000
O O12 0.000000 0.500000 0.000000
O O13 0.500000 0.419018 0.500000
O O14 0.649163 0.500000 0.046863
O O15 0.500000 0.399439 0.000000
#
# Coordination Sequence:
#
# PCOD9148135 Si02
#       5
#     4   4   4   2   4
#     4   8  13  22  36  55  84 120 148 174 220 277
#     4   9  17  27  41  65  93 118 150 192 232 271
#     4  10  20  35  52  74  95 125 160 201 238 282
#     4  10  20  30  44  68  92 116 149 190 231 272
#     4  10  22  38  52  69  94 125 159 198 241 284
#
# _framework density 19.857565999999998
#
# number of rings (size 3 to 8) (size 9 to 14) (size 15 to 20)
#    0.000    2.667    1.111    0.667    0.000    7.111 
#    0.000    0.000    0.000    0.000    0.000    0.000 
#    0.000    1.778    0.000    0.000    0.000    4.889 
#
# Total GULP energy -100347.284829 kJ/mol
# GULP energy per Si atom -5574.849157 kJ/mol
# Density = 1.981237 g / cm^3
# Si number density = 19.857566 Si / 1000 Ang^3
#
#
#
# Elastic Constant Matrix: (Units=GPa)
#
#
# Indices 1 2 3 4 5 6 
#
# 1 130.5763 51.8964 35.2798 0.0000 32.7470 0.0000
# 2 51.8964 229.0996 2.5190 0.0000 18.4224 0.0000
# 3 35.2798 2.5190 73.0309 0.0000 34.1223 0.0000
# 4 0.0000 0.0000 0.0000 17.1928 0.0000 11.2352
# 5 32.7470 18.4224 34.1223 0.0000 42.9446 0.0000
# 6 0.0000 0.0000 0.0000 11.2352 0.0000 8.0637
#
#
#
# Elastic Compliance Matrix: (Units=1/GPa)
#
#
# Indices 1 2 3 4 5 6 
#
# 1 0.010385 -0.001919 -0.002601 0.000000 -0.005029 0.000000
# 2 -0.001919 0.004942 0.001691 0.000000 -0.002000 0.000000
# 3 -0.002601 0.001691 0.022749 0.000000 -0.016818 0.000000
# 4 0.000000 0.000000 0.000000 0.649868 0.000000 -0.905468
# 5 -0.005029 -0.002000 -0.016818 0.000000 0.041341 0.000000
# 6 0.000000 0.000000 0.000000 -0.905468 0.000000 1.385610
#
#
# Mechanical properties :
#
#
# Convention : Reuss Voigt Hill
#
# Bulk Modulus (GPa) = 30.84736 68.01080 49.42908
# Shear Modulus (GPa) = 2.34592 36.50766 19.42679
#
# Velocity S-wave (km/s) = 1.08809 4.29240 3.13118
# Velocity P-wave (km/s) = 4.14085 7.67398 6.16589
#
# Compressibility (1/GPa) = 0.03241769
#
# Stress axis : x y z
#
# Youngs Moduli (GPa) = 96.29073 202.34856 43.95877
#
# Poissons Ratio (x) = 0.38841 0.11433
# Poissons Ratio (y) = 0.18483 -0.07435
# Poissons Ratio (z) = 0.25044 -0.34225
#
# Static dielectric constant tensor:
#      x y z
#    x 1.371550 0.000000 0.872570 
#    y 0.000000 1.850750 0.000000 
#    z 0.872570 0.000000 -0.626320 
# 
# From -- ./inp_files/4435.got.cif
#   From: 2010.05.17/outbox.cif.g08.bks.cpg/sg10_3_cif.got.tgz:4435.got - 2010.06.03 11:33:40.
