data_PCOD9148573
_publ_section_title
;
Structure prediction by ZEFSAII (Michael W. Deem and Ramdas Pophale) SiO2 
 PCOD9148573
Probable space group: P 2/M
;
_chemical_formula_sum "Si O2"
_cell_formula_units_Z 28
_cell_length_a 26.053959
_cell_length_b 8.543127
_cell_length_c 9.599040
_cell_angle_alpha 90.000000
_cell_angle_beta 139.344384
_cell_angle_gamma 90.000000
_cell_volume 1392.002739
_symmetry_space_group_name_H-M "P 2/M"
_symmetry_group_IT_number 10
_symmetry_cell_setting 'monoclinic'
loop_
_space_group_symop_operation_xyz
x,y,z
-x,y,-z
-x,-y,-z
x,-y,z
loop_
_atom_site_type_symbol
_atom_site_label
_atom_site_fract_x
_atom_site_fract_y
_atom_site_fract_z
Si Si1 0.516118 0.313883 0.875288
Si Si2 0.176232 0.684363 0.680954
Si Si3 0.083606 0.309837 0.228082
Si Si4 0.681993 0.181717 0.199821
Si Si5 0.419743 0.314192 0.414396
Si Si6 0.759410 0.685682 0.618248
Si Si7 0.253213 0.817318 0.100671
O O1 0.533725 0.500000 0.908962
O O2 0.442144 0.290029 0.622438
O O3 0.500000 0.266834 0.000000
O O4 0.592991 0.224994 0.980436
O O5 0.166229 0.500000 0.684687
O O6 0.108603 0.741797 0.435061
O O7 0.256199 0.713817 0.757863
O O8 0.189012 0.768143 0.853797
O O9 0.080412 0.500000 0.227137
O O10 0.155068 0.272113 0.270353
O O11 0.000000 0.252168 0.000000
O O12 0.697390 0.223138 0.393711
O O13 0.698495 0.000000 0.206992
O O14 0.500000 0.269338 0.500000
O O15 0.407176 0.500000 0.363028
O O16 0.339727 0.224696 0.218124
O O17 0.746441 0.500000 0.572609
O O18 0.755517 0.726437 0.772101
O O19 0.248619 0.000000 0.119170
#
# Coordination Sequence:
#
# PCOD9148573 Si02
#       7
#     4   4   4   4   4   4   4
#     4  10  20  33  50  72 100 137 181 228 277 328
#     4  10  20  36  59  82 109 146 183 219 267 330
#     4   8  16  34  62  92 113 135 179 232 271 314
#     4  11  21  34  54  80 110 141 181 231 276 325
#     4  10  21  36  54  75 103 142 186 231 281 334
#     4  10  20  36  59  83 112 150 187 225 275 334
#     4  12  24  37  55  81 115 148 186 235 278 325
#
# _framework density 20.114903999999999
#
# number of rings (size 3 to 8) (size 9 to 14) (size 15 to 20)
#    0.000    1.857    0.000    6.000    0.000    3.429 
#    0.000    0.714    0.000   19.714    0.000    0.000 
#    0.000    0.000    0.000    0.000    0.000    0.000 
#
# Total GULP energy -156444.741437 kJ/mol
# GULP energy per Si atom -5587.312194 kJ/mol
# Density = 2.006912 g / cm^3
# Si number density = 20.114904 Si / 1000 Ang^3
#
#
#
# Elastic Constant Matrix: (Units=GPa)
#
#
# Indices 1 2 3 4 5 6 
#
# 1 29.9970 -0.9472 14.7075 0.0000 -7.3492 0.0000
# 2 -0.9472 33.9180 11.0601 0.0000 8.6700 0.0000
# 3 14.7075 11.0601 104.3100 0.0000 3.3374 0.0000
# 4 0.0000 0.0000 0.0000 6.6017 0.0000 -20.9032
# 5 -7.3492 8.6700 3.3374 0.0000 33.2986 0.0000
# 6 0.0000 0.0000 0.0000 -20.9032 0.0000 -15.3275
#
#
#
# Elastic Compliance Matrix: (Units=1/GPa)
#
#
# Indices 1 2 3 4 5 6 
#
# 1 0.038357 0.000685 -0.005764 0.000000 0.008865 0.000000
# 2 0.000685 0.032626 -0.003300 0.000000 -0.008013 0.000000
# 3 -0.005764 -0.003300 0.010797 0.000000 -0.001495 0.000000
# 4 0.000000 0.000000 0.000000 0.028483 0.000000 -0.038844
# 5 0.008865 -0.008013 -0.001495 0.000000 0.034224 0.000000
# 6 0.000000 0.000000 0.000000 -0.038844 0.000000 -0.012268
#
#
# Mechanical properties :
#
#
# Convention : Reuss Voigt Hill
#
# Bulk Modulus (GPa) = 15.37951 24.20731 19.79341
# Shear Modulus (GPa) = 29.29951 14.47488 21.88720
#
# Velocity S-wave (km/s) = 3.82069 2.68546 3.30223
# Velocity P-wave (km/s) = 5.20826 4.65578 4.93975
#
# Compressibility (1/GPa) = 0.06502158
#
# Stress axis : x y z
#
# Youngs Moduli (GPa) = 26.07119 30.65023 92.61598
#
# Poissons Ratio (x) = -0.02099 0.53388
# Poissons Ratio (y) = -0.01785 0.30559
# Poissons Ratio (z) = 0.15029 0.10113
#
# Static dielectric constant tensor:
#      x y z
#    x 1.714710 0.000000 -0.028340 
#    y 0.000000 1.679820 0.000000 
#    z -0.028340 0.000000 1.737600 
# 
# From -- ./inp_files/36910.got.cif
#   From: 2010.05.17/outbox.cif.g08.bks.cpg/sg10_19_cif.got.tgz:36910.got - 2010.06.03 11:33:40.
