data_PCOD9148423
_publ_section_title
;
Structure prediction by ZEFSAII (Michael W. Deem and Ramdas Pophale) SiO2 
 PCOD9148423
Probable space group: P 2/M
;
_chemical_formula_sum "Si O2"
_cell_formula_units_Z 28
_cell_length_a 21.170853
_cell_length_b 11.967091
_cell_length_c 10.847508
_cell_angle_alpha 90.000000
_cell_angle_beta 33.949891
_cell_angle_gamma 90.000000
_cell_volume 1534.811141
_symmetry_space_group_name_H-M "P 2/M"
_symmetry_group_IT_number 10
_symmetry_cell_setting 'monoclinic'
loop_
_space_group_symop_operation_xyz
x,y,z
-x,y,-z
-x,-y,-z
x,-y,z
loop_
_atom_site_type_symbol
_atom_site_label
_atom_site_fract_x
_atom_site_fract_y
_atom_site_fract_z
Si Si1 0.463258 0.368061 0.376000
Si Si2 0.134301 0.757874 0.259742
Si Si3 0.311247 0.367543 0.105657
Si Si4 0.756564 0.633131 0.142836
Si Si5 0.898576 0.000000 0.764701
Si Si6 0.132795 0.757922 0.813281
Si Si7 0.099367 0.000000 0.943736
Si Si8 0.694645 0.371877 0.606218
O O1 0.477623 0.500000 0.377776
O O2 0.372531 0.325087 0.622578
O O3 0.397300 0.357662 0.352381
O O4 0.589522 0.326791 0.146480
O O5 0.203046 0.711263 0.264691
O O6 0.000000 0.749753 0.500000
O O7 0.161909 0.883673 0.170371
O O8 0.180595 0.678396 0.077622
O O9 0.286744 0.500000 0.121434
O O10 0.351781 0.361393 0.181085
O O11 0.751088 0.500000 0.148662
O O12 0.830543 0.673894 0.138490
O O13 0.000000 0.000000 0.500000
O O14 0.930889 0.000000 0.859548
O O15 0.160720 0.883096 0.815190
O O16 0.206786 0.717161 0.578453
O O17 0.000000 0.752093 0.000000
O O18 0.000000 0.000000 0.000000
O O19 0.738312 0.500000 0.523669
#
# Coordination Sequence:
#
# PCOD9148423 Si02
#       8
#     4   4   4   4   2   4   2   4
#     4   8  16  33  55  81 110 147 189 227 273 335
#     4  11  24  38  55  79 110 149 191 226 284 338
#     4  10  20  34  56  83 115 152 187 228 280 339
#     4  10  20  34  54  80 114 145 180 226 277 335
#     4  10  22  42  62  76 110 158 194 243 284 334
#     4  10  20  32  52  80 109 143 186 224 286 331
#     4  10  20  36  60  81 103 146 208 252 270 329
#     4   9  18  32  53  84 115 144 181 232 287 341
#
# _framework density 18.243286999999999
#
# number of rings (size 3 to 8) (size 9 to 14) (size 15 to 20)
#    0.000    2.286    1.429    2.143    2.000    5.714 
#    0.000    2.143    0.000    5.143    0.000    5.000 
#    0.000    0.000    0.000    0.000    0.000    0.000 
#
# Total GULP energy -155898.305101 kJ/mol
# GULP energy per Si atom -5567.796611 kJ/mol
# Density = 1.820176 g / cm^3
# Si number density = 18.243287 Si / 1000 Ang^3
#
#
#
# Elastic Constant Matrix: (Units=GPa)
#
#
# Indices 1 2 3 4 5 6 
#
# 1 54.2085 17.0123 25.0753 0.0000 14.5976 0.0000
# 2 17.0123 88.7410 40.2041 0.0000 2.7858 0.0000
# 3 25.0753 40.2041 99.4833 0.0000 0.4738 0.0000
# 4 0.0000 0.0000 0.0000 5.8296 0.0000 9.0580
# 5 14.5976 2.7858 0.4738 0.0000 32.5685 0.0000
# 6 0.0000 0.0000 0.0000 9.0580 0.0000 27.5214
#
#
#
# Elastic Compliance Matrix: (Units=1/GPa)
#
#
# Indices 1 2 3 4 5 6 
#
# 1 0.024391 -0.001932 -0.005316 0.000000 -0.010690 0.000000
# 2 -0.001932 0.013987 -0.005164 0.000000 -0.000255 0.000000
# 3 -0.005316 -0.005164 0.013466 0.000000 0.002629 0.000000
# 4 0.000000 0.000000 0.000000 0.351068 0.000000 -0.115545
# 5 -0.010690 -0.000255 0.002629 0.000000 0.035479 0.000000
# 6 0.000000 0.000000 0.000000 -0.115545 0.000000 0.074364
#
#
# Mechanical properties :
#
#
# Convention : Reuss Voigt Hill
#
# Bulk Modulus (GPa) = 37.01015 45.22403 41.11709
# Shear Modulus (GPa) = 9.14767 23.85999 16.50383
#
# Velocity S-wave (km/s) = 2.24168 3.62038 3.01101
# Velocity P-wave (km/s) = 5.19916 6.50534 5.88858
#
# Compressibility (1/GPa) = 0.02701962
#
# Stress axis : x y z
#
# Youngs Moduli (GPa) = 40.99808 71.49591 74.25840
#
# Poissons Ratio (x) = 0.13812 0.39478
# Poissons Ratio (y) = 0.07920 0.38349
# Poissons Ratio (z) = 0.21796 0.36923
#
# Static dielectric constant tensor:
#      x y z
#    x 1.707570 0.000000 0.025660 
#    y 0.000000 1.616130 0.000000 
#    z 0.025660 0.000000 1.653830 
# 
# From -- ./inp_files/56856.got.cif
#   From: 2010.05.17/outbox.cif.g08.bks.cpg/sg10_29_cif.got.tgz:56856.got - 2010.06.03 11:33:40.
