data_PCOD9148431
_publ_section_title
;
Structure prediction by ZEFSAII (Michael W. Deem and Ramdas Pophale) SiO2 
 PCOD9148431
Probable space group: P 2/M
;
_chemical_formula_sum "Si O2"
_cell_formula_units_Z 30
_cell_length_a 20.136328
_cell_length_b 7.817577
_cell_length_c 7.797922
_cell_angle_alpha 90.000000
_cell_angle_beta 91.559984
_cell_angle_gamma 90.000000
_cell_volume 1227.072829
_symmetry_space_group_name_H-M "P 2/M"
_symmetry_group_IT_number 10
_symmetry_cell_setting 'monoclinic'
loop_
_space_group_symop_operation_xyz
x,y,z
-x,y,-z
-x,-y,-z
x,-y,z
loop_
_atom_site_type_symbol
_atom_site_label
_atom_site_fract_x
_atom_site_fract_y
_atom_site_fract_z
Si Si1 0.179633 0.701614 0.987727
Si Si2 0.721168 0.799292 0.512037
Si Si3 0.318549 0.696452 0.119313
Si Si4 0.946908 0.807114 0.866844
Si Si5 0.000000 0.256911 0.500000
Si Si6 0.864750 0.799389 0.381905
Si Si7 0.590434 0.294787 0.363771
Si Si8 0.453336 0.708384 0.246290
O O1 0.186514 0.500000 0.956428
O O2 0.253138 0.773995 0.028134
O O3 0.125846 0.724358 0.135248
O O4 0.146487 0.785584 0.820826
O O5 0.700671 0.697034 0.680080
O O6 0.794383 0.751030 0.458250
O O7 0.665373 0.772036 0.361226
O O8 0.721178 0.000000 0.556693
O O9 0.324571 0.500000 0.059262
O O10 0.392926 0.772613 0.123679
O O11 0.979990 0.816644 0.683986
O O12 0.935784 0.000000 0.927386
O O13 0.000000 0.722291 0.000000
O O14 0.074000 0.316646 0.556155
O O15 0.879611 0.000000 0.427099
O O16 0.593321 0.500000 0.349362
O O17 0.567756 0.253523 0.558084
O O18 0.529870 0.234446 0.238782
O O19 0.453789 0.500000 0.230565
#
# Coordination Sequence:
#
# PCOD9148431 Si02
#       8
#     4   4   4   4   2   4   4   4
#     4  11  24  40  59  85 119 150 187 240 296 349
#     4  10  20  32  52  82 112 143 185 238 287 343
#     4   9  18  34  54  77 110 149 186 230 285 347
#     4  11  22  40  67  90 116 155 197 241 284 343
#     4  12  23  42  69  92 111 150 207 242 279 346
#     4  11  23  40  60  81 110 149 195 239 284 348
#     4   8  13  25  47  73 105 142 182 231 281 338
#     4   7  11  23  46  73 100 140 188 226 271 334
#
# _framework density 24.448425
#
# number of rings (size 3 to 8) (size 9 to 14) (size 15 to 20)
#    0.000    2.267    1.333    4.400    0.000    3.467 
#    0.000    6.667    0.000    0.800    0.000    5.600 
#    0.000    0.000    0.000    0.000    0.000    0.000 
#
# Total GULP energy -167259.425047 kJ/mol
# GULP energy per Si atom -5575.314168 kJ/mol
# Density = 2.439278 g / cm^3
# Si number density = 24.448425 Si / 1000 Ang^3
#
#
#
# Elastic Constant Matrix: (Units=GPa)
#
#
# Indices 1 2 3 4 5 6 
#
# 1 214.6164 21.9902 67.9735 0.0000 54.3224 0.0000
# 2 21.9902 49.0360 1.4665 0.0000 8.0893 0.0000
# 3 67.9735 1.4665 74.2664 0.0000 11.6328 0.0000
# 4 0.0000 0.0000 0.0000 -36.8141 0.0000 -12.2686
# 5 54.3224 8.0893 11.6328 0.0000 51.5809 0.0000
# 6 0.0000 0.0000 0.0000 -12.2686 0.0000 6.4367
#
#
#
# Elastic Compliance Matrix: (Units=1/GPa)
#
#
# Indices 1 2 3 4 5 6 
#
# 1 0.009082 -0.002614 -0.007077 0.000000 -0.007559 0.000000
# 2 -0.002614 0.021688 0.002142 0.000000 -0.001131 0.000000
# 3 -0.007077 0.002142 0.019473 0.000000 0.002725 0.000000
# 4 0.000000 0.000000 0.000000 -0.016612 0.000000 -0.031663
# 5 -0.007559 -0.001131 0.002725 0.000000 0.026910 0.000000
# 6 0.000000 0.000000 0.000000 -0.031663 0.000000 0.095009
#
#
# Mechanical properties :
#
#
# Convention : Reuss Voigt Hill
#
# Bulk Modulus (GPa) = 28.45422 57.86435 43.15928
# Shear Modulus (GPa) = 27.41772 20.67328 24.04550
#
# Velocity S-wave (km/s) = 3.35244 2.91105 3.13951
# Velocity P-wave (km/s) = 5.16226 5.91762 5.55280
#
# Compressibility (1/GPa) = 0.03514418
#
# Stress axis : x y z
#
# Youngs Moduli (GPa) = 110.10936 46.10833 51.35321
#
# Poissons Ratio (x) = 0.12054 0.36341
# Poissons Ratio (y) = 0.28785 -0.10998
# Poissons Ratio (z) = 0.77922 -0.09875
#
# Static dielectric constant tensor:
#      x y z
#    x 2.003240 0.000000 0.025390 
#    y 0.000000 1.918500 0.000000 
#    z 0.025390 0.000000 1.955110 
# 
# From -- ./inp_files/33941.got.cif
#   From: 2010.05.17/outbox.cif.g08.bks.cpg/sg10_17_cif.got.tgz:33941.got - 2010.06.03 11:33:40.
