data_PCOD9148201
_publ_section_title
;
Structure prediction by ZEFSAII (Michael W. Deem and Ramdas Pophale) SiO2 
 PCOD9148201
Probable space group: P 2/M
;
_chemical_formula_sum "Si O2"
_cell_formula_units_Z 28
_cell_length_a 24.599690
_cell_length_b 7.352287
_cell_length_c 11.344696
_cell_angle_alpha 90.000000
_cell_angle_beta 143.142266
_cell_angle_gamma 90.000000
_cell_volume 1230.759623
_symmetry_space_group_name_H-M "P 2/M"
_symmetry_group_IT_number 10
_symmetry_cell_setting 'monoclinic'
loop_
_space_group_symop_operation_xyz
x,y,z
-x,y,-z
-x,-y,-z
x,-y,z
loop_
_atom_site_type_symbol
_atom_site_label
_atom_site_fract_x
_atom_site_fract_y
_atom_site_fract_z
Si Si1 0.292107 0.280094 0.876829
Si Si2 0.891399 0.277330 0.556999
Si Si3 0.890325 0.294565 0.813724
Si Si4 0.457140 0.788905 0.547117
Si Si5 0.475913 0.209251 0.086152
Si Si6 0.280519 0.719308 0.117270
Si Si7 0.902782 0.277282 0.093658
O O1 0.294530 0.500000 0.878011
O O2 0.190163 0.224104 0.668563
O O3 0.368029 0.213720 0.919003
O O4 0.314331 0.219884 0.047897
O O5 0.893840 0.500000 0.565009
O O6 0.866775 0.213546 0.646705
O O7 0.993765 0.219970 0.703027
O O8 0.852713 0.500000 0.750063
O O9 0.872710 0.213673 0.910901
O O10 0.000000 0.306574 0.000000
O O11 0.500000 0.709069 0.500000
O O12 0.484644 0.710531 0.722376
O O13 0.349817 0.779476 0.337762
O O14 0.485643 0.000000 0.599712
O O15 0.508761 0.000000 0.139612
O O16 0.500000 0.289476 0.000000
O O17 0.280818 0.500000 0.118405
O O18 0.176909 0.776867 0.957411
O O19 0.905217 0.500000 0.094459
#
# Coordination Sequence:
#
# PCOD9148201 Si02
#       7
#     4   4   4   4   4   4   4
#     4  10  20  32  49  77 108 137 171 212 260 305
#     4   8  14  25  42  65  99 139 170 201 246 302
#     4   7  10  19  36  57  85 125 168 203 236 281
#     4  10  20  37  59  76  94 133 177 208 255 318
#     4  10  22  40  59  78 101 131 171 217 263 316
#     4  10  20  31  49  79 108 135 171 216 258 297
#     4   8  14  25  41  66 100 135 170 205 245 297
#
# _framework density 22.750177000000001
#
# number of rings (size 3 to 8) (size 9 to 14) (size 15 to 20)
#    0.000    3.000    1.429    1.714    0.000    2.857 
#    0.000    4.286    0.000    0.857    0.000    2.000 
#    0.000    6.857    0.000    0.000    0.000    0.000 
#
# Total GULP energy -156122.546528 kJ/mol
# GULP energy per Si atom -5575.805233 kJ/mol
# Density = 2.269840 g / cm^3
# Si number density = 22.750177 Si / 1000 Ang^3
#
#
#
# Elastic Constant Matrix: (Units=GPa)
#
#
# Indices 1 2 3 4 5 6 
#
# 1 153.7049 6.9979 58.2397 0.0000 -1.6192 0.0000
# 2 6.9979 86.7157 2.2693 0.0000 -5.6725 0.0000
# 3 58.2397 2.2693 139.5790 0.0000 -4.3468 0.0000
# 4 0.0000 0.0000 0.0000 16.7774 0.0000 12.2372
# 5 -1.6192 -5.6725 -4.3468 0.0000 35.5228 0.0000
# 6 0.0000 0.0000 0.0000 12.2372 0.0000 -6.7239
#
#
#
# Elastic Compliance Matrix: (Units=1/GPa)
#
#
# Indices 1 2 3 4 5 6 
#
# 1 0.007754 -0.000550 -0.003230 0.000000 -0.000130 0.000000
# 2 -0.000550 0.011695 0.000097 0.000000 0.001854 0.000000
# 3 -0.003230 0.000097 0.008539 0.000000 0.000913 0.000000
# 4 0.000000 0.000000 0.000000 0.025609 0.000000 0.046608
# 5 -0.000130 0.001854 0.000913 0.000000 0.028553 0.000000
# 6 0.000000 0.000000 0.000000 0.046608 0.000000 -0.063900
#
#
# Mechanical properties :
#
#
# Convention : Reuss Voigt Hill
#
# Bulk Modulus (GPa) = 48.49249 57.22373 52.85811
# Shear Modulus (GPa) = 153.89392 29.94811 91.92101
#
# Velocity S-wave (km/s) = 8.23359 3.63215 6.36335
# Velocity P-wave (km/s) = 10.57123 6.54199 8.79058
#
# Compressibility (1/GPa) = 0.02062175
#
# Stress axis : x y z
#
# Youngs Moduli (GPa) = 128.97203 85.50620 117.10812
#
# Poissons Ratio (x) = 0.04700 0.37830
# Poissons Ratio (y) = 0.07089 -0.01135
# Poissons Ratio (z) = 0.41662 -0.00829
#
# Static dielectric constant tensor:
#      x y z
#    x 1.859840 0.000000 -0.034950 
#    y 0.000000 1.921230 0.000000 
#    z -0.034950 0.000000 1.826790 
# 
# From -- ./inp_files/56865.got.cif
#   From: 2010.05.17/outbox.cif.g08.bks.cpg/sg10_29_cif.got.tgz:56865.got - 2010.06.03 11:33:40.
