data_PCOD9148591
_publ_section_title
;
Structure prediction by ZEFSAII (Michael W. Deem and Ramdas Pophale) SiO2 
 PCOD9148591
Probable space group: P 2/M
;
_chemical_formula_sum "Si O2"
_cell_formula_units_Z 32
_cell_length_a 18.048071
_cell_length_b 13.864937
_cell_length_c 16.161701
_cell_angle_alpha 90.000000
_cell_angle_beta 156.852920
_cell_angle_gamma 90.000000
_cell_volume 1589.757384
_symmetry_space_group_name_H-M "P 2/M"
_symmetry_group_IT_number 10
_symmetry_cell_setting 'monoclinic'
loop_
_space_group_symop_operation_xyz
x,y,z
-x,y,-z
-x,-y,-z
x,-y,z
loop_
_atom_site_type_symbol
_atom_site_label
_atom_site_fract_x
_atom_site_fract_y
_atom_site_fract_z
Si Si1 0.939613 0.613124 0.344153
Si Si2 0.516514 0.114830 0.696670
Si Si3 0.736945 0.387760 0.461542
Si Si4 0.113978 0.893238 0.232499
Si Si5 0.723568 0.604671 0.711859
Si Si6 0.917788 0.391753 0.086504
Si Si7 0.655163 0.720749 0.941009
Si Si8 0.244260 0.184414 0.207346
O O1 0.876373 0.500000 0.274835
O O2 0.120485 0.622879 0.469390
O O3 0.000000 0.632025 0.500000
O O4 0.780922 0.686519 0.147732
O O5 0.290946 0.130969 0.472064
O O6 0.624041 0.168985 0.881554
O O7 0.588421 0.162786 0.684264
O O8 0.548764 0.000000 0.726878
O O9 0.680728 0.500000 0.410336
O O10 0.551080 0.325470 0.264203
O O11 0.868262 0.361524 0.675214
O O12 0.206648 0.897123 0.236223
O O13 0.041781 0.000000 0.180863
O O14 0.939965 0.821040 0.041669
O O15 0.500000 0.599048 0.500000
O O16 0.761025 0.500000 0.705804
O O17 0.746013 0.720203 0.724969
O O18 0.854698 0.600470 0.928042
O O19 0.905413 0.500000 0.110137
O O20 0.765787 0.329091 0.978545
#
# Coordination Sequence:
#
# PCOD9148591 Si02
#       8
#     4   4   4   4   4   4   4   4
#     4   9  19  36  58  88 120 143 171 213 253 302
#     4  11  23  36  54  79 106 137 180 232 281 324
#     4   9  18  32  54  82 109 140 175 208 254 314
#     4  10  22  37  56  79 100 130 184 246 293 328
#     4  10  20  33  50  73 104 143 183 222 265 319
#     4   9  18  33  50  73 106 139 177 221 257 307
#     4  11  20  32  55  79 109 145 175 207 264 322
#     4  11  20  37  59  74 101 141 182 231 286 331
#
# _framework density 20.128858000000001
#
# number of rings (size 3 to 8) (size 9 to 14) (size 15 to 20)
#    0.000    2.000    1.250    4.500    1.750    1.500 
#    0.000    3.125    0.000    1.125    0.000    0.875 
#    0.000    0.000    0.000    0.000    0.000    0.000 
#
# Total GULP energy -178383.173521 kJ/mol
# GULP energy per Si atom -5574.474173 kJ/mol
# Density = 2.008304 g / cm^3
# Si number density = 20.128858 Si / 1000 Ang^3
#
#
#
# Elastic Constant Matrix: (Units=GPa)
#
#
# Indices 1 2 3 4 5 6 
#
# 1 44.2574 25.8242 37.4334 0.0000 -8.1277 0.0000
# 2 25.8242 135.1808 46.3575 0.0000 -0.6385 0.0000
# 3 37.4334 46.3575 111.6504 0.0000 6.7453 0.0000
# 4 0.0000 0.0000 0.0000 29.8376 0.0000 -2.1272
# 5 -8.1277 -0.6385 6.7453 0.0000 30.5186 0.0000
# 6 0.0000 0.0000 0.0000 -2.1272 0.0000 17.3668
#
#
#
# Elastic Compliance Matrix: (Units=1/GPa)
#
#
# Indices 1 2 3 4 5 6 
#
# 1 0.036488 -0.002872 -0.011782 0.000000 0.012261 0.000000
# 2 -0.002872 0.008881 -0.002726 0.000000 0.000023 0.000000
# 3 -0.011782 -0.002726 0.014424 0.000000 -0.006383 0.000000
# 4 0.000000 0.000000 0.000000 0.033810 0.000000 0.004141
# 5 0.012261 0.000023 -0.006383 0.000000 0.037443 0.000000
# 6 0.000000 0.000000 0.000000 0.004141 0.000000 0.058089
#
#
# Mechanical properties :
#
#
# Convention : Reuss Voigt Hill
#
# Bulk Modulus (GPa) = 39.94655 56.70210 48.32432
# Shear Modulus (GPa) = 21.52958 27.64284 24.58621
#
# Velocity S-wave (km/s) = 3.27400 3.70982 3.49870
# Velocity P-wave (km/s) = 5.84642 6.82503 6.35459
#
# Compressibility (1/GPa) = 0.02503345
#
# Stress axis : x y z
#
# Youngs Moduli (GPa) = 27.40644 112.59877 69.32907
#
# Poissons Ratio (x) = 0.32341 0.81680
# Poissons Ratio (y) = 0.07872 0.18898
# Poissons Ratio (z) = 0.32289 0.30693
#
# Static dielectric constant tensor:
#      x y z
#    x 1.739220 0.000000 0.018220 
#    y 0.000000 1.784010 0.000000 
#    z 0.018220 0.000000 1.778770 
# 
# From -- ./inp_files/79736.got.cif
#   From: 2010.05.17/outbox.cif.g08.bks.cpg/sg10_40_cif.got.tgz:79736.got - 2010.06.03 11:33:40.
