data_PCOD9148436
_publ_section_title
;
Structure prediction by ZEFSAII (Michael W. Deem and Ramdas Pophale) SiO2 
 PCOD9148436
Probable space group: P 2/M
;
_chemical_formula_sum "Si O2"
_cell_formula_units_Z 24
_cell_length_a 16.249789
_cell_length_b 12.984818
_cell_length_c 5.473276
_cell_angle_alpha 90.000000
_cell_angle_beta 79.219040
_cell_angle_gamma 90.000000
_cell_volume 1134.480289
_symmetry_space_group_name_H-M "P 2/M"
_symmetry_group_IT_number 10
_symmetry_cell_setting 'monoclinic'
loop_
_space_group_symop_operation_xyz
x,y,z
-x,y,-z
-x,-y,-z
x,-y,z
loop_
_atom_site_type_symbol
_atom_site_label
_atom_site_fract_x
_atom_site_fract_y
_atom_site_fract_z
Si Si1 0.923012 0.889827 0.730986
Si Si2 0.259343 0.619384 0.109700
Si Si3 0.408478 0.767630 0.987142
Si Si4 0.911234 0.315418 0.050304
Si Si5 0.198651 0.782986 0.515309
Si Si6 0.361688 0.122560 0.532971
O O1 0.927881 0.786943 0.883482
O O2 0.835445 0.872169 0.640811
O O3 0.000000 0.893172 0.500000
O O4 0.921548 0.000000 0.865574
O O5 0.275625 0.500000 0.143798
O O6 0.340842 0.678586 0.964046
O O7 0.172811 0.630453 0.003349
O O8 0.240790 0.686361 0.359912
O O9 0.381897 0.830285 0.250760
O O10 0.500000 0.724830 0.000000
O O11 0.413650 0.837162 0.738769
O O12 0.882753 0.268561 0.321950
O O13 0.000000 0.373475 0.000000
O O14 0.267032 0.837392 0.645624
O O15 0.366587 0.000000 0.516421
#
# Coordination Sequence:
#
# PCOD9148436 Si02
#       6
#     4   4   4   4   4   4
#     4  10  20  32  52  84 120 163 210 254 310 376
#     4  10  24  44  65  89 121 163 211 272 334 385
#     4  11  24  44  68 100 134 169 217 268 320 390
#     4  11  21  38  61  87 122 162 210 268 320 379
#     4  10  21  40  57  86 126 166 211 266 310 385
#     4  11  23  41  67  99 138 178 213 257 320 389
#
# _framework density 21.155062000000001
#
# number of rings (size 3 to 8) (size 9 to 14) (size 15 to 20)
#    0.000    1.500    3.333    1.500    0.000    5.000 
#    0.000    0.833    0.000    3.000    0.000    0.000 
#    0.000    0.000    0.000    0.000    0.000    0.000 
#
# Total GULP energy -133746.149439 kJ/mol
# GULP energy per Si atom -5572.756227 kJ/mol
# Density = 2.110691 g / cm^3
# Si number density = 21.155062 Si / 1000 Ang^3
#
#
#
# Elastic Constant Matrix: (Units=GPa)
#
#
# Indices 1 2 3 4 5 6 
#
# 1 126.7551 39.3441 10.4136 0.0000 16.3380 0.0000
# 2 39.3441 143.9334 27.1144 0.0000 -1.7123 0.0000
# 3 10.4136 27.1144 59.1888 0.0000 4.9926 0.0000
# 4 0.0000 0.0000 0.0000 134.3315 0.0000 -13.6425
# 5 16.3380 -1.7123 4.9926 0.0000 36.2396 0.0000
# 6 0.0000 0.0000 0.0000 -13.6425 0.0000 -3.3749
#
#
#
# Elastic Compliance Matrix: (Units=1/GPa)
#
#
# Indices 1 2 3 4 5 6 
#
# 1 0.009242 -0.002560 -0.000093 0.000000 -0.004275 0.000000
# 2 -0.002560 0.008339 -0.003541 0.000000 0.002036 0.000000
# 3 -0.000093 -0.003541 0.018762 0.000000 -0.002710 0.000000
# 4 0.000000 0.000000 0.000000 0.005278 0.000000 -0.021334
# 5 -0.004275 0.002036 -0.002710 0.000000 0.029991 0.000000
# 6 0.000000 0.000000 0.000000 -0.021334 0.000000 -0.210066
#
#
# Mechanical properties :
#
#
# Convention : Reuss Voigt Hill
#
# Bulk Modulus (GPa) = 41.74410 53.73572 47.73991
# Shear Modulus (GPa) = -42.34384 50.30627 3.98121
#
# Velocity S-wave (km/s) = -4.47877 4.88174 1.37332
# Velocity P-wave (km/s) = 2.64019 7.56513 5.01302
#
# Compressibility (1/GPa) = 0.02395548
#
# Stress axis : x y z
#
# Youngs Moduli (GPa) = 108.19694 119.92273 53.29835
#
# Poissons Ratio (x) = 0.30697 0.00495
# Poissons Ratio (y) = 0.27696 0.18875
# Poissons Ratio (z) = 0.01005 0.42468
#
# Static dielectric constant tensor:
#      x y z
#    x 1.886610 0.000000 0.004870 
#    y 0.000000 1.694180 0.000000 
#    z 0.004870 0.000000 1.885260 
# 
# From -- ./inp_files/10968.got.cif
#   From: 2010.05.17/outbox.cif.g08.bks.cpg/sg10_6_cif.got.tgz:10968.got - 2010.06.03 11:33:40.
