data_PCOD9148105
_publ_section_title
;
Structure prediction by ZEFSAII (Michael W. Deem and Ramdas Pophale) SiO2 
 PCOD9148105
Probable space group: P 2/M
;
_chemical_formula_sum "Si O2"
_cell_formula_units_Z 18
_cell_length_a 13.273520
_cell_length_b 11.339922
_cell_length_c 5.183205
_cell_angle_alpha 90.000000
_cell_angle_beta 89.909962
_cell_angle_gamma 90.000000
_cell_volume 780.178585
_symmetry_space_group_name_H-M "P 2/M"
_symmetry_group_IT_number 10
_symmetry_cell_setting 'monoclinic'
loop_
_space_group_symop_operation_xyz
x,y,z
-x,y,-z
-x,-y,-z
x,-y,z
loop_
_atom_site_type_symbol
_atom_site_label
_atom_site_fract_x
_atom_site_fract_y
_atom_site_fract_z
Si Si1 0.890281 0.628010 0.627197
Si Si2 0.000000 0.795837 0.000000
Si Si3 0.570692 0.367436 0.749333
Si Si4 0.820620 0.172306 0.322621
Si Si5 0.696749 0.127590 0.812647
O O1 0.854883 0.500000 0.709517
O O2 0.824667 0.689914 0.407121
O O3 0.000000 0.616665 0.500000
O O4 0.915690 0.714126 0.863275
O O5 0.932741 0.859277 0.217612
O O6 0.500000 0.359917 0.500000
O O7 0.618628 0.500000 0.745931
O O8 0.638472 0.249635 0.758399
O O9 0.500000 0.363206 0.000000
O O10 0.782442 0.119879 0.591603
O O11 0.744711 0.140311 0.095895
O O12 0.641265 0.000000 0.802489
#
# Coordination Sequence:
#
# PCOD9148105 Si02
#       5
#     4   2   4   4   4
#     4   9  18  33  59  88 123 169 226 285 338 392
#     4  10  19  40  63  86 138 182 240 284 342 388
#     4  10  23  46  75 105 136 169 212 269 339 416
#     4  11  23  41  62  92 135 180 233 286 335 383
#     4  12  26  44  67 100 139 177 227 280 332 403
#
# _framework density 23.071639000000001
#
# number of rings (size 3 to 8) (size 9 to 14) (size 15 to 20)
#    0.000    1.556    2.222    2.333    0.000    3.556 
#    0.000    3.333    0.000    0.000    0.000    0.000 
#    0.000    0.000    0.000    0.000    0.000    0.000 
#
# Total GULP energy -100345.570102 kJ/mol
# GULP energy per Si atom -5574.753895 kJ/mol
# Density = 2.301913 g / cm^3
# Si number density = 23.071639 Si / 1000 Ang^3
#
#
#
# Elastic Constant Matrix: (Units=GPa)
#
#
# Indices 1 2 3 4 5 6 
#
# 1 56.7373 59.6664 31.0065 0.0000 -4.1704 0.0000
# 2 59.6664 219.5264 38.7636 0.0000 9.6329 0.0000
# 3 31.0065 38.7636 156.7780 0.0000 6.6535 0.0000
# 4 0.0000 0.0000 0.0000 26.4305 0.0000 -23.4272
# 5 -4.1704 9.6329 6.6535 0.0000 27.4499 0.0000
# 6 0.0000 0.0000 0.0000 -23.4272 0.0000 4.0253
#
#
#
# Elastic Compliance Matrix: (Units=1/GPa)
#
#
# Indices 1 2 3 4 5 6 
#
# 1 0.028050 -0.007244 -0.004087 0.000000 0.007794 0.000000
# 2 -0.007244 0.006688 -0.000075 0.000000 -0.003429 0.000000
# 3 -0.004087 -0.000075 0.007306 0.000000 -0.002365 0.000000
# 4 0.000000 0.000000 0.000000 -0.009098 0.000000 -0.052950
# 5 0.007794 -0.003429 -0.002365 0.000000 0.039391 0.000000
# 6 0.000000 0.000000 0.000000 -0.052950 0.000000 -0.059737
#
#
# Mechanical properties :
#
#
# Convention : Reuss Voigt Hill
#
# Bulk Modulus (GPa) = 52.00163 76.87943 64.44053
# Shear Modulus (GPa) = 119.55311 31.82147 75.68729
#
# Velocity S-wave (km/s) = 7.20630 3.71785 5.73381
# Velocity P-wave (km/s) = 9.58275 7.19891 8.47506
#
# Compressibility (1/GPa) = 0.01923017
#
# Stress axis : x y z
#
# Youngs Moduli (GPa) = 35.65106 149.52218 136.87772
#
# Poissons Ratio (x) = 1.08315 0.55944
# Poissons Ratio (y) = 0.25826 0.01032
# Poissons Ratio (z) = 0.14571 0.01127
#
# Static dielectric constant tensor:
#      x y z
#    x 1.867260 0.000000 -0.023030 
#    y 0.000000 1.994790 0.000000 
#    z -0.023030 0.000000 1.847210 
# 
# From -- ./inp_files/8770.got.cif
#   From: 2010.05.17/outbox.cif.g08.bks.cpg/sg10_5_cif.got.tgz:8770.got - 2010.06.03 11:33:40.
