data_PCOD9148001
_publ_section_title
;
Structure prediction by ZEFSAII (Michael W. Deem and Ramdas Pophale) SiO2 
 PCOD9148001
Probable space group: P 2/M
;
_chemical_formula_sum "Si O2"
_cell_formula_units_Z 28
_cell_length_a 7.320261
_cell_length_b 12.639132
_cell_length_c 16.766963
_cell_angle_alpha 90.000000
_cell_angle_beta 51.792130
_cell_angle_gamma 90.000000
_cell_volume 1218.974832
_symmetry_space_group_name_H-M "P 2/M"
_symmetry_group_IT_number 10
_symmetry_cell_setting 'monoclinic'
loop_
_space_group_symop_operation_xyz
x,y,z
-x,y,-z
-x,-y,-z
x,-y,z
loop_
_atom_site_type_symbol
_atom_site_label
_atom_site_fract_x
_atom_site_fract_y
_atom_site_fract_z
Si Si1 0.508699 0.114831 0.254177
Si Si2 0.754621 0.335983 0.081030
Si Si3 0.239806 0.878191 0.602894
Si Si4 0.628535 0.118042 0.049648
Si Si5 0.887068 0.735658 0.609272
Si Si6 0.228230 0.619240 0.196990
Si Si7 0.129211 0.757404 0.790883
O O1 0.456176 0.120409 0.173585
O O2 0.356903 0.203983 0.337133
O O3 0.786778 0.134965 0.186398
O O4 0.451471 0.000000 0.301624
O O5 0.773263 0.223552 0.028012
O O6 0.749702 0.321356 0.178366
O O7 0.508078 0.379126 0.119402
O O8 0.000000 0.389991 0.000000
O O9 0.500000 0.878994 0.500000
O O10 0.223138 0.794510 0.679599
O O11 0.059772 0.830571 0.588379
O O12 0.178028 0.000000 0.641257
O O13 0.735351 0.000000 0.023414
O O14 0.500000 0.126164 0.000000
O O15 0.849032 0.656417 0.693511
O O16 0.000000 0.686242 0.500000
O O17 0.146952 0.500000 0.202185
O O18 0.113299 0.702835 0.167002
#
# Coordination Sequence:
#
# PCOD9148001 Si02
#       7
#     4   4   4   4   4   4   4
#     4  10  19  37  64  99 139 181 223 268 324 393
#     4  11  25  43  71  98 132 173 222 277 336 394
#     4  10  21  35  60  99 142 185 224 267 325 393
#     4   9  19  36  62  96 137 179 218 259 318 393
#     4  11  22  39  67  99 138 175 221 271 335 403
#     4  11  26  48  70  96 129 170 227 286 340 393
#     4  10  22  42  64  94 134 175 215 275 327 394
#
# _framework density 22.970123000000001
#
# number of rings (size 3 to 8) (size 9 to 14) (size 15 to 20)
#    0.000    1.714    2.857    1.714    2.000    4.286 
#    0.000    1.429    0.000    2.571    0.000    0.000 
#    0.000    0.000    0.000    0.000    0.000    0.000 
#
# Total GULP energy -155930.509216 kJ/mol
# GULP energy per Si atom -5568.946758 kJ/mol
# Density = 2.291784 g / cm^3
# Si number density = 22.970123 Si / 1000 Ang^3
#
#
#
# Elastic Constant Matrix: (Units=GPa)
#
#
# Indices 1 2 3 4 5 6 
#
# 1 132.9764 39.2511 35.9364 0.0000 1.4351 0.0000
# 2 39.2511 99.9513 29.1335 0.0000 -11.1174 0.0000
# 3 35.9364 29.1335 93.9078 0.0000 1.0477 0.0000
# 4 0.0000 0.0000 0.0000 -5.5953 0.0000 2.8765
# 5 1.4351 -11.1174 1.0477 0.0000 36.9999 0.0000
# 6 0.0000 0.0000 0.0000 2.8765 0.0000 -4.0728
#
#
#
# Elastic Compliance Matrix: (Units=1/GPa)
#
#
# Indices 1 2 3 4 5 6 
#
# 1 0.009095 -0.002959 -0.002550 0.000000 -0.001170 0.000000
# 2 -0.002959 0.012408 -0.002761 0.000000 0.003921 0.000000
# 3 -0.002550 -0.002761 0.012493 0.000000 -0.001084 0.000000
# 4 0.000000 0.000000 0.000000 -0.280613 0.000000 -0.198194
# 5 -0.001170 0.003921 -0.001084 0.000000 0.028281 0.000000
# 6 0.000000 0.000000 0.000000 -0.198194 0.000000 -0.385516
#
#
# Mechanical properties :
#
#
# Convention : Reuss Voigt Hill
#
# Bulk Modulus (GPa) = 57.28142 59.49751 58.38947
# Shear Modulus (GPa) = -8.59854 20.30066 5.85106
#
# Velocity S-wave (km/s) = -1.93687 2.97608 1.59774
# Velocity P-wave (km/s) = 4.47096 6.14555 5.37388
#
# Compressibility (1/GPa) = 0.01745767
#
# Stress axis : x y z
#
# Youngs Moduli (GPa) = 109.94976 80.59598 80.04477
#
# Poissons Ratio (x) = 0.23845 0.20408
# Poissons Ratio (y) = 0.32530 0.22099
# Poissons Ratio (z) = 0.28032 0.22251
#
# Static dielectric constant tensor:
#      x y z
#    x 1.940510 0.000000 -0.025840 
#    y 0.000000 1.889390 0.000000 
#    z -0.025840 0.000000 1.945930 
# 
# From -- ./inp_files/61138.got.cif
#   From: 2010.05.17/outbox.cif.g08.bks.cpg/sg10_31_cif.got.tgz:61138.got - 2010.06.03 11:33:40.
