data_PCOD9148350
_publ_section_title
;
Structure prediction by ZEFSAII (Michael W. Deem and Ramdas Pophale) SiO2 
 PCOD9148350
Probable space group: P 2/M
;
_chemical_formula_sum "Si O2"
_cell_formula_units_Z 32
_cell_length_a 24.947642
_cell_length_b 7.427204
_cell_length_c 12.847328
_cell_angle_alpha 90.000000
_cell_angle_beta 35.871973
_cell_angle_gamma 90.000000
_cell_volume 1394.914309
_symmetry_space_group_name_H-M "P 2/M"
_symmetry_group_IT_number 10
_symmetry_cell_setting 'monoclinic'
loop_
_space_group_symop_operation_xyz
x,y,z
-x,y,-z
-x,-y,-z
x,-y,z
loop_
_atom_site_type_symbol
_atom_site_label
_atom_site_fract_x
_atom_site_fract_y
_atom_site_fract_z
Si Si1 0.209732 0.781915 0.795239
Si Si2 0.496130 0.280528 0.175249
Si Si3 0.641844 0.715145 0.785358
Si Si4 0.455319 0.720743 0.678224
Si Si5 0.995996 0.209812 0.839137
Si Si6 0.948216 0.718327 0.685290
Si Si7 0.810766 0.214021 0.396349
Si Si8 0.255942 0.292073 0.950570
O O1 0.235611 0.721430 0.638319
O O2 0.261472 0.714043 0.815783
O O3 0.213774 0.000000 0.795826
O O4 0.103909 0.719498 0.973817
O O5 0.492934 0.500000 0.181446
O O6 0.417728 0.217991 0.219467
O O7 0.492416 0.221034 0.299937
O O8 0.591560 0.225519 0.969524
O O9 0.634129 0.500000 0.797573
O O10 0.746138 0.757270 0.596742
O O11 0.500000 0.779224 0.500000
O O12 0.454742 0.500000 0.678018
O O13 0.349878 0.782949 0.847550
O O14 0.087325 0.287663 0.746233
O O15 0.000466 0.224671 0.707528
O O16 0.992577 0.000000 0.874206
O O17 0.946077 0.500000 0.689249
O O18 0.000000 0.776976 0.500000
O O19 0.843043 0.784521 0.861624
O O20 0.820191 0.000000 0.368853
O O21 0.253115 0.500000 0.987864
#
# Coordination Sequence:
#
# PCOD9148350 Si02
#       8
#     4   4   4   4   4   4   4   4
#     4   9  18  33  51  68  96 133 161 195 246 296
#     4   8  16  32  49  70 101 130 162 200 243 295
#     4   9  18  32  52  74  97 129 164 203 245 289
#     4   9  17  28  47  74 100 127 160 202 247 289
#     4   9  18  33  50  69  95 129 167 201 234 286
#     4   9  18  32  49  71 101 131 158 197 249 295
#     4  10  20  32  49  74  99 125 163 203 243 293
#     4   9  18  31  48  73  97 123 163 205 243 289
#
# _framework density 22.940474999999999
#
# number of rings (size 3 to 8) (size 9 to 14) (size 15 to 20)
#    0.000    3.000    0.000    1.125    1.750    3.750 
#    0.000    3.750    0.000    5.625    0.000    0.000 
#    0.000    0.000    0.000    0.000    0.000    0.000 
#
# Total GULP energy -178584.265690 kJ/mol
# GULP energy per Si atom -5580.758303 kJ/mol
# Density = 2.288826 g / cm^3
# Si number density = 22.940475 Si / 1000 Ang^3
#
#
#
# Elastic Constant Matrix: (Units=GPa)
#
#
# Indices 1 2 3 4 5 6 
#
# 1 65.8638 -3.6018 9.5462 0.0000 15.5567 0.0000
# 2 -3.6018 72.9803 -5.0904 0.0000 -1.4405 0.0000
# 3 9.5462 -5.0904 49.6524 0.0000 20.3695 0.0000
# 4 0.0000 0.0000 0.0000 11.0135 0.0000 3.9740
# 5 15.5567 -1.4405 20.3695 0.0000 35.9285 0.0000
# 6 0.0000 0.0000 0.0000 3.9740 0.0000 8.0648
#
#
#
# Elastic Compliance Matrix: (Units=1/GPa)
#
#
# Indices 1 2 3 4 5 6 
#
# 1 0.016950 0.000678 -0.000247 0.000000 -0.007172 0.000000
# 2 0.000678 0.013831 0.001538 0.000000 -0.000611 0.000000
# 3 -0.000247 0.001538 0.026421 0.000000 -0.014811 0.000000
# 4 0.000000 0.000000 0.000000 0.110433 0.000000 -0.054417
# 5 -0.007172 -0.000611 -0.014811 0.000000 0.039311 0.000000
# 6 0.000000 0.000000 0.000000 -0.054417 0.000000 0.150811
#
#
# Mechanical properties :
#
#
# Convention : Reuss Voigt Hill
#
# Bulk Modulus (GPa) = 16.35596 21.13384 18.74490
# Shear Modulus (GPa) = 13.36189 23.51086 18.43638
#
# Velocity S-wave (km/s) = 2.41604 3.20482 2.83797
# Velocity P-wave (km/s) = 3.86370 4.78821 4.35059
#
# Compressibility (1/GPa) = 0.06113979
#
# Stress axis : x y z
#
# Youngs Moduli (GPa) = 58.99819 72.30130 37.84842
#
# Poissons Ratio (x) = -0.04900 0.00935
# Poissons Ratio (y) = -0.03998 -0.05822
# Poissons Ratio (z) = 0.01458 -0.11123
#
# Static dielectric constant tensor:
#      x y z
#    x 1.840930 0.000000 -0.000770 
#    y 0.000000 1.880480 0.000000 
#    z -0.000770 0.000000 1.859920 
# 
# From -- ./inp_files/56963.got.cif
#   From: 2010.05.17/outbox.cif.g08.bks.cpg/sg10_29_cif.got.tgz:56963.got - 2010.06.03 11:33:40.
