data_PCOD9148770
_publ_section_title
;
Structure prediction by ZEFSAII (Michael W. Deem and Ramdas Pophale) SiO2 
 PCOD9148770
Probable space group: P 2/M
;
_chemical_formula_sum "Si O2"
_cell_formula_units_Z 28
_cell_length_a 20.536943
_cell_length_b 8.983672
_cell_length_c 14.285900
_cell_angle_alpha 90.000000
_cell_angle_beta 33.801323
_cell_angle_gamma 90.000000
_cell_volume 1466.283364
_symmetry_space_group_name_H-M "P 2/M"
_symmetry_group_IT_number 10
_symmetry_cell_setting 'monoclinic'
loop_
_space_group_symop_operation_xyz
x,y,z
-x,y,-z
-x,-y,-z
x,-y,z
loop_
_atom_site_type_symbol
_atom_site_label
_atom_site_fract_x
_atom_site_fract_y
_atom_site_fract_z
Si Si1 0.239862 0.825357 0.003769
Si Si2 0.860693 0.179511 0.672185
Si Si3 0.469893 0.678608 0.643838
Si Si4 0.336663 0.172793 0.457028
Si Si5 0.024919 0.336323 0.200403
Si Si6 0.085831 0.160300 0.812054
Si Si7 0.779232 0.325439 0.587349
O O1 0.345561 0.738877 0.829163
O O2 0.266610 0.000000 0.973017
O O3 0.198965 0.778970 0.157413
O O4 0.122520 0.788471 0.087158
O O5 0.779165 0.246882 0.687961
O O6 0.000000 0.224059 0.500000
O O7 0.860521 0.000000 0.664824
O O8 0.500000 0.725125 0.500000
O O9 0.470847 0.500000 0.644249
O O10 0.562691 0.741067 0.608443
O O11 0.223796 0.174637 0.660719
O O12 0.291467 0.245180 0.412706
O O13 0.369346 0.000000 0.401624
O O14 0.076893 0.500000 0.147931
O O15 0.955650 0.309204 0.188329
O O16 0.918603 0.317082 0.398980
O O17 0.076106 0.000000 0.769132
O O18 0.000000 0.146645 0.000000
O O19 0.746968 0.500000 0.629178
#
# Coordination Sequence:
#
# PCOD9148770 Si02
#       7
#     4   4   4   4   4   4   4
#     4  11  23  39  62  89 121 160 206 253 299 358
#     4  10  20  36  60  92 128 163 200 247 303 363
#     4  11  26  46  65  87 120 161 205 257 310 360
#     4  10  21  39  62  86 118 159 205 252 298 360
#     4  10  20  33  52  84 122 158 194 239 298 358
#     4   9  19  34  54  83 114 149 195 246 301 359
#     4  10  20  35  59  90 126 164 197 241 301 362
#
# _framework density 19.095898999999999
#
# number of rings (size 3 to 8) (size 9 to 14) (size 15 to 20)
#    0.000    1.857    1.429    2.143    2.000    4.571 
#    0.000    0.714    0.000    4.286    0.000    0.000 
#    0.000    0.000    0.000    0.000    0.000    0.000 
#
# Total GULP energy -155876.784808 kJ/mol
# GULP energy per Si atom -5567.028029 kJ/mol
# Density = 1.905244 g / cm^3
# Si number density = 19.095899 Si / 1000 Ang^3
#
#
#
# Elastic Constant Matrix: (Units=GPa)
#
#
# Indices 1 2 3 4 5 6 
#
# 1 66.3934 37.6367 32.3326 0.0000 -13.2663 0.0000
# 2 37.6367 64.6666 37.8896 0.0000 1.3526 0.0000
# 3 32.3326 37.8896 78.2084 0.0000 4.6659 0.0000
# 4 0.0000 0.0000 0.0000 29.7483 0.0000 2.4578
# 5 -13.2663 1.3526 4.6659 0.0000 18.5130 0.0000
# 6 0.0000 0.0000 0.0000 2.4578 0.0000 36.5277
#
#
#
# Elastic Compliance Matrix: (Units=1/GPa)
#
#
# Indices 1 2 3 4 5 6 
#
# 1 0.032642 -0.014969 -0.007821 0.000000 0.026456 0.000000
# 2 -0.014969 0.028479 -0.006949 0.000000 -0.011056 0.000000
# 3 -0.007821 -0.006949 0.019991 0.000000 -0.010136 0.000000
# 4 0.000000 0.000000 0.000000 0.033803 0.000000 -0.002274
# 5 0.026456 -0.011056 -0.010136 0.000000 0.076337 0.000000
# 6 0.000000 0.000000 0.000000 -0.002274 0.000000 0.027530
#
#
# Mechanical properties :
#
#
# Convention : Reuss Voigt Hill
#
# Bulk Modulus (GPa) = 46.22420 47.22068 46.72244
# Shear Modulus (GPa) = 17.51485 23.71844 20.61664
#
# Velocity S-wave (km/s) = 3.03182 3.52812 3.28935
# Velocity P-wave (km/s) = 6.04275 6.43263 6.24074
#
# Compressibility (1/GPa) = 0.02163369
#
# Stress axis : x y z
#
# Youngs Moduli (GPa) = 30.63497 35.11371 50.02214
#
# Poissons Ratio (x) = 0.52561 0.39124
# Poissons Ratio (y) = 0.45857 0.34761
# Poissons Ratio (z) = 0.23961 0.24401
#
# Static dielectric constant tensor:
#      x y z
#    x 1.691750 0.000000 0.021920 
#    y 0.000000 1.707480 0.000000 
#    z 0.021920 0.000000 1.718910 
# 
# From -- ./inp_files/70181.got.cif
#   From: 2010.05.17/outbox.cif.g08.bks.cpg/sg10_36_cif.got.tgz:70181.got - 2010.06.03 11:33:40.
