data_PCOD9148896
_publ_section_title
;
Structure prediction by ZEFSAII (Michael W. Deem and Ramdas Pophale) SiO2 
 PCOD9148896
Probable space group: P 2/M
;
_chemical_formula_sum "Si O2"
_cell_formula_units_Z 32
_cell_length_a 16.246318
_cell_length_b 15.909397
_cell_length_c 23.944686
_cell_angle_alpha 90.000000
_cell_angle_beta 15.283277
_cell_angle_gamma 90.000000
_cell_volume 1631.357848
_symmetry_space_group_name_H-M "P 2/M"
_symmetry_group_IT_number 10
_symmetry_cell_setting 'monoclinic'
loop_
_space_group_symop_operation_xyz
x,y,z
-x,y,-z
-x,-y,-z
x,-y,z
loop_
_atom_site_type_symbol
_atom_site_label
_atom_site_fract_x
_atom_site_fract_y
_atom_site_fract_z
Si Si1 0.738058 0.409070 0.792062
Si Si2 0.542662 0.590136 0.147949
Si Si3 0.298949 0.771028 0.688114
Si Si4 0.803075 0.903257 0.551832
Si Si5 0.574110 0.773481 0.129321
Si Si6 0.269503 0.410958 0.703710
Si Si7 0.330125 0.904374 0.758360
Si Si8 0.318672 0.775369 0.176374
O O1 0.910254 0.500000 0.683902
O O2 0.556103 0.412324 0.852109
O O3 0.869494 0.313778 0.705944
O O4 0.500000 0.408373 0.000000
O O5 0.428164 0.500000 0.247045
O O6 0.443250 0.681860 0.235213
O O7 0.916291 0.591196 0.911404
O O8 0.500000 0.772784 0.500000
O O9 0.326621 0.677363 0.696179
O O10 0.416617 0.841518 0.652863
O O11 0.932098 0.784347 0.914159
O O12 0.636687 0.848332 0.708817
O O13 0.569297 0.904266 0.652428
O O14 0.099523 0.852300 0.336029
O O15 0.863672 0.000000 0.528077
O O16 0.552000 0.768817 0.076664
O O17 0.500000 0.412003 0.500000
O O18 0.310821 0.500000 0.707560
O O19 0.294311 0.000000 0.760702
O O20 0.000000 0.876798 0.000000
O O21 0.500000 0.788632 0.000000
#
# Coordination Sequence:
#
# PCOD9148896 Si02
#       8
#     4   4   4   4   4   4   4   4
#     4   8  14  28  49  75 107 142 175 213 265 318
#     4   8  14  26  47  73 104 140 179 221 260 307
#     4  10  20  33  59  89 113 142 183 234 277 315
#     4  11  24  42  61  78 106 149 187 224 277 342
#     4  10  20  36  57  84 112 148 188 222 271 333
#     4   8  14  26  44  73 110 145 178 210 256 320
#     4  10  21  40  61  81 107 141 183 228 280 336
#     4  10  22  37  58  86 116 144 182 232 274 321
#
# _framework density 19.615562000000001
#
# number of rings (size 3 to 8) (size 9 to 14) (size 15 to 20)
#    0.000    2.625    1.250    0.375    1.750    1.500 
#    2.250    0.625    0.000    4.125    0.000    0.000 
#    0.000    0.000    0.000    0.000    0.000    0.000 
#
# Total GULP energy -178139.612979 kJ/mol
# GULP energy per Si atom -5566.862906 kJ/mol
# Density = 1.957092 g / cm^3
# Si number density = 19.615562 Si / 1000 Ang^3
#
#
#
# Elastic Constant Matrix: (Units=GPa)
#
#
# Indices 1 2 3 4 5 6 
#
# 1 46.3973 29.3930 12.6855 0.0000 11.8511 0.0000
# 2 29.3930 173.9772 44.0364 0.0000 23.8973 0.0000
# 3 12.6855 44.0364 54.0107 0.0000 14.1483 0.0000
# 4 0.0000 0.0000 0.0000 29.6528 0.0000 10.1690
# 5 11.8511 23.8973 14.1483 0.0000 18.7379 0.0000
# 6 0.0000 0.0000 0.0000 10.1690 0.0000 16.3162
#
#
#
# Elastic Compliance Matrix: (Units=1/GPa)
#
#
# Indices 1 2 3 4 5 6 
#
# 1 0.026705 -0.002513 -0.000796 0.000000 -0.013084 0.000000
# 2 -0.002513 0.008055 -0.004615 0.000000 -0.005198 0.000000
# 3 -0.000796 -0.004615 0.025917 0.000000 -0.013180 0.000000
# 4 0.000000 0.000000 0.000000 0.042891 0.000000 -0.026732
# 5 -0.013084 -0.005198 -0.013180 0.000000 0.078224 0.000000
# 6 0.000000 0.000000 0.000000 -0.026732 0.000000 0.077949
#
#
# Mechanical properties :
#
#
# Convention : Reuss Voigt Hill
#
# Bulk Modulus (GPa) = 22.30737 49.62389 35.96563
# Shear Modulus (GPa) = 17.20983 25.49273 21.35128
#
# Velocity S-wave (km/s) = 2.96523 3.60893 3.30280
# Velocity P-wave (km/s) = 4.80837 6.53598 5.73757
#
# Compressibility (1/GPa) = 0.04482824
#
# Stress axis : x y z
#
# Youngs Moduli (GPa) = 37.44684 124.15161 38.58446
#
# Poissons Ratio (x) = 0.31200 0.03070
# Poissons Ratio (y) = 0.09411 0.17808
# Poissons Ratio (z) = 0.02980 0.57299
#
# Static dielectric constant tensor:
#      x y z
#    x 1.672460 0.000000 -0.009080 
#    y 0.000000 1.773350 0.000000 
#    z -0.009080 0.000000 1.690210 
# 
# From -- ./inp_files/85395.got.cif
#   From: 2010.05.17/outbox.cif.g08.bks.cpg/sg10_43_cif.got.tgz:85395.got - 2010.06.03 11:33:40.
