data_PCOD9148247
_publ_section_title
;
Structure prediction by ZEFSAII (Michael W. Deem and Ramdas Pophale) SiO2 
 PCOD9148247
Probable space group: P 2/M
;
_chemical_formula_sum "Si O2"
_cell_formula_units_Z 32
_cell_length_a 14.569331
_cell_length_b 7.472016
_cell_length_c 17.263591
_cell_angle_alpha 90.000000
_cell_angle_beta 133.923548
_cell_angle_gamma 90.000000
_cell_volume 1353.634760
_symmetry_space_group_name_H-M "P 2/M"
_symmetry_group_IT_number 10
_symmetry_cell_setting 'monoclinic'
loop_
_space_group_symop_operation_xyz
x,y,z
-x,y,-z
-x,-y,-z
x,-y,z
loop_
_atom_site_type_symbol
_atom_site_label
_atom_site_fract_x
_atom_site_fract_y
_atom_site_fract_z
Si Si1 0.510961 0.283979 0.844614
Si Si2 0.029594 0.212946 0.807190
Si Si3 0.704476 0.719035 0.488800
Si Si4 0.292886 0.210249 0.914560
Si Si5 0.967499 0.711833 0.590460
Si Si6 0.582169 0.718206 0.724683
Si Si7 0.237454 0.704212 0.708082
Si Si8 0.236844 0.292199 0.303581
O O1 0.502588 0.500000 0.838490
O O2 0.595485 0.223919 0.821355
O O3 0.366753 0.214381 0.750093
O O4 0.576849 0.234416 0.963430
O O5 0.997255 0.265287 0.699502
O O6 0.915755 0.284140 0.793195
O O7 0.175884 0.270928 0.901423
O O8 0.023952 0.000000 0.810550
O O9 0.710832 0.500000 0.491660
O O10 0.821569 0.778602 0.501722
O O11 0.561620 0.768019 0.383363
O O12 0.730096 0.782664 0.591923
O O13 0.274692 0.302430 0.821440
O O14 0.275705 0.000000 0.888166
O O15 0.967411 0.500000 0.574349
O O16 0.094391 0.783756 0.621788
O O17 0.587727 0.500000 0.728206
O O18 0.684051 0.783992 0.721722
O O19 0.228220 0.500000 0.673501
O O20 0.274300 0.500000 0.330596
#
# Coordination Sequence:
#
# PCOD9148247 Si02
#       8
#     4   4   4   4   4   4   4   4
#     4  10  20  32  46  66  95 127 154 187 229 268
#     4   9  17  29  46  69  93 114 143 189 238 275
#     4   8  13  24  46  72  93 117 152 190 223 260
#     4  10  20  33  50  70  90 117 154 192 230 275
#     4   8  14  26  46  70  93 118 149 184 223 268
#     4   9  17  29  45  68  96 124 156 189 222 265
#     4   9  17  30  48  71  96 120 150 188 229 270
#     4   9  16  28  49  72  92 119 154 189 224 267
#
# _framework density 23.640056000000001
#
# number of rings (size 3 to 8) (size 9 to 14) (size 15 to 20)
#    0.000    3.000    0.000    2.250    0.000    5.000 
#    0.000    1.875    0.000   16.500    0.000    0.000 
#    0.000   14.000    0.000    0.000    0.000    0.000 
#
# Total GULP energy -178550.594533 kJ/mol
# GULP energy per Si atom -5579.706079 kJ/mol
# Density = 2.358625 g / cm^3
# Si number density = 23.640056 Si / 1000 Ang^3
#
#
#
# Elastic Constant Matrix: (Units=GPa)
#
#
# Indices 1 2 3 4 5 6 
#
# 1 162.3092 -5.5549 23.1183 0.0000 16.5901 0.0000
# 2 -5.5549 62.6882 -13.6104 0.0000 -5.0526 0.0000
# 3 23.1183 -13.6104 71.0573 0.0000 12.1727 0.0000
# 4 0.0000 0.0000 0.0000 28.5455 0.0000 6.7952
# 5 16.5901 -5.0526 12.1727 0.0000 30.7219 0.0000
# 6 0.0000 0.0000 0.0000 6.7952 0.0000 -215.6971
#
#
#
# Elastic Compliance Matrix: (Units=1/GPa)
#
#
# Indices 1 2 3 4 5 6 
#
# 1 0.006702 -0.000008 -0.001675 0.000000 -0.002956 0.000000
# 2 -0.000008 0.016716 0.002932 0.000000 0.001592 0.000000
# 3 -0.001675 0.002932 0.016030 0.000000 -0.004965 0.000000
# 4 0.000000 0.000000 0.000000 0.034771 0.000000 0.001095
# 5 -0.002956 0.001592 -0.004965 0.000000 0.036375 0.000000
# 6 0.000000 0.000000 0.000000 0.001095 0.000000 -0.004602
#
#
# Mechanical properties :
#
#
# Convention : Reuss Voigt Hill
#
# Bulk Modulus (GPa) = 23.84120 33.77340 28.80730
# Shear Modulus (GPa) = 42.56115 -11.81249 15.37433
#
# Velocity S-wave (km/s) = 4.24770 -2.23778 2.55296
# Velocity P-wave (km/s) = 5.84501 2.76417 4.57192
#
# Compressibility (1/GPa) = 0.04194419
#
# Stress axis : x y z
#
# Youngs Moduli (GPa) = 149.21747 59.82271 62.38188
#
# Poissons Ratio (x) = 0.00049 0.10452
# Poissons Ratio (y) = 0.00122 -0.18289
# Poissons Ratio (z) = 0.25001 -0.17539
#
# Static dielectric constant tensor:
#      x y z
#    x 1.935330 0.000000 0.025760 
#    y 0.000000 2.043870 0.000000 
#    z 0.025760 0.000000 1.880920 
# 
# From -- ./inp_files/66185.got.cif
#   From: 2010.05.17/outbox.cif.g08.bks.cpg/sg10_34_cif.got.tgz:66185.got - 2010.06.03 11:33:40.
