data_PCOD9148813
_publ_section_title
;
Structure prediction by ZEFSAII (Michael W. Deem and Ramdas Pophale) SiO2 
 PCOD9148813
Probable space group: P 2/M
;
_chemical_formula_sum "Si O2"
_cell_formula_units_Z 26
_cell_length_a 8.416414
_cell_length_b 10.812254
_cell_length_c 12.140389
_cell_angle_alpha 90.000000
_cell_angle_beta 86.222651
_cell_angle_gamma 90.000000
_cell_volume 1102.380292
_symmetry_space_group_name_H-M "P 2/M"
_symmetry_group_IT_number 10
_symmetry_cell_setting 'monoclinic'
loop_
_space_group_symop_operation_xyz
x,y,z
-x,y,-z
-x,-y,-z
x,-y,z
loop_
_atom_site_type_symbol
_atom_site_label
_atom_site_fract_x
_atom_site_fract_y
_atom_site_fract_z
Si Si1 0.151176 0.640066 0.430681
Si Si2 0.317394 0.000000 0.045392
Si Si3 0.182191 0.000000 0.812245
Si Si4 0.598115 0.354839 0.743512
Si Si5 0.296699 0.723212 0.625881
Si Si6 0.757651 0.725713 0.935264
Si Si7 0.353036 0.000000 0.592972
Si Si8 0.899661 0.273245 0.165340
O O1 0.104643 0.500000 0.405223
O O2 0.237109 0.692876 0.319813
O O3 0.288140 0.642377 0.517552
O O4 0.000000 0.699258 0.500000
O O5 0.272886 0.131285 0.098088
O O6 0.500000 0.000000 0.000000
O O7 0.219475 0.000000 0.937780
O O8 0.090755 0.127995 0.801736
O O9 0.342108 0.000000 0.729313
O O10 0.578213 0.500000 0.718130
O O11 0.456895 0.281910 0.690535
O O12 0.621047 0.342798 0.873427
O O13 0.274630 0.864269 0.582080
O O14 0.167398 0.671845 0.719078
O O15 0.930710 0.682732 0.884660
O O16 0.776380 0.716309 0.067314
O O17 0.500000 0.000000 0.500000
#
# Coordination Sequence:
#
# PCOD9148813 Si02
#       8
#     4   2   2   4   4   4   2   4
#     4  10  21  40  64  85 111 153 203 246 286 345
#     4  10  21  33  60  91 117 150 192 241 287 348
#     4   8  17  32  54  79 116 148 191 233 275 346
#     4  11  24  39  58  86 118 153 196 248 296 345
#     4  11  22  38  60  85 119 152 194 241 296 348
#     4  10  21  37  60  86 118 151 195 239 291 348
#     4  10  20  33  53  84 117 150 180 227 292 348
#     4   9  19  37  58  83 115 157 192 237 289 347
#
# _framework density 23.585328000000001
#
# number of rings (size 3 to 8) (size 9 to 14) (size 15 to 20)
#    0.000    2.000    0.000    3.231    6.462    3.077 
#    0.000    5.000    0.000    0.000    0.000    0.000 
#    0.000    0.000    0.000    0.000    0.000    0.000 
#
# Total GULP energy -144796.431064 kJ/mol
# GULP energy per Si atom -5569.093502 kJ/mol
# Density = 2.353165 g / cm^3
# Si number density = 23.585328 Si / 1000 Ang^3
#
#
#
# Elastic Constant Matrix: (Units=GPa)
#
#
# Indices 1 2 3 4 5 6 
#
# 1 68.6038 2.2666 12.6211 0.0000 -1.9948 0.0000
# 2 2.2666 60.6432 13.0048 0.0000 7.5253 0.0000
# 3 12.6211 13.0048 108.6747 0.0000 -0.5843 0.0000
# 4 0.0000 0.0000 0.0000 24.9767 0.0000 0.6904
# 5 -1.9948 7.5253 -0.5843 0.0000 43.2448 0.0000
# 6 0.0000 0.0000 0.0000 0.6904 0.0000 27.2680
#
#
#
# Elastic Compliance Matrix: (Units=1/GPa)
#
#
# Indices 1 2 3 4 5 6 
#
# 1 0.014918 -0.000283 -0.001695 0.000000 0.000714 0.000000
# 2 -0.000283 0.017321 -0.002056 0.000000 -0.003055 0.000000
# 3 -0.001695 -0.002056 0.009647 0.000000 0.000410 0.000000
# 4 0.000000 0.000000 0.000000 0.040065 0.000000 -0.001014
# 5 0.000714 -0.003055 0.000410 0.000000 0.023694 0.000000
# 6 0.000000 0.000000 0.000000 -0.001014 0.000000 0.036699
#
#
# Mechanical properties :
#
#
# Convention : Reuss Voigt Hill
#
# Bulk Modulus (GPa) = 29.57016 32.63407 31.10212
# Shear Modulus (GPa) = 30.92439 33.09984 32.01212
#
# Velocity S-wave (km/s) = 3.62494 3.75027 3.68814
# Velocity P-wave (km/s) = 5.48498 5.71134 5.59930
#
# Compressibility (1/GPa) = 0.03381787
#
# Stress axis : x y z
#
# Youngs Moduli (GPa) = 67.03142 57.73498 103.66038
#
# Poissons Ratio (x) = 0.01633 0.17569
# Poissons Ratio (y) = 0.01896 0.21316
# Poissons Ratio (z) = 0.11361 0.11872
#
# Static dielectric constant tensor:
#      x y z
#    x 1.983020 0.000000 -0.016330 
#    y 0.000000 1.939170 0.000000 
#    z -0.016330 0.000000 1.879820 
# 
# From -- ./inp_files/42049.got.cif
#   From: 2010.05.17/outbox.cif.g08.bks.cpg/sg10_22_cif.got.tgz:42049.got - 2010.06.03 11:33:40.
