data_PCOD9148065
_publ_section_title
;
Structure prediction by ZEFSAII (Michael W. Deem and Ramdas Pophale) SiO2 
 PCOD9148065
Probable space group: P 2/M
;
_chemical_formula_sum "Si O2"
_cell_formula_units_Z 32
_cell_length_a 31.099164
_cell_length_b 8.806553
_cell_length_c 13.222372
_cell_angle_alpha 90.000000
_cell_angle_beta 27.724889
_cell_angle_gamma 90.000000
_cell_volume 1684.723326
_symmetry_space_group_name_H-M "P 2/M"
_symmetry_group_IT_number 10
_symmetry_cell_setting 'monoclinic'
loop_
_space_group_symop_operation_xyz
x,y,z
-x,y,-z
-x,-y,-z
x,-y,z
loop_
_atom_site_type_symbol
_atom_site_label
_atom_site_fract_x
_atom_site_fract_y
_atom_site_fract_z
Si Si1 0.398450 0.819258 0.745662
Si Si2 0.784895 0.318134 0.537967
Si Si3 0.597057 0.680452 0.045235
Si Si4 0.766605 0.819704 0.360653
Si Si5 0.562976 0.317759 0.772165
Si Si6 0.898216 0.315036 0.499366
Si Si7 0.888617 0.683810 0.927133
Si Si8 0.788236 0.316782 0.929028
O O1 0.500000 0.766801 0.500000
O O2 0.393813 0.000000 0.744865
O O3 0.386890 0.771109 0.886086
O O4 0.315420 0.745391 0.855969
O O5 0.795013 0.500000 0.503110
O O6 0.679999 0.290326 0.793963
O O7 0.800954 0.237373 0.398588
O O8 0.850879 0.268524 0.492704
O O9 0.600486 0.500000 0.060986
O O10 0.499622 0.715452 0.195451
O O11 0.661124 0.762766 0.568281
O O12 0.769654 0.000000 0.349323
O O13 0.828518 0.749084 0.143312
O O14 0.578138 0.500000 0.745626
O O15 0.500000 0.276579 0.000000
O O16 0.895920 0.500000 0.505024
O O17 0.839619 0.265534 0.719213
O O18 0.004567 0.268173 0.286967
O O19 0.886349 0.500000 0.936752
O O20 0.844793 0.728970 0.910723
O O21 0.784926 0.500000 0.933785
#
# Coordination Sequence:
#
# PCOD9148065 Si02
#       8
#     4   4   4   4   4   4   4   4
#     4  11  25  40  55  84 127 166 195 233 290 356
#     4  10  19  38  65  90 119 153 198 252 300 352
#     4  10  20  37  63  89 114 149 198 252 296 346
#     4  12  26  40  56  85 127 165 200 243 292 357
#     4  10  20  38  62  86 113 149 194 242 291 346
#     4   9  18  37  67  96 116 143 194 258 310 350
#     4  10  22  40  64  91 119 155 198 249 305 355
#     4  10  20  39  66  93 118 150 200 253 298 353
#
# _framework density 18.994216999999999
#
# number of rings (size 3 to 8) (size 9 to 14) (size 15 to 20)
#    0.000    1.750    2.500    1.875    1.750    4.750 
#    0.000    3.750    0.000    1.500    0.000    0.000 
#    0.000    0.000    0.000    0.000    0.000    0.000 
#
# Total GULP energy -178794.670769 kJ/mol
# GULP energy per Si atom -5587.333462 kJ/mol
# Density = 1.895098 g / cm^3
# Si number density = 18.994217 Si / 1000 Ang^3
#
#
#
# Elastic Constant Matrix: (Units=GPa)
#
#
# Indices 1 2 3 4 5 6 
#
# 1 155.3934 36.7427 72.2723 0.0000 -16.9349 0.0000
# 2 36.7427 19.3109 28.6674 0.0000 -4.0601 0.0000
# 3 72.2723 28.6674 115.8229 0.0000 -19.6430 0.0000
# 4 0.0000 0.0000 0.0000 -25.1247 0.0000 2.7218
# 5 -16.9349 -4.0601 -19.6430 0.0000 27.1449 0.0000
# 6 0.0000 0.0000 0.0000 2.7218 0.0000 -3.8176
#
#
#
# Elastic Compliance Matrix: (Units=1/GPa)
#
#
# Indices 1 2 3 4 5 6 
#
# 1 0.012544 -0.019566 -0.002455 0.000000 0.003123 0.000000
# 2 -0.019566 0.112566 -0.016947 0.000000 -0.007634 0.000000
# 3 -0.002455 -0.016947 0.015583 0.000000 0.007210 0.000000
# 4 0.000000 0.000000 0.000000 -0.043133 0.000000 -0.030752
# 5 0.003123 -0.007634 0.007210 0.000000 0.042863 0.000000
# 6 0.000000 0.000000 0.000000 -0.030752 0.000000 -0.283870
#
#
# Mechanical properties :
#
#
# Convention : Reuss Voigt Hill
#
# Bulk Modulus (GPa) = 15.93446 62.87689 39.40567
# Shear Modulus (GPa) = -112.12565 9.83016 -51.14774
#
# Velocity S-wave (km/s) = -7.69153 2.27741 -5.19486
# Velocity P-wave (km/s) = 8.39477 6.33170 3.89754
#
# Compressibility (1/GPa) = 0.06275709
#
# Stress axis : x y z
#
# Youngs Moduli (GPa) = 79.72121 8.88370 64.17321
#
# Poissons Ratio (x) = 0.17382 0.15752
# Poissons Ratio (y) = 1.55985 1.08752
# Poissons Ratio (z) = 0.19569 0.15055
#
# Static dielectric constant tensor:
#      x y z
#    x 1.654630 0.000000 -0.004910 
#    y 0.000000 1.634040 0.000000 
#    z -0.004910 0.000000 1.635930 
# 
# From -- ./inp_files/58167.got.cif
#   From: 2010.05.17/outbox.cif.g08.bks.cpg/sg10_30_cif.got.tgz:58167.got - 2010.06.03 11:33:40.
