data_PCOD9148273
_publ_section_title
;
Structure prediction by ZEFSAII (Michael W. Deem and Ramdas Pophale) SiO2 
 PCOD9148273
Probable space group: P 2/M
;
_chemical_formula_sum "Si O2"
_cell_formula_units_Z 28
_cell_length_a 15.038424
_cell_length_b 7.516069
_cell_length_c 12.599649
_cell_angle_alpha 90.000000
_cell_angle_beta 89.788017
_cell_angle_gamma 90.000000
_cell_volume 1424.126468
_symmetry_space_group_name_H-M "P 2/M"
_symmetry_group_IT_number 10
_symmetry_cell_setting 'monoclinic'
loop_
_space_group_symop_operation_xyz
x,y,z
-x,y,-z
-x,-y,-z
x,-y,z
loop_
_atom_site_type_symbol
_atom_site_label
_atom_site_fract_x
_atom_site_fract_y
_atom_site_fract_z
Si Si1 0.804408 0.781999 0.619760
Si Si2 0.401812 0.707170 0.989219
Si Si3 0.753931 0.710255 0.155922
Si Si4 0.259624 0.215974 0.159549
Si Si5 0.808492 0.785405 0.380164
Si Si6 0.899792 0.206555 0.990767
Si Si7 0.998948 0.200140 0.628323
O O1 0.742732 0.730778 0.717491
O O2 0.784230 0.724914 0.499238
O O3 0.903613 0.718543 0.651234
O O4 0.808202 0.000000 0.617276
O O5 0.414023 0.500000 0.959301
O O6 0.332551 0.784716 0.903945
O O7 0.500000 0.785950 0.000000
O O8 0.346157 0.718522 0.097876
O O9 0.758399 0.500000 0.135817
O O10 0.747965 0.741421 0.281095
O O11 0.843457 0.785021 0.100563
O O12 0.259624 0.000000 0.154120
O O13 0.170788 0.278450 0.096242
O O14 0.906730 0.714038 0.348262
O O15 0.816636 0.000000 0.386183
O O16 0.912339 0.000000 0.961178
O O17 0.000000 0.282819 0.000000
O O18 0.000000 0.184773 0.500000
O O19 0.998530 0.000000 0.674716
#
# Coordination Sequence:
#
# PCOD9148273 Si02
#       7
#     4   4   4   4   4   4   4
#     4   8  14  25  43  69  97 126 158 193 227 263
#     4   9  19  37  56  69  86 117 156 196 241 294
#     4  10  20  32  47  69  95 121 154 196 242 282
#     4   9  17  29  48  75 100 118 150 197 239 276
#     4   9  16  27  46  68  94 128 164 193 221 268
#     4   9  18  30  46  69  95 126 160 192 227 274
#     4   7  11  20  37  61  86 120 163 192 208 240
#
# _framework density 19.661176000000001
#
# number of rings (size 3 to 8) (size 9 to 14) (size 15 to 20)
#    0.000    3.286    0.000    2.143    2.000    1.143 
#    0.000    0.714    0.000    4.714    0.000    6.000 
#    0.000    0.000    0.000    0.000    0.000    0.000 
#
# Total GULP energy -155905.747507 kJ/mol
# GULP energy per Si atom -5568.062411 kJ/mol
# Density = 1.961643 g / cm^3
# Si number density = 19.661176 Si / 1000 Ang^3
#
#
#
# Elastic Constant Matrix: (Units=GPa)
#
#
# Indices 1 2 3 4 5 6 
#
# 1 137.6522 1.6974 61.8063 0.0000 0.8408 0.0000
# 2 1.6974 50.8712 -8.4201 0.0000 3.7623 0.0000
# 3 61.8063 -8.4201 132.9385 0.0000 0.1985 0.0000
# 4 0.0000 0.0000 0.0000 59.0640 0.0000 -8.4081
# 5 0.8408 3.7623 0.1985 0.0000 12.2286 0.0000
# 6 0.0000 0.0000 0.0000 -8.4081 0.0000 0.2538
#
#
#
# Elastic Compliance Matrix: (Units=1/GPa)
#
#
# Indices 1 2 3 4 5 6 
#
# 1 0.009235 -0.001011 -0.004357 0.000000 -0.000253 0.000000
# 2 -0.001011 0.020447 0.001774 0.000000 -0.006250 0.000000
# 3 -0.004357 0.001774 0.009661 0.000000 -0.000403 0.000000
# 4 0.000000 0.000000 0.000000 -0.004557 0.000000 -0.150944
# 5 -0.000253 -0.006250 -0.000403 0.000000 0.083723 0.000000
# 6 0.000000 0.000000 0.000000 -0.150944 0.000000 -1.060337
#
#
# Mechanical properties :
#
#
# Convention : Reuss Voigt Hill
#
# Bulk Modulus (GPa) = 31.09829 47.95878 39.52853
# Shear Modulus (GPa) = -5.41171 32.06784 13.32806
#
# Velocity S-wave (km/s) = -1.66086 4.04297 2.60645
# Velocity P-wave (km/s) = 3.48905 6.79998 5.40432
#
# Compressibility (1/GPa) = 0.03215611
#
# Stress axis : x y z
#
# Youngs Moduli (GPa) = 108.28232 48.90660 103.50842
#
# Poissons Ratio (x) = 0.04943 0.45101
# Poissons Ratio (y) = 0.10943 -0.18365
# Poissons Ratio (z) = 0.47181 -0.08677
#
# Static dielectric constant tensor:
#      x y z
#    x 1.704660 0.000000 0.018470 
#    y 0.000000 1.771730 0.000000 
#    z 0.018470 0.000000 1.708740 
# 
# From -- ./inp_files/48798.got.cif
#   From: 2010.05.17/outbox.cif.g08.bks.cpg/sg10_25_cif.got.tgz:48798.got - 2010.06.03 11:33:40.
