data_PCOD9148659
_publ_section_title
;
Structure prediction by ZEFSAII (Michael W. Deem and Ramdas Pophale) SiO2 
 PCOD9148659
Probable space group: P 2/M
;
_chemical_formula_sum "Si O2"
_cell_formula_units_Z 24
_cell_length_a 14.327866
_cell_length_b 8.762790
_cell_length_c 11.546071
_cell_angle_alpha 90.000000
_cell_angle_beta 77.081490
_cell_angle_gamma 90.000000
_cell_volume 1412.941602
_symmetry_space_group_name_H-M "P 2/M"
_symmetry_group_IT_number 10
_symmetry_cell_setting 'monoclinic'
loop_
_space_group_symop_operation_xyz
x,y,z
-x,y,-z
-x,-y,-z
x,-y,z
loop_
_atom_site_type_symbol
_atom_site_label
_atom_site_fract_x
_atom_site_fract_y
_atom_site_fract_z
Si Si1 0.596589 0.816888 0.904139
Si Si2 0.358295 0.317812 0.595556
Si Si3 0.218081 0.683095 0.026207
Si Si4 0.454977 0.183054 0.344981
Si Si5 0.813890 0.819421 0.220026
Si Si6 0.988493 0.324431 0.863223
O O1 0.687478 0.733984 0.933551
O O2 0.580909 0.780961 0.773556
O O3 0.609988 0.000000 0.911609
O O4 0.500000 0.776445 0.000000
O O5 0.363072 0.500000 0.590019
O O6 0.385648 0.248558 0.463276
O O7 0.441087 0.255041 0.658317
O O8 0.256789 0.261702 0.670687
O O9 0.214923 0.500000 0.011543
O O10 0.121019 0.726671 0.122832
O O11 0.213245 0.759757 0.901073
O O12 0.462278 0.000000 0.354771
O O13 0.924790 0.774859 0.208997
O O14 0.800893 0.000000 0.228713
O O15 0.999827 0.500000 0.821749
O O16 0.000000 0.323579 0.000000
#
# Coordination Sequence:
#
# PCOD9148659 Si02
#       6
#     4   4   4   4   4   4
#     4  10  21  35  52  75 104 137 169 202 244 297
#     4  11  21  34  53  75 101 133 170 211 253 298
#     4  10  20  33  51  75 105 137 167 205 251 300
#     4  10  20  35  53  75 104 135 169 208 249 295
#     4  11  20  31  51  77 103 132 169 210 253 299
#     4   8  16  31  48  71 102 132 164 204 251 299
#
# _framework density 16.98584
#
# number of rings (size 3 to 8) (size 9 to 14) (size 15 to 20)
#    0.000    2.000    0.000    7.000    0.000    6.667 
#    0.000    0.000    0.000    1.000    0.000    7.000 
#    0.000    0.000    0.000    0.000    0.000    0.000 
#
# Total GULP energy -133960.620991 kJ/mol
# GULP energy per Si atom -5581.692541 kJ/mol
# Density = 1.694718 g / cm^3
# Si number density = 16.985840 Si / 1000 Ang^3
#
#
#
# Elastic Constant Matrix: (Units=GPa)
#
#
# Indices 1 2 3 4 5 6 
#
# 1 121.1899 44.6433 51.9898 0.0000 -14.6393 0.0000
# 2 44.6433 86.4666 36.0135 0.0000 -5.6060 0.0000
# 3 51.9898 36.0135 56.0836 0.0000 -11.3435 0.0000
# 4 0.0000 0.0000 0.0000 4.4419 0.0000 -63.2672
# 5 -14.6393 -5.6060 -11.3435 0.0000 25.9492 0.0000
# 6 0.0000 0.0000 0.0000 -63.2672 0.0000 -267.9610
#
#
#
# Elastic Compliance Matrix: (Units=1/GPa)
#
#
# Indices 1 2 3 4 5 6 
#
# 1 0.014252 -0.002604 -0.011000 0.000000 0.002669 0.000000
# 2 -0.002604 0.016293 -0.008374 0.000000 -0.001610 0.000000
# 3 -0.011000 -0.008374 0.034866 0.000000 0.007227 0.000000
# 4 0.000000 0.000000 0.000000 0.051601 0.000000 -0.012183
# 5 0.002669 -0.001610 0.007227 0.000000 0.042854 0.000000
# 6 0.000000 0.000000 0.000000 -0.012183 0.000000 -0.000855
#
#
# Mechanical properties :
#
#
# Convention : Reuss Voigt Hill
#
# Bulk Modulus (GPa) = 46.60728 58.78150 52.69439
# Shear Modulus (GPa) = 23.79612 -38.77443 -7.48916
#
# Velocity S-wave (km/s) = 3.74697 -4.78300 -2.10205
# Velocity P-wave (km/s) = 6.79840 2.04415 5.01980
#
# Compressibility (1/GPa) = 0.02145587
#
# Stress axis : x y z
#
# Youngs Moduli (GPa) = 70.16570 61.37576 28.68093
#
# Poissons Ratio (x) = 0.15982 0.31548
# Poissons Ratio (y) = 0.18271 0.24018
# Poissons Ratio (z) = 0.77180 0.51397
#
# Static dielectric constant tensor:
#      x y z
#    x 1.578150 0.000000 -0.015630 
#    y 0.000000 1.568230 0.000000 
#    z -0.015630 0.000000 1.554670 
# 
# From -- ./inp_files/48647.got.cif
#   From: 2010.05.17/outbox.cif.g08.bks.cpg/sg10_25_cif.got.tgz:48647.got - 2010.06.03 11:33:40.
