data_PCOD9148582
_publ_section_title
;
Structure prediction by ZEFSAII (Michael W. Deem and Ramdas Pophale) SiO2 
 PCOD9148582
Probable space group: P 2/M
;
_chemical_formula_sum "Si O2"
_cell_formula_units_Z 28
_cell_length_a 21.315911
_cell_length_b 7.347134
_cell_length_c 14.677001
_cell_angle_alpha 90.000000
_cell_angle_beta 148.746213
_cell_angle_gamma 90.000000
_cell_volume 1192.570506
_symmetry_space_group_name_H-M "P 2/M"
_symmetry_group_IT_number 10
_symmetry_cell_setting 'monoclinic'
loop_
_space_group_symop_operation_xyz
x,y,z
-x,y,-z
-x,-y,-z
x,-y,z
loop_
_atom_site_type_symbol
_atom_site_label
_atom_site_fract_x
_atom_site_fract_y
_atom_site_fract_z
Si Si1 0.238744 0.279362 0.133498
Si Si2 0.435269 0.721008 0.239826
Si Si3 0.665613 0.292694 0.427261
Si Si4 0.129424 0.207671 0.188544
Si Si5 0.243723 0.720618 0.846377
Si Si6 0.771344 0.723459 0.377731
Si Si7 0.046770 0.278879 0.741604
O O1 0.239789 0.500000 0.138640
O O2 0.363423 0.218198 0.240643
O O3 0.211085 0.213130 0.199626
O O4 0.128782 0.224636 0.929608
O O5 0.438298 0.500000 0.252855
O O6 0.567835 0.786449 0.376039
O O7 0.349863 0.768671 0.048038
O O8 0.624689 0.500000 0.361354
O O9 0.795437 0.295847 0.637295
O O10 0.684073 0.212324 0.350182
O O11 0.107300 0.000000 0.189382
O O12 0.000000 0.289026 0.000000
O O13 0.241364 0.500000 0.840819
O O14 0.259395 0.782090 0.762672
O O15 0.119119 0.777322 0.740494
O O16 0.769559 0.500000 0.376984
O O17 0.908813 0.780175 0.570186
O O18 0.045998 0.500000 0.741122
#
# Coordination Sequence:
#
# PCOD9148582 Si02
#       7
#     4   4   4   4   4   4   4
#     4   9  17  32  54  74  97 131 165 198 239 288
#     4   8  16  30  47  72 103 132 162 198 240 281
#     4  10  20  33  50  73 101 131 166 203 236 282
#     4  11  24  39  53  72  97 123 155 200 254 301
#     4   8  13  22  38  64 101 134 157 193 242 282
#     4   9  15  22  38  67  99 131 164 197 235 279
#     4   8  13  22  39  66  97 127 161 199 239 282
#
# _framework density 23.478694000000001
#
# number of rings (size 3 to 8) (size 9 to 14) (size 15 to 20)
#    0.000    3.000    0.000    3.429    0.000    5.143 
#    0.000    6.429    0.000    0.000    0.000    6.000 
#    0.000   14.857    0.000    0.000    0.000    0.000 
#
# Total GULP energy -156364.771874 kJ/mol
# GULP energy per Si atom -5584.456138 kJ/mol
# Density = 2.342526 g / cm^3
# Si number density = 23.478694 Si / 1000 Ang^3
#
#
#
# Elastic Constant Matrix: (Units=GPa)
#
#
# Indices 1 2 3 4 5 6 
#
# 1 131.6190 -5.6532 24.0755 0.0000 -4.9791 0.0000
# 2 -5.6532 85.4183 -6.5740 0.0000 3.6299 0.0000
# 3 24.0755 -6.5740 32.3224 0.0000 13.2556 0.0000
# 4 0.0000 0.0000 0.0000 -30.2141 0.0000 4.8548
# 5 -4.9791 3.6299 13.2556 0.0000 36.1511 0.0000
# 6 0.0000 0.0000 0.0000 4.8548 0.0000 29.8584
#
#
#
# Elastic Compliance Matrix: (Units=1/GPa)
#
#
# Indices 1 2 3 4 5 6 
#
# 1 0.009395 -0.000261 -0.008936 0.000000 0.004597 0.000000
# 2 -0.000261 0.012088 0.003726 0.000000 -0.002616 0.000000
# 3 -0.008936 0.003726 0.045915 0.000000 -0.018441 0.000000
# 4 0.000000 0.000000 0.000000 -0.032254 0.000000 0.005244
# 5 0.004597 -0.002616 -0.018441 0.000000 0.035319 0.000000
# 6 0.000000 0.000000 0.000000 0.005244 0.000000 0.032639
#
#
# Mechanical properties :
#
#
# Convention : Reuss Voigt Hill
#
# Bulk Modulus (GPa) = 17.71342 30.33959 24.02650
# Shear Modulus (GPa) = 37.63293 22.99315 30.31304
#
# Velocity S-wave (km/s) = 4.00791 3.13280 3.59707
# Velocity P-wave (km/s) = 5.38318 5.10257 5.24475
#
# Compressibility (1/GPa) = 0.05645438
#
# Stress axis : x y z
#
# Youngs Moduli (GPa) = 106.44007 82.72856 21.77942
#
# Poissons Ratio (x) = 0.02162 0.19463
# Poissons Ratio (y) = 0.02782 -0.08115
# Poissons Ratio (z) = 0.95117 -0.30824
#
# Static dielectric constant tensor:
#      x y z
#    x 1.876900 0.000000 0.025890 
#    y 0.000000 1.935020 0.000000 
#    z 0.025890 0.000000 1.849460 
# 
# From -- ./inp_files/49337.got.cif
#   From: 2010.05.17/outbox.cif.g08.bks.cpg/sg10_25_cif.got.tgz:49337.got - 2010.06.03 11:33:40.
