data_PCOD9148358
_publ_section_title
;
Structure prediction by ZEFSAII (Michael W. Deem and Ramdas Pophale) SiO2 
 PCOD9148358
Probable space group: P 2/M
;
_chemical_formula_sum "Si O2"
_cell_formula_units_Z 28
_cell_length_a 7.928138
_cell_length_b 14.135119
_cell_length_c 14.098500
_cell_angle_alpha 90.000000
_cell_angle_beta 117.600184
_cell_angle_gamma 90.000000
_cell_volume 1400.155754
_symmetry_space_group_name_H-M "P 2/M"
_symmetry_group_IT_number 10
_symmetry_cell_setting 'monoclinic'
loop_
_space_group_symop_operation_xyz
x,y,z
-x,y,-z
-x,-y,-z
x,-y,z
loop_
_atom_site_type_symbol
_atom_site_label
_atom_site_fract_x
_atom_site_fract_y
_atom_site_fract_z
Si Si1 0.825495 0.605196 0.656099
Si Si2 0.725717 0.106998 0.053433
Si Si3 0.770191 0.695375 0.448867
Si Si4 0.190992 0.752136 0.092163
Si Si5 0.531736 0.392087 0.756465
Si Si6 0.972745 0.200666 0.749349
Si Si7 0.185016 0.894664 0.479988
O O1 0.908587 0.500000 0.672879
O O2 0.731152 0.632149 0.531383
O O3 0.671286 0.606879 0.700295
O O4 0.970356 0.690731 0.714517
O O5 0.773511 0.163666 0.971183
O O6 0.800637 0.000000 0.070798
O O7 0.500000 0.104576 0.000000
O O8 0.824022 0.160479 0.166854
O O9 0.664555 0.651137 0.332368
O O10 0.702466 0.803392 0.450628
O O11 0.000000 0.696431 0.500000
O O12 0.361846 0.677927 0.143931
O O13 0.148521 0.795150 0.184935
O O14 0.000000 0.703456 0.000000
O O15 0.511618 0.500000 0.784223
O O16 0.882446 0.137718 0.642360
O O17 0.000000 0.900427 0.500000
O O18 0.272113 0.000000 0.501707
#
# Coordination Sequence:
#
# PCOD9148358 Si02
#       7
#     4   4   4   4   4   4   4
#     4   9  18  33  53  75 101 138 179 216 259 314
#     4  10  21  36  55  79 106 139 179 222 272 326
#     4  10  20  32  49  77 110 141 178 219 258 315
#     4   9  20  37  57  81 105 135 182 233 272 310
#     4  10  20  35  55  76 104 142 177 215 267 320
#     4   9  18  34  56  79 105 138 180 226 266 312
#     4   9  18  32  51  76 107 143 177 211 258 314
#
# _framework density 19.997774
#
# number of rings (size 3 to 8) (size 9 to 14) (size 15 to 20)
#    0.000    2.571    0.000    1.286    0.000    9.143 
#    0.000    4.286    0.000   12.857    0.000    0.000 
#    0.000    0.000    0.000    0.000    0.000    0.000 
#
# Total GULP energy -156149.644097 kJ/mol
# GULP energy per Si atom -5576.773003 kJ/mol
# Density = 1.995226 g / cm^3
# Si number density = 19.997774 Si / 1000 Ang^3
#
#
#
# Elastic Constant Matrix: (Units=GPa)
#
#
# Indices 1 2 3 4 5 6 
#
# 1 24.2227 22.3621 19.4575 0.0000 2.4446 0.0000
# 2 22.3621 150.7233 45.7481 0.0000 18.9066 0.0000
# 3 19.4575 45.7481 79.6482 0.0000 11.2923 0.0000
# 4 0.0000 0.0000 0.0000 19.0533 0.0000 -4.6050
# 5 2.4446 18.9066 11.2923 0.0000 32.3014 0.0000
# 6 0.0000 0.0000 0.0000 -4.6050 0.0000 20.5782
#
#
#
# Elastic Compliance Matrix: (Units=1/GPa)
#
#
# Indices 1 2 3 4 5 6 
#
# 1 0.054364 -0.005150 -0.010697 0.000000 0.002640 0.000000
# 2 -0.005150 0.008862 -0.003316 0.000000 -0.003638 0.000000
# 3 -0.010697 -0.003316 0.017553 0.000000 -0.003386 0.000000
# 4 0.000000 0.000000 0.000000 0.055485 0.000000 0.012417
# 5 0.002640 -0.003638 -0.003386 0.000000 0.034072 0.000000
# 6 0.000000 0.000000 0.000000 0.012417 0.000000 0.051374
#
#
# Mechanical properties :
#
#
# Convention : Reuss Voigt Hill
#
# Bulk Modulus (GPa) = 23.55555 47.74773 35.65164
# Shear Modulus (GPa) = 18.23575 25.52167 21.87871
#
# Velocity S-wave (km/s) = 3.02303 3.57631 3.31124
# Velocity P-wave (km/s) = 4.89792 6.40169 5.69961
#
# Compressibility (1/GPa) = 0.04245283
#
# Stress axis : x y z
#
# Youngs Moduli (GPa) = 18.39443 112.84665 56.97006
#
# Poissons Ratio (x) = 0.58117 0.60941
# Poissons Ratio (y) = 0.09473 0.18891
# Poissons Ratio (z) = 0.19676 0.37420
#
# Static dielectric constant tensor:
#      x y z
#    x 1.753880 0.000000 0.011450 
#    y 0.000000 1.726320 0.000000 
#    z 0.011450 0.000000 1.689460 
# 
# From -- ./inp_files/51397.got.cif
#   From: 2010.05.17/outbox.cif.g08.bks.cpg/sg10_26_cif.got.tgz:51397.got - 2010.06.03 11:33:40.
