data_PCOD9148339
_publ_section_title
;
Structure prediction by ZEFSAII (Michael W. Deem and Ramdas Pophale) SiO2 
 PCOD9148339
Probable space group: P 2/M
;
_chemical_formula_sum "Si O2"
_cell_formula_units_Z 32
_cell_length_a 24.520807
_cell_length_b 7.314843
_cell_length_c 15.685669
_cell_angle_alpha 90.000000
_cell_angle_beta 152.487698
_cell_angle_gamma 90.000000
_cell_volume 1299.653241
_symmetry_space_group_name_H-M "P 2/M"
_symmetry_group_IT_number 10
_symmetry_cell_setting 'monoclinic'
loop_
_space_group_symop_operation_xyz
x,y,z
-x,y,-z
-x,-y,-z
x,-y,z
loop_
_atom_site_type_symbol
_atom_site_label
_atom_site_fract_x
_atom_site_fract_y
_atom_site_fract_z
Si Si1 0.719240 0.221027 0.646576
Si Si2 0.629932 0.722547 0.154739
Si Si3 0.455008 0.212283 0.304382
Si Si4 0.129434 0.724296 0.439510
Si Si5 0.072625 0.709152 0.178503
Si Si6 0.237931 0.778484 0.106680
Si Si7 0.280030 0.721489 0.905455
Si Si8 0.934500 0.707822 0.287782
O O1 0.584556 0.287387 0.466270
O O2 0.793261 0.290961 0.669732
O O3 0.781486 0.272152 0.822418
O O4 0.719364 0.000000 0.641209
O O5 0.626457 0.500000 0.148709
O O6 0.734313 0.776073 0.363509
O O7 0.500000 0.785748 0.000000
O O8 0.673083 0.780557 0.120961
O O9 0.369167 0.283235 0.259677
O O10 0.374802 0.225763 0.108804
O O11 0.474902 0.000000 0.353553
O O12 0.124753 0.500000 0.432585
O O13 0.071903 0.789697 0.271735
O O14 0.055685 0.787265 0.419676
O O15 0.031432 0.500000 0.129453
O O16 0.000000 0.795868 0.000000
O O17 0.234190 0.000000 0.095499
O O18 0.147467 0.706169 0.911142
O O19 0.273181 0.500000 0.895633
O O20 0.151050 0.787419 0.758468
O O21 0.961209 0.500000 0.350240
#
# Coordination Sequence:
#
# PCOD9148339 Si02
#       8
#     4   4   4   4   4   4   4   4
#     4  10  20  32  49  72  98 132 172 212 250 295
#     4   9  18  31  49  75 104 133 168 208 249 300
#     4   9  18  32  50  72 101 134 167 204 251 306
#     4   9  18  32  50  72 101 138 170 203 253 304
#     4  10  21  35  51  73 100 134 172 207 252 305
#     4   9  17  31  50  72 100 135 169 202 248 303
#     4   9  18  31  51  78 101 126 165 212 253 291
#     4   9  17  31  51  75 102 127 162 211 256 296
#
# _framework density 24.621953000000001
#
# number of rings (size 3 to 8) (size 9 to 14) (size 15 to 20)
#    0.000    2.750    0.000    1.125    1.750    4.250 
#    0.000    3.125    0.000    5.625    0.000    3.500 
#    0.000    0.000    0.000    0.000    0.000    0.000 
#
# Total GULP energy -178864.321940 kJ/mol
# GULP energy per Si atom -5589.510061 kJ/mol
# Density = 2.456591 g / cm^3
# Si number density = 24.621953 Si / 1000 Ang^3
#
#
#
# Elastic Constant Matrix: (Units=GPa)
#
#
# Indices 1 2 3 4 5 6 
#
# 1 168.3952 4.3475 62.4620 0.0000 8.9012 0.0000
# 2 4.3475 108.7829 0.8090 0.0000 2.4976 0.0000
# 3 62.4620 0.8090 106.6821 0.0000 17.2006 0.0000
# 4 0.0000 0.0000 0.0000 9.3228 0.0000 6.3751
# 5 8.9012 2.4976 17.2006 0.0000 47.6159 0.0000
# 6 0.0000 0.0000 0.0000 6.3751 0.0000 6.1695
#
#
#
# Elastic Compliance Matrix: (Units=1/GPa)
#
#
# Indices 1 2 3 4 5 6 
#
# 1 0.007596 -0.000275 -0.004480 0.000000 0.000213 0.000000
# 2 -0.000275 0.009214 0.000171 0.000000 -0.000494 0.000000
# 3 -0.004480 0.000171 0.012595 0.000000 -0.003721 0.000000
# 4 0.000000 0.000000 0.000000 0.365599 0.000000 -0.377784
# 5 0.000213 -0.000494 -0.003721 0.000000 0.022332 0.000000
# 6 0.000000 0.000000 0.000000 -0.377784 0.000000 0.552463
#
#
# Mechanical properties :
#
#
# Convention : Reuss Voigt Hill
#
# Bulk Modulus (GPa) = 49.41476 57.67747 53.54611
# Shear Modulus (GPa) = 5.07248 33.70443 19.38845
#
# Velocity S-wave (km/s) = 1.43688 3.70385 2.80919
# Velocity P-wave (km/s) = 4.78182 6.46277 5.68477
#
# Compressibility (1/GPa) = 0.02023687
#
# Stress axis : x y z
#
# Youngs Moduli (GPa) = 131.65083 108.53429 79.39588
#
# Poissons Ratio (x) = 0.02986 0.35566
# Poissons Ratio (y) = 0.03622 -0.01356
# Poissons Ratio (z) = 0.58974 -0.01854
#
# Static dielectric constant tensor:
#      x y z
#    x 1.921820 0.000000 0.021420 
#    y 0.000000 1.937740 0.000000 
#    z 0.021420 0.000000 1.944150 
# 
# From -- ./inp_files/50764.got.cif
#   From: 2010.05.17/outbox.cif.g08.bks.cpg/sg10_26_cif.got.tgz:50764.got - 2010.06.03 11:33:40.
