data_PCOD9148439
_publ_section_title
;
Structure prediction by ZEFSAII (Michael W. Deem and Ramdas Pophale) SiO2 
 PCOD9148439
Probable space group: P 2/M
;
_chemical_formula_sum "Si O2"
_cell_formula_units_Z 32
_cell_length_a 14.855744
_cell_length_b 7.952240
_cell_length_c 28.830459
_cell_angle_alpha 90.000000
_cell_angle_beta 150.842041
_cell_angle_gamma 90.000000
_cell_volume 1659.432816
_symmetry_space_group_name_H-M "P 2/M"
_symmetry_group_IT_number 10
_symmetry_cell_setting 'monoclinic'
loop_
_space_group_symop_operation_xyz
x,y,z
-x,y,-z
-x,-y,-z
x,-y,z
loop_
_atom_site_type_symbol
_atom_site_label
_atom_site_fract_x
_atom_site_fract_y
_atom_site_fract_z
Si Si1 0.612931 0.200768 0.005921
Si Si2 0.619528 0.693046 0.694835
Si Si3 0.065208 0.303565 0.316298
Si Si4 0.428381 0.805595 0.517456
Si Si5 0.968454 0.198522 0.801121
Si Si6 0.885297 0.705033 0.379125
Si Si7 0.699835 0.297382 0.200325
Si Si8 0.272460 0.705639 0.591960
O O1 0.493681 0.235236 0.906405
O O2 0.624194 0.000000 0.016800
O O3 0.500000 0.268983 0.000000
O O4 0.823522 0.263907 0.097117
O O5 0.652188 0.500000 0.721945
O O6 0.507497 0.705306 0.596008
O O7 0.471756 0.767896 0.664598
O O8 0.818802 0.771215 0.773919
O O9 0.082513 0.500000 0.335853
O O10 0.209265 0.206516 0.413066
O O11 0.102258 0.277777 0.278780
O O12 0.857427 0.248382 0.234052
O O13 0.500000 0.741275 0.500000
O O14 0.488197 0.000000 0.549479
O O15 0.977286 0.000000 0.796873
O O16 0.889295 0.500000 0.379306
O O17 0.777018 0.762151 0.284710
O O18 0.781198 0.752380 0.379792
O O19 0.099283 0.758697 0.481659
O O20 0.690576 0.500000 0.197707
O O21 0.277212 0.500000 0.592143
#
# Coordination Sequence:
#
# PCOD9148439 Si02
#       8
#     4   4   4   4   4   4   4   4
#     4  10  21  37  54  71  98 139 181 216 257 313
#     4  11  21  33  52  77 103 134 173 216 259 301
#     4  11  21  32  49  75 103 132 168 212 255 299
#     4  11  22  33  46  67 100 141 176 202 241 300
#     4  11  22  36  51  69  98 138 177 209 252 310
#     4   8  14  29  52  80 109 136 164 203 257 312
#     4  10  20  32  53  82 107 129 166 219 268 307
#     4   8  15  29  52  79 109 138 166 202 252 313
#
# _framework density 19.283697
#
# number of rings (size 3 to 8) (size 9 to 14) (size 15 to 20)
#    0.000    2.000    2.500    3.000    0.000    4.250 
#    0.000    0.000    0.000    2.250    0.000   10.500 
#    0.000    0.000    0.000    0.000    0.000    0.000 
#
# Total GULP energy -178567.583677 kJ/mol
# GULP energy per Si atom -5580.236990 kJ/mol
# Density = 1.923981 g / cm^3
# Si number density = 19.283697 Si / 1000 Ang^3
#
#
#
# Elastic Constant Matrix: (Units=GPa)
#
#
# Indices 1 2 3 4 5 6 
#
# 1 100.2077 3.2016 45.7915 0.0000 17.6430 0.0000
# 2 3.2016 19.9153 0.8513 0.0000 3.4228 0.0000
# 3 45.7915 0.8513 111.0284 0.0000 19.3077 0.0000
# 4 0.0000 0.0000 0.0000 30.4822 0.0000 -1.1942
# 5 17.6430 3.4228 19.3077 0.0000 31.7690 0.0000
# 6 0.0000 0.0000 0.0000 -1.1942 0.0000 13.6860
#
#
#
# Elastic Compliance Matrix: (Units=1/GPa)
#
#
# Indices 1 2 3 4 5 6 
#
# 1 0.012842 -0.001141 -0.004550 0.000000 -0.004244 0.000000
# 2 -0.001141 0.051301 0.001038 0.000000 -0.005524 0.000000
# 3 -0.004550 0.001038 0.011691 0.000000 -0.004690 0.000000
# 4 0.000000 0.000000 0.000000 0.032919 0.000000 0.002872
# 5 -0.004244 -0.005524 -0.004690 0.000000 0.037280 0.000000
# 6 0.000000 0.000000 0.000000 0.002872 0.000000 0.073318
#
#
# Mechanical properties :
#
#
# Convention : Reuss Voigt Hill
#
# Bulk Modulus (GPa) = 15.03107 36.76002 25.89555
# Shear Modulus (GPa) = 19.93372 27.27458 23.60415
#
# Velocity S-wave (km/s) = 3.21862 3.76491 3.50243
# Velocity P-wave (km/s) = 4.65020 6.16470 5.46021
#
# Compressibility (1/GPa) = 0.06652884
#
# Stress axis : x y z
#
# Youngs Moduli (GPa) = 77.86979 19.49275 85.53736
#
# Poissons Ratio (x) = 0.02223 0.38917
# Poissons Ratio (y) = 0.08882 -0.08877
# Poissons Ratio (z) = 0.35428 -0.02023
#
# Static dielectric constant tensor:
#      x y z
#    x 1.705280 0.000000 0.039090 
#    y 0.000000 1.686290 0.000000 
#    z 0.039090 0.000000 1.667150 
# 
# From -- ./inp_files/66207.got.cif
#   From: 2010.05.17/outbox.cif.g08.bks.cpg/sg10_34_cif.got.tgz:66207.got - 2010.06.03 11:33:40.
