data_PCOD9148699
_publ_section_title
;
Structure prediction by ZEFSAII (Michael W. Deem and Ramdas Pophale) SiO2 
 PCOD9148699
Probable space group: P 2/M
;
_chemical_formula_sum "Si O2"
_cell_formula_units_Z 26
_cell_length_a 8.050347
_cell_length_b 13.788998
_cell_length_c 12.667931
_cell_angle_alpha 90.000000
_cell_angle_beta 116.639810
_cell_angle_gamma 90.000000
_cell_volume 1256.938991
_symmetry_space_group_name_H-M "P 2/M"
_symmetry_group_IT_number 10
_symmetry_cell_setting 'monoclinic'
loop_
_space_group_symop_operation_xyz
x,y,z
-x,y,-z
-x,-y,-z
x,-y,z
loop_
_atom_site_type_symbol
_atom_site_label
_atom_site_fract_x
_atom_site_fract_y
_atom_site_fract_z
Si Si1 0.676834 0.263341 0.198156
Si Si2 0.340233 0.111143 0.084399
Si Si3 0.780506 0.615772 0.428066
Si Si4 0.038523 0.893496 0.633249
Si Si5 0.500000 0.713789 0.500000
Si Si6 0.923317 0.264584 0.086904
Si Si7 0.747958 0.166376 0.711503
O O1 0.497796 0.195826 0.123517
O O2 0.680167 0.339229 0.295523
O O3 0.764917 0.309537 0.116644
O O4 0.824947 0.184196 0.280020
O O5 0.293804 0.107593 0.195307
O O6 0.378980 0.000000 0.061278
O O7 0.167801 0.160127 0.972761
O O8 0.772400 0.500000 0.420022
O O9 0.668945 0.652725 0.499156
O O10 0.000000 0.643587 0.500000
O O11 0.849785 0.889162 0.646408
O O12 0.000000 0.875125 0.500000
O O13 0.123977 0.000000 0.667566
O O14 0.430638 0.782246 0.386251
O O15 0.105777 0.247474 0.208147
O O16 0.000000 0.310229 0.000000
#
# Coordination Sequence:
#
# PCOD9148699 Si02
#       7
#     4   4   4   4   2   4   4
#     4  11  20  38  59  86 121 157 206 267 317 375
#     4  11  22  36  57  88 123 168 218 259 301 365
#     4  11  24  42  69 100 128 164 210 266 332 397
#     4  10  20  33  51  80 121 167 203 243 306 378
#     4  12  21  42  69  98 132 168 209 264 325 388
#     4   9  21  37  58  85 114 165 208 255 306 364
#     4  10  21  36  57  85 124 166 204 256 311 364
#
# _framework density 20.685171
#
# number of rings (size 3 to 8) (size 9 to 14) (size 15 to 20)
#    0.000    1.538    1.538    4.846    0.000    6.462 
#    0.000    0.769    0.000    2.308    0.000    0.000 
#    0.000    0.000    0.000    0.000    0.000    0.000 
#
# Total GULP energy -145003.783520 kJ/mol
# GULP energy per Si atom -5577.068597 kJ/mol
# Density = 2.063809 g / cm^3
# Si number density = 20.685171 Si / 1000 Ang^3
#
#
#
# Elastic Constant Matrix: (Units=GPa)
#
#
# Indices 1 2 3 4 5 6 
#
# 1 68.4510 -11.4413 10.1004 0.0000 -16.5490 0.0000
# 2 -11.4413 48.3281 2.6539 0.0000 7.9819 0.0000
# 3 10.1004 2.6539 75.3305 0.0000 -13.0409 0.0000
# 4 0.0000 0.0000 0.0000 21.5717 0.0000 -7.9930
# 5 -16.5490 7.9819 -13.0409 0.0000 49.8101 0.0000
# 6 0.0000 0.0000 0.0000 -7.9930 0.0000 29.2715
#
#
#
# Elastic Compliance Matrix: (Units=1/GPa)
#
#
# Indices 1 2 3 4 5 6 
#
# 1 0.016477 0.003233 -0.001535 0.000000 0.004554 0.000000
# 2 0.003233 0.022031 -0.001712 0.000000 -0.002905 0.000000
# 3 -0.001535 -0.001712 0.014141 0.000000 0.003467 0.000000
# 4 0.000000 0.000000 0.000000 0.051575 0.000000 0.014083
# 5 0.004554 -0.002905 0.003467 0.000000 0.022963 0.000000
# 6 0.000000 0.000000 0.000000 0.014083 0.000000 0.038009
#
#
# Mechanical properties :
#
#
# Convention : Reuss Voigt Hill
#
# Bulk Modulus (GPa) = 19.00401 21.63727 20.32064
# Shear Modulus (GPa) = 27.35764 32.85043 30.10404
#
# Velocity S-wave (km/s) = 3.64066 3.98944 3.81904
# Velocity P-wave (km/s) = 5.18457 5.63061 5.41219
#
# Compressibility (1/GPa) = 0.05262048
#
# Stress axis : x y z
#
# Youngs Moduli (GPa) = 60.69098 45.39051 70.71582
#
# Poissons Ratio (x) = -0.14674 0.10853
# Poissons Ratio (y) = -0.19620 0.12110
# Poissons Ratio (z) = 0.09314 0.07773
#
# Static dielectric constant tensor:
#      x y z
#    x 1.839270 0.000000 -0.034200 
#    y 0.000000 1.703940 0.000000 
#    z -0.034200 0.000000 1.756660 
# 
# From -- ./inp_files/42799.got.cif
#   From: 2010.05.17/outbox.cif.g08.bks.cpg/sg10_22_cif.got.tgz:42799.got - 2010.06.03 11:33:40.
