data_PCOD9148443
_publ_section_title
;
Structure prediction by ZEFSAII (Michael W. Deem and Ramdas Pophale) SiO2 
 PCOD9148443
Probable space group: P 2/M
;
_chemical_formula_sum "Si O2"
_cell_formula_units_Z 32
_cell_length_a 25.069737
_cell_length_b 7.645064
_cell_length_c 20.045893
_cell_angle_alpha 90.000000
_cell_angle_beta 157.061205
_cell_angle_gamma 90.000000
_cell_volume 1497.406646
_symmetry_space_group_name_H-M "P 2/M"
_symmetry_group_IT_number 10
_symmetry_cell_setting 'monoclinic'
loop_
_space_group_symop_operation_xyz
x,y,z
-x,y,-z
-x,-y,-z
x,-y,z
loop_
_atom_site_type_symbol
_atom_site_label
_atom_site_fract_x
_atom_site_fract_y
_atom_site_fract_z
Si Si1 0.153329 0.703018 0.145958
Si Si2 0.967593 0.293052 0.126076
Si Si3 0.538780 0.212491 0.939392
Si Si4 0.545118 0.787783 0.794358
Si Si5 0.280219 0.787924 0.729568
Si Si6 0.261697 0.202217 0.408068
Si Si7 0.845403 0.706966 0.119961
Si Si8 0.018960 0.298912 0.595071
O O1 0.193910 0.500000 0.187445
O O2 0.246406 0.784598 0.310470
O O3 0.129776 0.780060 0.045198
O O4 0.000000 0.708006 0.000000
O O5 0.937584 0.500000 0.093439
O O6 0.933081 0.220879 0.159193
O O7 0.125136 0.278124 0.284840
O O8 0.549851 0.273101 0.876704
O O9 0.395455 0.263220 0.808748
O O10 0.540330 0.000000 0.940934
O O11 0.659860 0.265836 0.129015
O O12 0.405413 0.724402 0.599273
O O13 0.544507 0.000000 0.793226
O O14 0.685419 0.729833 0.921924
O O15 0.132515 0.708067 0.548004
O O16 0.269047 0.000000 0.715575
O O17 0.259020 0.000000 0.424130
O O18 0.876287 0.500000 0.160802
O O19 0.882454 0.782564 0.235637
O O20 0.062914 0.500000 0.634112
O O21 0.000000 0.215521 0.500000
#
# Coordination Sequence:
#
# PCOD9148443 Si02
#       8
#     4   4   4   4   4   4   4   4
#     4   8  15  31  54  77 103 137 174 213 255 303
#     4   9  19  36  56  78 105 137 177 220 256 301
#     4   8  16  32  51  73 102 132 167 216 259 300
#     4  10  21  36  52  74 108 141 172 213 263 314
#     4   9  17  31  54  76  94 128 177 217 254 304
#     4  10  20  32  53  84 111 136 169 212 264 317
#     4  10  22  38  54  75 105 141 180 219 260 309
#     4  10  21  35  50  72 106 138 168 214 268 312
#
# _framework density 21.370280999999999
#
# number of rings (size 3 to 8) (size 9 to 14) (size 15 to 20)
#    0.000    2.750    0.000    2.625    1.750    4.500 
#    0.000    2.500    0.000    3.750    0.000    0.000 
#    0.000    0.000    0.000    0.000    0.000    0.000 
#
# Total GULP energy -178496.749020 kJ/mol
# GULP energy per Si atom -5578.023407 kJ/mol
# Density = 2.132164 g / cm^3
# Si number density = 21.370281 Si / 1000 Ang^3
#
#
#
# Elastic Constant Matrix: (Units=GPa)
#
#
# Indices 1 2 3 4 5 6 
#
# 1 95.7245 4.9340 48.4810 0.0000 -20.1760 0.0000
# 2 4.9340 39.1269 -9.8934 0.0000 -6.8518 0.0000
# 3 48.4810 -9.8934 117.5442 0.0000 -7.5992 0.0000
# 4 0.0000 0.0000 0.0000 17.7406 0.0000 5.3701
# 5 -20.1760 -6.8518 -7.5992 0.0000 22.1007 0.0000
# 6 0.0000 0.0000 0.0000 5.3701 0.0000 11.3043
#
#
#
# Elastic Compliance Matrix: (Units=1/GPa)
#
#
# Indices 1 2 3 4 5 6 
#
# 1 0.016124 -0.001403 -0.005978 0.000000 0.012229 0.000000
# 2 -0.001403 0.028136 0.003506 0.000000 0.008647 0.000000
# 3 -0.005978 0.003506 0.011235 0.000000 -0.000507 0.000000
# 4 0.000000 0.000000 0.000000 0.065835 0.000000 -0.031275
# 5 0.012229 0.008647 -0.000507 0.000000 0.058918 0.000000
# 6 0.000000 0.000000 0.000000 -0.031275 0.000000 0.103319
#
#
# Mechanical properties :
#
#
# Convention : Reuss Voigt Hill
#
# Bulk Modulus (GPa) = 20.94474 37.71541 29.33008
# Shear Modulus (GPa) = 16.27433 24.15406 20.21420
#
# Velocity S-wave (km/s) = 2.76260 3.36559 3.07889
# Velocity P-wave (km/s) = 4.47192 5.72623 5.13750
#
# Compressibility (1/GPa) = 0.04774468
#
# Stress axis : x y z
#
# Youngs Moduli (GPa) = 62.01871 35.54220 89.00517
#
# Poissons Ratio (x) = 0.04987 0.53206
# Poissons Ratio (y) = 0.08703 -0.31204
# Poissons Ratio (z) = 0.37074 -0.12461
#
# Static dielectric constant tensor:
#      x y z
#    x 1.796490 0.000000 -0.035730 
#    y 0.000000 1.802820 0.000000 
#    z -0.035730 0.000000 1.772400 
# 
# From -- ./inp_files/86980.got.cif
#   From: 2010.05.17/outbox.cif.g08.bks.cpg/sg10_44_cif.got.tgz:86980.got - 2010.06.03 11:33:40.
