data_PCOD9148274
_publ_section_title
;
Structure prediction by ZEFSAII (Michael W. Deem and Ramdas Pophale) SiO2 
 PCOD9148274
Probable space group: P 2/M
;
_chemical_formula_sum "Si O2"
_cell_formula_units_Z 24
_cell_length_a 17.241792
_cell_length_b 7.733821
_cell_length_c 14.559012
_cell_angle_alpha 90.000000
_cell_angle_beta 152.701242
_cell_angle_gamma 90.000000
_cell_volume 890.371310
_symmetry_space_group_name_H-M "P 2/M"
_symmetry_group_IT_number 10
_symmetry_cell_setting 'monoclinic'
loop_
_space_group_symop_operation_xyz
x,y,z
-x,y,-z
-x,-y,-z
x,-y,z
loop_
_atom_site_type_symbol
_atom_site_label
_atom_site_fract_x
_atom_site_fract_y
_atom_site_fract_z
Si Si1 0.861828 0.698277 0.096891
Si Si2 0.329243 0.793328 0.275232
Si Si3 0.875700 0.293802 0.489260
Si Si4 0.832248 0.211614 0.715421
Si Si5 0.435393 0.200612 0.707418
Si Si6 0.656016 0.791490 0.098007
O O1 0.830536 0.500000 0.082452
O O2 0.951316 0.777879 0.282159
O O3 0.016547 0.716198 0.186026
O O4 0.709296 0.760865 0.871688
O O5 0.500000 0.723386 0.500000
O O6 0.185989 0.738761 0.197608
O O7 0.335702 0.000000 0.289362
O O8 0.873300 0.500000 0.503047
O O9 0.721292 0.210324 0.384399
O O10 0.821587 0.268262 0.326736
O O11 0.658325 0.268749 0.481364
O O12 0.845105 0.000000 0.723638
O O13 0.472638 0.000000 0.729168
O O14 0.595740 0.272119 0.933817
O O15 0.658319 0.000000 0.097882
O O16 0.500000 0.736632 0.000000
#
# Coordination Sequence:
#
# PCOD9148274 Si02
#       6
#     4   4   4   4   4   4
#     4  10  20  32  47  69  95 122 153 188 225 268
#     4  10  21  35  50  69  91 117 152 191 231 275
#     4   9  16  24  36  58  87 116 145 178 216 257
#     4   9  17  31  50  69  92 122 152 186 228 270
#     4   8  14  24  38  58  85 116 146 175 214 263
#     4   8  13  21  34  55  84 115 144 174 212 259
#
# _framework density 26.955045999999999
#
# number of rings (size 3 to 8) (size 9 to 14) (size 15 to 20)
#    0.000    3.000    0.000    2.500    0.000    8.000 
#    0.000    0.000    0.000    0.000    0.000    1.167 
#    0.000    9.333    0.000    0.000    0.000    0.000 
#
# Total GULP energy -134086.802252 kJ/mol
# GULP energy per Si atom -5586.950094 kJ/mol
# Density = 2.689370 g / cm^3
# Si number density = 26.955046 Si / 1000 Ang^3
#
#
#
# Elastic Constant Matrix: (Units=GPa)
#
#
# Indices 1 2 3 4 5 6 
#
# 1 110.1219 14.3689 42.8497 0.0000 -43.4124 0.0000
# 2 14.3689 62.5392 8.4511 0.0000 -0.0362 0.0000
# 3 42.8497 8.4511 223.8267 0.0000 -23.6589 0.0000
# 4 0.0000 0.0000 0.0000 28.1069 0.0000 7.3458
# 5 -43.4124 -0.0362 -23.6589 0.0000 65.5397 0.0000
# 6 0.0000 0.0000 0.0000 7.3458 0.0000 -12.1045
#
#
#
# Elastic Compliance Matrix: (Units=1/GPa)
#
#
# Indices 1 2 3 4 5 6 
#
# 1 0.013316 -0.002842 -0.001570 0.000000 0.008252 0.000000
# 2 -0.002842 0.016682 -0.000295 0.000000 -0.001980 0.000000
# 3 -0.001570 -0.000295 0.004855 0.000000 0.000713 0.000000
# 4 0.000000 0.000000 0.000000 0.030708 0.000000 0.018636
# 5 0.008252 -0.001980 0.000713 0.000000 0.020980 0.000000
# 6 0.000000 0.000000 0.000000 0.018636 0.000000 -0.071304
#
#
# Mechanical properties :
#
#
# Convention : Reuss Voigt Hill
#
# Bulk Modulus (GPa) = 39.31146 58.64748 48.97947
# Shear Modulus (GPa) = 150.92552 38.36296 94.64424
#
# Velocity S-wave (km/s) = 7.49087 3.77665 5.93196
# Velocity P-wave (km/s) = 9.45691 6.38923 8.07017
#
# Compressibility (1/GPa) = 0.02543787
#
# Stress axis : x y z
#
# Youngs Moduli (GPa) = 75.10025 59.94563 205.98625
#
# Poissons Ratio (x) = 0.17039 0.32331
# Poissons Ratio (y) = 0.21347 0.06076
# Poissons Ratio (z) = 0.11788 0.01768
#
# Static dielectric constant tensor:
#      x y z
#    x 2.162120 0.000000 0.044850 
#    y 0.000000 1.961540 0.000000 
#    z 0.044850 0.000000 2.235440 
# 
# From -- ./inp_files/33762.got.cif
#   From: 2010.05.17/outbox.cif.g08.bks.cpg/sg10_17_cif.got.tgz:33762.got - 2010.06.03 11:33:40.
