data_PCOD9148137
_publ_section_title
;
Structure prediction by ZEFSAII (Michael W. Deem and Ramdas Pophale) SiO2 
 PCOD9148137
Probable space group: P 2/M
;
_chemical_formula_sum "Si O2"
_cell_formula_units_Z 28
_cell_length_a 8.598111
_cell_length_b 19.610282
_cell_length_c 12.292913
_cell_angle_alpha 90.000000
_cell_angle_beta 34.413617
_cell_angle_gamma 90.000000
_cell_volume 1171.427679
_symmetry_space_group_name_H-M "P 2/M"
_symmetry_group_IT_number 10
_symmetry_cell_setting 'monoclinic'
loop_
_space_group_symop_operation_xyz
x,y,z
-x,y,-z
-x,-y,-z
x,-y,z
loop_
_atom_site_type_symbol
_atom_site_label
_atom_site_fract_x
_atom_site_fract_y
_atom_site_fract_z
Si Si1 0.136017 0.352899 0.040222
Si Si2 0.285480 0.500000 0.401139
Si Si3 0.712987 0.220620 0.965825
Si Si4 0.451474 0.925964 0.689724
Si Si5 0.281498 0.794081 0.407107
Si Si6 0.282691 0.646209 0.404169
Si Si7 0.113476 0.074486 0.112341
Si Si8 0.137051 0.500000 0.041454
O O1 0.076137 0.281802 0.133778
O O2 0.462943 0.353101 0.827179
O O3 0.066711 0.426369 0.132390
O O4 0.000000 0.350618 0.000000
O O5 0.310158 0.572913 0.446762
O O6 0.536927 0.500000 0.170214
O O7 0.000000 0.500000 0.500000
O O8 0.539080 0.209779 0.175651
O O9 0.500000 0.246252 0.000000
O O10 0.818133 0.146061 0.869720
O O11 0.653395 0.862229 0.564626
O O12 0.196877 0.921180 0.753868
O O13 0.586803 0.000000 0.597433
O O14 0.306872 0.926732 0.892464
O O15 0.286472 0.719636 0.460127
O O16 0.000000 0.800444 0.500000
O O17 0.000000 0.645593 0.500000
O O18 0.155784 0.000000 0.142015
O O19 0.000000 0.500000 0.000000
#
# Coordination Sequence:
#
# PCOD9148137 Si02
#       8
#     4   2   4   4   4   4   4   2
#     4   9  17  27  46  67  90 121 156 190 225 270
#     4   8  12  20  34  53  84 111 140 172 217 254
#     4  10  20  30  45  70  95 117 149 190 231 272
#     4   8  14  25  43  67  87 109 150 192 221 262
#     4   9  17  28  44  65  90 120 148 183 227 273
#     4   8  14  23  37  61  85 113 141 181 217 258
#     4   8  15  27  44  64  88 116 150 189 225 265
#     4   8  14  26  39  63  92 115 147 192 229 258
#
# _framework density 23.902457999999999
#
# number of rings (size 3 to 8) (size 9 to 14) (size 15 to 20)
#    0.000    3.429    0.000    0.857    6.000    0.571 
#    0.000    0.357    0.000    0.857    0.000    2.000 
#    0.000    0.000    0.000  116.571    0.000    0.000 
#
# Total GULP energy -156041.738281 kJ/mol
# GULP energy per Si atom -5572.919224 kJ/mol
# Density = 2.384806 g / cm^3
# Si number density = 23.902458 Si / 1000 Ang^3
#
#
#
# Elastic Constant Matrix: (Units=GPa)
#
#
# Indices 1 2 3 4 5 6 
#
# 1 13.1800 41.7582 -1.2678 0.0000 -1.1793 0.0000
# 2 41.7582 313.4018 15.8281 0.0000 -14.3607 0.0000
# 3 -1.2678 15.8281 82.3079 0.0000 13.2490 0.0000
# 4 0.0000 0.0000 0.0000 6.9229 0.0000 -14.7771
# 5 -1.1793 -14.3607 13.2490 0.0000 22.1533 0.0000
# 6 0.0000 0.0000 0.0000 -14.7771 0.0000 34.0262
#
#
#
# Elastic Compliance Matrix: (Units=1/GPa)
#
#
# Indices 1 2 3 4 5 6 
#
# 1 0.135394 -0.018830 0.007205 0.000000 -0.009308 0.000000
# 2 -0.018830 0.005996 -0.002111 0.000000 0.004147 0.000000
# 3 0.007205 -0.002111 0.014191 0.000000 -0.009472 0.000000
# 4 0.000000 0.000000 0.000000 1.978871 0.000000 0.859399
# 5 -0.009308 0.004147 -0.009472 0.000000 0.052998 0.000000
# 6 0.000000 0.000000 0.000000 0.859399 0.000000 0.402615
#
#
# Mechanical properties :
#
#
# Convention : Reuss Voigt Hill
#
# Bulk Modulus (GPa) = 7.80587 57.94742 32.87665
# Shear Modulus (GPa) = 1.87953 36.12521 19.00237
#
# Velocity S-wave (km/s) = 0.88772 3.89184 2.82263
# Velocity P-wave (km/s) = 2.07931 6.67017 4.94038
#
# Compressibility (1/GPa) = 0.12810868
#
# Stress axis : x y z
#
# Youngs Moduli (GPa) = 7.38587 166.76598 70.46694
#
# Poissons Ratio (x) = 3.14028 -0.50772
# Poissons Ratio (y) = 0.13908 0.14874
# Poissons Ratio (z) = -0.05322 0.35200
#
# Static dielectric constant tensor:
#      x y z
#    x 1.406390 0.000000 -0.028170 
#    y 0.000000 2.033420 0.000000 
#    z -0.028170 0.000000 2.000270 
# 
# From -- ./inp_files/62338.got.cif
#   From: 2010.05.17/outbox.cif.g08.bks.cpg/sg10_32_cif.got.tgz:62338.got - 2010.06.03 11:33:40.
