data_PCOD9148781
_publ_section_title
;
Structure prediction by ZEFSAII (Michael W. Deem and Ramdas Pophale) SiO2 
 PCOD9148781
Probable space group: P 2/M
;
_chemical_formula_sum "Si O2"
_cell_formula_units_Z 32
_cell_length_a 12.711023
_cell_length_b 7.500081
_cell_length_c 33.798483
_cell_angle_alpha 90.000000
_cell_angle_beta 155.457920
_cell_angle_gamma 90.000000
_cell_volume 1338.350422
_symmetry_space_group_name_H-M "P 2/M"
_symmetry_group_IT_number 10
_symmetry_cell_setting 'monoclinic'
loop_
_space_group_symop_operation_xyz
x,y,z
-x,y,-z
-x,-y,-z
x,-y,z
loop_
_atom_site_type_symbol
_atom_site_label
_atom_site_fract_x
_atom_site_fract_y
_atom_site_fract_z
Si Si1 0.786281 0.780741 0.805360
Si Si2 0.045410 0.217502 0.971073
Si Si3 0.235888 0.204632 0.604071
Si Si4 0.360528 0.293772 0.363355
Si Si5 0.121656 0.797575 0.851995
Si Si6 0.064869 0.212954 0.336411
Si Si7 0.582533 0.781909 0.119679
Si Si8 0.083779 0.289681 0.435368
O O1 0.515605 0.717009 0.696870
O O2 0.018686 0.718402 0.857481
O O3 0.784836 0.000000 0.803125
O O4 0.833644 0.730437 0.866808
O O5 0.313916 0.274110 0.044690
O O6 0.049107 0.000000 0.973503
O O7 0.000000 0.280037 0.000000
O O8 0.000000 0.288530 0.500000
O O9 0.145378 0.206381 0.618632
O O10 0.256427 0.000000 0.597510
O O11 0.354470 0.500000 0.349118
O O12 0.134757 0.199047 0.262659
O O13 0.643718 0.221297 0.455717
O O14 0.288568 0.284904 0.385184
O O15 0.333383 0.718976 0.895330
O O16 0.199868 0.000000 0.887805
O O17 0.804397 0.270622 0.226006
O O18 0.071158 0.262481 0.384227
O O19 0.079582 0.000000 0.338959
O O20 0.582595 0.000000 0.117830
O O21 0.077804 0.500000 0.440781
#
# Coordination Sequence:
#
# PCOD9148781 Si02
#       8
#     4   4   4   4   4   4   4   4
#     4   9  18  31  50  77 106 142 181 223 277 325
#     4   9  17  28  46  75 112 144 171 216 276 329
#     4  10  21  36  54  77 104 138 183 229 274 323
#     4  10  20  34  51  75 108 142 178 218 267 324
#     4   9  17  32  53  77 107 136 176 225 269 322
#     4  10  20  33  53  79 107 139 179 224 268 318
#     4   8  16  29  47  76 107 137 170 214 270 321
#     4  11  23  35  50  74 105 143 182 223 271 326
#
# _framework density 23.910029999999999
#
# number of rings (size 3 to 8) (size 9 to 14) (size 15 to 20)
#    0.000    2.500    0.000    3.000    1.750    5.250 
#    0.000    3.125    0.000    0.000    0.000   13.125 
#    0.000    0.000    0.000    0.000    0.000    0.000 
#
# Total GULP energy -178869.487435 kJ/mol
# GULP energy per Si atom -5589.671482 kJ/mol
# Density = 2.385561 g / cm^3
# Si number density = 23.910030 Si / 1000 Ang^3
#
#
#
# Elastic Constant Matrix: (Units=GPa)
#
#
# Indices 1 2 3 4 5 6 
#
# 1 163.7860 1.9646 60.6842 0.0000 -2.4189 0.0000
# 2 1.9646 78.3696 6.3967 0.0000 1.6970 0.0000
# 3 60.6842 6.3967 100.9896 -0.0001 8.5594 0.0000
# 4 0.0000 0.0000 -0.0001 25.5016 0.0000 13.4969
# 5 -2.4189 1.6970 8.5594 0.0000 44.3576 0.0000
# 6 0.0000 0.0000 0.0000 13.4969 0.0000 -1.0642
#
#
#
# Elastic Compliance Matrix: (Units=1/GPa)
#
#
# Indices 1 2 3 4 5 6 
#
# 1 0.007938 0.000171 -0.004897 0.000000 0.001371 0.000000
# 2 0.000171 0.012835 -0.000889 0.000000 -0.000310 0.000000
# 3 -0.004897 -0.000889 0.013136 0.000000 -0.002768 0.000000
# 4 0.000000 0.000000 0.000000 0.005085 0.000000 0.064484
# 5 0.001371 -0.000310 -0.002768 0.000000 0.023165 0.000000
# 6 0.000000 0.000000 0.000000 0.064484 0.000000 -0.121839
#
#
# Mechanical properties :
#
#
# Convention : Reuss Voigt Hill
#
# Bulk Modulus (GPa) = 44.09605 53.47068 48.78336
# Shear Modulus (GPa) = -122.27690 32.03231 -45.12229
#
# Velocity S-wave (km/s) = -7.15901 3.66416 -4.34887
# Velocity P-wave (km/s) = 7.06065 6.34928 2.18397
#
# Compressibility (1/GPa) = 0.02267777
#
# Stress axis : x y z
#
# Youngs Moduli (GPa) = 125.97431 77.91152 76.12936
#
# Poissons Ratio (x) = -0.01332 0.37281
# Poissons Ratio (y) = -0.02154 0.06771
# Poissons Ratio (z) = 0.61690 0.06930
#
# Static dielectric constant tensor:
#      x y z
#    x 1.904980 0.000000 -0.010870 
#    y 0.000000 1.891720 0.000000 
#    z -0.010870 0.000000 1.906950 
# 
# From -- ./inp_files/89635.got.cif
#   From: 2010.05.17/outbox.cif.g08.bks.cpg/sg10_45_cif.got.tgz:89635.got - 2010.06.03 11:33:40.
