data_PCOD9148937
_publ_section_title
;
Structure prediction by ZEFSAII (Michael W. Deem and Ramdas Pophale) SiO2 
 PCOD9148937
Probable space group: P 2/M
;
_chemical_formula_sum "Si O2"
_cell_formula_units_Z 32
_cell_length_a 28.447323
_cell_length_b 9.089234
_cell_length_c 20.205296
_cell_angle_alpha 90.000000
_cell_angle_beta 158.482789
_cell_angle_gamma 90.000000
_cell_volume 1916.197975
_symmetry_space_group_name_H-M "P 2/M"
_symmetry_group_IT_number 10
_symmetry_cell_setting 'monoclinic'
loop_
_space_group_symop_operation_xyz
x,y,z
-x,y,-z
-x,-y,-z
x,-y,z
loop_
_atom_site_type_symbol
_atom_site_label
_atom_site_fract_x
_atom_site_fract_y
_atom_site_fract_z
Si Si1 0.399974 0.675555 0.175311
Si Si2 0.163139 0.325458 0.578928
Si Si3 0.848333 0.675384 0.594443
Si Si4 0.116264 0.675202 0.801481
Si Si5 0.610922 0.177410 0.695569
Si Si6 0.417250 0.824850 0.957593
Si Si7 0.894290 0.825030 0.069445
Si Si8 0.570487 0.322033 0.277500
O O1 0.410015 0.500000 0.198860
O O2 0.407156 0.753531 0.255564
O O3 0.508763 0.721921 0.266473
O O4 0.257523 0.701841 0.957581
O O5 0.186677 0.500000 0.618485
O O6 0.167138 0.294440 0.504810
O O7 0.274270 0.235334 0.759403
O O8 0.016921 0.292497 0.410015
O O9 0.862982 0.500000 0.619679
O O10 0.718046 0.721745 0.459888
O O11 0.977066 0.751353 0.789231
O O12 0.109071 0.500000 0.808594
O O13 0.112846 0.768138 0.864292
O O14 0.500000 0.224136 0.500000
O O15 0.606715 0.000000 0.696303
O O16 0.754350 0.216028 0.857968
O O17 0.416341 0.000000 0.965456
O O18 0.500000 0.791101 0.000000
O O19 0.486165 0.746740 0.108865
O O20 0.907533 0.000000 0.084800
O O21 0.564318 0.500000 0.264442
#
# Coordination Sequence:
#
# PCOD9148937 Si02
#       8
#     4   4   4   4   4   4   4   4
#     4   9  18  33  53  76  99 123 160 202 237 282
#     4   9  16  28  47  66  88 122 160 199 246 292
#     4   9  17  29  46  68  94 125 161 199 240 284
#     4   8  15  29  47  68  93 121 154 196 242 286
#     4   9  18  33  53  77 104 131 156 187 233 287
#     4  11  22  32  44  67  96 124 162 211 249 280
#     4   9  16  26  45  72  97 122 156 195 232 274
#     4  10  20  34  51  69  94 131 165 197 243 294
#
# _framework density 16.699735
#
# number of rings (size 3 to 8) (size 9 to 14) (size 15 to 20)
#    0.000    2.750    1.250    1.500    0.000    4.250 
#    0.000    0.625    0.000    4.500    0.000    5.250 
#    0.000    0.000    0.000    0.000    0.000    0.000 
#
# Total GULP energy -178200.114269 kJ/mol
# GULP energy per Si atom -5568.753571 kJ/mol
# Density = 1.666173 g / cm^3
# Si number density = 16.699735 Si / 1000 Ang^3
#
#
#
# Elastic Constant Matrix: (Units=GPa)
#
#
# Indices 1 2 3 4 5 6 
#
# 1 68.6284 22.5261 57.3332 0.0000 19.0900 0.0000
# 2 22.5261 16.3754 42.6355 0.0000 6.2372 0.0000
# 3 57.3332 42.6355 161.4976 0.0000 22.9554 0.0000
# 4 0.0000 0.0000 0.0000 22.5932 0.0000 2.5263
# 5 19.0900 6.2372 22.9554 0.0000 22.6959 0.0000
# 6 0.0000 0.0000 0.0000 2.5263 0.0000 11.5586
#
#
#
# Elastic Compliance Matrix: (Units=1/GPa)
#
#
# Indices 1 2 3 4 5 6 
#
# 1 0.031516 -0.044894 0.003127 0.000000 -0.017335 0.000000
# 2 -0.044894 0.259341 -0.055785 0.000000 0.022914 0.000000
# 3 0.003127 -0.055785 0.021027 0.000000 -0.008567 0.000000
# 4 0.000000 0.000000 0.000000 0.045370 0.000000 -0.009916
# 5 -0.017335 0.022914 -0.008567 0.000000 0.061009 0.000000
# 6 0.000000 0.000000 0.000000 -0.009916 0.000000 0.088683
#
#
# Mechanical properties :
#
#
# Convention : Reuss Voigt Hill
#
# Bulk Modulus (GPa) = 8.56311 54.61011 31.58661
# Shear Modulus (GPa) = 6.74786 19.63666 13.19226
#
# Velocity S-wave (km/s) = 2.01233 3.43281 2.81369
# Velocity P-wave (km/s) = 3.24625 6.96308 5.43243
#
# Compressibility (1/GPa) = 0.11677997
#
# Stress axis : x y z
#
# Youngs Moduli (GPa) = 31.72995 3.85593 47.55825
#
# Poissons Ratio (x) = 0.17311 -0.14874
# Poissons Ratio (y) = 1.42448 2.65305
# Poissons Ratio (z) = -0.09924 0.21510
#
# Static dielectric constant tensor:
#      x y z
#    x 1.555280 0.000000 0.038500 
#    y 0.000000 1.554180 0.000000 
#    z 0.038500 0.000000 1.589570 
# 
# From -- ./inp_files/52708.got.cif
#   From: 2010.05.17/outbox.cif.g08.bks.cpg/sg10_27_cif.got.tgz:52708.got - 2010.06.03 11:33:40.
