data_PCOD9148378
_publ_section_title
;
Structure prediction by ZEFSAII (Michael W. Deem and Ramdas Pophale) SiO2 
 PCOD9148378
Probable space group: P 2/M
;
_chemical_formula_sum "Si O2"
_cell_formula_units_Z 28
_cell_length_a 9.897329
_cell_length_b 7.627371
_cell_length_c 29.153188
_cell_angle_alpha 90.000000
_cell_angle_beta 39.047454
_cell_angle_gamma 90.000000
_cell_volume 1386.419142
_symmetry_space_group_name_H-M "P 2/M"
_symmetry_group_IT_number 10
_symmetry_cell_setting 'monoclinic'
loop_
_space_group_symop_operation_xyz
x,y,z
-x,y,-z
-x,-y,-z
x,-y,z
loop_
_atom_site_type_symbol
_atom_site_label
_atom_site_fract_x
_atom_site_fract_y
_atom_site_fract_z
Si Si1 0.132102 0.787844 0.897437
Si Si2 0.688486 0.212216 0.417376
Si Si3 0.784261 0.201055 0.824453
Si Si4 0.317167 0.785618 0.947840
Si Si5 0.826019 0.291893 0.708362
Si Si6 0.529683 0.297772 0.266699
Si Si7 0.749669 0.206119 0.299140
O O1 0.253469 0.735065 0.912508
O O2 0.260016 0.718777 0.820440
O O3 0.136493 0.000000 0.894346
O O4 0.884364 0.733173 0.967828
O O5 0.500000 0.277114 0.500000
O O6 0.672465 0.275194 0.368718
O O7 0.927126 0.263715 0.369993
O O8 0.677545 0.000000 0.420373
O O9 0.553654 0.279008 0.898541
O O10 0.786953 0.203950 0.768035
O O11 0.015230 0.281885 0.776031
O O12 0.781985 0.000000 0.842076
O O13 0.323143 0.000000 0.946280
O O14 0.787128 0.500000 0.725006
O O15 0.663416 0.222015 0.712870
O O16 0.478007 0.500000 0.287990
O O17 0.584086 0.221869 0.301717
O O18 0.790126 0.000000 0.295954
#
# Coordination Sequence:
#
# PCOD9148378 Si02
#       7
#     4   4   4   4   4   4   4
#     4   9  16  28  49  73  98 131 170 216 265 304
#     4   9  19  38  62  85 104 124 159 206 251 298
#     4   9  16  31  53  75  98 128 172 221 260 299
#     4   8  14  26  48  76  98 123 168 222 267 302
#     4  10  20  32  50  77 104 135 172 203 242 297
#     4  11  22  34  47  71 107 142 174 207 245 295
#     4   9  19  33  53  77 100 131 166 202 252 304
#
# _framework density 20.195913999999998
#
# number of rings (size 3 to 8) (size 9 to 14) (size 15 to 20)
#    0.000    2.714    1.429    2.571    0.000    4.286 
#    0.000    3.571    0.000    8.571    0.000    0.000 
#    0.000    0.000    0.000    0.000    0.000    0.000 
#
# Total GULP energy -156121.120328 kJ/mol
# GULP energy per Si atom -5575.754297 kJ/mol
# Density = 2.014995 g / cm^3
# Si number density = 20.195914 Si / 1000 Ang^3
#
#
#
# Elastic Constant Matrix: (Units=GPa)
#
#
# Indices 1 2 3 4 5 6 
#
# 1 93.7673 -7.7327 29.7045 0.0000 -2.5442 0.0000
# 2 -7.7327 39.5312 -10.0063 0.0000 2.0900 0.0000
# 3 29.7045 -10.0063 92.6763 0.0000 -8.6539 0.0000
# 4 0.0000 0.0000 0.0000 70.8625 0.0000 37.7093
# 5 -2.5442 2.0900 -8.6539 0.0000 17.2134 0.0000
# 6 0.0000 0.0000 0.0000 37.7093 0.0000 46.2591
#
#
#
# Elastic Compliance Matrix: (Units=1/GPa)
#
#
# Indices 1 2 3 4 5 6 
#
# 1 0.011947 0.001414 -0.003701 0.000000 -0.000267 0.000000
# 2 0.001414 0.026230 0.002204 0.000000 -0.001868 0.000000
# 3 -0.003701 0.002204 0.012736 0.000000 0.005588 0.000000
# 4 0.000000 0.000000 0.000000 0.024923 0.000000 -0.020317
# 5 -0.000267 -0.001868 0.005588 0.000000 0.061091 0.000000
# 6 0.000000 0.000000 0.000000 -0.020317 0.000000 0.038179
#
#
# Mechanical properties :
#
#
# Convention : Reuss Voigt Hill
#
# Bulk Modulus (GPa) = 19.70553 27.76731 23.73642
# Shear Modulus (GPa) = 26.01616 41.13429 33.57523
#
# Velocity S-wave (km/s) = 3.59303 4.51795 4.08177
# Velocity P-wave (km/s) = 5.19534 6.40270 5.83036
#
# Compressibility (1/GPa) = 0.05074719
#
# Stress axis : x y z
#
# Youngs Moduli (GPa) = 83.70566 38.12457 78.51482
#
# Poissons Ratio (x) = -0.05391 0.29061
# Poissons Ratio (y) = -0.11837 -0.17308
# Poissons Ratio (z) = 0.30982 -0.08404
#
# Static dielectric constant tensor:
#      x y z
#    x 1.715670 0.000000 -0.030620 
#    y 0.000000 1.768410 0.000000 
#    z -0.030620 0.000000 1.717530 
# 
# From -- ./inp_files/38027.got.cif
#   From: 2010.05.17/outbox.cif.g08.bks.cpg/sg10_20_cif.got.tgz:38027.got - 2010.06.03 11:33:40.
