data_PCOD9148717
_publ_section_title
;
Structure prediction by ZEFSAII (Michael W. Deem and Ramdas Pophale) SiO2 
 PCOD9148717
Probable space group: P 2/M
;
_chemical_formula_sum "Si O2"
_cell_formula_units_Z 32
_cell_length_a 13.143094
_cell_length_b 7.399305
_cell_length_c 23.380982
_cell_angle_alpha 90.000000
_cell_angle_beta 142.053801
_cell_angle_gamma 90.000000
_cell_volume 1398.204830
_symmetry_space_group_name_H-M "P 2/M"
_symmetry_group_IT_number 10
_symmetry_cell_setting 'monoclinic'
loop_
_space_group_symop_operation_xyz
x,y,z
-x,y,-z
-x,-y,-z
x,-y,z
loop_
_atom_site_type_symbol
_atom_site_label
_atom_site_fract_x
_atom_site_fract_y
_atom_site_fract_z
Si Si1 0.727379 0.297604 0.241050
Si Si2 0.472294 0.791895 0.305199
Si Si3 0.612460 0.783306 0.857858
Si Si4 0.682930 0.715342 0.098552
Si Si5 0.971313 0.216527 0.050453
Si Si6 0.817228 0.719469 0.401424
Si Si7 0.613485 0.220708 0.604390
Si Si8 0.036475 0.782910 0.201334
O O1 0.799173 0.500000 0.268035
O O2 0.536283 0.306366 0.174671
O O3 0.734015 0.207825 0.182919
O O4 0.801631 0.210096 0.330011
O O5 0.384847 0.720370 0.207696
O O6 0.665908 0.784079 0.373404
O O7 0.447405 0.720344 0.358708
O O8 0.416493 0.000000 0.284176
O O9 0.584180 0.000000 0.842470
O O10 0.775270 0.756594 0.967195
O O11 0.660365 0.500000 0.095940
O O12 0.847803 0.738656 0.134189
O O13 0.500000 0.784562 0.000000
O O14 0.061005 0.283389 0.146828
O O15 0.005574 0.000000 0.062628
O O16 0.000000 0.291013 0.000000
O O17 0.801507 0.500000 0.393605
O O18 0.000000 0.767471 0.500000
O O19 0.500000 0.280435 0.500000
O O20 0.808768 0.275156 0.690635
O O21 0.606676 0.000000 0.600107
O O22 0.043927 0.000000 0.203446
#
# Coordination Sequence:
#
# PCOD9148717 Si02
#       8
#     4   4   4   4   4   4   4   4
#     4   9  18  32  48  65  89 124 158 186 229 290
#     4   9  17  30  49  71  95 125 161 199 241 292
#     4   9  16  27  46  71  94 116 148 193 237 276
#     4  10  21  36  52  71 101 138 167 198 248 304
#     4   9  16  27  46  71  96 120 149 190 238 283
#     4   9  18  32  49  70  96 124 157 201 250 294
#     4   9  18  33  51  72 101 135 168 205 251 297
#     4  10  20  33  52  77 100 128 170 211 245 291
#
# _framework density 22.886489000000001
#
# number of rings (size 3 to 8) (size 9 to 14) (size 15 to 20)
#    0.000    2.750    0.000    1.500    0.000    5.000 
#    0.000    0.625    0.000    3.750    0.000    0.000 
#    0.000    0.000    0.000    0.000    0.000    0.000 
#
# Total GULP energy -178334.840965 kJ/mol
# GULP energy per Si atom -5572.963780 kJ/mol
# Density = 2.283440 g / cm^3
# Si number density = 22.886489 Si / 1000 Ang^3
#
#
#
# Elastic Constant Matrix: (Units=GPa)
#
#
# Indices 1 2 3 4 5 6 
#
# 1 105.9705 -12.2258 70.5126 0.0000 -18.1478 0.0000
# 2 -12.2258 64.7299 20.5375 0.0000 0.3743 0.0000
# 3 70.5126 20.5375 136.7398 0.0000 -1.4952 0.0000
# 4 0.0000 0.0000 0.0000 -16.6556 0.0000 13.8839
# 5 -18.1478 0.3743 -1.4952 0.0000 31.7323 0.0000
# 6 0.0000 0.0000 0.0000 13.8839 0.0000 13.8770
#
#
#
# Elastic Compliance Matrix: (Units=1/GPa)
#
#
# Indices 1 2 3 4 5 6 
#
# 1 0.019274 0.007032 -0.010881 0.000000 0.010427 0.000000
# 2 0.007032 0.018791 -0.006410 0.000000 0.003498 0.000000
# 3 -0.010881 -0.006410 0.013827 0.000000 -0.005496 0.000000
# 4 0.000000 0.000000 0.000000 -0.032737 0.000000 0.032753
# 5 0.010427 0.003498 -0.005496 0.000000 0.037177 0.000000
# 6 0.000000 0.000000 0.000000 0.032753 0.000000 0.039292
#
#
# Mechanical properties :
#
#
# Convention : Reuss Voigt Hill
#
# Bulk Modulus (GPa) = 31.87428 51.67653 41.77540
# Shear Modulus (GPa) = 39.49463 21.03180 30.26322
#
# Velocity S-wave (km/s) = 4.15863 3.03473 3.64031
# Velocity P-wave (km/s) = 6.08410 5.90829 5.99684
#
# Compressibility (1/GPa) = 0.03137326
#
# Stress axis : x y z
#
# Youngs Moduli (GPa) = 51.88354 53.21779 72.32242
#
# Poissons Ratio (x) = -0.37425 0.78695
# Poissons Ratio (y) = -0.36487 0.46362
# Poissons Ratio (z) = 0.56455 0.34115
#
# Static dielectric constant tensor:
#      x y z
#    x 1.884020 0.000000 0.011770 
#    y 0.000000 1.878360 0.000000 
#    z 0.011770 0.000000 1.934350 
# 
# From -- ./inp_files/83888.got.cif
#   From: 2010.05.17/outbox.cif.g08.bks.cpg/sg10_42_cif.got.tgz:83888.got - 2010.06.03 11:33:40.
