data_PCOD9148654
_publ_section_title
;
Structure prediction by ZEFSAII (Michael W. Deem and Ramdas Pophale) SiO2 
 PCOD9148654
Probable space group: P 2/M
;
_chemical_formula_sum "Si O2"
_cell_formula_units_Z 24
_cell_length_a 15.012811
_cell_length_b 16.292932
_cell_length_c 7.866423
_cell_angle_alpha 90.000000
_cell_angle_beta 141.810525
_cell_angle_gamma 90.000000
_cell_volume 1189.631721
_symmetry_space_group_name_H-M "P 2/M"
_symmetry_group_IT_number 10
_symmetry_cell_setting 'monoclinic'
loop_
_space_group_symop_operation_xyz
x,y,z
-x,y,-z
-x,-y,-z
x,-y,z
loop_
_atom_site_type_symbol
_atom_site_label
_atom_site_fract_x
_atom_site_fract_y
_atom_site_fract_z
Si Si1 0.833564 0.000000 0.042180
Si Si2 0.332890 0.162840 0.204263
Si Si3 0.165436 0.677153 0.544310
Si Si4 0.835122 0.500000 0.954915
Si Si5 0.165436 0.677153 0.951999
Si Si6 0.835122 0.500000 0.550452
Si Si7 0.833564 0.000000 0.458513
Si Si8 0.667110 0.162840 0.205594
O O1 0.832237 0.000000 0.248355
O O2 0.751447 0.918035 0.861869
O O3 1.000000 0.000000 0.239260
O O4 0.500000 0.159219 0.500000
O O5 0.258124 0.246442 0.155701
O O6 0.321859 0.163261 0.982788
O O7 0.158094 0.683906 0.737141
O O8 0.228580 0.587193 0.599523
O O9 0.258124 0.753558 0.618671
O O10 1.000000 0.680880 0.230696
O O11 0.771420 0.587193 0.913782
O O12 1.000000 0.500000 0.272581
O O13 0.841604 0.500000 0.762406
O O14 0.751447 0.081965 0.392472
O O15 0.500000 0.159219 0.000000
#
# Coordination Sequence:
#
# PCOD9148654 Si02
#       8
#     2   4   4   2   4   2   2   4
#     4   9  17  32  55  79 100 127 168 210 242 283
#     4  10  20  33  51  75 103 134 165 201 247 295
#     4   9  17  31  51  73  97 129 170 209 243 287
#     4   9  17  29  48  75 102 127 159 205 258 299
#     4   9  17  31  51  73  97 129 170 209 243 287
#     4   9  17  29  48  75 102 127 159 205 258 299
#     4   9  17  32  55  79 100 127 168 210 242 283
#     4  10  20  33  51  75 103 134 165 201 247 295
#
# _framework density 20.174312
#
# number of rings (size 3 to 8) (size 9 to 14) (size 15 to 20)
#    0.000    2.667    0.000    2.000    0.000    7.333 
#    0.000    0.833    0.000    4.000    0.000    0.000 
#    0.000    0.000    0.000    0.000    0.000    0.000 
#
# Total GULP energy -133893.420777 kJ/mol
# GULP energy per Si atom -5578.892532 kJ/mol
# Density = 2.012839 g / cm^3
# Si number density = 20.174312 Si / 1000 Ang^3
#
#
#
# Elastic Constant Matrix: (Units=GPa)
#
#
# Indices 1 2 3 4 5 6 
#
# 1 43.7794 45.0043 14.8327 0.0000 20.1402 0.0000
# 2 45.0043 257.3076 82.9427 0.0000 48.5855 0.0000
# 3 14.8327 82.9427 82.7166 0.0000 29.7238 0.0000
# 4 0.0000 0.0000 0.0000 -14.4958 0.0000 8.2770
# 5 20.1402 48.5855 29.7238 0.0000 34.6099 0.0000
# 6 0.0000 0.0000 0.0000 8.2770 0.0000 -20.9587
#
#
#
# Elastic Compliance Matrix: (Units=1/GPa)
#
#
# Indices 1 2 3 4 5 6 
#
# 1 0.033552 -0.003896 0.004253 0.000000 -0.017709 0.000000
# 2 -0.003896 0.006726 -0.005015 0.000000 -0.002868 0.000000
# 3 0.004253 -0.005015 0.021284 0.000000 -0.013714 0.000000
# 4 0.000000 0.000000 0.000000 -0.089070 0.000000 -0.035176
# 5 -0.017709 -0.002868 -0.013714 0.000000 0.055002 0.000000
# 6 0.000000 0.000000 0.000000 -0.035176 0.000000 -0.061604
#
#
# Mechanical properties :
#
#
# Convention : Reuss Voigt Hill
#
# Bulk Modulus (GPa) = 19.14003 74.37365 46.75684
# Shear Modulus (GPa) = -677.44444 15.89933 -330.77255
#
# Velocity S-wave (km/s) = -18.34461 2.81035 -12.81847
# Velocity P-wave (km/s) = 20.95690 6.89031 13.99491
#
# Compressibility (1/GPa) = 0.05224651
#
# Stress axis : x y z
#
# Youngs Moduli (GPa) = 29.80439 148.67899 46.98449
#
# Poissons Ratio (x) = 0.57920 -0.19984
# Poissons Ratio (y) = 0.11611 0.23564
# Poissons Ratio (z) = -0.12677 0.74566
#
# Static dielectric constant tensor:
#      x y z
#    x 1.716120 0.000000 -0.026980 
#    y 0.000000 1.733070 0.000000 
#    z -0.026980 0.000000 1.695050 
# 
# From -- ./inp_files/29755.got.cif
#   From: 2010.05.17/outbox.cif.g08.bks.cpg/sg10_15_cif.got.tgz:29755.got - 2010.06.03 11:33:40.
