data_PCOD9148299
_publ_section_title
;
Structure prediction by ZEFSAII (Michael W. Deem and Ramdas Pophale) SiO2 
 PCOD9148299
Probable space group: P 2/M
;
_chemical_formula_sum "Si O2"
_cell_formula_units_Z 32
_cell_length_a 21.373844
_cell_length_b 9.223859
_cell_length_c 9.485904
_cell_angle_alpha 90.000000
_cell_angle_beta 85.989641
_cell_angle_gamma 90.000000
_cell_volume 1865.560372
_symmetry_space_group_name_H-M "P 2/M"
_symmetry_group_IT_number 10
_symmetry_cell_setting 'monoclinic'
loop_
_space_group_symop_operation_xyz
x,y,z
-x,y,-z
-x,-y,-z
x,-y,z
loop_
_atom_site_type_symbol
_atom_site_label
_atom_site_fract_x
_atom_site_fract_y
_atom_site_fract_z
Si Si1 0.625527 0.324286 0.800481
Si Si2 0.437988 0.666621 0.910098
Si Si3 0.509451 0.173614 0.663976
Si Si4 0.881490 0.328108 0.543118
Si Si5 0.905145 0.828711 0.247112
Si Si6 0.969578 0.334625 0.794429
Si Si7 0.232536 0.676063 0.241564
Si Si8 0.153411 0.669333 0.991105
O O1 0.618077 0.500000 0.790365
O O2 0.572693 0.247245 0.714960
O O3 0.695786 0.282213 0.746302
O O4 0.614606 0.288569 0.968216
O O5 0.427317 0.500000 0.867386
O O6 0.454066 0.763913 0.772924
O O7 0.500000 0.667962 0.000000
O O8 0.500000 0.207629 0.500000
O O9 0.512952 0.000000 0.678850
O O10 0.876871 0.500000 0.511720
O O11 0.893774 0.238859 0.401968
O O12 0.937760 0.312495 0.646856
O O13 0.817745 0.280277 0.632441
O O14 0.974143 0.774325 0.190170
O O15 0.902335 0.000000 0.250127
O O16 0.855334 0.762835 0.145929
O O17 0.994412 0.500000 0.797831
O O18 0.912202 0.323708 0.912224
O O19 0.230237 0.500000 0.239515
O O20 0.205938 0.721110 0.093193
O O21 0.164363 0.500000 0.954957
#
# Coordination Sequence:
#
# PCOD9148299 Si02
#       8
#     4   4   4   4   4   4   4   4
#     4   9  17  32  55  79  99 121 158 205 247 287
#     4   8  15  28  48  74 100 125 155 196 241 279
#     4  10  20  32  47  72 106 139 167 194 228 276
#     4   9  18  34  54  72  93 125 164 202 241 290
#     4  12  23  31  44  71 103 130 157 196 248 297
#     4   9  18  33  53  73  91 120 164 206 245 294
#     4   8  16  34  58  77  91 118 164 208 242 284
#     4   9  18  34  54  72  93 123 160 203 246 289
#
# _framework density 17.153023000000001
#
# number of rings (size 3 to 8) (size 9 to 14) (size 15 to 20)
#    0.000    2.750    0.000    4.500    0.000    7.250 
#    0.000    4.375    0.000    6.000    0.000    0.000 
#    0.000    0.000    0.000    0.000    0.000    0.000 
#
# Total GULP energy -178387.524251 kJ/mol
# GULP energy per Si atom -5574.610133 kJ/mol
# Density = 1.711398 g / cm^3
# Si number density = 17.153023 Si / 1000 Ang^3
#
#
#
# Elastic Constant Matrix: (Units=GPa)
#
#
# Indices 1 2 3 4 5 6 
#
# 1 58.1461 20.8009 10.9439 0.0000 4.9356 0.0000
# 2 20.8009 64.9421 48.6417 0.0000 11.8120 0.0000
# 3 10.9439 48.6417 86.7173 0.0000 15.3694 0.0000
# 4 0.0000 0.0000 0.0000 -8.6012 0.0000 -10.2675
# 5 4.9356 11.8120 15.3694 0.0000 11.4497 0.0000
# 6 0.0000 0.0000 0.0000 -10.2675 0.0000 -8.8873
#
#
#
# Elastic Compliance Matrix: (Units=1/GPa)
#
#
# Indices 1 2 3 4 5 6 
#
# 1 0.019727 -0.007334 0.002349 0.000000 -0.004091 0.000000
# 2 -0.007334 0.030131 -0.014469 0.000000 -0.008501 0.000000
# 3 0.002349 -0.014469 0.022156 0.000000 -0.015827 0.000000
# 4 0.000000 0.000000 0.000000 0.306658 0.000000 -0.354284
# 5 -0.004091 -0.008501 -0.015827 0.000000 0.119117 0.000000
# 6 0.000000 0.000000 0.000000 -0.354284 0.000000 0.296787
#
#
# Mechanical properties :
#
#
# Convention : Reuss Voigt Hill
#
# Bulk Modulus (GPa) = 30.20533 41.17540 35.69036
# Shear Modulus (GPa) = 5.92054 7.42019 6.67036
#
# Velocity S-wave (km/s) = 1.85986 2.08213 1.97413
# Velocity P-wave (km/s) = 4.71802 5.46235 5.10377
#
# Compressibility (1/GPa) = 0.03310674
#
# Stress axis : x y z
#
# Youngs Moduli (GPa) = 50.69256 33.18875 45.13387
#
# Poissons Ratio (x) = 0.24341 -0.10604
# Poissons Ratio (y) = 0.37178 0.65303
# Poissons Ratio (z) = -0.11909 0.48020
#
# Static dielectric constant tensor:
#      x y z
#    x 1.596860 0.000000 -0.017780 
#    y 0.000000 1.566710 0.000000 
#    z -0.017780 0.000000 1.591580 
# 
# From -- ./inp_files/35690.got.cif
#   From: 2010.05.17/outbox.cif.g08.bks.cpg/sg10_18_cif.got.tgz:35690.got - 2010.06.03 11:33:40.
