data_PCOD9148613
_publ_section_title
;
Structure prediction by ZEFSAII (Michael W. Deem and Ramdas Pophale) SiO2 
 PCOD9148613
Probable space group: P 2/M
;
_chemical_formula_sum "Si O2"
_cell_formula_units_Z 32
_cell_length_a 15.524776
_cell_length_b 21.838058
_cell_length_c 16.146033
_cell_angle_alpha 90.000000
_cell_angle_beta 18.257025
_cell_angle_gamma 90.000000
_cell_volume 1714.897649
_symmetry_space_group_name_H-M "P 2/M"
_symmetry_group_IT_number 10
_symmetry_cell_setting 'monoclinic'
loop_
_space_group_symop_operation_xyz
x,y,z
-x,y,-z
-x,-y,-z
x,-y,z
loop_
_atom_site_type_symbol
_atom_site_label
_atom_site_fract_x
_atom_site_fract_y
_atom_site_fract_z
Si Si1 0.270581 0.768747 0.019489
Si Si2 0.689089 0.817587 0.507534
Si Si3 0.115038 0.072056 0.581472
Si Si4 0.860598 0.645347 0.931125
Si Si5 0.295916 0.574268 0.256249
Si Si6 0.347082 0.427152 0.403567
Si Si7 0.475072 0.122607 0.925638
Si Si8 0.793788 0.732724 0.262700
O O1 0.412007 0.795738 0.806299
O O2 0.273556 0.696212 0.007144
O O3 0.428798 0.805587 0.946268
O O4 0.949767 0.786672 0.316526
O O5 0.744379 0.888996 0.472950
O O6 0.714195 0.790710 0.393030
O O7 0.794477 0.089032 0.865166
O O8 0.150927 0.000000 0.557311
O O9 0.265932 0.096850 0.361063
O O10 0.066262 0.600392 0.695536
O O11 0.042224 0.684227 0.830098
O O12 0.611995 0.607464 0.198294
O O13 0.292861 0.500000 0.252691
O O14 0.360017 0.585663 0.293236
O O15 0.000000 0.597606 0.500000
O O16 0.500000 0.597635 0.000000
O O17 0.357765 0.500000 0.406530
O O18 0.500000 0.112264 0.000000
O O19 0.500000 0.707735 0.500000
O O20 0.000000 0.748718 0.000000
#
# Coordination Sequence:
#
# PCOD9148613 Si02
#       8
#     4   4   4   4   4   4   4   4
#     4   9  18  34  53  74 101 141 180 220 271 306
#     4   9  18  34  54  78 107 135 173 219 264 317
#     4  10  20  33  52  77 109 153 191 218 262 320
#     4  11  21  37  58  81 109 137 178 225 267 338
#     4   9  17  31  50  72 100 134 175 217 249 283
#     4  11  22  36  57  82 111 149 182 214 266 331
#     4  10  20  33  50  75 111 148 188 237 271 300
#     4  11  21  36  61  87 105 129 173 230 283 325
#
# _framework density 18.660005999999999
#
# number of rings (size 3 to 8) (size 9 to 14) (size 15 to 20)
#    0.000    2.000    0.000    5.625    0.000    3.500 
#    0.000    1.875    0.000   11.250    0.000    0.000 
#    0.000    0.000    0.000    0.000    0.000    0.000 
#
# Total GULP energy -178474.564778 kJ/mol
# GULP energy per Si atom -5577.330149 kJ/mol
# Density = 1.861754 g / cm^3
# Si number density = 18.660006 Si / 1000 Ang^3
#
#
#
# Elastic Constant Matrix: (Units=GPa)
#
#
# Indices 1 2 3 4 5 6 
#
# 1 48.4751 19.1609 5.2262 0.0000 4.0523 0.0000
# 2 19.1609 117.1077 11.2661 0.0000 -7.9908 0.0000
# 3 5.2262 11.2661 88.2175 0.0000 -2.2604 0.0000
# 4 0.0000 0.0000 0.0000 26.6822 0.0000 -3.5132
# 5 4.0523 -7.9908 -2.2604 0.0000 25.3737 0.0000
# 6 0.0000 0.0000 0.0000 -3.5132 0.0000 12.5041
#
#
#
# Elastic Compliance Matrix: (Units=1/GPa)
#
#
# Indices 1 2 3 4 5 6 
#
# 1 0.022714 -0.003962 -0.000967 0.000000 -0.004961 0.000000
# 2 -0.003962 0.009515 -0.000889 0.000000 0.003550 0.000000
# 3 -0.000967 -0.000889 0.011530 0.000000 0.000901 0.000000
# 4 0.000000 0.000000 0.000000 0.038918 0.000000 0.010935
# 5 -0.004961 0.003550 0.000901 0.000000 0.041402 0.000000
# 6 0.000000 0.000000 0.000000 0.010935 0.000000 0.083046
#
#
# Mechanical properties :
#
#
# Convention : Reuss Voigt Hill
#
# Bulk Modulus (GPa) = 31.13088 36.12297 33.62692
# Shear Modulus (GPa) = 21.78948 27.45513 24.62231
#
# Velocity S-wave (km/s) = 3.42088 3.83996 3.63646
# Velocity P-wave (km/s) = 5.68531 6.24987 5.97426
#
# Compressibility (1/GPa) = 0.03212245
#
# Stress axis : x y z
#
# Youngs Moduli (GPa) = 44.02539 105.09495 86.73341
#
# Poissons Ratio (x) = 0.41638 0.08385
# Poissons Ratio (y) = 0.17443 0.07715
# Poissons Ratio (z) = 0.04256 0.09348
#
# Static dielectric constant tensor:
#      x y z
#    x 1.652770 0.000000 -0.012470 
#    y 0.000000 1.653370 0.000000 
#    z -0.012470 0.000000 1.636460 
# 
# From -- ./inp_files/67927.got.cif
#   From: 2010.05.17/outbox.cif.g08.bks.cpg/sg10_34_cif.got.tgz:67927.got - 2010.06.03 11:33:40.
