data_PCOD9148219
_publ_section_title
;
Structure prediction by ZEFSAII (Michael W. Deem and Ramdas Pophale) SiO2 
 PCOD9148219
Probable space group: P 2/M
;
_chemical_formula_sum "Si O2"
_cell_formula_units_Z 26
_cell_length_a 5.368399
_cell_length_b 16.654522
_cell_length_c 21.189314
_cell_angle_alpha 90.000000
_cell_angle_beta 111.798256
_cell_angle_gamma 90.000000
_cell_volume 1759.034761
_symmetry_space_group_name_H-M "P 2/M"
_symmetry_group_IT_number 10
_symmetry_cell_setting 'monoclinic'
loop_
_space_group_symop_operation_xyz
x,y,z
-x,y,-z
-x,-y,-z
x,-y,z
loop_
_atom_site_type_symbol
_atom_site_label
_atom_site_fract_x
_atom_site_fract_y
_atom_site_fract_z
Si Si1 0.499610 0.902710 0.687960
Si Si2 0.400474 0.902193 0.921524
Si Si3 0.159147 0.593689 0.418792
Si Si4 0.786109 0.901996 0.843271
Si Si5 0.000000 0.191919 0.500000
Si Si6 0.120834 0.096541 0.391096
Si Si7 0.671236 0.659296 0.427468
O O1 0.652185 0.875049 0.765170
O O2 0.661248 0.877842 0.640345
O O3 0.184057 0.883483 0.659277
O O4 0.512274 0.000000 0.689050
O O5 0.604058 0.877210 0.885505
O O6 0.094977 0.876881 0.879462
O O7 0.400423 0.000000 0.921522
O O8 0.500000 0.876710 0.000000
O O9 0.194423 0.500000 0.409457
O O10 0.354888 0.646766 0.394025
O O11 0.250231 0.613081 0.499655
O O12 0.849629 0.619707 0.389769
O O13 0.785892 0.000000 0.842488
O O14 0.143329 0.138701 0.460757
O O15 0.217973 0.251621 0.551554
O O16 0.139076 0.000000 0.400316
#
# Coordination Sequence:
#
# PCOD9148219 Si02
#       7
#     4   4   4   4   2   4   4
#     4   9  18  30  42  54  62  79 111 143 175 212
#     4   9  15  21  32  51  71  89 102 113 142 190
#     4   9  14  24  38  54  72  90 108 122 138 188
#     4   9  15  24  36  48  67  85 101 129 155 185
#     4  10  21  32  41  54  72  86 106 148 195 232
#     4  10  20  32  44  53  63  82 114 150 190 232
#     4   9  17  24  36  54  71  90 105 124 166 208
#
# _framework density 14.780832999999999
#
# number of rings (size 3 to 8) (size 9 to 14) (size 15 to 20)
#    0.000    2.923    0.000    3.923    0.000   11.077 
#    0.000    2.308    0.000    0.000    0.000    0.000 
#    0.000    0.000    0.000    0.000    0.000    0.000 
#
# Total GULP energy -144809.205121 kJ/mol
# GULP energy per Si atom -5569.584812 kJ/mol
# Density = 1.474719 g / cm^3
# Si number density = 14.780833 Si / 1000 Ang^3
#
#
#
# Elastic Constant Matrix: (Units=GPa)
#
#
# Indices 1 2 3 4 5 6 
#
# 1 103.1329 15.7144 4.8024 0.0000 -16.0299 0.0000
# 2 15.7144 30.4711 14.1904 0.0000 0.2051 0.0000
# 3 4.8024 14.1904 32.2181 0.0000 -10.5936 0.0000
# 4 0.0000 0.0000 0.0000 -0.6420 0.0000 2.9355
# 5 -16.0299 0.2051 -10.5936 0.0000 18.8425 0.0000
# 6 0.0000 0.0000 0.0000 2.9355 0.0000 -5.2682
#
#
#
# Elastic Compliance Matrix: (Units=1/GPa)
#
#
# Indices 1 2 3 4 5 6 
#
# 1 0.013469 -0.010800 0.008042 0.000000 0.016098 0.000000
# 2 -0.010800 0.052759 -0.030470 0.000000 -0.026893 0.000000
# 3 0.008042 -0.030470 0.055965 0.000000 0.038638 0.000000
# 4 0.000000 0.000000 0.000000 1.006334 0.000000 0.560746
# 5 0.016098 -0.026893 0.038638 0.000000 0.088782 0.000000
# 6 0.000000 0.000000 0.000000 0.560746 0.000000 0.122638
#
#
# Mechanical properties :
#
#
# Convention : Reuss Voigt Hill
#
# Bulk Modulus (GPa) = 17.94152 26.13740 22.03946
# Shear Modulus (GPa) = 3.50882 11.32745 7.41814
#
# Velocity S-wave (km/s) = 1.54242 2.77133 2.24269
# Velocity P-wave (km/s) = 3.91622 5.28791 4.65289
#
# Compressibility (1/GPa) = 0.05573664
#
# Stress axis : x y z
#
# Youngs Moduli (GPa) = 74.24227 18.95425 17.86843
#
# Poissons Ratio (x) = 0.20470 -0.14370
# Poissons Ratio (y) = 0.80181 0.54446
# Poissons Ratio (z) = -0.59707 0.57754
#
# Static dielectric constant tensor:
#      x y z
#    x 1.577510 0.000000 0.013850 
#    y 0.000000 1.475160 0.000000 
#    z 0.013850 0.000000 1.492770 
# 
# From -- ./inp_files/73363.got.cif
#   From: 2010.05.17/outbox.cif.g08.bks.cpg/sg10_37_cif.got.tgz:73363.got - 2010.06.03 11:33:40.
