data_PCOD9148346
_publ_section_title
;
Structure prediction by ZEFSAII (Michael W. Deem and Ramdas Pophale) SiO2 
 PCOD9148346
Probable space group: P 2/M
;
_chemical_formula_sum "Si O2"
_cell_formula_units_Z 20
_cell_length_a 9.187890
_cell_length_b 13.557297
_cell_length_c 7.122931
_cell_angle_alpha 90.000000
_cell_angle_beta 102.074268
_cell_angle_gamma 90.000000
_cell_volume 867.624866
_symmetry_space_group_name_H-M "P 2/M"
_symmetry_group_IT_number 10
_symmetry_cell_setting 'monoclinic'
loop_
_space_group_symop_operation_xyz
x,y,z
-x,y,-z
-x,-y,-z
x,-y,z
loop_
_atom_site_type_symbol
_atom_site_label
_atom_site_fract_x
_atom_site_fract_y
_atom_site_fract_z
Si Si1 0.329207 0.000000 0.011884
Si Si2 0.289651 0.390063 0.116592
Si Si3 0.175277 0.215146 0.577730
Si Si4 0.178249 0.000000 0.563583
Si Si5 0.370934 0.391013 0.692489
Si Si6 0.168463 0.813802 0.020651
O O1 0.233112 0.000000 0.793747
O O2 0.282733 0.099916 0.104107
O O3 0.500000 0.000000 0.000000
O O4 0.229232 0.500000 0.145306
O O5 0.451520 0.377699 0.254892
O O6 0.323128 0.391119 0.900291
O O7 0.191829 0.292396 0.123912
O O8 0.220497 0.109156 0.502219
O O9 0.280827 0.306576 0.562549
O O10 0.192001 0.202973 0.806156
O O11 0.000000 0.233934 0.500000
O O12 0.000000 0.000000 0.500000
O O13 0.336870 0.500000 0.608887
O O14 0.000000 0.849163 0.000000
#
# Coordination Sequence:
#
# PCOD9148346 Si02
#       6
#     2   4   4   2   4   4
#     4  10  21  31  52  79  99 126 169 210 240 285
#     4   8  15  27  45  68  96 126 158 198 243 287
#     4   9  17  29  47  69  93 128 165 194 234 295
#     4   8  16  29  44  69  94 124 151 194 239 287
#     4   8  14  25  43  68  94 120 159 207 237 270
#     4  10  20  32  49  74 103 126 154 203 252 286
#
# _framework density 23.051438000000001
#
# number of rings (size 3 to 8) (size 9 to 14) (size 15 to 20)
#    0.000    3.200    0.000    1.500    8.400    0.800 
#    0.000    0.000    0.000    1.200    0.000   11.200 
#    0.000    0.000    0.000    0.000    0.000    0.000 
#
# Total GULP energy -111614.611129 kJ/mol
# GULP energy per Si atom -5580.730556 kJ/mol
# Density = 2.299897 g / cm^3
# Si number density = 23.051438 Si / 1000 Ang^3
#
#
#
# Elastic Constant Matrix: (Units=GPa)
#
#
# Indices 1 2 3 4 5 6 
#
# 1 59.0723 68.7869 11.3353 0.0000 -2.5738 0.0000
# 2 68.7869 241.8526 39.9801 0.0000 44.1663 0.0000
# 3 11.3353 39.9801 90.6842 0.0000 -4.5908 0.0000
# 4 0.0000 0.0000 0.0000 24.0841 0.0000 18.9431
# 5 -2.5738 44.1663 -4.5908 0.0000 28.8387 0.0000
# 6 0.0000 0.0000 0.0000 18.9431 0.0000 31.5823
#
#
#
# Elastic Compliance Matrix: (Units=1/GPa)
#
#
# Indices 1 2 3 4 5 6 
#
# 1 0.036363 -0.016285 0.004094 0.000000 0.028838 0.000000
# 2 -0.016285 0.013976 -0.005326 0.000000 -0.023705 0.000000
# 3 0.004094 -0.005326 0.013403 0.000000 0.010656 0.000000
# 4 0.000000 0.000000 0.000000 0.078604 0.000000 -0.047147
# 5 0.028838 -0.023705 0.010656 0.000000 0.075251 0.000000
# 6 0.000000 0.000000 0.000000 -0.047147 0.000000 0.059942
#
#
# Mechanical properties :
#
#
# Convention : Reuss Voigt Hill
#
# Bulk Modulus (GPa) = 34.83375 70.20153 52.51764
# Shear Modulus (GPa) = 15.52112 35.00146 25.26129
#
# Velocity S-wave (km/s) = 2.59767 3.90090 3.31398
# Velocity P-wave (km/s) = 4.91338 7.12810 6.12173
#
# Compressibility (1/GPa) = 0.02870779
#
# Stress axis : x y z
#
# Youngs Moduli (GPa) = 27.50078 71.55125 74.60972
#
# Poissons Ratio (x) = 1.16523 -0.30548
# Poissons Ratio (y) = 0.44786 0.39738
# Poissons Ratio (z) = -0.11260 0.38109
#
# Static dielectric constant tensor:
#      x y z
#    x 1.826520 0.000000 -0.053630 
#    y 0.000000 1.935450 0.000000 
#    z -0.053630 0.000000 1.869440 
# 
# From -- ./inp_files/18644.got.cif
#   From: 2010.05.17/outbox.cif.g08.bks.cpg/sg10_10_cif.got.tgz:18644.got - 2010.06.03 11:33:40.
