data_PCOD9148662
_publ_section_title
;
Structure prediction by ZEFSAII (Michael W. Deem and Ramdas Pophale) SiO2 
 PCOD9148662
Probable space group: P 2/M
;
_chemical_formula_sum "Si O2"
_cell_formula_units_Z 32
_cell_length_a 11.104217
_cell_length_b 9.373218
_cell_length_c 30.269751
_cell_angle_alpha 90.000000
_cell_angle_beta 150.271505
_cell_angle_gamma 90.000000
_cell_volume 1562.325017
_symmetry_space_group_name_H-M "P 2/M"
_symmetry_group_IT_number 10
_symmetry_cell_setting 'monoclinic'
loop_
_space_group_symop_operation_xyz
x,y,z
-x,y,-z
-x,-y,-z
x,-y,z
loop_
_atom_site_type_symbol
_atom_site_label
_atom_site_fract_x
_atom_site_fract_y
_atom_site_fract_z
Si Si1 0.342916 0.839487 0.505952
Si Si2 0.057937 0.337185 0.348474
Si Si3 0.237932 0.667876 0.311859
Si Si4 0.579002 0.334119 0.256280
Si Si5 0.591293 0.827682 0.960809
Si Si6 0.100407 0.171512 0.859462
Si Si7 0.712067 0.163231 0.902874
Si Si8 0.131177 0.161713 0.584458
O O1 0.253278 0.769063 0.431820
O O2 0.522067 0.742677 0.592120
O O3 0.088496 0.848911 0.451010
O O4 0.440859 0.000000 0.532760
O O5 0.142147 0.500000 0.383428
O O6 0.050761 0.317239 0.293713
O O7 0.804133 0.321108 0.293044
O O8 0.276571 0.500000 0.316122
O O9 0.124942 0.746935 0.233772
O O10 0.534107 0.500000 0.249765
O O11 0.362349 0.255141 0.162713
O O12 0.662125 0.254979 0.327189
O O13 0.336744 0.798921 0.903880
O O14 0.608349 0.776232 0.916069
O O15 0.611822 0.000000 0.964779
O O16 0.810120 0.782885 0.063200
O O17 0.059919 0.000000 0.846395
O O18 0.621694 0.000000 0.867845
O O19 0.000000 0.158312 0.000000
O O20 0.000000 0.225901 0.500000
O O21 0.216192 0.000000 0.600880
#
# Coordination Sequence:
#
# PCOD9148662 Si02
#       8
#     4   4   4   4   4   4   4   4
#     4  10  20  33  51  76 102 131 171 216 257 301
#     4   9  19  34  51  72 103 141 172 206 255 308
#     4  11  21  32  47  73 109 141 169 202 253 314
#     4  10  20  35  56  81 107 137 176 218 263 314
#     4   8  16  33  55  76  98 130 173 221 266 306
#     4   9  17  32  54  75  98 131 175 220 259 305
#     4  10  20  35  55  79 107 139 176 220 270 319
#     4   9  19  38  60  79 101 135 179 222 261 307
#
# _framework density 20.482292999999999
#
# number of rings (size 3 to 8) (size 9 to 14) (size 15 to 20)
#    0.000    2.500    0.000    3.000    0.000    4.000 
#    2.250    1.875    0.000    0.000    0.000    0.000 
#    0.000    0.000    0.000    0.000    0.000    0.000 
#
# Total GULP energy -178561.879894 kJ/mol
# GULP energy per Si atom -5580.058747 kJ/mol
# Density = 2.043567 g / cm^3
# Si number density = 20.482293 Si / 1000 Ang^3
#
#
#
# Elastic Constant Matrix: (Units=GPa)
#
#
# Indices 1 2 3 4 5 6 
#
# 1 15.3052 1.6300 -1.0654 0.0000 -12.9159 0.0000
# 2 1.6300 92.3112 76.5400 0.0000 -14.5965 0.0000
# 3 -1.0654 76.5400 139.5048 0.0000 -34.2428 0.0000
# 4 0.0000 0.0000 0.0000 -47.5432 0.0000 33.4639
# 5 -12.9159 -14.5965 -34.2428 0.0000 28.5184 0.0000
# 6 0.0000 0.0000 0.0000 33.4639 0.0000 -6.0869
#
#
#
# Elastic Compliance Matrix: (Units=1/GPa)
#
#
# Indices 1 2 3 4 5 6 
#
# 1 0.162177 -0.016270 0.037078 0.000000 0.109643 0.000000
# 2 -0.016270 0.021857 -0.015851 0.000000 -0.015214 0.000000
# 3 0.037078 -0.015851 0.025917 0.000000 0.039799 0.000000
# 4 0.000000 0.000000 0.000000 0.007330 0.000000 0.040296
# 5 0.109643 -0.015214 0.039799 0.000000 0.124722 0.000000
# 6 0.000000 0.000000 0.000000 0.040296 0.000000 0.057250
#
#
# Mechanical properties :
#
#
# Convention : Reuss Voigt Hill
#
# Bulk Modulus (GPa) = 4.54822 44.59226 24.57024
# Shear Modulus (GPa) = 10.80783 6.31210 8.55996
#
# Velocity S-wave (km/s) = 2.29959 1.75739 2.04653
# Velocity P-wave (km/s) = 3.04569 5.09277 4.19598
#
# Compressibility (1/GPa) = 0.21986620
#
# Stress axis : x y z
#
# Youngs Moduli (GPa) = 6.16609 45.75162 38.58492
#
# Poissons Ratio (x) = 0.74437 -1.43065
# Poissons Ratio (y) = 0.10032 0.61160
# Poissons Ratio (z) = -0.22863 0.72519
#
# Static dielectric constant tensor:
#      x y z
#    x 1.803060 0.000000 -0.002660 
#    y 0.000000 1.705240 0.000000 
#    z -0.002660 0.000000 1.712890 
# 
# From -- ./inp_files/95086.got.cif
#   From: 2010.05.17/outbox.cif.g08.bks.cpg/sg10_48_cif.got.tgz:95086.got - 2010.06.03 11:33:40.
