data_PCOD9148632
_publ_section_title
;
Structure prediction by ZEFSAII (Michael W. Deem and Ramdas Pophale) SiO2 
 PCOD9148632
Probable space group: P 2/M
;
_chemical_formula_sum "Si O2"
_cell_formula_units_Z 28
_cell_length_a 8.178244
_cell_length_b 7.646632
_cell_length_c 20.868271
_cell_angle_alpha 90.000000
_cell_angle_beta 124.714503
_cell_angle_gamma 90.000000
_cell_volume 1072.725229
_symmetry_space_group_name_H-M "P 2/M"
_symmetry_group_IT_number 10
_symmetry_cell_setting 'monoclinic'
loop_
_space_group_symop_operation_xyz
x,y,z
-x,y,-z
-x,-y,-z
x,-y,z
loop_
_atom_site_type_symbol
_atom_site_label
_atom_site_fract_x
_atom_site_fract_y
_atom_site_fract_z
Si Si1 0.901175 0.214007 0.882133
Si Si2 0.298005 0.209515 0.029264
Si Si3 0.491088 0.797961 0.588063
Si Si4 0.087699 0.205924 0.447212
Si Si5 0.671598 0.298021 0.311340
Si Si6 0.141998 0.207130 0.265148
Si Si7 0.315834 0.292859 0.823851
O O1 0.812131 0.278247 0.795678
O O2 0.788614 0.269469 0.921075
O O3 0.898054 0.000000 0.880495
O O4 0.132003 0.271089 0.941965
O O5 0.529443 0.254473 0.084876
O O6 0.289905 0.000000 0.025015
O O7 0.312887 0.722967 0.504639
O O8 0.407354 0.795150 0.642705
O O9 0.711328 0.720552 0.647471
O O10 0.506715 0.000000 0.571894
O O11 0.000000 0.217544 0.500000
O O12 0.913553 0.289323 0.366640
O O13 0.095954 0.000000 0.431713
O O14 0.613985 0.500000 0.304680
O O15 0.608862 0.222176 0.228545
O O16 0.906759 0.226442 0.218130
O O17 0.181791 0.000000 0.273998
O O18 0.304343 0.500000 0.814358
#
# Coordination Sequence:
#
# PCOD9148632 Si02
#       7
#     4   4   4   4   4   4   4
#     4   8  16  32  57  85 103 121 163 214 251 296
#     4   9  17  34  59  81 101 128 163 207 257 301
#     4   9  18  33  55  81 103 125 163 213 257 299
#     4   8  15  29  50  77 104 126 158 209 257 296
#     4  10  20  33  51  74 101 135 172 207 247 299
#     4  10  20  35  54  75 101 135 171 205 248 301
#     4  11  24  37  47  70 107 140 173 209 245 293
#
# _framework density 26.101745000000001
#
# number of rings (size 3 to 8) (size 9 to 14) (size 15 to 20)
#    0.000    2.714    0.000    3.429    0.000    7.143 
#    0.000    6.429    0.000    4.286    0.000    0.000 
#    0.000    0.000    0.000    0.000    0.000    0.000 
#
# Total GULP energy -156486.447311 kJ/mol
# GULP energy per Si atom -5588.801690 kJ/mol
# Density = 2.604234 g / cm^3
# Si number density = 26.101745 Si / 1000 Ang^3
#
#
#
# Elastic Constant Matrix: (Units=GPa)
#
#
# Indices 1 2 3 4 5 6 
#
# 1 74.8589 -4.2814 30.7978 0.0000 19.3658 0.0000
# 2 -4.2814 58.1821 14.2148 0.0000 -0.5420 0.0000
# 3 30.7978 14.2148 200.2827 0.0000 26.2423 0.0000
# 4 0.0000 0.0000 0.0000 18.5509 0.0000 -20.9996
# 5 19.3658 -0.5420 26.2423 0.0000 53.8042 0.0000
# 6 0.0000 0.0000 0.0000 -20.9996 0.0000 -28.7715
#
#
#
# Elastic Compliance Matrix: (Units=1/GPa)
#
#
# Indices 1 2 3 4 5 6 
#
# 1 0.015413 0.001549 -0.001875 0.000000 -0.004618 0.000000
# 2 0.001549 0.017682 -0.001542 0.000000 0.000373 0.000000
# 3 -0.001875 -0.001542 0.005666 0.000000 -0.002104 0.000000
# 4 0.000000 0.000000 0.000000 0.029518 0.000000 -0.021544
# 5 -0.004618 0.000373 -0.002104 0.000000 0.021278 0.000000
# 6 0.000000 0.000000 0.000000 -0.021544 0.000000 -0.019032
#
#
# Mechanical properties :
#
#
# Convention : Reuss Voigt Hill
#
# Bulk Modulus (GPa) = 28.55058 46.08736 37.31897
# Shear Modulus (GPa) = 58.18315 28.22288 43.20302
#
# Velocity S-wave (km/s) = 4.72645 3.29183 4.07280
# Velocity P-wave (km/s) = 6.38339 5.66951 6.03701
#
# Compressibility (1/GPa) = 0.03502556
#
# Stress axis : x y z
#
# Youngs Moduli (GPa) = 64.88027 56.55593 176.47774
#
# Poissons Ratio (x) = -0.08762 0.33090
# Poissons Ratio (y) = -0.10052 0.27213
# Poissons Ratio (z) = 0.12165 0.08721
#
# Static dielectric constant tensor:
#      x y z
#    x 2.155220 0.000000 0.030800 
#    y 0.000000 1.946450 0.000000 
#    z 0.030800 0.000000 2.080470 
# 
# From -- ./inp_files/92076.got.cif
#   From: 2010.05.17/outbox.cif.g08.bks.cpg/sg10_47_cif.got.tgz:92076.got - 2010.06.03 11:33:40.
