data_PCOD9148884
_publ_section_title
;
Structure prediction by ZEFSAII (Michael W. Deem and Ramdas Pophale) SiO2 
 PCOD9148884
Probable space group: P 2/M
;
_chemical_formula_sum "Si O2"
_cell_formula_units_Z 32
_cell_length_a 12.767962
_cell_length_b 13.913318
_cell_length_c 14.824496
_cell_angle_alpha 90.000000
_cell_angle_beta 140.235743
_cell_angle_gamma 90.000000
_cell_volume 1684.462142
_symmetry_space_group_name_H-M "P 2/M"
_symmetry_group_IT_number 10
_symmetry_cell_setting 'monoclinic'
loop_
_space_group_symop_operation_xyz
x,y,z
-x,y,-z
-x,-y,-z
x,-y,z
loop_
_atom_site_type_symbol
_atom_site_label
_atom_site_fract_x
_atom_site_fract_y
_atom_site_fract_z
Si Si1 0.830195 0.287656 0.706958
Si Si2 0.249610 0.610789 0.526883
Si Si3 0.622924 0.607706 0.706458
Si Si4 0.818945 0.111284 0.238616
Si Si5 0.616764 0.268203 0.995303
Si Si6 0.148256 0.611339 0.967051
Si Si7 0.805008 0.110115 0.573682
Si Si8 0.683543 0.212852 0.323314
O O1 0.842337 0.347683 0.621277
O O2 0.676987 0.320531 0.664736
O O3 0.811290 0.178218 0.664610
O O4 0.992747 0.318769 0.867335
O O5 0.209879 0.500000 0.519394
O O6 0.440822 0.617260 0.624304
O O7 0.232553 0.684630 0.598195
O O8 0.639746 0.500000 0.679078
O O9 0.746858 0.616134 0.872125
O O10 0.779196 0.152957 0.310913
O O11 0.011727 0.114886 0.346515
O O12 0.765640 0.000000 0.196858
O O13 0.722682 0.179824 0.105109
O O14 0.495570 0.232604 0.836107
O O15 0.500000 0.301566 0.000000
O O16 0.734624 0.350046 0.034919
O O17 0.098178 0.500000 0.921155
O O18 0.687239 0.155675 0.419849
O O19 0.764716 0.000000 0.565761
#
# Coordination Sequence:
#
# PCOD9148884 Si02
#       8
#     4   4   4   4   4   4   4   4
#     4  11  21  35  58  83 111 144 186 234 275 321
#     4  10  20  35  55  82 115 148 182 221 273 337
#     4  10  20  35  58  83 110 148 187 225 273 329
#     4  10  20  37  59  81 107 141 187 235 279 330
#     4  10  21  36  54  83 112 146 182 227 280 327
#     4  11  21  36  56  83 114 145 187 227 270 329
#     4  10  21  37  59  82 109 144 183 232 284 332
#     4  10  20  33  57  82 111 142 182 224 275 325
#
# _framework density 18.997161999999999
#
# number of rings (size 3 to 8) (size 9 to 14) (size 15 to 20)
#    0.000    1.750    2.500    2.625    0.000    6.000 
#    0.000    1.875    0.000   10.500    0.000    0.000 
#    0.000    0.000    0.000    0.000    0.000    0.000 
#
# Total GULP energy -178705.093121 kJ/mol
# GULP energy per Si atom -5584.534160 kJ/mol
# Density = 1.895392 g / cm^3
# Si number density = 18.997162 Si / 1000 Ang^3
#
#
#
# Elastic Constant Matrix: (Units=GPa)
#
#
# Indices 1 2 3 4 5 6 
#
# 1 36.9404 16.6475 -12.7789 0.0000 -3.9439 0.0000
# 2 16.6475 122.6327 9.6781 0.0000 -19.3083 0.0000
# 3 -12.7789 9.6781 56.5710 0.0000 -1.4885 0.0000
# 4 0.0000 0.0000 0.0000 13.1622 0.0000 -2.2154
# 5 -3.9439 -19.3083 -1.4885 0.0000 17.8769 0.0000
# 6 0.0000 0.0000 0.0000 -2.2154 0.0000 27.8423
#
#
#
# Elastic Compliance Matrix: (Units=1/GPa)
#
#
# Indices 1 2 3 4 5 6 
#
# 1 0.032252 -0.004571 0.008143 0.000000 0.002856 0.000000
# 2 -0.004571 0.010586 -0.002575 0.000000 0.010211 0.000000
# 3 0.008143 -0.002575 0.019975 0.000000 0.000678 0.000000
# 4 0.000000 0.000000 0.000000 0.077007 0.000000 0.006127
# 5 0.002856 0.010211 0.000678 0.000000 0.067653 0.000000
# 6 0.000000 0.000000 0.000000 0.006127 0.000000 0.036404
#
#
# Mechanical properties :
#
#
# Convention : Reuss Voigt Hill
#
# Bulk Modulus (GPa) = 15.43068 27.02640 21.22854
# Shear Modulus (GPa) = 18.97639 25.28278 22.12958
#
# Velocity S-wave (km/s) = 3.16398 3.65207 3.41675
# Velocity P-wave (km/s) = 4.63551 5.66047 5.17343
#
# Compressibility (1/GPa) = 0.06480595
#
# Stress axis : x y z
#
# Youngs Moduli (GPa) = 31.00544 94.46603 50.06351
#
# Poissons Ratio (x) = 0.43183 -0.40765
# Poissons Ratio (y) = 0.14173 0.12891
# Poissons Ratio (z) = -0.25247 0.24324
#
# Static dielectric constant tensor:
#      x y z
#    x 1.657670 0.000000 0.014620 
#    y 0.000000 1.652300 0.000000 
#    z 0.014620 0.000000 1.678170 
# 
# From -- ./inp_files/67369.got.cif
#   From: 2010.05.17/outbox.cif.g08.bks.cpg/sg10_34_cif.got.tgz:67369.got - 2010.06.03 11:33:40.
