data_PCOD9148474
_publ_section_title
;
Structure prediction by ZEFSAII (Michael W. Deem and Ramdas Pophale) SiO2 
 PCOD9148474
Probable space group: P 2/M
;
_chemical_formula_sum "Si O2"
_cell_formula_units_Z 24
_cell_length_a 13.224152
_cell_length_b 22.388130
_cell_length_c 10.640923
_cell_angle_alpha 90.000000
_cell_angle_beta 158.393197
_cell_angle_gamma 90.000000
_cell_volume 1160.085384
_symmetry_space_group_name_H-M "P 2/M"
_symmetry_group_IT_number 10
_symmetry_cell_setting 'monoclinic'
loop_
_space_group_symop_operation_xyz
x,y,z
-x,y,-z
-x,-y,-z
x,-y,z
loop_
_atom_site_type_symbol
_atom_site_label
_atom_site_fract_x
_atom_site_fract_y
_atom_site_fract_z
Si Si1 0.000000 0.798469 0.500000
Si Si2 0.534960 0.000000 0.387403
Si Si3 0.535137 0.370172 0.889109
Si Si4 0.680998 0.500000 0.084263
Si Si5 0.156125 0.105705 0.857047
Si Si6 0.016565 0.296010 0.318633
Si Si7 0.234178 0.000000 0.602229
Si Si8 0.810307 0.800778 0.899310
O O1 0.792921 0.843096 0.188227
O O2 0.130701 0.754848 0.546419
O O3 0.500000 0.000000 0.500000
O O4 0.787386 0.000000 0.578348
O O5 0.391739 0.060155 0.170133
O O6 0.255872 0.335185 0.531307
O O7 0.500000 0.370793 0.000000
O O8 0.592876 0.438563 0.915066
O O9 0.802506 0.335274 0.150858
O O10 0.000000 0.500000 0.500000
O O11 0.500000 0.500000 0.000000
O O12 0.917841 0.061156 0.539701
O O13 0.082973 0.144120 0.894619
O O14 0.840533 0.259001 0.015342
O O15 0.500000 0.000000 0.000000
O O16 0.500000 0.811992 0.500000
O O17 0.000000 0.794491 0.000000
#
# Coordination Sequence:
#
# PCOD9148474 Si02
#       8
#     2   2   4   2   4   4   2   4
#     4  10  20  41  54  89 120 160 200 254 312 392
#     4  11  24  41  64  86 118 158 206 266 326 382
#     4  11  19  36  58  92 133 166 209 249 310 377
#     4  10  20  32  56  90 134 180 206 254 308 373
#     4  10  24  40  64  87 121 158 206 260 324 388
#     4  11  22  38  62  91 126 171 206 257 316 373
#     4  11  24  43  64  90 121 159 208 265 330 390
#     4  11  25  44  64  91 124 162 218 266 316 375
#
# _framework density 20.688133000000001
#
# number of rings (size 3 to 8) (size 9 to 14) (size 15 to 20)
#    0.000    1.333    1.667    4.500    4.667    2.000 
#   12.000    0.000    0.000    0.000    0.000   11.667 
#    0.000    0.000    0.000    0.000    0.000    0.000 
#
# Total GULP energy -133769.143052 kJ/mol
# GULP energy per Si atom -5573.714294 kJ/mol
# Density = 2.064105 g / cm^3
# Si number density = 20.688133 Si / 1000 Ang^3
#
#
#
# Elastic Constant Matrix: (Units=GPa)
#
#
# Indices 1 2 3 4 5 6 
#
# 1 92.9910 41.9777 23.8361 0.0000 2.6485 0.0000
# 2 41.9777 173.8038 48.9961 0.0000 2.9987 0.0000
# 3 23.8361 48.9961 87.5117 0.0000 9.3683 0.0000
# 4 0.0000 0.0000 0.0000 271.9298 0.0000 66.8994
# 5 2.6485 2.9987 9.3683 0.0000 30.0632 0.0000
# 6 0.0000 0.0000 0.0000 66.8994 0.0000 26.5541
#
#
#
# Elastic Compliance Matrix: (Units=1/GPa)
#
#
# Indices 1 2 3 4 5 6 
#
# 1 0.012363 -0.002422 -0.001987 0.000000 -0.000228 0.000000
# 2 -0.002422 0.007314 -0.003497 0.000000 0.000573 0.000000
# 3 -0.001987 -0.003497 0.014349 0.000000 -0.003947 0.000000
# 4 0.000000 0.000000 0.000000 0.009673 0.000000 -0.024369
# 5 -0.000228 0.000573 -0.003947 0.000000 0.034456 0.000000
# 6 0.000000 0.000000 0.000000 -0.024369 0.000000 0.099052
#
#
# Mechanical properties :
#
#
# Convention : Reuss Voigt Hill
#
# Bulk Modulus (GPa) = 54.90137 64.88068 59.89103
# Shear Modulus (GPa) = 25.11424 81.67586 53.39505
#
# Velocity S-wave (km/s) = 3.48795 6.29009 5.08582
# Velocity P-wave (km/s) = 6.54342 9.17513 7.96867
#
# Compressibility (1/GPa) = 0.01821448
#
# Stress axis : x y z
#
# Youngs Moduli (GPa) = 80.88779 136.71544 69.69269
#
# Poissons Ratio (x) = 0.33110 0.13848
# Poissons Ratio (y) = 0.19590 0.24371
# Poissons Ratio (z) = 0.16072 0.47809
#
# Static dielectric constant tensor:
#      x y z
#    x 1.816060 0.000000 0.024800 
#    y 0.000000 1.790410 0.000000 
#    z 0.024800 0.000000 1.790810 
# 
# From -- ./inp_files/52093.got.cif
#   From: 2010.05.17/outbox.cif.g08.bks.cpg/sg10_27_cif.got.tgz:52093.got - 2010.06.03 11:33:40.
