data_PCOD9148707
_publ_section_title
;
Structure prediction by ZEFSAII (Michael W. Deem and Ramdas Pophale) SiO2 
 PCOD9148707
Probable space group: P 2/M
;
_chemical_formula_sum "Si O2"
_cell_formula_units_Z 32
_cell_length_a 27.376255
_cell_length_b 7.339721
_cell_length_c 21.041047
_cell_angle_alpha 90.000000
_cell_angle_beta 19.268442
_cell_angle_gamma 90.000000
_cell_volume 1395.171656
_symmetry_space_group_name_H-M "P 2/M"
_symmetry_group_IT_number 10
_symmetry_cell_setting 'monoclinic'
loop_
_space_group_symop_operation_xyz
x,y,z
-x,y,-z
-x,-y,-z
x,-y,z
loop_
_atom_site_type_symbol
_atom_site_label
_atom_site_fract_x
_atom_site_fract_y
_atom_site_fract_z
Si Si1 0.980051 0.777232 0.841053
Si Si2 0.132276 0.778100 0.882833
Si Si3 0.536851 0.778031 0.526968
Si Si4 0.651823 0.711947 0.781319
Si Si5 0.729893 0.222059 0.054384
Si Si6 0.159368 0.780221 0.330310
Si Si7 0.627913 0.222980 0.043229
Si Si8 0.304086 0.792873 0.417269
O O1 0.148113 0.711483 0.629545
O O2 0.983116 0.000000 0.835978
O O3 0.902917 0.724922 0.001647
O O4 0.878889 0.719145 0.906452
O O5 0.296585 0.720083 0.661341
O O6 0.132597 0.000000 0.881108
O O7 0.000000 0.717032 0.000000
O O8 0.500000 0.723152 0.500000
O O9 0.410815 0.719751 0.730678
O O10 0.534807 0.000000 0.529888
O O11 0.625271 0.500000 0.800472
O O12 0.785312 0.728102 0.667647
O O13 0.687669 0.797656 0.669455
O O14 0.500000 0.784891 0.000000
O O15 0.710741 0.278762 0.005432
O O16 0.729915 0.000000 0.054503
O O17 0.000000 0.717855 0.500000
O O18 0.155225 0.000000 0.334956
O O19 0.284736 0.719035 0.126679
O O20 0.458835 0.287595 0.250406
O O21 0.624999 0.000000 0.045110
O O22 0.302697 0.000000 0.443882
#
# Coordination Sequence:
#
# PCOD9148707 Si02
#       8
#     4   4   4   4   4   4   4   4
#     4   9  17  27  40  63  93 129 169 207 248 300
#     4   9  16  23  33  53  86 127 168 203 242 296
#     4   9  14  22  34  49  77 124 168 198 234 289
#     4  11  23  39  58  78 103 138 176 214 263 314
#     4   9  16  25  38  58  89 127 169 206 245 300
#     4  10  21  36  57  82 107 135 174 217 261 310
#     4   9  18  30  44  68  97 127 163 207 254 304
#     4  10  20  33  52  75 102 132 168 213 262 309
#
# _framework density 22.936246000000001
#
# number of rings (size 3 to 8) (size 9 to 14) (size 15 to 20)
#    0.000    2.500    2.500    0.375    3.500    0.750 
#    0.000    0.000    0.000    0.000    0.000    0.000 
#    0.000    0.500    0.000    1.375    0.000    2.125 
#
# Total GULP energy -178870.525842 kJ/mol
# GULP energy per Si atom -5589.703933 kJ/mol
# Density = 2.288404 g / cm^3
# Si number density = 22.936246 Si / 1000 Ang^3
#
#
#
# Elastic Constant Matrix: (Units=GPa)
#
#
# Indices 1 2 3 4 5 6 
#
# 1 83.7994 -8.2588 -13.7412 0.0000 -30.0315 0.0000
# 2 -8.2588 89.1738 1.3504 0.0000 -1.4708 0.0000
# 3 -13.7412 1.3504 82.9088 0.0000 -31.4291 0.0000
# 4 0.0000 0.0000 0.0000 -15.5532 0.0000 -8.5074
# 5 -30.0315 -1.4708 -31.4291 0.0000 42.2402 0.0000
# 6 0.0000 0.0000 0.0000 -8.5074 0.0000 -42.2992
#
#
#
# Elastic Compliance Matrix: (Units=1/GPa)
#
#
# Indices 1 2 3 4 5 6 
#
# 1 0.025233 0.002590 0.015286 0.000000 0.029404 0.000000
# 2 0.002590 0.011487 0.001521 0.000000 0.003373 0.000000
# 3 0.015286 0.001521 0.026061 0.000000 0.030312 0.000000
# 4 0.000000 0.000000 0.000000 -0.072243 0.000000 0.014530
# 5 0.029404 0.003373 0.030312 0.000000 0.067250 0.000000
# 6 0.000000 0.000000 0.000000 0.014530 0.000000 -0.026563
#
#
# Mechanical properties :
#
#
# Convention : Reuss Voigt Hill
#
# Bulk Modulus (GPa) = 9.84490 23.84252 16.84371
# Shear Modulus (GPa) = 190.20808 15.31299 102.76054
#
# Velocity S-wave (km/s) = 9.11642 2.58666 6.70074
# Velocity P-wave (km/s) = 10.72911 4.39759 8.19916
#
# Compressibility (1/GPa) = 0.10157543
#
# Stress axis : x y z
#
# Youngs Moduli (GPa) = 39.63111 87.05817 38.37177
#
# Poissons Ratio (x) = -0.22552 -0.58656
# Poissons Ratio (y) = -0.10266 -0.05836
# Poissons Ratio (z) = -0.60581 -0.13242
#
# Static dielectric constant tensor:
#      x y z
#    x 1.791940 0.000000 -0.017830 
#    y 0.000000 1.915030 0.000000 
#    z -0.017830 0.000000 1.817560 
# 
# From -- ./inp_files/86786.got.cif
#   From: 2010.05.17/outbox.cif.g08.bks.cpg/sg10_44_cif.got.tgz:86786.got - 2010.06.03 11:33:40.
