data_PCOD9148766
_publ_section_title
;
Structure prediction by ZEFSAII (Michael W. Deem and Ramdas Pophale) SiO2 
 PCOD9148766
Probable space group: P 2/M
;
_chemical_formula_sum "Si O2"
_cell_formula_units_Z 22
_cell_length_a 11.775528
_cell_length_b 19.158348
_cell_length_c 5.072391
_cell_angle_alpha 90.000000
_cell_angle_beta 93.351726
_cell_angle_gamma 90.000000
_cell_volume 1142.372259
_symmetry_space_group_name_H-M "P 2/M"
_symmetry_group_IT_number 10
_symmetry_cell_setting 'monoclinic'
loop_
_space_group_symop_operation_xyz
x,y,z
-x,y,-z
-x,-y,-z
x,-y,z
loop_
_atom_site_type_symbol
_atom_site_label
_atom_site_fract_x
_atom_site_fract_y
_atom_site_fract_z
Si Si1 0.137814 0.421644 0.517427
Si Si2 0.583829 0.000000 0.755976
Si Si3 0.619680 0.154611 0.672782
Si Si4 0.738007 0.198890 0.181066
Si Si5 0.137254 0.664367 0.015214
Si Si6 0.079379 0.078717 0.756181
O O1 0.177867 0.500000 0.462362
O O2 0.171854 0.364051 0.306419
O O3 0.000000 0.423609 0.500000
O O4 0.168100 0.396349 0.812278
O O5 0.500000 0.000000 0.500000
O O6 0.650252 0.927168 0.731795
O O7 0.500000 0.000000 0.000000
O O8 0.500000 0.154583 0.500000
O O9 0.699864 0.196048 0.479853
O O10 0.633765 0.187730 0.963287
O O11 0.821351 0.132700 0.176292
O O12 0.804713 0.266301 0.087567
O O13 0.000000 0.674308 0.000000
O O14 0.000000 0.100264 0.500000
O O15 0.122735 0.000000 0.708471
O O16 0.000000 0.076546 0.000000
#
# Coordination Sequence:
#
# PCOD9148766 Si02
#       6
#     4   2   4   4   4   4
#     4   9  17  31  52  78 113 152 182 216 264 320
#     4  10  20  38  58  76  98 130 176 238 300 338
#     4  11  24  39  57  80 108 138 185 245 295 348
#     4  12  23  36  59  80 111 149 186 229 287 340
#     4  10  20  33  52  82 117 149 185 220 263 329
#     4  10  22  38  54  75 107 145 189 228 261 317
#
# _framework density 19.258172999999999
#
# number of rings (size 3 to 8) (size 9 to 14) (size 15 to 20)
#    0.000    1.636    0.000    6.000    2.545    4.364 
#    0.000    0.000    0.000    0.000    0.000    0.000 
#    0.000   50.909    0.000    0.000    0.000    0.000 
#
# Total GULP energy -122709.955964 kJ/mol
# GULP energy per Si atom -5577.725271 kJ/mol
# Density = 1.921434 g / cm^3
# Si number density = 19.258173 Si / 1000 Ang^3
#
#
#
# Elastic Constant Matrix: (Units=GPa)
#
#
# Indices 1 2 3 4 5 6 
#
# 1 40.5338 34.9095 18.2191 0.0000 -5.9668 0.0000
# 2 34.9095 90.3457 18.9319 0.0000 -0.6497 0.0000
# 3 18.2191 18.9319 113.5551 0.0000 -14.4766 0.0000
# 4 0.0000 0.0000 0.0000 17.0215 0.0000 -31.7293
# 5 -5.9668 -0.6497 -14.4766 0.0000 29.3343 0.0000
# 6 0.0000 0.0000 0.0000 -31.7293 0.0000 -28.7054
#
#
#
# Elastic Compliance Matrix: (Units=1/GPa)
#
#
# Indices 1 2 3 4 5 6 
#
# 1 0.039541 -0.014579 -0.003126 0.000000 0.006177 0.000000
# 2 -0.014579 0.016860 -0.000856 0.000000 -0.003015 0.000000
# 3 -0.003126 -0.000856 0.009996 0.000000 0.004278 0.000000
# 4 0.000000 0.000000 0.000000 0.019196 0.000000 -0.021219
# 5 0.006177 -0.003015 0.004278 0.000000 0.037391 0.000000
# 6 0.000000 0.000000 0.000000 -0.021219 0.000000 -0.011383
#
#
# Mechanical properties :
#
#
# Convention : Reuss Voigt Hill
#
# Bulk Modulus (GPa) = 34.15933 43.17284 38.66609
# Shear Modulus (GPa) = 31.54928 15.02170 23.28549
#
# Velocity S-wave (km/s) = 4.05189 2.79591 3.48102
# Velocity P-wave (km/s) = 6.29814 5.73493 6.02312
#
# Compressibility (1/GPa) = 0.02927458
#
# Stress axis : x y z
#
# Youngs Moduli (GPa) = 25.28991 59.31300 100.04029
#
# Poissons Ratio (x) = 0.86474 0.31272
# Poissons Ratio (y) = 0.36871 0.08564
# Poissons Ratio (z) = 0.07906 0.05077
#
# Static dielectric constant tensor:
#      x y z
#    x 1.685080 0.000000 0.000350 
#    y 0.000000 1.680410 0.000000 
#    z 0.000350 0.000000 1.667700 
# 
# From -- ./inp_files/7272.got.cif
#   From: 2010.05.17/outbox.cif.g08.bks.cpg/sg10_4_cif.got.tgz:7272.got - 2010.06.03 11:33:40.
