data_PCOD9148136
_publ_section_title
;
Structure prediction by ZEFSAII (Michael W. Deem and Ramdas Pophale) SiO2 
 PCOD9148136
Probable space group: P 2/M
;
_chemical_formula_sum "Si O2"
_cell_formula_units_Z 24
_cell_length_a 19.317402
_cell_length_b 10.817259
_cell_length_c 7.576281
_cell_angle_alpha 90.000000
_cell_angle_beta 47.617551
_cell_angle_gamma 90.000000
_cell_volume 1169.412402
_symmetry_space_group_name_H-M "P 2/M"
_symmetry_group_IT_number 10
_symmetry_cell_setting 'monoclinic'
loop_
_space_group_symop_operation_xyz
x,y,z
-x,y,-z
-x,-y,-z
x,-y,z
loop_
_atom_site_type_symbol
_atom_site_label
_atom_site_fract_x
_atom_site_fract_y
_atom_site_fract_z
Si Si1 0.773915 0.650357 0.035814
Si Si2 0.650720 0.634657 0.753078
Si Si3 0.559292 0.866299 0.076768
Si Si4 0.571187 0.697498 0.513244
Si Si5 0.079616 0.349684 0.499738
Si Si6 0.862043 0.642396 0.237722
O O1 0.764251 0.500000 0.067318
O O2 0.672423 0.705999 0.248924
O O3 0.844399 0.692333 0.072167
O O4 0.822599 0.678003 0.766966
O O5 0.636413 0.500000 0.863027
O O6 0.589555 0.640659 0.676574
O O7 0.757132 0.640942 0.501063
O O8 0.625451 0.749356 0.920620
O O9 0.482037 0.824443 0.350001
O O10 0.603199 0.000000 0.040458
O O11 0.500000 0.878260 0.000000
O O12 0.500000 0.633248 0.500000
O O13 0.073731 0.500000 0.520188
O O14 0.076604 0.303845 0.707030
O O15 0.000000 0.309006 0.500000
O O16 0.891863 0.500000 0.160331
#
# Coordination Sequence:
#
# PCOD9148136 Si02
#       6
#     4   4   4   4   4   4
#     4   9  18  30  42  64  97 127 164 210 250 297
#     4   9  18  32  49  71  98 133 175 213 251 298
#     4   9  19  34  49  67  96 135 175 212 250 300
#     4  10  20  30  45  69  98 134 170 213 252 294
#     4   9  17  28  44  65  90 127 167 201 250 310
#     4   8  15  28  44  64  94 126 159 207 252 295
#
# _framework density 20.523128
#
# number of rings (size 3 to 8) (size 9 to 14) (size 15 to 20)
#    0.000    3.000    0.000    1.500    2.333    6.000 
#    0.000    3.333    0.000    0.000    0.000    0.000 
#    0.000    2.667    0.000   13.000    0.000    6.167 
#
# Total GULP energy -133705.851456 kJ/mol
# GULP energy per Si atom -5571.077144 kJ/mol
# Density = 2.047642 g / cm^3
# Si number density = 20.523128 Si / 1000 Ang^3
#
#
#
# Elastic Constant Matrix: (Units=GPa)
#
#
# Indices 1 2 3 4 5 6 
#
# 1 120.8608 -5.3323 21.2244 0.0000 19.3830 0.0000
# 2 -5.3323 85.0933 21.3040 0.0000 -3.4855 0.0000
# 3 21.2244 21.3040 85.5426 0.0000 10.5993 0.0000
# 4 0.0000 0.0000 0.0000 31.2429 0.0000 -21.5966
# 5 19.3830 -3.4855 10.5993 0.0000 39.7383 0.0000
# 6 0.0000 0.0000 0.0000 -21.5966 0.0000 0.4847
#
#
#
# Elastic Compliance Matrix: (Units=1/GPa)
#
#
# Indices 1 2 3 4 5 6 
#
# 1 0.009303 0.000938 -0.002058 0.000000 -0.003907 0.000000
# 2 0.000938 0.012783 -0.003618 0.000000 0.001629 0.000000
# 3 -0.002058 -0.003618 0.013462 0.000000 -0.002904 0.000000
# 4 0.000000 0.000000 0.000000 -0.001074 0.000000 -0.047857
# 5 -0.003907 0.001629 -0.002904 0.000000 0.027988 0.000000
# 6 0.000000 0.000000 0.000000 -0.047857 0.000000 -0.069233
#
#
# Mechanical properties :
#
#
# Convention : Reuss Voigt Hill
#
# Bulk Modulus (GPa) = 38.35486 40.65432 39.50459
# Shear Modulus (GPa) = 438.78861 31.24656 235.01758
#
# Velocity S-wave (km/s) = 14.63783 3.90616 10.71271
# Velocity P-wave (km/s) = 17.44756 6.34004 13.12657
#
# Compressibility (1/GPa) = 0.02607231
#
# Stress axis : x y z
#
# Youngs Moduli (GPa) = 107.48886 78.22794 74.28540
#
# Poissons Ratio (x) = -0.07339 0.15287
# Poissons Ratio (y) = -0.10084 0.26878
# Poissons Ratio (z) = 0.22120 0.28304
#
# Static dielectric constant tensor:
#      x y z
#    x 1.844670 0.000000 0.013750 
#    y 0.000000 1.731030 0.000000 
#    z 0.013750 0.000000 1.774560 
# 
# From -- ./inp_files/34403.got.cif
#   From: 2010.05.17/outbox.cif.g08.bks.cpg/sg10_18_cif.got.tgz:34403.got - 2010.06.03 11:33:40.
