data_PCOD9148585
_publ_section_title
;
Structure prediction by ZEFSAII (Michael W. Deem and Ramdas Pophale) SiO2 
 PCOD9148585
Probable space group: P 2/M
;
_chemical_formula_sum "Si O2"
_cell_formula_units_Z 32
_cell_length_a 21.836662
_cell_length_b 7.666143
_cell_length_c 14.226679
_cell_angle_alpha 90.000000
_cell_angle_beta 36.097228
_cell_angle_gamma 90.000000
_cell_volume 1403.130091
_symmetry_space_group_name_H-M "P 2/M"
_symmetry_group_IT_number 10
_symmetry_cell_setting 'monoclinic'
loop_
_space_group_symop_operation_xyz
x,y,z
-x,y,-z
-x,-y,-z
x,-y,z
loop_
_atom_site_type_symbol
_atom_site_label
_atom_site_fract_x
_atom_site_fract_y
_atom_site_fract_z
Si Si1 0.126876 0.196080 0.728434
Si Si2 0.668452 0.213178 0.438085
Si Si3 0.006436 0.300468 0.389205
Si Si4 0.605837 0.795386 0.926372
Si Si5 0.912623 0.203983 0.909672
Si Si6 0.214088 0.309854 0.435196
Si Si7 0.458921 0.785974 0.789064
Si Si8 0.678638 0.213125 0.217856
O O1 0.213922 0.276849 0.688252
O O2 0.191342 0.185461 0.550484
O O3 0.014669 0.276361 0.838566
O O4 0.105740 0.000000 0.789708
O O5 0.578298 0.268105 0.621973
O O6 0.634297 0.259209 0.374946
O O7 0.673546 0.000000 0.436439
O O8 0.046044 0.500000 0.350554
O O9 0.889177 0.306239 0.498539
O O10 0.000000 0.217509 0.500000
O O11 0.067277 0.216561 0.227285
O O12 0.693358 0.719535 0.750883
O O13 0.631029 0.000000 0.905157
O O14 0.500000 0.778586 0.000000
O O15 0.587391 0.725088 0.054126
O O16 0.909599 0.000000 0.938365
O O17 0.798081 0.276368 0.068485
O O18 0.224579 0.500000 0.466887
O O19 0.388065 0.730576 0.789011
O O20 0.459804 0.000000 0.790430
O O21 0.680567 0.000000 0.210734
#
# Coordination Sequence:
#
# PCOD9148585 Si02
#       8
#     4   4   4   4   4   4   4   4
#     4   9  17  31  50  72  99 131 164 198 243 298
#     4   9  16  28  48  69  94 130 165 198 242 295
#     4   9  19  34  50  68  95 132 168 199 238 295
#     4  10  20  33  50  73 102 134 167 203 245 296
#     4   9  18  30  46  73 103 126 156 201 248 289
#     4  10  20  33  50  73  99 129 166 206 247 291
#     4   9  17  28  44  68  98 130 163 200 243 290
#     4   9  17  28  44  71 102 127 158 203 248 289
#
# _framework density 22.806155
#
# number of rings (size 3 to 8) (size 9 to 14) (size 15 to 20)
#    0.000    2.750    0.000    1.500    1.750    5.000 
#    0.000    2.500    0.000    0.750    0.000    3.500 
#    0.000    4.000    0.000    0.000    0.000    0.000 
#
# Total GULP energy -178476.869371 kJ/mol
# GULP energy per Si atom -5577.402168 kJ/mol
# Density = 2.275425 g / cm^3
# Si number density = 22.806155 Si / 1000 Ang^3
#
#
#
# Elastic Constant Matrix: (Units=GPa)
#
#
# Indices 1 2 3 4 5 6 
#
# 1 101.9894 -3.0463 8.8488 0.0000 10.9503 0.0000
# 2 -3.0463 47.8516 -4.9702 0.0000 -4.2139 0.0000
# 3 8.8488 -4.9702 83.3883 0.0000 -6.3300 0.0000
# 4 0.0000 0.0000 0.0000 13.3009 0.0000 10.2693
# 5 10.9503 -4.2139 -6.3300 0.0000 29.0713 0.0000
# 6 0.0000 0.0000 0.0000 10.2693 0.0000 2.3003
#
#
#
# Elastic Compliance Matrix: (Units=1/GPa)
#
#
# Indices 1 2 3 4 5 6 
#
# 1 0.010382 0.000145 -0.001412 0.000000 -0.004197 0.000000
# 2 0.000145 0.021361 0.001514 0.000000 0.003371 0.000000
# 3 -0.001412 0.001514 0.012496 0.000000 0.003472 0.000000
# 4 0.000000 0.000000 0.000000 -0.030726 0.000000 0.137174
# 5 -0.004197 0.003371 0.003472 0.000000 0.037224 0.000000
# 6 0.000000 0.000000 0.000000 0.137174 0.000000 -0.177668
#
#
# Mechanical properties :
#
#
# Convention : Reuss Voigt Hill
#
# Bulk Modulus (GPa) = 22.35492 26.09933 24.22713
# Shear Modulus (GPa) = -44.43922 24.42762 -10.00580
#
# Velocity S-wave (km/s) = -4.41904 3.27631 -2.09687
# Velocity P-wave (km/s) = 4.02664 5.07751 2.18716
#
# Compressibility (1/GPa) = 0.04473288
#
# Stress axis : x y z
#
# Youngs Moduli (GPa) = 96.31704 46.81364 80.02769
#
# Poissons Ratio (x) = -0.00677 0.11298
# Poissons Ratio (y) = -0.01394 -0.12114
# Poissons Ratio (z) = 0.13597 -0.07086
#
# Static dielectric constant tensor:
#      x y z
#    x 1.857910 0.000000 0.009270 
#    y 0.000000 1.903290 0.000000 
#    z 0.009270 0.000000 1.888270 
# 
# From -- ./inp_files/71471.got.cif
#   From: 2010.05.17/outbox.cif.g08.bks.cpg/sg10_36_cif.got.tgz:71471.got - 2010.06.03 11:33:40.
