data_PCOD9148262
_publ_section_title
;
Structure prediction by ZEFSAII (Michael W. Deem and Ramdas Pophale) SiO2 
 PCOD9148262
Probable space group: P 2/M
;
_chemical_formula_sum "Si O2"
_cell_formula_units_Z 26
_cell_length_a 21.579367
_cell_length_b 16.550254
_cell_length_c 21.459326
_cell_angle_alpha 90.000000
_cell_angle_beta 13.823827
_cell_angle_gamma 90.000000
_cell_volume 1831.232047
_symmetry_space_group_name_H-M "P 2/M"
_symmetry_group_IT_number 10
_symmetry_cell_setting 'monoclinic'
loop_
_space_group_symop_operation_xyz
x,y,z
-x,y,-z
-x,-y,-z
x,-y,z
loop_
_atom_site_type_symbol
_atom_site_label
_atom_site_fract_x
_atom_site_fract_y
_atom_site_fract_z
Si Si1 0.400269 0.901550 0.029664
Si Si2 0.731743 0.000000 0.224757
Si Si3 0.963305 0.095918 0.252691
Si Si4 0.966931 0.408553 0.957244
Si Si5 0.130015 0.901828 0.513763
Si Si6 0.580487 0.859543 0.278940
Si Si7 0.532340 0.691224 0.543359
O O1 0.111190 0.876485 0.293730
O O2 0.399449 0.000000 0.031550
O O3 0.500000 0.875256 0.000000
O O4 0.601831 0.875858 0.779444
O O5 0.500000 0.000000 0.500000
O O6 0.698444 0.921727 0.214034
O O7 0.000000 0.000000 0.000000
O O8 0.915740 0.122299 0.370318
O O9 0.693491 0.107706 0.479458
O O10 0.029494 0.000000 0.187672
O O11 0.201901 0.142051 0.987463
O O12 0.000375 0.500000 0.901100
O O13 0.185127 0.346558 0.720908
O O14 0.000000 0.411773 0.000000
O O15 0.681951 0.373348 0.225611
O O16 0.134292 0.000000 0.510046
O O17 0.523000 0.774554 0.367745
O O18 0.500000 0.703128 0.500000
#
# Coordination Sequence:
#
# PCOD9148262 Si02
#       7
#     4   2   4   4   4   4   4
#     4   9  15  24  37  57  79  97 120 160 217 266
#     4  12  24  36  48  60  78 106 141 182 229 270
#     4  11  20  34  46  58  78 109 152 185 215 251
#     4   9  17  31  50  69  87 105 123 151 204 273
#     4   9  17  26  40  56  73 101 133 170 209 252
#     4  12  22  35  47  62  82 110 144 185 222 258
#     4  10  20  32  47  67  87 105 131 170 217 267
#
# _framework density 14.198091
#
# number of rings (size 3 to 8) (size 9 to 14) (size 15 to 20)
#    0.000    1.846    1.538    4.154    0.000    8.000 
#    0.000    0.000    0.000    0.000    0.000    0.000 
#    0.000    0.000    0.000    0.000    0.000    0.000 
#
# Total GULP energy -145023.346768 kJ/mol
# GULP energy per Si atom -5577.821030 kJ/mol
# Density = 1.416578 g / cm^3
# Si number density = 14.198091 Si / 1000 Ang^3
#
#
#
# Elastic Constant Matrix: (Units=GPa)
#
#
# Indices 1 2 3 4 5 6 
#
# 1 32.1240 11.9201 -3.8255 0.0000 4.7985 0.0000
# 2 11.9201 51.5927 5.7632 0.0000 6.1590 0.0000
# 3 -3.8255 5.7632 63.9802 0.0000 5.9586 0.0000
# 4 0.0000 0.0000 0.0000 9.7809 0.0000 0.8477
# 5 4.7985 6.1590 5.9586 0.0000 24.1827 0.0000
# 6 0.0000 0.0000 0.0000 0.8477 0.0000 4.5958
#
#
#
# Elastic Compliance Matrix: (Units=1/GPa)
#
#
# Indices 1 2 3 4 5 6 
#
# 1 0.035310 -0.007836 0.003361 0.000000 -0.005839 0.000000
# 2 -0.007836 0.021845 -0.002111 0.000000 -0.003489 0.000000
# 3 0.003361 -0.002111 0.016410 0.000000 -0.004172 0.000000
# 4 0.000000 0.000000 0.000000 0.103901 0.000000 -0.019165
# 5 -0.005839 -0.003489 -0.004172 0.000000 0.044427 0.000000
# 6 0.000000 0.000000 0.000000 -0.019165 0.000000 0.221126
#
#
# Mechanical properties :
#
#
# Convention : Reuss Voigt Hill
#
# Bulk Modulus (GPa) = 16.55888 19.49029 18.02458
# Shear Modulus (GPa) = 10.49709 16.63449 13.56579
#
# Velocity S-wave (km/s) = 2.72201 3.42658 3.09441
# Velocity P-wave (km/s) = 4.64405 5.42332 5.04875
#
# Compressibility (1/GPa) = 0.06039054
#
# Stress axis : x y z
#
# Youngs Moduli (GPa) = 28.32093 45.77612 60.94005
#
# Poissons Ratio (x) = 0.35872 -0.20481
# Poissons Ratio (y) = 0.22193 0.12867
# Poissons Ratio (z) = -0.09518 0.09665
#
# Static dielectric constant tensor:
#      x y z
#    x 1.471150 0.000000 0.004070 
#    y 0.000000 1.449470 0.000000 
#    z 0.004070 0.000000 1.484000 
# 
# From -- ./inp_files/11174.got.cif
#   From: 2010.05.17/outbox.cif.g08.bks.cpg/sg10_6_cif.got.tgz:11174.got - 2010.06.03 11:33:40.
