data_PCOD9148786
_publ_section_title
;
Structure prediction by ZEFSAII (Michael W. Deem and Ramdas Pophale) SiO2 
 PCOD9148786
Probable space group: P 2/M
;
_chemical_formula_sum "Si O2"
_cell_formula_units_Z 24
_cell_length_a 12.168795
_cell_length_b 9.139373
_cell_length_c 24.204016
_cell_angle_alpha 90.000000
_cell_angle_beta 32.223257
_cell_angle_gamma 90.000000
_cell_volume 1435.349307
_symmetry_space_group_name_H-M "P 2/M"
_symmetry_group_IT_number 10
_symmetry_cell_setting 'monoclinic'
loop_
_space_group_symop_operation_xyz
x,y,z
-x,y,-z
-x,-y,-z
x,-y,z
loop_
_atom_site_type_symbol
_atom_site_label
_atom_site_fract_x
_atom_site_fract_y
_atom_site_fract_z
Si Si1 0.973056 0.673157 0.644691
Si Si2 0.381565 0.172913 0.261468
Si Si3 0.728812 0.324068 0.380834
Si Si4 0.266752 0.830704 0.736633
Si Si5 0.248483 0.834083 0.441901
Si Si6 0.203586 0.673338 0.876971
O O1 0.936758 0.500000 0.659684
O O2 0.760314 0.758236 0.725455
O O3 0.101060 0.711743 0.645240
O O4 0.120359 0.719385 0.531355
O O5 0.259884 0.192142 0.371589
O O6 0.599060 0.252658 0.177786
O O7 0.413142 0.000000 0.240701
O O8 0.500000 0.281607 0.500000
O O9 0.725822 0.500000 0.374568
O O10 0.777066 0.246457 0.302688
O O11 0.514709 0.828639 0.639087
O O12 0.180110 0.746339 0.826721
O O13 0.201285 0.000000 0.764716
O O14 0.169886 0.000000 0.485339
O O15 0.241036 0.500000 0.854746
O O16 0.000000 0.694991 0.000000
#
# Coordination Sequence:
#
# PCOD9148786 Si02
#       6
#     4   4   4   4   4   4
#     4  11  21  31  48  73 104 145 183 217 258 306
#     4  10  21  35  51  75 106 138 173 217 267 317
#     4  10  20  34  50  73 108 149 188 221 256 305
#     4  10  20  33  53  80 108 141 179 220 264 311
#     4   9  18  31  46  69 103 140 175 214 259 309
#     4  10  21  38  61  84 105 132 169 218 272 322
#
# _framework density 16.720669000000001
#
# number of rings (size 3 to 8) (size 9 to 14) (size 15 to 20)
#    0.000    2.000    1.667    3.500    0.000    8.333 
#    0.000    0.000    0.000    1.000    0.000    7.000 
#    0.000    0.000    0.000    0.000    0.000    0.000 
#
# Total GULP energy -133964.346279 kJ/mol
# GULP energy per Si atom -5581.847762 kJ/mol
# Density = 1.668261 g / cm^3
# Si number density = 16.720669 Si / 1000 Ang^3
#
#
#
# Elastic Constant Matrix: (Units=GPa)
#
#
# Indices 1 2 3 4 5 6 
#
# 1 148.0252 84.6656 53.3863 0.0000 -2.7481 0.0000
# 2 84.6656 101.1228 62.7307 0.0000 3.9514 0.0000
# 3 53.3863 62.7307 73.6284 0.0000 5.4381 0.0000
# 4 0.0000 0.0000 0.0000 -1.5895 0.0000 -2.0712
# 5 -2.7481 3.9514 5.4381 0.0000 9.3696 0.0000
# 6 0.0000 0.0000 0.0000 -2.0712 0.0000 26.1791
#
#
#
# Elastic Compliance Matrix: (Units=1/GPa)
#
#
# Indices 1 2 3 4 5 6 
#
# 1 0.013713 -0.011136 -0.001149 0.000000 0.009385 0.000000
# 2 -0.011136 0.030040 -0.017074 0.000000 -0.006025 0.000000
# 3 -0.001149 -0.017074 0.029730 0.000000 -0.010391 0.000000
# 4 0.000000 0.000000 0.000000 -0.570328 0.000000 -0.045122
# 5 0.009385 -0.006025 -0.010391 0.000000 0.118053 0.000000
# 6 0.000000 0.000000 0.000000 -0.045122 0.000000 0.034629
#
#
# Mechanical properties :
#
#
# Convention : Reuss Voigt Hill
#
# Bulk Modulus (GPa) = 67.72953 80.48239 74.10596
# Shear Modulus (GPa) = -17.82377 14.92476 -1.44950
#
# Velocity S-wave (km/s) = -3.26847 2.99087 -0.93208
# Velocity P-wave (km/s) = 5.13328 7.75661 6.57707
#
# Compressibility (1/GPa) = 0.01476461
#
# Stress axis : x y z
#
# Youngs Moduli (GPa) = 72.92117 33.28936 33.63653
#
# Poissons Ratio (x) = 0.37070 0.03865
# Poissons Ratio (y) = 0.81202 0.57432
# Poissons Ratio (z) = 0.08379 0.56840
#
# Static dielectric constant tensor:
#      x y z
#    x 1.572710 0.000000 -0.017020 
#    y 0.000000 1.560810 0.000000 
#    z -0.017020 0.000000 1.541240 
# 
# From -- ./inp_files/45315.got.cif
#   From: 2010.05.17/outbox.cif.g08.bks.cpg/sg10_23_cif.got.tgz:45315.got - 2010.06.03 11:33:40.
