data_PCOD9148384
_publ_section_title
;
Structure prediction by ZEFSAII (Michael W. Deem and Ramdas Pophale) SiO2 
 PCOD9148384
Probable space group: P 2/M
;
_chemical_formula_sum "Si O2"
_cell_formula_units_Z 28
_cell_length_a 18.969470
_cell_length_b 7.577499
_cell_length_c 18.193683
_cell_angle_alpha 90.000000
_cell_angle_beta 149.453803
_cell_angle_gamma 90.000000
_cell_volume 1329.120943
_symmetry_space_group_name_H-M "P 2/M"
_symmetry_group_IT_number 10
_symmetry_cell_setting 'monoclinic'
loop_
_space_group_symop_operation_xyz
x,y,z
-x,y,-z
-x,-y,-z
x,-y,z
loop_
_atom_site_type_symbol
_atom_site_label
_atom_site_fract_x
_atom_site_fract_y
_atom_site_fract_z
Si Si1 0.353476 0.796132 0.340787
Si Si2 0.988218 0.796245 0.572091
Si Si3 0.291070 0.713326 0.851622
Si Si4 0.249662 0.701514 0.534204
Si Si5 0.103983 0.212305 0.028919
Si Si6 0.147072 0.288996 0.286506
Si Si7 0.572044 0.284168 0.177973
O O1 0.500000 0.716733 0.500000
O O2 0.245983 0.790203 0.312389
O O3 0.384666 0.000000 0.349397
O O4 0.258663 0.721826 0.188403
O O5 0.143410 0.785438 0.741796
O O6 0.000000 0.721890 0.500000
O O7 0.880589 0.700782 0.527497
O O8 0.943952 0.000000 0.527043
O O9 0.285200 0.500000 0.846565
O O10 0.331351 0.768429 0.804444
O O11 0.417426 0.768044 0.017117
O O12 0.291171 0.500000 0.555250
O O13 0.199529 0.779433 0.412320
O O14 0.370865 0.781912 0.693205
O O15 0.015160 0.253271 0.876562
O O16 0.110716 0.000000 0.040345
O O17 0.000000 0.277740 0.000000
O O18 0.163473 0.500000 0.298183
O O19 0.576080 0.500000 0.182807
#
# Coordination Sequence:
#
# PCOD9148384 Si02
#       7
#     4   4   4   4   4   4   4
#     4   9  18  34  56  79 102 134 172 203 238 295
#     4  11  22  33  47  73 102 128 165 213 257 297
#     4   9  16  30  53  73  90 122 166 210 254 299
#     4  10  20  35  53  72  99 135 171 207 253 306
#     4   8  15  30  52  74  99 134 168 198 236 289
#     4  10  20  32  50  78 106 133 166 207 253 296
#     4   8  15  29  51  74  92 121 167 208 245 299
#
# _framework density 21.066555000000001
#
# number of rings (size 3 to 8) (size 9 to 14) (size 15 to 20)
#    0.000    2.714    1.429    2.571    0.000    4.571 
#    0.000    3.571    0.000    5.143    0.000    0.000 
#    0.000    0.000    0.000    0.000    0.000    0.000 
#
# Total GULP energy -156033.317445 kJ/mol
# GULP energy per Si atom -5572.618480 kJ/mol
# Density = 2.101861 g / cm^3
# Si number density = 21.066555 Si / 1000 Ang^3
#
#
#
# Elastic Constant Matrix: (Units=GPa)
#
#
# Indices 1 2 3 4 5 6 
#
# 1 19.9335 -9.6266 28.4288 0.0000 -9.6412 0.0000
# 2 -9.6266 55.0860 1.3754 0.0000 -1.0388 0.0000
# 3 28.4288 1.3754 202.2489 0.0000 -11.0987 0.0000
# 4 0.0000 0.0000 0.0000 17.6071 0.0000 4.2595
# 5 -9.6412 -1.0388 -11.0987 0.0000 38.6295 0.0000
# 6 0.0000 0.0000 0.0000 4.2595 0.0000 10.2322
#
#
#
# Elastic Compliance Matrix: (Units=1/GPa)
#
#
# Indices 1 2 3 4 5 6 
#
# 1 0.080682 0.014692 -0.010479 0.000000 0.017521 0.000000
# 2 0.014692 0.020840 -0.002006 0.000000 0.003651 0.000000
# 3 -0.010479 -0.002006 0.006385 0.000000 -0.000835 0.000000
# 4 0.000000 0.000000 0.000000 0.063156 0.000000 -0.026291
# 5 0.017521 0.003651 -0.000835 0.000000 0.030118 0.000000
# 6 0.000000 0.000000 0.000000 -0.026291 0.000000 0.108675
#
#
# Mechanical properties :
#
#
# Convention : Reuss Voigt Hill
#
# Bulk Modulus (GPa) = 8.90327 35.29151 22.09739
# Shear Modulus (GPa) = 14.58221 30.43314 22.50767
#
# Velocity S-wave (km/s) = 2.63382 3.80494 3.27220
# Velocity P-wave (km/s) = 3.67216 6.00767 4.97880
#
# Compressibility (1/GPa) = 0.11231832
#
# Stress axis : x y z
#
# Youngs Moduli (GPa) = 12.39441 47.98504 156.61123
#
# Poissons Ratio (x) = -0.70498 1.64117
# Poissons Ratio (y) = -0.18209 0.31424
# Poissons Ratio (z) = 0.12988 0.09628
#
# Static dielectric constant tensor:
#      x y z
#    x 1.715020 0.000000 -0.019210 
#    y 0.000000 1.797720 0.000000 
#    z -0.019210 0.000000 1.851850 
# 
# From -- ./inp_files/79311.got.cif
#   From: 2010.05.17/outbox.cif.g08.bks.cpg/sg10_40_cif.got.tgz:79311.got - 2010.06.03 11:33:40.
