data_PCOD9148400
_publ_section_title
;
Structure prediction by ZEFSAII (Michael W. Deem and Ramdas Pophale) SiO2 
 PCOD9148400
Probable space group: P 2/M
;
_chemical_formula_sum "Si O2"
_cell_formula_units_Z 32
_cell_length_a 19.221344
_cell_length_b 13.718988
_cell_length_c 21.940608
_cell_angle_alpha 90.000000
_cell_angle_beta 19.538882
_cell_angle_gamma 90.000000
_cell_volume 1935.000630
_symmetry_space_group_name_H-M "P 2/M"
_symmetry_group_IT_number 10
_symmetry_cell_setting 'monoclinic'
loop_
_space_group_symop_operation_xyz
x,y,z
-x,y,-z
-x,-y,-z
x,-y,z
loop_
_atom_site_type_symbol
_atom_site_label
_atom_site_fract_x
_atom_site_fract_y
_atom_site_fract_z
Si Si1 0.155116 0.888862 0.423777
Si Si2 0.070043 0.611467 0.117598
Si Si3 0.507100 0.611467 0.305256
Si Si4 0.418436 0.111138 0.002670
Si Si5 0.755543 0.111130 0.414818
Si Si6 0.196660 0.199129 0.077109
Si Si7 0.374214 0.304844 0.541933
Si Si8 0.624652 0.199127 0.649117
O O1 0.377145 0.895151 0.207618
O O2 0.197403 0.826260 0.448899
O O3 0.000000 0.850476 0.500000
O O4 0.089817 0.000000 0.493404
O O5 0.056317 0.500000 0.150338
O O6 0.125401 0.689762 0.124225
O O7 0.852287 0.644871 0.268674
O O8 0.257737 0.617484 0.914082
O O9 0.436336 0.500000 0.357005
O O10 0.489378 0.644868 0.389657
O O11 0.376511 0.689763 0.373861
O O12 0.340150 0.000000 0.076626
O O13 0.500000 0.149522 0.000000
O O14 0.258501 0.173743 0.095197
O O15 0.663167 0.192046 0.445609
O O16 0.657669 0.133266 0.562203
O O17 0.001952 0.133266 0.217920
O O18 0.719310 0.000000 0.426894
O O19 0.400480 0.181907 0.866505
O O20 0.500000 0.315069 0.500000
#
# Coordination Sequence:
#
# PCOD9148400 Si02
#       8
#     4   4   4   4   4   4   4   4
#     4   9  17  27  41  63  91 123 155 192 238 281
#     4   9  18  33  53  74  94 122 159 195 238 286
#     4   9  18  33  53  74  94 122 159 195 238 286
#     4   9  17  27  41  63  91 123 155 192 238 281
#     4  10  20  32  51  72  92 129 167 193 231 282
#     4   9  18  32  48  69  96 124 159 202 237 276
#     4  10  21  35  50  73 103 126 151 195 242 285
#     4   9  18  32  48  69  96 124 159 202 237 276
#
# _framework density 16.537462000000001
#
# number of rings (size 3 to 8) (size 9 to 14) (size 15 to 20)
#    0.000    2.750    0.000    1.125    1.750    3.250 
#    0.000    1.250    0.000    0.750    0.000    7.000 
#    0.000    0.000    0.000    0.000    0.000    0.000 
#
# Total GULP energy -178301.380066 kJ/mol
# GULP energy per Si atom -5571.918127 kJ/mol
# Density = 1.649982 g / cm^3
# Si number density = 16.537462 Si / 1000 Ang^3
#
#
#
# Elastic Constant Matrix: (Units=GPa)
#
#
# Indices 1 2 3 4 5 6 
#
# 1 120.9367 45.9405 29.6536 0.0000 -12.4131 0.0000
# 2 45.9405 107.8229 30.9049 0.0000 -3.5817 0.0000
# 3 29.6536 30.9049 54.4013 0.0000 -3.4292 0.0000
# 4 0.0000 0.0000 0.0000 14.3722 0.0000 1.3021
# 5 -12.4131 -3.5817 -3.4292 0.0000 21.7190 0.0000
# 6 0.0000 0.0000 0.0000 1.3021 0.0000 8.8992
#
#
#
# Elastic Compliance Matrix: (Units=1/GPa)
#
#
# Indices 1 2 3 4 5 6 
#
# 1 0.011023 -0.003460 -0.003719 0.000000 0.005142 0.000000
# 2 -0.003460 0.012180 -0.005082 0.000000 -0.000771 0.000000
# 3 -0.003719 -0.005082 0.023341 0.000000 0.000722 0.000000
# 4 0.000000 0.000000 0.000000 0.070513 0.000000 -0.010317
# 5 0.005142 -0.000771 0.000722 0.000000 0.048968 0.000000
# 6 0.000000 0.000000 0.000000 -0.010317 0.000000 0.113879
#
#
# Mechanical properties :
#
#
# Convention : Reuss Voigt Hill
#
# Bulk Modulus (GPa) = 45.40718 55.12877 50.26798
# Shear Modulus (GPa) = 16.03769 20.77556 18.40663
#
# Velocity S-wave (km/s) = 3.11751 3.54824 3.33982
# Velocity P-wave (km/s) = 6.36202 7.08482 6.73313
#
# Compressibility (1/GPa) = 0.02202295
#
# Stress axis : x y z
#
# Youngs Moduli (GPa) = 90.72189 82.10483 42.84232
#
# Poissons Ratio (x) = 0.28406 0.15932
# Poissons Ratio (y) = 0.31388 0.21772
# Poissons Ratio (z) = 0.33737 0.41724
#
# Static dielectric constant tensor:
#      x y z
#    x 1.536090 0.000000 0.013030 
#    y 0.000000 1.558000 0.000000 
#    z 0.013030 0.000000 1.590840 
# 
# From -- ./inp_files/85935.got.cif
#   From: 2010.05.17/outbox.cif.g08.bks.cpg/sg10_43_cif.got.tgz:85935.got - 2010.06.03 11:33:40.
