data_PCOD9148391
_publ_section_title
;
Structure prediction by ZEFSAII (Michael W. Deem and Ramdas Pophale) SiO2 
 PCOD9148391
Probable space group: P 2/M
;
_chemical_formula_sum "Si O2"
_cell_formula_units_Z 32
_cell_length_a 31.061842
_cell_length_b 11.879605
_cell_length_c 9.741486
_cell_angle_alpha 90.000000
_cell_angle_beta 26.591183
_cell_angle_gamma 90.000000
_cell_volume 1609.034445
_symmetry_space_group_name_H-M "P 2/M"
_symmetry_group_IT_number 10
_symmetry_cell_setting 'monoclinic'
loop_
_space_group_symop_operation_xyz
x,y,z
-x,y,-z
-x,-y,-z
x,-y,z
loop_
_atom_site_type_symbol
_atom_site_label
_atom_site_fract_x
_atom_site_fract_y
_atom_site_fract_z
Si Si1 0.976227 0.375399 0.728248
Si Si2 0.585839 0.171141 0.160994
Si Si3 0.877274 0.872132 0.044541
Si Si4 0.743347 0.874155 0.169507
Si Si5 0.829475 0.699270 0.709603
Si Si6 0.466325 0.773236 0.250449
Si Si7 0.618150 0.625360 0.266850
Si Si8 0.192871 0.880697 0.445313
O O1 0.929171 0.500000 0.895255
O O2 0.000000 0.379353 0.500000
O O3 0.076607 0.369125 0.522408
O O4 0.929996 0.249791 0.879758
O O5 0.500000 0.122200 0.500000
O O6 0.549834 0.170555 0.106515
O O7 0.598274 0.295570 0.192464
O O8 0.690859 0.121406 0.885202
O O9 0.788451 0.867700 0.191895
O O10 0.841197 0.873960 0.302356
O O11 0.922991 0.000000 0.889199
O O12 0.629876 0.848116 0.489715
O O13 0.758213 0.000000 0.073240
O O14 0.800728 0.785325 0.913575
O O15 0.845349 0.777209 0.532379
O O16 0.732658 0.629795 0.962864
O O17 0.430749 0.674965 0.455633
O O18 0.500000 0.743691 0.000000
O O19 0.586961 0.500000 0.333280
O O20 0.159374 0.000000 0.481669
#
# Coordination Sequence:
#
# PCOD9148391 Si02
#       8
#     4   4   4   4   4   4   4   4
#     4  11  23  41  66  92 118 151 197 250 296 354
#     4   9  19  34  54  79 110 151 195 235 279 344
#     4  10  22  40  60  88 124 161 194 238 301 358
#     4  10  20  35  56  81 114 152 191 234 286 350
#     4  10  20  37  59  87 111 144 192 240 290 346
#     4  10  20  32  50  79 110 141 187 240 286 339
#     4   9  19  36  55  73 104 147 188 234 289 348
#     4  10  21  37  58  85 123 158 190 238 295 349
#
# _framework density 19.887702000000001
#
# number of rings (size 3 to 8) (size 9 to 14) (size 15 to 20)
#    0.000    2.125    1.250    2.250    0.000    5.250 
#    0.000    5.000    0.000    3.000    0.000    0.000 
#    0.000    0.000    0.000    0.000    0.000    0.000 
#
# Total GULP energy -178230.703540 kJ/mol
# GULP energy per Si atom -5569.709486 kJ/mol
# Density = 1.984244 g / cm^3
# Si number density = 19.887702 Si / 1000 Ang^3
#
#
#
# Elastic Constant Matrix: (Units=GPa)
#
#
# Indices 1 2 3 4 5 6 
#
# 1 117.0913 31.6973 18.6299 0.0000 7.3241 0.0000
# 2 31.6973 139.6256 26.8612 0.0000 -1.1565 0.0000
# 3 18.6299 26.8612 29.4519 0.0000 8.6638 0.0000
# 4 0.0000 0.0000 0.0000 14.4204 0.0000 9.5744
# 5 7.3241 -1.1565 8.6638 0.0000 36.7137 0.0000
# 6 0.0000 0.0000 0.0000 9.5744 0.0000 -5.7038
#
#
#
# Elastic Compliance Matrix: (Units=1/GPa)
#
#
# Indices 1 2 3 4 5 6 
#
# 1 0.009694 -0.001307 -0.004684 0.000000 -0.000870 0.000000
# 2 -0.001307 0.009047 -0.008151 0.000000 0.002469 0.000000
# 3 -0.004684 -0.008151 0.047445 0.000000 -0.010519 0.000000
# 4 0.000000 0.000000 0.000000 0.032796 0.000000 0.055050
# 5 -0.000870 0.002469 -0.010519 0.000000 0.029971 0.000000
# 6 0.000000 0.000000 0.000000 0.055050 0.000000 -0.082914
#
#
# Mechanical properties :
#
#
# Convention : Reuss Voigt Hill
#
# Bulk Modulus (GPa) = 26.38393 48.94947 37.66670
# Shear Modulus (GPa) = 57.49941 23.01809 40.25875
#
# Velocity S-wave (km/s) = 5.38283 3.40575 4.50411
# Velocity P-wave (km/s) = 7.20613 6.33498 6.78455
#
# Compressibility (1/GPa) = 0.03790186
#
# Stress axis : x y z
#
# Youngs Moduli (GPa) = 103.15913 110.53098 21.07694
#
# Poissons Ratio (x) = 0.14443 0.09873
# Poissons Ratio (y) = 0.13480 0.17180
# Poissons Ratio (z) = 0.48322 0.90096
#
# Static dielectric constant tensor:
#      x y z
#    x 1.503410 0.000000 -0.066930 
#    y 0.000000 1.754290 0.000000 
#    z -0.066930 0.000000 1.683730 
# 
# From -- ./inp_files/38233.got.cif
#   From: 2010.05.17/outbox.cif.g08.bks.cpg/sg10_20_cif.got.tgz:38233.got - 2010.06.03 11:33:40.
