data_PCOD9148237
_publ_section_title
;
Structure prediction by ZEFSAII (Michael W. Deem and Ramdas Pophale) SiO2 
 PCOD9148237
Probable space group: P 2/M
;
_chemical_formula_sum "Si O2"
_cell_formula_units_Z 32
_cell_length_a 15.845835
_cell_length_b 7.509838
_cell_length_c 15.845845
_cell_angle_alpha 90.000000
_cell_angle_beta 128.170529
_cell_angle_gamma 90.000000
_cell_volume 1482.450712
_symmetry_space_group_name_H-M "P 2/M"
_symmetry_group_IT_number 10
_symmetry_cell_setting 'monoclinic'
loop_
_space_group_symop_operation_xyz
x,y,z
-x,y,-z
-x,-y,-z
x,-y,z
loop_
_atom_site_type_symbol
_atom_site_label
_atom_site_fract_x
_atom_site_fract_y
_atom_site_fract_z
Si Si1 0.606229 0.203904 0.510194
Si Si2 0.051310 0.716359 0.661913
Si Si3 0.359822 0.285881 0.140178
Si Si4 0.989806 0.203904 0.893771
Si Si5 0.596857 0.298108 0.316515
Si Si6 0.183485 0.701892 0.903143
Si Si7 0.838087 0.283641 0.448690
Si Si8 0.247809 0.783930 0.252192
O O1 0.500000 0.196084 0.500000
O O2 0.587787 0.302657 0.412143
O O3 0.689883 0.282176 0.627499
O O4 0.636150 0.000000 0.506315
O O5 0.046319 0.500000 0.667069
O O6 0.124809 0.782301 0.784594
O O7 0.110486 0.756253 0.610486
O O8 0.926925 0.776449 0.573075
O O9 0.364764 0.500000 0.135235
O O10 0.482983 0.217885 0.215955
O O11 0.303450 0.254600 0.196550
O O12 0.284045 0.217885 0.017017
O O13 0.872501 0.282175 0.810117
O O14 0.087857 0.302658 0.912213
O O15 0.993686 0.000000 0.863851
O O16 0.000000 0.196085 0.000000
O O17 0.600833 0.500000 0.284690
O O18 0.715406 0.217699 0.375191
O O19 0.215310 0.500000 0.899167
O O20 0.832931 0.500000 0.453681
O O21 0.245725 0.000000 0.254276
#
# Coordination Sequence:
#
# PCOD9148237 Si02
#       8
#     4   4   4   4   4   4   4   4
#     4  10  20  33  49  69  96 130 167 200 235 282
#     4   8  15  30  51  73  96 122 155 197 243 290
#     4  10  20  32  45  68 102 131 157 198 244 280
#     4  10  20  33  49  69  96 130 167 200 235 282
#     4  10  20  32  49  73  99 127 162 200 241 285
#     4  10  20  32  49  73  99 127 162 200 241 285
#     4   8  15  30  51  73  96 122 155 197 243 290
#     4  10  20  34  48  65  94 132 168 199 236 285
#
# _framework density 21.585878999999998
#
# number of rings (size 3 to 8) (size 9 to 14) (size 15 to 20)
#    0.000    2.500    2.500    0.750    1.750    1.500 
#    0.000    0.625    0.000    4.500    0.000    1.750 
#    0.000    3.000    0.000    0.000    0.000    0.000 
#
# Total GULP energy -178333.491241 kJ/mol
# GULP energy per Si atom -5572.921601 kJ/mol
# Density = 2.153675 g / cm^3
# Si number density = 21.585879 Si / 1000 Ang^3
#
#
#
# Elastic Constant Matrix: (Units=GPa)
#
#
# Indices 1 2 3 4 5 6 
#
# 1 98.2106 1.7932 65.5973 0.0000 38.2614 0.0000
# 2 1.7932 62.1880 6.9515 0.0000 4.4674 0.0000
# 3 65.5973 6.9515 194.7442 0.0000 45.3386 0.0000
# 4 0.0000 0.0000 0.0000 -157.9109 0.0000 274.1778
# 5 38.2614 4.4674 45.3386 0.0000 44.5258 0.0000
# 6 0.0000 0.0000 0.0000 274.1778 0.0000 -474.5198
#
#
#
# Elastic Compliance Matrix: (Units=1/GPa)
#
#
# Indices 1 2 3 4 5 6 
#
# 1 0.016541 0.000664 -0.002976 0.000000 -0.011250 0.000000
# 2 0.000664 0.016234 -0.000382 0.000000 -0.001811 0.000000
# 3 -0.002976 -0.000382 0.007270 0.000000 -0.004807 0.000000
# 4 0.000000 0.000000 0.000000 1.963942 0.000000 1.134767
# 5 -0.011250 -0.001811 -0.004807 0.000000 0.037202 0.000000
# 6 0.000000 0.000000 0.000000 1.134767 0.000000 0.653561
#
#
# Mechanical properties :
#
#
# Convention : Reuss Voigt Hill
#
# Bulk Modulus (GPa) = 28.85420 55.98077 42.41748
# Shear Modulus (GPa) = 1.84387 -98.86094 -48.50853
#
# Velocity S-wave (km/s) = 0.92523 -6.77483 -4.74564
# Velocity P-wave (km/s) = 3.81282 5.93359 3.21480
#
# Compressibility (1/GPa) = 0.03465700
#
# Stress axis : x y z
#
# Youngs Moduli (GPa) = 60.45726 61.59964 137.54748
#
# Poissons Ratio (x) = -0.04089 0.40937
# Poissons Ratio (y) = -0.04014 0.05248
# Poissons Ratio (z) = 0.17993 0.02350
#
# Static dielectric constant tensor:
#      x y z
#    x 1.740600 0.000000 0.033730 
#    y 0.000000 1.863600 0.000000 
#    z 0.033730 0.000000 1.779540 
# 
# From -- ./inp_files/66583.got.cif
#   From: 2010.05.17/outbox.cif.g08.bks.cpg/sg10_34_cif.got.tgz:66583.got - 2010.06.03 11:33:40.
