data_PCOD9148033
_publ_section_title
;
Structure prediction by ZEFSAII (Michael W. Deem and Ramdas Pophale) SiO2 
 PCOD9148033
Probable space group: P 2/M
;
_chemical_formula_sum "Si O2"
_cell_formula_units_Z 23
_cell_length_a 12.904725
_cell_length_b 16.391143
_cell_length_c 6.716881
_cell_angle_alpha 90.000000
_cell_angle_beta 52.266863
_cell_angle_gamma 90.000000
_cell_volume 1123.648814
_symmetry_space_group_name_H-M "P 2/M"
_symmetry_group_IT_number 10
_symmetry_cell_setting 'monoclinic'
loop_
_space_group_symop_operation_xyz
x,y,z
-x,y,-z
-x,-y,-z
x,-y,z
loop_
_atom_site_type_symbol
_atom_site_label
_atom_site_fract_x
_atom_site_fract_y
_atom_site_fract_z
Si Si1 0.119329 0.092570 0.011548
Si Si2 0.633009 0.366985 0.576861
Si Si3 0.123190 0.592349 0.971713
Si Si4 0.361096 0.797518 0.687973
Si Si5 0.000000 0.201135 0.500000
Si Si6 0.500000 0.500000 0.500000
Si Si7 0.754994 0.301606 0.820298
O O1 0.063866 0.144295 0.259605
O O2 0.156963 0.000000 0.022186
O O3 0.241291 0.143098 0.782219
O O4 0.000000 0.088736 0.000000
O O5 0.756750 0.409955 0.323364
O O6 0.627617 0.279345 0.474428
O O7 0.515757 0.427002 0.652945
O O8 0.667779 0.349614 0.764036
O O9 0.087911 0.500000 0.071992
O O10 0.172664 0.641266 0.103425
O O11 0.000000 0.629971 0.000000
O O12 0.500000 0.841067 0.500000
O O13 0.331149 0.759990 0.942782
O O14 0.122872 0.255744 0.429556
#
# Coordination Sequence:
#
# PCOD9148033 Si02
#       7
#     4   4   4   4   2   1   4
#     4  10  21  38  66  97 125 162 200 249 312 376
#     4  11  22  41  57  83 118 162 212 258 306 365
#     4  10  21  36  54  83 117 147 197 263 312 362
#     4  10  22  41  59  89 127 161 206 261 308 371
#     4  10  19  38  61  96 124 156 200 255 296 376
#     4  12  24  40  60  82 122 162 216 276 298 346
#     4  10  22  36  63  86 114 169 207 246 320 368
#
# _framework density 20.469028000000002
#
# number of rings (size 3 to 8) (size 9 to 14) (size 15 to 20)
#    0.000    1.739    1.739    2.348    1.217    5.913 
#    0.000    5.652    0.000    0.000    0.000    9.739 
#    0.000    0.000    0.000    0.000    0.000    0.000 
#
# Total GULP energy -128160.808908 kJ/mol
# GULP energy per Si atom -5572.209083 kJ/mol
# Density = 2.042244 g / cm^3
# Si number density = 20.469028 Si / 1000 Ang^3
#
#
#
# Elastic Constant Matrix: (Units=GPa)
#
#
# Indices 1 2 3 4 5 6 
#
# 1 97.7664 48.0190 42.8794 0.0000 3.4750 0.0000
# 2 48.0190 91.5619 34.8773 0.0000 -1.3447 0.0000
# 3 42.8794 34.8773 61.8281 0.0000 -2.6098 0.0000
# 4 0.0000 0.0000 0.0000 12.6691 0.0000 6.3015
# 5 3.4750 -1.3447 -2.6098 0.0000 40.8873 0.0000
# 6 0.0000 0.0000 0.0000 6.3015 0.0000 31.4727
#
#
#
# Elastic Compliance Matrix: (Units=1/GPa)
#
#
# Indices 1 2 3 4 5 6 
#
# 1 0.016820 -0.005572 -0.008613 0.000000 -0.002162 0.000000
# 2 -0.005572 0.015756 -0.004996 0.000000 0.000673 0.000000
# 3 -0.008613 -0.004996 0.025057 0.000000 0.002167 0.000000
# 4 0.000000 0.000000 0.000000 0.087662 0.000000 -0.017552
# 5 -0.002162 0.000673 0.002167 0.000000 0.024802 0.000000
# 6 0.000000 0.000000 0.000000 -0.017552 0.000000 0.035288
#
#
# Mechanical properties :
#
#
# Convention : Reuss Voigt Hill
#
# Bulk Modulus (GPa) = 51.88920 55.85641 53.87281
# Shear Modulus (GPa) = 19.98643 25.36453 22.67548
#
# Velocity S-wave (km/s) = 3.12817 3.52400 3.33197
# Velocity P-wave (km/s) = 6.20100 6.62613 6.41709
#
# Compressibility (1/GPa) = 0.01927183
#
# Stress axis : x y z
#
# Youngs Moduli (GPa) = 59.45449 63.46601 39.90935
#
# Poissons Ratio (x) = 0.35362 0.34374
# Poissons Ratio (y) = 0.33127 0.19937
# Poissons Ratio (z) = 0.51208 0.31705
#
# Static dielectric constant tensor:
#      x y z
#    x 1.827540 0.000000 0.004870 
#    y 0.000000 1.753570 0.000000 
#    z 0.004870 0.000000 1.811310 
# 
# From -- ./inp_files/7191.got.cif
#   From: 2010.05.17/outbox.cif.g08.bks.cpg/sg10_4_cif.got.tgz:7191.got - 2010.06.03 11:33:40.
