data_PCOD9148925
_publ_section_title
;
Structure prediction by ZEFSAII (Michael W. Deem and Ramdas Pophale) SiO2 
 PCOD9148925
Probable space group: P 2/M
;
_chemical_formula_sum "Si O2"
_cell_formula_units_Z 28
_cell_length_a 14.930913
_cell_length_b 15.473289
_cell_length_c 14.930930
_cell_angle_alpha 90.000000
_cell_angle_beta 31.417510
_cell_angle_gamma 90.000000
_cell_volume 1798.121255
_symmetry_space_group_name_H-M "P 2/M"
_symmetry_group_IT_number 10
_symmetry_cell_setting 'monoclinic'
loop_
_space_group_symop_operation_xyz
x,y,z
-x,y,-z
-x,-y,-z
x,-y,z
loop_
_atom_site_type_symbol
_atom_site_label
_atom_site_fract_x
_atom_site_fract_y
_atom_site_fract_z
Si Si1 0.929577 0.103258 0.300707
Si Si2 0.553246 0.894970 0.553247
Si Si3 0.497319 0.780877 0.110289
Si Si4 0.889710 0.780877 0.502682
Si Si5 0.002738 0.593983 0.605724
Si Si6 0.699293 0.103258 0.070423
Si Si7 0.605725 0.406017 0.002737
O O1 0.746818 0.130659 0.414982
O O2 0.953266 0.152877 0.373828
O O3 0.921702 0.000000 0.322825
O O4 0.096964 0.120126 0.096964
O O5 0.500000 0.864664 0.500000
O O6 0.414981 0.869340 0.746818
O O7 0.552209 0.000000 0.552212
O O8 0.305889 0.800525 0.305889
O O9 0.626172 0.847124 0.046734
O O10 0.500000 0.784618 0.000000
O O11 0.546535 0.683005 0.097408
O O12 0.902590 0.683005 0.453466
O O13 0.000000 0.784617 0.500000
O O14 0.072289 0.500000 0.576304
O O15 0.000000 0.591356 0.500000
O O16 0.806809 0.600945 0.806808
O O17 0.677174 0.000000 0.078301
O O18 0.576304 0.500000 0.072288
O O19 0.500000 0.408644 0.000000
#
# Coordination Sequence:
#
# PCOD9148925 Si02
#       7
#     4   4   4   4   4   4   4
#     4  10  20  34  50  70  98 127 159 199 238 283
#     4   9  18  34  54  74  95 121 157 201 249 291
#     4  11  20  30  45  65  94 131 167 199 233 281
#     4  11  20  30  45  65  94 131 167 199 233 281
#     4   9  16  26  40  59  85 118 158 200 237 275
#     4  10  20  34  50  70  98 127 159 199 238 283
#     4   9  16  26  40  59  85 118 158 200 237 275
#
# _framework density 15.571809
#
# number of rings (size 3 to 8) (size 9 to 14) (size 15 to 20)
#    0.000    2.143    1.429    5.143    0.000    2.857 
#    0.000    2.857    0.000    0.000    0.000    0.000 
#    0.000    2.286    0.000    6.000    0.000    0.286 
#
# Total GULP energy -155954.464617 kJ/mol
# GULP energy per Si atom -5569.802308 kJ/mol
# Density = 1.553637 g / cm^3
# Si number density = 15.571809 Si / 1000 Ang^3
#
#
#
# Elastic Constant Matrix: (Units=GPa)
#
#
# Indices 1 2 3 4 5 6 
#
# 1 65.5134 27.3728 37.5471 0.0000 0.4422 0.0000
# 2 27.3728 43.3497 29.2995 0.0000 -0.5562 0.0000
# 3 37.5471 29.2995 102.0204 0.0000 -10.9795 0.0000
# 4 0.0000 0.0000 0.0000 21.3588 0.0000 -6.0597
# 5 0.4422 -0.5562 -10.9795 0.0000 16.5153 0.0000
# 6 0.0000 0.0000 0.0000 -6.0597 0.0000 0.3671
#
#
#
# Elastic Compliance Matrix: (Units=1/GPa)
#
#
# Indices 1 2 3 4 5 6 
#
# 1 0.023191 -0.010643 -0.006014 0.000000 -0.004978 0.000000
# 2 -0.010643 0.033874 -0.006094 0.000000 -0.002625 0.000000
# 3 -0.006014 -0.006094 0.014821 0.000000 0.009809 0.000000
# 4 0.000000 0.000000 0.000000 -0.012712 0.000000 -0.209829
# 5 -0.004978 -0.002625 0.009809 0.000000 0.067116 0.000000
# 6 0.000000 0.000000 0.000000 -0.209829 0.000000 -0.739585
#
#
# Mechanical properties :
#
#
# Convention : Reuss Voigt Hill
#
# Bulk Modulus (GPa) = 37.90169 44.36914 41.13541
# Shear Modulus (GPa) = -8.94459 15.42583 3.24062
#
# Velocity S-wave (km/s) = -2.39928 3.15084 1.44416
# Velocity P-wave (km/s) = 4.08869 6.46468 5.40877
#
# Compressibility (1/GPa) = 0.02638405
#
# Stress axis : x y z
#
# Youngs Moduli (GPa) = 43.11933 29.52156 67.47053
#
# Poissons Ratio (x) = 0.31419 0.40580
# Poissons Ratio (y) = 0.45891 0.41116
# Poissons Ratio (z) = 0.25934 0.17990
#
# Static dielectric constant tensor:
#      x y z
#    x 1.504470 0.000000 -0.011380 
#    y 0.000000 1.543360 0.000000 
#    z -0.011380 0.000000 1.543890 
# 
# From -- ./inp_files/51813.got.cif
#   From: 2010.05.17/outbox.cif.g08.bks.cpg/sg10_26_cif.got.tgz:51813.got - 2010.06.03 11:33:40.
