data_PCOD9148899
_publ_section_title
;
Structure prediction by ZEFSAII (Michael W. Deem and Ramdas Pophale) SiO2 
 PCOD9148899
Probable space group: P 2/M
;
_chemical_formula_sum "Si O2"
_cell_formula_units_Z 32
_cell_length_a 13.196658
_cell_length_b 28.901282
_cell_length_c 9.890476
_cell_angle_alpha 90.000000
_cell_angle_beta 153.558269
_cell_angle_gamma 90.000000
_cell_volume 1679.727046
_symmetry_space_group_name_H-M "P 2/M"
_symmetry_group_IT_number 10
_symmetry_cell_setting 'monoclinic'
loop_
_space_group_symop_operation_xyz
x,y,z
-x,y,-z
-x,-y,-z
x,-y,z
loop_
_atom_site_type_symbol
_atom_site_label
_atom_site_fract_x
_atom_site_fract_y
_atom_site_fract_z
Si Si1 0.414055 0.372704 0.752206
Si Si2 0.594931 0.447309 0.759518
Si Si3 0.951921 0.762717 0.293731
Si Si4 0.921785 0.450397 0.562228
Si Si5 0.535191 0.204335 0.389573
Si Si6 0.787814 0.051498 0.360630
Si Si7 0.169812 0.292827 0.314317
Si Si8 0.715279 0.151283 0.359458
O O1 0.550327 0.409669 0.823190
O O2 0.209540 0.405011 0.556325
O O3 0.346327 0.330421 0.577010
O O4 0.500000 0.354622 0.000000
O O5 0.500000 0.432973 0.500000
O O6 0.507038 0.500000 0.682283
O O7 0.865203 0.451760 0.083539
O O8 0.000000 0.743616 0.500000
O O9 0.032384 0.726223 0.278691
O O10 0.104523 0.809193 0.464882
O O11 0.694796 0.777087 0.954741
O O12 0.795918 0.500000 0.422474
O O13 0.000000 0.447957 0.500000
O O14 0.500000 0.188215 0.500000
O O15 0.706564 0.247790 0.598974
O O16 0.632489 0.164731 0.409535
O O17 0.817026 0.099929 0.472449
O O18 0.000000 0.053975 0.500000
O O19 0.824468 0.000000 0.463896
O O20 0.500000 0.052039 0.000000
O O21 0.000000 0.312704 0.000000
O O22 0.500000 0.154649 0.000000
#
# Coordination Sequence:
#
# PCOD9148899 Si02
#       8
#     4   4   4   4   4   4   4   4
#     4  12  26  40  62  90 119 153 196 241 300 363
#     4  10  23  42  63  90 119 150 192 239 290 354
#     4  11  22  39  64  86 115 157 203 260 312 362
#     4  10  21  40  64  88 116 150 191 237 290 354
#     4  11  23  42  62  84 119 164 206 260 319 376
#     4   9  18  32  54  90 138 180 218 272 336 395
#     4  11  27  43  58  86 119 156 199 245 307 387
#     4  10  20  33  60  95 123 157 218 267 315 374
#
# _framework density 19.050715
#
# number of rings (size 3 to 8) (size 9 to 14) (size 15 to 20)
#    0.000    1.500    3.750    0.750    5.250    2.500 
#    0.000    1.875    0.000    0.375    0.000    0.875 
#    0.000    0.000    0.000    0.000    0.000    0.000 
#
# Total GULP energy -178167.793948 kJ/mol
# GULP energy per Si atom -5567.743561 kJ/mol
# Density = 1.900735 g / cm^3
# Si number density = 19.050715 Si / 1000 Ang^3
#
#
#
# Elastic Constant Matrix: (Units=GPa)
#
#
# Indices 1 2 3 4 5 6 
#
# 1 81.3527 18.1479 11.7768 0.0000 -11.4233 0.0000
# 2 18.1479 84.3640 -5.6246 0.0000 -8.6797 0.0000
# 3 11.7768 -5.6246 69.5668 0.0000 -16.1728 0.0000
# 4 0.0000 0.0000 0.0000 1.9166 0.0000 -7.3435
# 5 -11.4233 -8.6797 -16.1728 0.0000 32.5076 0.0000
# 6 0.0000 0.0000 0.0000 -7.3435 0.0000 -106.8415
#
#
#
# Elastic Compliance Matrix: (Units=1/GPa)
#
#
# Indices 1 2 3 4 5 6 
#
# 1 0.013602 -0.002719 -0.001787 0.000000 0.003165 0.000000
# 2 -0.002719 0.012975 0.002366 0.000000 0.003686 0.000000
# 3 -0.001787 0.002366 0.016814 0.000000 0.008369 0.000000
# 4 0.000000 0.000000 0.000000 0.413002 0.000000 -0.028387
# 5 0.003165 0.003686 0.008369 0.000000 0.037022 0.000000
# 6 0.000000 0.000000 0.000000 -0.028387 0.000000 -0.007409
#
#
# Mechanical properties :
#
#
# Convention : Reuss Voigt Hill
#
# Bulk Modulus (GPa) = 25.56776 31.54264 28.55520
# Shear Modulus (GPa) = 9.93396 -0.41792 4.75802
#
# Velocity S-wave (km/s) = 2.28600 -0.46888 1.58208
# Velocity P-wave (km/s) = 4.51860 4.03733 4.28473
#
# Compressibility (1/GPa) = 0.03911175
#
# Stress axis : x y z
#
# Youngs Moduli (GPa) = 73.51940 77.06877 59.47373
#
# Poissons Ratio (x) = 0.20959 0.10627
# Poissons Ratio (y) = 0.19994 -0.14074
# Poissons Ratio (z) = 0.13136 -0.18238
#
# Static dielectric constant tensor:
#      x y z
#    x 1.667070 0.000000 0.084090 
#    y 0.000000 1.636360 0.000000 
#    z 0.084090 0.000000 1.647150 
# 
# From -- ./inp_files/26227.got.cif
#   From: 2010.05.17/outbox.cif.g08.bks.cpg/sg10_14_cif.got.tgz:26227.got - 2010.06.03 11:33:40.
