data_PCOD9148211
_publ_section_title
;
Structure prediction by ZEFSAII (Michael W. Deem and Ramdas Pophale) SiO2 
 PCOD9148211
Probable space group: P 2/M
;
_chemical_formula_sum "Si O2"
_cell_formula_units_Z 32
_cell_length_a 12.047075
_cell_length_b 7.396674
_cell_length_c 20.160648
_cell_angle_alpha 90.000000
_cell_angle_beta 50.167619
_cell_angle_gamma 90.000000
_cell_volume 1379.556479
_symmetry_space_group_name_H-M "P 2/M"
_symmetry_group_IT_number 10
_symmetry_cell_setting 'monoclinic'
loop_
_space_group_symop_operation_xyz
x,y,z
-x,y,-z
-x,-y,-z
x,-y,z
loop_
_atom_site_type_symbol
_atom_site_label
_atom_site_fract_x
_atom_site_fract_y
_atom_site_fract_z
Si Si1 0.081779 0.217847 0.312926
Si Si2 0.574970 0.710330 0.596565
Si Si3 0.843030 0.290375 0.574362
Si Si4 0.251784 0.796229 0.737233
Si Si5 0.693890 0.220003 0.876497
Si Si6 0.382228 0.220087 0.946797
Si Si7 0.766275 0.219023 0.403653
Si Si8 0.837844 0.221169 0.084068
O O1 0.172296 0.280460 0.341201
O O2 0.161865 0.277886 0.215894
O O3 0.915766 0.276657 0.381030
O O4 0.080377 0.000000 0.313839
O O5 0.553375 0.500000 0.621453
O O6 0.707358 0.788882 0.588402
O O7 0.425499 0.803446 0.670650
O O8 0.630979 0.722544 0.499596
O O9 0.849569 0.500000 0.550742
O O10 0.000000 0.207218 0.500000
O O11 0.223534 0.713097 0.675702
O O12 0.196844 0.717348 0.827598
O O13 0.189959 0.000000 0.758123
O O14 0.550464 0.274998 0.890113
O O15 0.691638 0.000000 0.878233
O O16 0.684424 0.275938 0.956604
O O17 0.284775 0.279884 0.922057
O O18 0.381912 0.000000 0.944812
O O19 0.759522 0.000000 0.403955
O O20 0.832995 0.000000 0.086481
O O21 0.000000 0.272392 0.000000
#
# Coordination Sequence:
#
# PCOD9148211 Si02
#       8
#     4   4   4   4   4   4   4   4
#     4  10  20  31  52  81 108 139 177 216 261 321
#     4  11  23  39  59  79 103 141 186 228 268 323
#     4  10  21  38  54  73 105 139 172 216 268 315
#     4  10  22  37  55  81 113 144 178 225 273 314
#     4   8  15  26  43  71 104 134 166 213 258 301
#     4   8  14  26  43  67 102 136 169 209 257 305
#     4  10  21  36  53  79 113 145 177 223 276 315
#     4   9  18  30  48  74 106 144 177 209 259 323
#
# _framework density 23.195861000000001
#
# number of rings (size 3 to 8) (size 9 to 14) (size 15 to 20)
#    0.000    2.500    1.250    1.500    3.500    3.250 
#    0.000    0.000    0.000    0.375    0.000    2.625 
#    0.000    0.000    0.000    0.000    0.000    0.000 
#
# Total GULP energy -178702.767317 kJ/mol
# GULP energy per Si atom -5584.461479 kJ/mol
# Density = 2.314307 g / cm^3
# Si number density = 23.195861 Si / 1000 Ang^3
#
#
#
# Elastic Constant Matrix: (Units=GPa)
#
#
# Indices 1 2 3 4 5 6 
#
# 1 106.6088 -4.9738 28.1308 0.0000 15.2999 0.0000
# 2 -4.9738 83.9192 -6.6371 0.0000 -1.4618 0.0000
# 3 28.1308 -6.6371 137.5398 0.0000 8.1166 0.0000
# 4 0.0000 0.0000 0.0000 3.7682 0.0000 14.4215
# 5 15.2999 -1.4618 8.1166 0.0000 28.3769 0.0000
# 6 0.0000 0.0000 0.0000 14.4215 0.0000 2.0579
#
#
#
# Elastic Compliance Matrix: (Units=1/GPa)
#
#
# Indices 1 2 3 4 5 6 
#
# 1 0.010630 0.000393 -0.001849 0.000000 -0.005182 0.000000
# 2 0.000393 0.011982 0.000482 0.000000 0.000267 0.000000
# 3 -0.001849 0.000482 0.007743 0.000000 -0.001193 0.000000
# 4 0.000000 0.000000 0.000000 -0.010278 0.000000 0.072026
# 5 -0.005182 0.000267 -0.001193 0.000000 0.038389 0.000000
# 6 0.000000 0.000000 0.000000 0.072026 0.000000 -0.018820
#
#
# Mechanical properties :
#
#
# Convention : Reuss Voigt Hill
#
# Bulk Modulus (GPa) = 35.20236 40.12306 37.66271
# Shear Modulus (GPa) = 97.91833 27.61046 62.76440
#
# Velocity S-wave (km/s) = 6.50426 3.45384 5.20742
# Velocity P-wave (km/s) = 8.46264 5.76545 7.24074
#
# Compressibility (1/GPa) = 0.02840718
#
# Stress axis : x y z
#
# Youngs Moduli (GPa) = 94.07203 83.45626 129.15708
#
# Poissons Ratio (x) = -0.03284 0.23886
# Poissons Ratio (y) = -0.03702 -0.06225
# Poissons Ratio (z) = 0.17397 -0.04022
#
# Static dielectric constant tensor:
#      x y z
#    x 1.875320 0.000000 0.012520 
#    y 0.000000 1.879150 0.000000 
#    z 0.012520 0.000000 1.838720 
# 
# From -- ./inp_files/83541.got.cif
#   From: 2010.05.17/outbox.cif.g08.bks.cpg/sg10_42_cif.got.tgz:83541.got - 2010.06.03 11:33:40.
