data_PCOD9148922
_publ_section_title
;
Structure prediction by ZEFSAII (Michael W. Deem and Ramdas Pophale) SiO2 
 PCOD9148922
Probable space group: P 2/M
;
_chemical_formula_sum "Si O2"
_cell_formula_units_Z 32
_cell_length_a 20.739458
_cell_length_b 7.433794
_cell_length_c 11.775421
_cell_angle_alpha 90.000000
_cell_angle_beta 126.258116
_cell_angle_gamma 90.000000
_cell_volume 1463.908035
_symmetry_space_group_name_H-M "P 2/M"
_symmetry_group_IT_number 10
_symmetry_cell_setting 'monoclinic'
loop_
_space_group_symop_operation_xyz
x,y,z
-x,y,-z
-x,-y,-z
x,-y,z
loop_
_atom_site_type_symbol
_atom_site_label
_atom_site_fract_x
_atom_site_fract_y
_atom_site_fract_z
Si Si1 0.246440 0.290098 0.170350
Si Si2 0.089706 0.212062 0.587024
Si Si3 0.914648 0.782552 0.866552
Si Si4 0.665606 0.288893 0.519619
Si Si5 0.459815 0.280293 0.782892
Si Si6 0.776482 0.717433 0.105964
Si Si7 0.174574 0.782863 0.450204
Si Si8 0.380550 0.281191 0.936255
O O1 0.268431 0.500000 0.181350
O O2 0.157483 0.279429 0.128846
O O3 0.303323 0.211555 0.328364
O O4 0.243208 0.214326 0.040516
O O5 0.138206 0.231371 0.754040
O O6 0.144436 0.284191 0.540741
O O7 0.000000 0.287008 0.500000
O O8 0.081283 0.000000 0.553822
O O9 0.890108 0.729715 0.713357
O O10 0.915182 0.000000 0.869775
O O11 0.000000 0.718718 0.000000
O O12 0.651208 0.500000 0.524258
O O13 0.586724 0.215281 0.376517
O O14 0.739307 0.277721 0.506916
O O15 0.459101 0.500000 0.780097
O O16 0.409765 0.224713 0.842468
O O17 0.550949 0.226951 0.902301
O O18 0.775014 0.500000 0.101346
O O19 0.706505 0.780125 0.117549
O O20 0.179186 0.000000 0.457032
O O21 0.379807 0.500000 0.933944
#
# Coordination Sequence:
#
# PCOD9148922 Si02
#       8
#     4   4   4   4   4   4   4   4
#     4   9  19  32  45  68  99 128 157 196 241 281
#     4  10  22  36  51  70  94 124 157 198 243 285
#     4   9  18  31  51  71  87 116 159 200 235 281
#     4   9  16  29  49  71  95 126 161 195 235 281
#     4   8  13  23  44  71  95 121 159 201 235 275
#     4  10  20  34  50  69  99 132 161 195 238 288
#     4   9  18  32  47  69  95 117 151 197 242 283
#     4   8  14  25  43  70  98 124 157 197 238 277
#
# _framework density 21.859296000000001
#
# number of rings (size 3 to 8) (size 9 to 14) (size 15 to 20)
#    0.000    3.000    0.000    1.500    1.750    2.500 
#    0.000    0.625    0.000    4.500    0.000    3.500 
#    0.000    5.000    0.000    0.000    0.000    0.000 
#
# Total GULP energy -178557.762026 kJ/mol
# GULP energy per Si atom -5579.930063 kJ/mol
# Density = 2.180954 g / cm^3
# Si number density = 21.859296 Si / 1000 Ang^3
#
#
#
# Elastic Constant Matrix: (Units=GPa)
#
#
# Indices 1 2 3 4 5 6 
#
# 1 42.3112 -4.7196 31.3035 0.0000 1.6484 0.0000
# 2 -4.7196 66.3005 -5.1894 0.0000 -0.9947 0.0000
# 3 31.3035 -5.1894 128.4039 0.0000 22.6486 0.0000
# 4 0.0000 0.0000 0.0000 7.7288 0.0000 3.3869
# 5 1.6484 -0.9947 22.6486 0.0000 31.6443 0.0000
# 6 0.0000 0.0000 0.0000 3.3869 0.0000 9.1827
#
#
#
# Elastic Compliance Matrix: (Units=1/GPa)
#
#
# Indices 1 2 3 4 5 6 
#
# 1 0.029450 0.001544 -0.007846 0.000000 0.004130 0.000000
# 2 0.001544 0.015212 0.000192 0.000000 0.000260 0.000000
# 3 -0.007846 0.000192 0.011027 0.000000 -0.007478 0.000000
# 4 0.000000 0.000000 0.000000 0.154331 0.000000 -0.056922
# 5 0.004130 0.000260 -0.007478 0.000000 0.036746 0.000000
# 6 0.000000 0.000000 0.000000 -0.056922 0.000000 0.129895
#
#
# Mechanical properties :
#
#
# Convention : Reuss Voigt Hill
#
# Bulk Modulus (GPa) = 23.00360 31.08941 27.04650
# Shear Modulus (GPa) = 12.39558 24.08590 18.24074
#
# Velocity S-wave (km/s) = 2.38389 3.32303 2.89184
# Velocity P-wave (km/s) = 4.25718 5.38301 4.85285
#
# Compressibility (1/GPa) = 0.04347145
#
# Stress axis : x y z
#
# Youngs Moduli (GPa) = 33.95549 65.73877 90.68337
#
# Poissons Ratio (x) = -0.10152 0.71147
# Poissons Ratio (y) = -0.05244 -0.01745
# Poissons Ratio (z) = 0.26640 -0.01265
#
# Static dielectric constant tensor:
#      x y z
#    x 1.753860 0.000000 -0.012310 
#    y 0.000000 1.837830 0.000000 
#    z -0.012310 0.000000 1.817760 
# 
# From -- ./inp_files/55348.got.cif
#   From: 2010.05.17/outbox.cif.g08.bks.cpg/sg10_28_cif.got.tgz:55348.got - 2010.06.03 11:33:40.
