data_PCOD9148631
_publ_section_title
;
Structure prediction by ZEFSAII (Michael W. Deem and Ramdas Pophale) SiO2 
 PCOD9148631
Probable space group: P 2/M
;
_chemical_formula_sum "Si O2"
_cell_formula_units_Z 28
_cell_length_a 5.036290
_cell_length_b 26.516096
_cell_length_c 10.299298
_cell_angle_alpha 90.000000
_cell_angle_beta 76.555895
_cell_angle_gamma 90.000000
_cell_volume 1337.706846
_symmetry_space_group_name_H-M "P 2/M"
_symmetry_group_IT_number 10
_symmetry_cell_setting 'monoclinic'
loop_
_space_group_symop_operation_xyz
x,y,z
-x,y,-z
-x,-y,-z
x,-y,z
loop_
_atom_site_type_symbol
_atom_site_label
_atom_site_fract_x
_atom_site_fract_y
_atom_site_fract_z
Si Si1 0.759770 0.444021 0.693703
Si Si2 0.151995 0.687681 0.755121
Si Si3 0.053626 0.800711 0.842349
Si Si4 0.267844 0.662019 0.395068
Si Si5 0.553659 0.132760 0.839946
Si Si6 0.701278 0.060021 0.592842
Si Si7 0.811355 0.417128 0.139725
O O1 0.760804 0.500000 0.638458
O O2 0.729648 0.398566 0.595391
O O3 0.494661 0.437829 0.817224
O O4 0.030676 0.434142 0.747573
O O5 0.148947 0.746582 0.783619
O O6 0.419412 0.679102 0.633421
O O7 0.202686 0.644128 0.855944
O O8 0.850231 0.674619 0.735309
O O9 0.281141 0.843909 0.809706
O O10 0.779229 0.822925 0.812166
O O11 0.000000 0.793472 0.000000
O O12 0.000000 0.682690 0.500000
O O13 0.651270 0.088180 0.734632
O O14 0.500000 0.120002 0.000000
O O15 0.500000 0.076713 0.500000
O O16 0.000000 0.068737 0.500000
O O17 0.663615 0.000000 0.616906
O O18 0.000000 0.433929 0.000000
#
# Coordination Sequence:
#
# PCOD9148631 Si02
#       7
#     4   4   4   4   4   4   4
#     4  10  21  34  50  73  97 126 164 205 257 319
#     4  10  20  36  55  76 102 135 177 213 261 326
#     4  10  20  36  58  83 115 149 183 231 284 334
#     4  10  21  37  54  72  99 132 172 222 264 313
#     4  10  21  37  59  89 121 155 199 247 292 340
#     4  10  21  39  62  87 121 164 204 245 296 349
#     4  10  20  33  51  74 100 129 161 202 253 315
#
# _framework density 20.931343999999999
#
# number of rings (size 3 to 8) (size 9 to 14) (size 15 to 20)
#    0.000    2.000    0.000    3.429    0.000    2.286 
#    0.000   11.429    0.000   10.286    0.000    0.000 
#    0.000    0.000    0.000    0.000    0.000    0.000 
#
# Total GULP energy -156131.749354 kJ/mol
# GULP energy per Si atom -5576.133905 kJ/mol
# Density = 2.088370 g / cm^3
# Si number density = 20.931344 Si / 1000 Ang^3
#
#
#
# Elastic Constant Matrix: (Units=GPa)
#
#
# Indices 1 2 3 4 5 6 
#
# 1 95.4084 1.5251 13.1947 0.0000 -9.4365 0.0000
# 2 1.5251 90.8410 41.8464 0.0000 -8.9585 0.0000
# 3 13.1947 41.8464 51.1177 0.0000 -21.2880 0.0000
# 4 0.0000 0.0000 0.0000 -20.2384 0.0000 19.6677
# 5 -9.4365 -8.9585 -21.2880 0.0000 25.7795 0.0000
# 6 0.0000 0.0000 0.0000 19.6677 0.0000 -41.4108
#
#
#
# Elastic Compliance Matrix: (Units=1/GPa)
#
#
# Indices 1 2 3 4 5 6 
#
# 1 0.011103 0.001549 -0.003380 0.000000 0.001812 0.000000
# 2 0.001549 0.019320 -0.020094 0.000000 -0.009312 0.000000
# 3 -0.003380 -0.020094 0.051000 0.000000 0.033895 0.000000
# 4 0.000000 0.000000 0.000000 -0.091765 0.000000 -0.043583
# 5 0.001812 -0.009312 0.033895 0.000000 0.064207 0.000000
# 6 0.000000 0.000000 0.000000 -0.043583 0.000000 -0.044847
#
#
# Mechanical properties :
#
#
# Convention : Reuss Voigt Hill
#
# Bulk Modulus (GPa) = 26.61387 38.94440 32.77914
# Shear Modulus (GPa) = 76.46048 4.87944 40.66996
#
# Velocity S-wave (km/s) = 6.05049 1.52847 4.41275
# Velocity P-wave (km/s) = 7.84562 4.66488 6.45426
#
# Compressibility (1/GPa) = 0.03757439
#
# Stress axis : x y z
#
# Youngs Moduli (GPa) = 90.06514 51.75868 19.60769
#
# Poissons Ratio (x) = -0.08018 0.06627
# Poissons Ratio (y) = -0.13952 0.39400
# Poissons Ratio (z) = 0.30438 1.04005
#
# Static dielectric constant tensor:
#      x y z
#    x 1.641710 0.000000 0.060440 
#    y 0.000000 1.781810 0.000000 
#    z 0.060440 0.000000 1.868190 
# 
# From -- ./inp_files/39713.got.cif
#   From: 2010.05.17/outbox.cif.g08.bks.cpg/sg10_20_cif.got.tgz:39713.got - 2010.06.03 11:33:40.
