data_PCOD9148812
_publ_section_title
;
Structure prediction by ZEFSAII (Michael W. Deem and Ramdas Pophale) SiO2 
 PCOD9148812
Probable space group: P 2/M
;
_chemical_formula_sum "Si O2"
_cell_formula_units_Z 32
_cell_length_a 5.281042
_cell_length_b 12.014605
_cell_length_c 25.342593
_cell_angle_alpha 90.000000
_cell_angle_beta 118.423871
_cell_angle_gamma 90.000000
_cell_volume 1414.137008
_symmetry_space_group_name_H-M "P 2/M"
_symmetry_group_IT_number 10
_symmetry_cell_setting 'monoclinic'
loop_
_space_group_symop_operation_xyz
x,y,z
-x,y,-z
-x,-y,-z
x,-y,z
loop_
_atom_site_type_symbol
_atom_site_label
_atom_site_fract_x
_atom_site_fract_y
_atom_site_fract_z
Si Si1 0.687871 0.784981 0.146940
Si Si2 0.747502 0.872223 0.568390
Si Si3 0.845451 0.334619 0.933805
Si Si4 0.154279 0.372236 0.458521
Si Si5 0.635544 0.780664 0.255708
Si Si6 0.185022 0.618595 0.191033
Si Si7 0.813840 0.885984 0.056764
Si Si8 0.732272 0.872208 0.684300
O O1 0.486627 0.700092 0.093406
O O2 0.548061 0.823805 0.187854
O O3 0.969184 0.713709 0.188073
O O4 0.771741 0.879228 0.115099
O O5 0.500000 0.875414 0.500000
O O6 0.905060 0.750461 0.574916
O O7 0.607551 0.866217 0.612860
O O8 0.889270 0.000000 0.580743
O O9 0.849971 0.386718 0.876030
O O10 0.008947 0.218753 0.943126
O O11 0.000000 0.386375 0.000000
O O12 0.500000 0.373632 0.500000
O O13 0.081723 0.500000 0.429502
O O14 0.000000 0.366887 0.500000
O O15 0.972980 0.802484 0.291858
O O16 0.505897 0.656405 0.238287
O O17 0.479633 0.835381 0.290197
O O18 0.108845 0.500000 0.206479
O O19 0.964845 0.000000 0.056742
O O20 0.500000 0.882482 0.000000
O O21 0.817032 0.000000 0.703494
#
# Coordination Sequence:
#
# PCOD9148812 Si02
#       8
#     4   4   4   4   4   4   4   4
#     4  10  21  40  61  86 125 165 215 276 328 401
#     4   9  20  40  68 104 144 184 225 277 343 411
#     4  10  20  36  58  87 129 160 205 268 332 407
#     4   9  18  34  58  89 129 176 220 264 313 379
#     4  11  23  46  65  94 129 174 224 276 327 392
#     4  10  23  43  68  91 122 169 221 283 344 397
#     4  10  20  33  53  83 120 167 213 262 324 393
#     4  11  24  43  69 100 138 177 220 274 333 401
#
# _framework density 22.628643
#
# number of rings (size 3 to 8) (size 9 to 14) (size 15 to 20)
#    0.000    2.000    2.500    0.375    0.000    6.250 
#    0.000    7.500    0.000    0.000    0.000    0.000 
#    0.000    0.000    0.000    0.000    0.000    0.000 
#
# Total GULP energy -178166.350519 kJ/mol
# GULP energy per Si atom -5567.698454 kJ/mol
# Density = 2.257714 g / cm^3
# Si number density = 22.628643 Si / 1000 Ang^3
#
#
#
# Elastic Constant Matrix: (Units=GPa)
#
#
# Indices 1 2 3 4 5 6 
#
# 1 96.4044 22.0778 36.4539 0.0000 -19.5703 0.0000
# 2 22.0778 165.6702 28.4937 0.0000 -19.3008 0.0000
# 3 36.4539 28.4937 122.1182 0.0000 -24.9786 0.0000
# 4 0.0000 0.0000 0.0000 61.6350 0.0000 -87.5401
# 5 -19.5703 -19.3008 -24.9786 0.0000 32.6071 0.0000
# 6 0.0000 0.0000 0.0000 -87.5401 0.0000 168.9022
#
#
#
# Elastic Compliance Matrix: (Units=1/GPa)
#
#
# Indices 1 2 3 4 5 6 
#
# 1 0.012531 -0.000628 -0.002528 0.000000 0.005213 0.000000
# 2 -0.000628 0.006592 -0.000747 0.000000 0.002953 0.000000
# 3 -0.002528 -0.000747 0.010337 0.000000 0.005959 0.000000
# 4 0.000000 0.000000 0.000000 0.061486 0.000000 0.031867
# 5 0.005213 0.002953 0.005959 0.000000 0.040110 0.000000
# 6 0.000000 0.000000 0.000000 0.031867 0.000000 0.022437
#
#
# Mechanical properties :
#
#
# Convention : Reuss Voigt Hill
#
# Bulk Modulus (GPa) = 46.17920 62.02706 54.10313
# Shear Modulus (GPa) = 29.67092 72.44002 51.05547
#
# Velocity S-wave (km/s) = 3.62499 5.66410 4.75513
# Velocity P-wave (km/s) = 6.16218 8.38131 7.35591
#
# Compressibility (1/GPa) = 0.02165477
#
# Stress axis : x y z
#
# Youngs Moduli (GPa) = 79.80322 151.69354 96.74441
#
# Poissons Ratio (x) = 0.09524 0.24456
# Poissons Ratio (y) = 0.05010 0.07224
# Poissons Ratio (z) = 0.20173 0.11326
#
# Static dielectric constant tensor:
#      x y z
#    x 1.861240 0.000000 0.013030 
#    y 0.000000 1.919980 0.000000 
#    z 0.013030 0.000000 1.890820 
# 
# From -- ./inp_files/87497.got.cif
#   From: 2010.05.17/outbox.cif.g08.bks.cpg/sg10_44_cif.got.tgz:87497.got - 2010.06.03 11:33:40.
