data_PCOD9148731
_publ_section_title
;
Structure prediction by ZEFSAII (Michael W. Deem and Ramdas Pophale) SiO2 
 PCOD9148731
Probable space group: P 2/M
;
_chemical_formula_sum "Si O2"
_cell_formula_units_Z 28
_cell_length_a 23.840948
_cell_length_b 7.404806
_cell_length_c 20.838990
_cell_angle_alpha 90.000000
_cell_angle_beta 19.681633
_cell_angle_gamma 90.000000
_cell_volume 1239.017653
_symmetry_space_group_name_H-M "P 2/M"
_symmetry_group_IT_number 10
_symmetry_cell_setting 'monoclinic'
loop_
_space_group_symop_operation_xyz
x,y,z
-x,y,-z
-x,-y,-z
x,-y,z
loop_
_atom_site_type_symbol
_atom_site_label
_atom_site_fract_x
_atom_site_fract_y
_atom_site_fract_z
Si Si1 0.748156 0.788080 0.400520
Si Si2 0.912211 0.290616 0.656863
Si Si3 0.537963 0.220882 0.386099
Si Si4 0.166511 0.718563 0.122375
Si Si5 0.896820 0.211916 0.954501
Si Si6 0.544610 0.281438 0.744274
Si Si7 0.518712 0.709388 0.050364
O O1 0.607346 0.713802 0.504846
O O2 0.678600 0.773260 0.547662
O O3 0.934005 0.710460 0.198003
O O4 0.761769 0.000000 0.370315
O O5 0.970400 0.500000 0.597458
O O6 0.928620 0.216114 0.711162
O O7 0.000000 0.208530 0.500000
O O8 0.714602 0.290688 0.856192
O O9 0.500000 0.269831 0.500000
O O10 0.539906 0.000000 0.380267
O O11 0.719523 0.286202 0.168281
O O12 0.166306 0.500000 0.125342
O O13 0.095142 0.773257 0.131122
O O14 0.360363 0.776613 0.918918
O O15 0.893837 0.000000 0.974078
O O16 0.542053 0.500000 0.749595
O O17 0.568408 0.216116 0.791808
O O18 0.461742 0.500000 0.106118
O O19 0.500000 0.791467 0.000000
#
# Coordination Sequence:
#
# PCOD9148731 Si02
#       7
#     4   4   4   4   4   4   4
#     4  10  20  33  52  78 103 130 166 204 246 298
#     4   8  14  24  39  62  92 124 160 203 247 289
#     4   9  18  34  55  77 103 133 163 203 253 297
#     4   9  17  30  49  72  99 133 170 207 249 298
#     4  10  20  33  52  78 103 130 166 204 246 298
#     4   9  17  30  49  72  99 133 170 207 249 298
#     4   8  14  24  39  62  92 124 160 203 247 289
#
# _framework density 22.598548000000001
#
# number of rings (size 3 to 8) (size 9 to 14) (size 15 to 20)
#    0.000    3.000    1.429    1.714    0.000    2.286 
#    0.000    5.714    0.000    2.571    0.000    2.000 
#    0.000    0.000    0.000    0.000    0.000    0.000 
#
# Total GULP energy -156228.893089 kJ/mol
# GULP energy per Si atom -5579.603325 kJ/mol
# Density = 2.254711 g / cm^3
# Si number density = 22.598548 Si / 1000 Ang^3
#
#
#
# Elastic Constant Matrix: (Units=GPa)
#
#
# Indices 1 2 3 4 5 6 
#
# 1 151.9386 0.5437 101.5243 0.0000 7.7780 0.0000
# 2 0.5437 76.4776 6.7691 0.0000 -5.8925 0.0000
# 3 101.5243 6.7691 144.2241 0.0000 -0.4968 0.0000
# 4 0.0000 0.0000 0.0000 -3.0927 0.0000 10.1885
# 5 7.7780 -5.8925 -0.4968 0.0000 28.9329 0.0000
# 6 0.0000 0.0000 0.0000 10.1885 0.0000 7.6502
#
#
#
# Elastic Compliance Matrix: (Units=1/GPa)
#
#
# Indices 1 2 3 4 5 6 
#
# 1 0.012804 0.000439 -0.009046 0.000000 -0.003508 0.000000
# 2 0.000439 0.013354 -0.000927 0.000000 0.002586 0.000000
# 3 -0.009046 -0.000927 0.013353 0.000000 0.002472 0.000000
# 4 0.000000 0.000000 0.000000 -0.060018 0.000000 0.079932
# 5 -0.003508 0.002586 0.002472 0.000000 0.036075 0.000000
# 6 0.000000 0.000000 0.000000 0.079932 0.000000 0.024263
#
#
# Mechanical properties :
#
#
# Convention : Reuss Voigt Hill
#
# Bulk Modulus (GPa) = 48.91418 65.59049 57.25234
# Shear Modulus (GPa) = 76.08860 24.28497 50.18679
#
# Velocity S-wave (km/s) = 5.80885 3.28170 4.71765
# Velocity P-wave (km/s) = 8.16592 6.59141 7.42054
#
# Compressibility (1/GPa) = 0.02044397
#
# Stress axis : x y z
#
# Youngs Moduli (GPa) = 78.10059 74.88457 74.88738
#
# Poissons Ratio (x) = -0.03290 0.67742
# Poissons Ratio (y) = -0.03431 0.06943
# Poissons Ratio (z) = 0.70649 0.06943
#
# Static dielectric constant tensor:
#      x y z
#    x 1.825320 0.000000 0.002050 
#    y 0.000000 1.902550 0.000000 
#    z 0.002050 0.000000 1.823150 
# 
# From -- ./inp_files/86460.got.cif
#   From: 2010.05.17/outbox.cif.g08.bks.cpg/sg10_44_cif.got.tgz:86460.got - 2010.06.03 11:33:40.
