data_PCOD9148639
_publ_section_title
;
Structure prediction by ZEFSAII (Michael W. Deem and Ramdas Pophale) SiO2 
 PCOD9148639
Probable space group: P 2/M
;
_chemical_formula_sum "Si O2"
_cell_formula_units_Z 32
_cell_length_a 9.156627
_cell_length_b 14.304287
_cell_length_c 22.413420
_cell_angle_alpha 90.000000
_cell_angle_beta 144.167334
_cell_angle_gamma 90.000000
_cell_volume 1718.610325
_symmetry_space_group_name_H-M "P 2/M"
_symmetry_group_IT_number 10
_symmetry_cell_setting 'monoclinic'
loop_
_space_group_symop_operation_xyz
x,y,z
-x,y,-z
-x,-y,-z
x,-y,z
loop_
_atom_site_type_symbol
_atom_site_label
_atom_site_fract_x
_atom_site_fract_y
_atom_site_fract_z
Si Si1 0.572286 0.891809 0.193118
Si Si2 0.246663 0.607956 0.441561
Si Si3 0.742274 0.887409 0.382265
Si Si4 0.244482 0.890148 0.879704
Si Si5 0.280631 0.387740 0.711821
Si Si6 0.250024 0.726078 0.109593
Si Si7 0.461168 0.394070 0.640206
Si Si8 0.755108 0.777673 0.754674
O O1 0.720548 0.866020 0.303602
O O2 0.715302 0.882979 0.178204
O O3 0.335223 0.824353 0.110097
O O4 0.498333 0.000000 0.175488
O O5 0.500000 0.651830 0.500000
O O6 0.241595 0.500000 0.416878
O O7 0.280347 0.604274 0.523989
O O8 0.973776 0.650022 0.343350
O O9 0.495417 0.841592 0.329525
O O10 0.000000 0.856815 0.500000
O O11 0.729673 0.000000 0.383953
O O12 0.001797 0.830050 0.815494
O O13 0.200565 0.000000 0.879780
O O14 0.500000 0.863320 0.000000
O O15 0.274614 0.500000 0.714105
O O16 0.520279 0.343679 0.821607
O O17 0.318743 0.366057 0.653874
O O18 0.207142 0.748100 0.164430
O O19 0.000000 0.687118 0.000000
O O20 0.556569 0.500000 0.680393
O O21 0.677508 0.319759 0.698134
#
# Coordination Sequence:
#
# PCOD9148639 Si02
#       8
#     4   4   4   4   4   4   4   4
#     4   9  19  34  52  75 103 133 166 207 255 305
#     4   9  17  30  49  73  98 126 164 207 250 295
#     4   9  18  34  54  76 105 137 167 204 252 308
#     4  10  20  35  55  78 104 133 168 214 262 303
#     4   9  18  32  50  72 100 133 166 205 250 295
#     4  10  20  33  51  74  99 131 171 211 250 297
#     4   9  18  32  49  70  99 133 167 205 249 296
#     4  10  20  33  53  76  99 132 172 209 250 303
#
# _framework density 18.619693999999999
#
# number of rings (size 3 to 8) (size 9 to 14) (size 15 to 20)
#    0.000    2.625    0.000    1.500    0.000    6.500 
#    0.000    0.625    0.000    3.375    0.000    0.000 
#    0.000    0.000    0.000    0.000    0.000    0.000 
#
# Total GULP energy -178274.961067 kJ/mol
# GULP energy per Si atom -5571.092533 kJ/mol
# Density = 1.857732 g / cm^3
# Si number density = 18.619694 Si / 1000 Ang^3
#
#
#
# Elastic Constant Matrix: (Units=GPa)
#
#
# Indices 1 2 3 4 5 6 
#
# 1 56.2339 23.3284 47.6638 0.0000 19.7092 0.0000
# 2 23.3284 35.2673 26.4586 0.0000 11.4987 0.0000
# 3 47.6638 26.4586 126.3502 0.0000 31.7741 0.0000
# 4 0.0000 0.0000 0.0000 28.8856 0.0000 -6.2259
# 5 19.7092 11.4987 31.7741 0.0000 23.7114 0.0000
# 6 0.0000 0.0000 0.0000 -6.2259 0.0000 47.7235
#
#
#
# Elastic Compliance Matrix: (Units=1/GPa)
#
#
# Indices 1 2 3 4 5 6 
#
# 1 0.033113 -0.012863 -0.006704 0.000000 -0.012303 0.000000
# 2 -0.012863 0.040415 -0.002068 0.000000 -0.006137 0.000000
# 3 -0.006704 -0.002068 0.013911 0.000000 -0.012066 0.000000
# 4 0.000000 0.000000 0.000000 0.035621 0.000000 0.004647
# 5 -0.012303 -0.006137 -0.012066 0.000000 0.071544 0.000000
# 6 0.000000 0.000000 0.000000 0.004647 0.000000 0.021560
#
#
# Mechanical properties :
#
#
# Convention : Reuss Voigt Hill
#
# Bulk Modulus (GPa) = 22.63970 45.86146 34.25058
# Shear Modulus (GPa) = 18.23769 28.09079 23.16424
#
# Velocity S-wave (km/s) = 3.13307 3.88836 3.53097
# Velocity P-wave (km/s) = 5.02728 6.69651 5.92101
#
# Compressibility (1/GPa) = 0.04417020
#
# Stress axis : x y z
#
# Youngs Moduli (GPa) = 30.19933 24.74307 71.88680
#
# Poissons Ratio (x) = 0.31826 0.48194
# Poissons Ratio (y) = 0.38845 0.14864
# Poissons Ratio (z) = 0.20246 0.05116
#
# Static dielectric constant tensor:
#      x y z
#    x 1.659720 0.000000 -0.010360 
#    y 0.000000 1.678190 0.000000 
#    z -0.010360 0.000000 1.660060 
# 
# From -- ./inp_files/53974.got.cif
#   From: 2010.05.17/outbox.cif.g08.bks.cpg/sg10_27_cif.got.tgz:53974.got - 2010.06.03 11:33:40.
