data_PCOD9148091
_publ_section_title
;
Structure prediction by ZEFSAII (Michael W. Deem and Ramdas Pophale) SiO2 
 PCOD9148091
Probable space group: P 2/M
;
_chemical_formula_sum "Si O2"
_cell_formula_units_Z 28
_cell_length_a 33.127440
_cell_length_b 8.637458
_cell_length_c 10.412268
_cell_angle_alpha 90.000000
_cell_angle_beta 29.140255
_cell_angle_gamma 90.000000
_cell_volume 1450.784079
_symmetry_space_group_name_H-M "P 2/M"
_symmetry_group_IT_number 10
_symmetry_cell_setting 'monoclinic'
loop_
_space_group_symop_operation_xyz
x,y,z
-x,y,-z
-x,-y,-z
x,-y,z
loop_
_atom_site_type_symbol
_atom_site_label
_atom_site_fract_x
_atom_site_fract_y
_atom_site_fract_z
Si Si1 0.067483 0.686432 0.204645
Si Si2 0.506885 0.813371 0.329779
Si Si3 0.783895 0.186078 0.756477
Si Si4 0.661116 0.683883 0.314936
Si Si5 0.248457 0.185260 0.694400
Si Si6 0.693091 0.188362 0.748039
Si Si7 0.032121 0.686980 0.770549
O O1 0.077738 0.500000 0.178730
O O2 0.000000 0.727330 0.500000
O O3 0.031227 0.731743 0.166324
O O4 0.155408 0.763572 0.985688
O O5 0.500000 0.775783 0.500000
O O6 0.430749 0.739044 0.466504
O O7 0.500582 0.000000 0.335782
O O8 0.597438 0.764299 0.029586
O O9 0.745896 0.238403 0.724976
O O10 0.877240 0.246206 0.509165
O O11 0.783222 0.000000 0.761911
O O12 0.724803 0.247187 0.033141
O O13 0.666174 0.500000 0.296770
O O14 0.689197 0.744291 0.375477
O O15 0.269509 0.238999 0.491365
O O16 0.254700 0.000000 0.681421
O O17 0.693929 0.000000 0.747196
O O18 0.037804 0.500000 0.754194
O O19 0.000000 0.736725 0.000000
#
# Coordination Sequence:
#
# PCOD9148091 Si02
#       7
#     4   4   4   4   4   4   4
#     4  10  21  38  58  80 115 158 198 242 294 349
#     4  10  19  39  67  90 119 156 198 243 295 352
#     4  11  21  38  63  90 117 154 205 253 300 350
#     4  12  25  40  59  88 124 157 198 245 297 357
#     4  11  23  40  62  89 120 156 201 246 298 355
#     4   9  20  38  62  91 121 154 194 248 302 350
#     4  10  21  36  55  84 122 160 195 238 300 362
#
# _framework density 19.299909
#
# number of rings (size 3 to 8) (size 9 to 14) (size 15 to 20)
#    0.000    1.571    1.429    3.857    0.000    3.143 
#    0.000    6.429    0.000    0.000    0.000    0.000 
#    0.000    0.000    0.000    0.000    0.000    0.000 
#
# Total GULP energy -156549.961490 kJ/mol
# GULP energy per Si atom -5591.070053 kJ/mol
# Density = 1.925598 g / cm^3
# Si number density = 19.299909 Si / 1000 Ang^3
#
#
#
# Elastic Constant Matrix: (Units=GPa)
#
#
# Indices 1 2 3 4 5 6 
#
# 1 86.5716 20.6898 -8.4637 0.0000 -5.4797 0.0000
# 2 20.6898 28.3707 4.8562 0.0000 -4.9600 0.0000
# 3 -8.4637 4.8562 41.6030 0.0000 -7.7721 0.0000
# 4 0.0000 0.0000 0.0000 32.9696 0.0000 -18.5388
# 5 -5.4797 -4.9600 -7.7721 0.0000 41.1660 0.0000
# 6 0.0000 0.0000 0.0000 -18.5388 0.0000 21.8324
#
#
#
# Elastic Compliance Matrix: (Units=1/GPa)
#
#
# Indices 1 2 3 4 5 6 
#
# 1 0.014802 -0.011325 0.004609 0.000000 0.001476 0.000000
# 2 -0.011325 0.045175 -0.007092 0.000000 0.002597 0.000000
# 3 0.004609 -0.007092 0.026699 0.000000 0.004800 0.000000
# 4 0.000000 0.000000 0.000000 0.058047 0.000000 0.049290
# 5 0.001476 0.002597 0.004800 0.000000 0.025707 0.000000
# 6 0.000000 0.000000 0.000000 0.049290 0.000000 0.087658
#
#
# Mechanical properties :
#
#
# Convention : Reuss Voigt Hill
#
# Bulk Modulus (GPa) = 16.93236 21.18999 19.06117
# Shear Modulus (GPa) = 16.37249 28.49112 22.43181
#
# Velocity S-wave (km/s) = 2.91575 3.84634 3.41291
# Velocity P-wave (km/s) = 4.48640 5.54337 5.04266
#
# Compressibility (1/GPa) = 0.05905852
#
# Stress axis : x y z
#
# Youngs Moduli (GPa) = 67.55935 22.13629 37.45470
#
# Poissons Ratio (x) = 0.25070 -0.17263
# Poissons Ratio (y) = 0.76513 0.26563
# Poissons Ratio (z) = -0.31138 0.15699
#
# Static dielectric constant tensor:
#      x y z
#    x 1.653200 0.000000 0.016960 
#    y 0.000000 1.651690 0.000000 
#    z 0.016960 0.000000 1.642490 
# 
# From -- ./inp_files/37018.got.cif
#   From: 2010.05.17/outbox.cif.g08.bks.cpg/sg10_19_cif.got.tgz:37018.got - 2010.06.03 11:33:40.
