data_PCOD9148773
_publ_section_title
;
Structure prediction by ZEFSAII (Michael W. Deem and Ramdas Pophale) SiO2 
 PCOD9148773
Probable space group: P 2/M
;
_chemical_formula_sum "Si O2"
_cell_formula_units_Z 28
_cell_length_a 25.952975
_cell_length_b 7.405285
_cell_length_c 23.487348
_cell_angle_alpha 90.000000
_cell_angle_beta 163.712490
_cell_angle_gamma 90.000000
_cell_volume 1265.988978
_symmetry_space_group_name_H-M "P 2/M"
_symmetry_group_IT_number 10
_symmetry_cell_setting 'monoclinic'
loop_
_space_group_symop_operation_xyz
x,y,z
-x,y,-z
-x,-y,-z
x,-y,z
loop_
_atom_site_type_symbol
_atom_site_label
_atom_site_fract_x
_atom_site_fract_y
_atom_site_fract_z
Si Si1 0.968706 0.219655 0.531880
Si Si2 0.441415 0.297258 0.878223
Si Si3 0.331205 0.280916 0.643864
Si Si4 0.557087 0.706248 0.777734
Si Si5 0.903987 0.211467 0.216607
Si Si6 0.446902 0.279633 0.354293
Si Si7 0.203901 0.280040 0.200444
O O1 0.776812 0.303785 0.346006
O O2 0.000000 0.270537 0.500000
O O3 0.106588 0.274003 0.728553
O O4 0.954738 0.000000 0.519067
O O5 0.522935 0.500000 0.964236
O O6 0.451253 0.214340 0.825699
O O7 0.500000 0.207152 0.000000
O O8 0.344907 0.500000 0.660670
O O9 0.419106 0.214517 0.678412
O O10 0.116158 0.235290 0.422374
O O11 0.493277 0.500000 0.702105
O O12 0.566254 0.785569 0.724357
O O13 0.756679 0.702651 0.018756
O O14 0.863320 0.000000 0.172755
O O15 0.439968 0.500000 0.346728
O O16 0.283258 0.222578 0.223176
O O17 0.639945 0.228374 0.588242
O O18 0.199460 0.500000 0.195457
O O19 0.000000 0.217879 0.000000
#
# Coordination Sequence:
#
# PCOD9148773 Si02
#       7
#     4   4   4   4   4   4   4
#     4   9  19  34  49  68  92 120 159 205 253 303
#     4   9  18  31  47  69  94 120 155 199 249 303
#     4   9  19  35  51  71 100 132 167 208 254 306
#     4  10  20  33  53  77 104 137 170 208 255 303
#     4  10  21  36  52  72 100 133 170 212 257 307
#     4   8  15  26  40  68 102 130 164 200 238 292
#     4   8  13  23  41  65  99 135 162 194 239 287
#
# _framework density 22.117094999999999
#
# number of rings (size 3 to 8) (size 9 to 14) (size 15 to 20)
#    0.000    3.000    0.000    1.286    2.000    2.857 
#    0.000    4.286    0.000    0.000    0.000    2.000 
#    0.000    5.714    0.000    0.000    0.000    0.000 
#
# Total GULP energy -156120.702389 kJ/mol
# GULP energy per Si atom -5575.739371 kJ/mol
# Density = 2.206676 g / cm^3
# Si number density = 22.117095 Si / 1000 Ang^3
#
#
#
# Elastic Constant Matrix: (Units=GPa)
#
#
# Indices 1 2 3 4 5 6 
#
# 1 216.6150 10.8732 82.7038 0.0000 -21.5918 0.0000
# 2 10.8732 75.6933 -3.6801 0.0000 -4.6611 0.0000
# 3 82.7038 -3.6801 86.5895 0.0000 4.0702 0.0000
# 4 0.0000 0.0000 0.0000 12.2663 0.0000 13.1220
# 5 -21.5918 -4.6611 4.0702 0.0000 38.2342 0.0000
# 6 0.0000 0.0000 0.0000 13.1220 0.0000 0.8421
#
#
#
# Elastic Compliance Matrix: (Units=1/GPa)
#
#
# Indices 1 2 3 4 5 6 
#
# 1 0.008415 -0.001277 -0.008350 0.000000 0.005486 0.000000
# 2 -0.001277 0.013526 0.001760 0.000000 0.000740 0.000000
# 3 -0.008350 0.001760 0.019910 0.000000 -0.006620 0.000000
# 4 0.000000 0.000000 0.000000 -0.005202 0.000000 0.081071
# 5 0.005486 0.000740 -0.006620 0.000000 0.030047 0.000000
# 6 0.000000 0.000000 0.000000 0.081071 0.000000 -0.075784
#
#
# Mechanical properties :
#
#
# Convention : Reuss Voigt Hill
#
# Bulk Modulus (GPa) = 38.28948 62.07684 50.18316
# Shear Modulus (GPa) = 325.70205 29.53524 177.61865
#
# Velocity S-wave (km/s) = 12.14834 3.65828 8.97121
# Velocity P-wave (km/s) = 14.63305 6.78029 11.40391
#
# Compressibility (1/GPa) = 0.02611683
#
# Stress axis : x y z
#
# Youngs Moduli (GPa) = 118.83039 73.93281 50.22635
#
# Poissons Ratio (x) = 0.09441 0.41938
# Poissons Ratio (y) = 0.15175 -0.08839
# Poissons Ratio (z) = 0.99222 -0.13010
#
# Static dielectric constant tensor:
#      x y z
#    x 1.850470 0.000000 -0.028230 
#    y 0.000000 1.935680 0.000000 
#    z -0.028230 0.000000 1.778820 
# 
# From -- ./inp_files/86547.got.cif
#   From: 2010.05.17/outbox.cif.g08.bks.cpg/sg10_44_cif.got.tgz:86547.got - 2010.06.03 11:33:40.
