data_PCOD9148911
_publ_section_title
;
Structure prediction by ZEFSAII (Michael W. Deem and Ramdas Pophale) SiO2 
 PCOD9148911
Probable space group: P 2/M
;
_chemical_formula_sum "Si O2"
_cell_formula_units_Z 28
_cell_length_a 20.418578
_cell_length_b 7.595427
_cell_length_c 25.763365
_cell_angle_alpha 90.000000
_cell_angle_beta 159.046059
_cell_angle_gamma 90.000000
_cell_volume 1428.890174
_symmetry_space_group_name_H-M "P 2/M"
_symmetry_group_IT_number 10
_symmetry_cell_setting 'monoclinic'
loop_
_space_group_symop_operation_xyz
x,y,z
-x,y,-z
-x,-y,-z
x,-y,z
loop_
_atom_site_type_symbol
_atom_site_label
_atom_site_fract_x
_atom_site_fract_y
_atom_site_fract_z
Si Si1 0.086987 0.712808 0.643687
Si Si2 0.784255 0.703299 0.856109
Si Si3 0.309379 0.797282 0.010833
Si Si4 0.342890 0.795215 0.920944
Si Si5 0.328366 0.716238 0.337882
Si Si6 0.283363 0.287064 0.683595
Si Si7 0.921872 0.293150 0.062528
O O1 0.090259 0.500000 0.647758
O O2 0.160779 0.784281 0.752042
O O3 0.221896 0.766933 0.696311
O O4 0.883303 0.767089 0.476775
O O5 0.721952 0.500000 0.814282
O O6 0.676616 0.775859 0.726349
O O7 0.794867 0.782647 0.921863
O O8 0.000000 0.704118 0.000000
O O9 0.519224 0.783791 0.184599
O O10 0.254799 0.000000 0.965123
O O11 0.315017 0.715890 0.957162
O O12 0.174261 0.721023 0.953426
O O13 0.394749 0.000000 0.967587
O O14 0.500000 0.715106 0.000000
O O15 0.500000 0.772931 0.500000
O O16 0.332055 0.500000 0.340069
O O17 0.130850 0.773268 0.214815
O O18 0.291484 0.500000 0.689214
O O19 0.937655 0.500000 0.061707
#
# Coordination Sequence:
#
# PCOD9148911 Si02
#       7
#     4   4   4   4   4   4   4
#     4   9  18  32  52  75  95 117 154 208 260 301
#     4   7  11  22  42  67  93 121 151 184 228 280
#     4  11  22  34  49  70  99 135 172 209 249 297
#     4  10  20  34  49  69  97 132 174 211 247 297
#     4   8  13  24  47  77 100 120 155 199 238 283
#     4   9  18  33  51  73  97 120 154 203 256 304
#     4   9  17  30  48  70  98 129 159 198 246 292
#
# _framework density 19.595627
#
# number of rings (size 3 to 8) (size 9 to 14) (size 15 to 20)
#    0.000    3.000    1.429    3.000    0.000    2.000 
#    0.000    2.857    0.000    7.714    0.000    0.000 
#    0.000    0.000    0.000    0.000    0.000    0.000 
#
# Total GULP energy -155965.314560 kJ/mol
# GULP energy per Si atom -5570.189806 kJ/mol
# Density = 1.955103 g / cm^3
# Si number density = 19.595627 Si / 1000 Ang^3
#
#
#
# Elastic Constant Matrix: (Units=GPa)
#
#
# Indices 1 2 3 4 5 6 
#
# 1 142.9792 5.4560 75.7785 0.0000 -14.4709 0.0000
# 2 5.4560 39.2387 0.8125 0.0000 -2.1401 0.0000
# 3 75.7785 0.8125 127.8912 0.0000 -22.7406 0.0000
# 4 0.0000 0.0000 0.0000 144.6550 0.0000 231.4611
# 5 -14.4709 -2.1401 -22.7406 0.0000 27.3005 0.0000
# 6 0.0000 0.0000 0.0000 231.4611 0.0000 406.5247
#
#
#
# Elastic Compliance Matrix: (Units=1/GPa)
#
#
# Indices 1 2 3 4 5 6 
#
# 1 0.010264 -0.001285 -0.006015 0.000000 0.000330 0.000000
# 2 -0.001285 0.025761 0.000981 0.000000 0.002155 0.000000
# 3 -0.006015 0.000981 0.012706 0.000000 0.007472 0.000000
# 4 0.000000 0.000000 0.000000 0.077706 0.000000 -0.044243
# 5 0.000330 0.002155 0.007472 0.000000 0.043197 0.000000
# 6 0.000000 0.000000 0.000000 -0.044243 0.000000 0.027650
#
#
# Mechanical properties :
#
#
# Convention : Reuss Voigt Hill
#
# Bulk Modulus (GPa) = 27.70626 52.68923 40.19774
# Shear Modulus (GPa) = 22.52731 130.90019 76.71375
#
# Velocity S-wave (km/s) = 3.39427 8.18204 6.26366
# Velocity P-wave (km/s) = 5.43425 10.77996 8.53635
#
# Compressibility (1/GPa) = 0.03609293
#
# Stress axis : x y z
#
# Youngs Moduli (GPa) = 97.42407 38.81847 78.70532
#
# Poissons Ratio (x) = 0.04987 0.47342
# Poissons Ratio (y) = 0.12516 -0.07720
# Poissons Ratio (z) = 0.58602 -0.03807
#
# Static dielectric constant tensor:
#      x y z
#    x 1.712600 0.000000 -0.037340 
#    y 0.000000 1.745510 0.000000 
#    z -0.037340 0.000000 1.686830 
# 
# From -- ./inp_files/79209.got.cif
#   From: 2010.05.17/outbox.cif.g08.bks.cpg/sg10_40_cif.got.tgz:79209.got - 2010.06.03 11:33:40.
