data_PCOD9148519
_publ_section_title
;
Structure prediction by ZEFSAII (Michael W. Deem and Ramdas Pophale) SiO2 
 PCOD9148519
Probable space group: P 2/M
;
_chemical_formula_sum "Si O2"
_cell_formula_units_Z 32
_cell_length_a 20.943578
_cell_length_b 7.483974
_cell_length_c 14.765735
_cell_angle_alpha 90.000000
_cell_angle_beta 43.880592
_cell_angle_gamma 90.000000
_cell_volume 1604.243466
_symmetry_space_group_name_H-M "P 2/M"
_symmetry_group_IT_number 10
_symmetry_cell_setting 'monoclinic'
loop_
_space_group_symop_operation_xyz
x,y,z
-x,y,-z
-x,-y,-z
x,-y,z
loop_
_atom_site_type_symbol
_atom_site_label
_atom_site_fract_x
_atom_site_fract_y
_atom_site_fract_z
Si Si1 0.643213 0.717205 0.610912
Si Si2 0.510858 0.790825 0.088981
Si Si3 0.998557 0.281897 0.604866
Si Si4 0.512021 0.706074 0.586883
Si Si5 0.001807 0.718109 0.101509
Si Si6 0.363480 0.790230 0.880047
Si Si7 0.853600 0.282338 0.399623
Si Si8 0.851389 0.284711 0.901880
O O1 0.641947 0.500000 0.611496
O O2 0.583591 0.774501 0.758347
O O3 0.588335 0.781584 0.577778
O O4 0.748475 0.777611 0.506236
O O5 0.589286 0.716608 0.076375
O O6 0.533830 0.000000 0.053230
O O7 0.500000 0.712135 0.000000
O O8 0.997982 0.500000 0.604084
O O9 0.087745 0.227844 0.572234
O O10 0.000000 0.220630 0.500000
O O11 0.909427 0.225726 0.754381
O O12 0.500000 0.788111 0.500000
O O13 0.540229 0.500000 0.543556
O O14 0.416635 0.709061 0.740058
O O15 0.002411 0.500000 0.099433
O O16 0.912765 0.771903 0.251309
O O17 0.090981 0.774236 0.068641
O O18 0.000000 0.779451 0.000000
O O19 0.385358 0.000000 0.853597
O O20 0.254472 0.768689 0.990229
O O21 0.852470 0.500000 0.400809
O O22 0.853777 0.500000 0.899478
#
# Coordination Sequence:
#
# PCOD9148519 Si02
#       8
#     4   4   4   4   4   4   4   4
#     4   9  17  29  47  71  95 117 146 189 233 270
#     4   9  19  35  50  64  88 123 158 190 229 280
#     4   8  14  25  41  63  91 118 143 177 223 270
#     4   9  18  32  49  70  95 121 151 189 231 275
#     4   8  14  25  43  67  93 120 149 182 221 266
#     4  10  20  33  49  68  93 125 157 193 236 280
#     4   8  14  24  38  60  88 114 142 176 216 262
#     4   9  17  29  47  70  93 119 154 192 227 271
#
# _framework density 19.947096999999999
#
# number of rings (size 3 to 8) (size 9 to 14) (size 15 to 20)
#    0.000    3.250    0.000    1.875    0.000    3.000 
#    0.000    5.000    0.000    3.750    0.000    0.000 
#    0.000    0.000    0.000    0.000    0.000    0.000 
#
# Total GULP energy -178422.505171 kJ/mol
# GULP energy per Si atom -5575.703287 kJ/mol
# Density = 1.990170 g / cm^3
# Si number density = 19.947097 Si / 1000 Ang^3
#
#
#
# Elastic Constant Matrix: (Units=GPa)
#
#
# Indices 1 2 3 4 5 6 
#
# 1 169.1762 -2.9368 136.7529 0.0000 14.9862 0.0000
# 2 -2.9368 53.2459 -11.8790 0.0000 6.0118 0.0000
# 3 136.7529 -11.8790 132.5568 0.0000 4.8846 0.0000
# 4 0.0000 0.0000 0.0000 34.8804 0.0000 -14.0794
# 5 14.9862 6.0118 4.8846 0.0000 49.7537 0.0000
# 6 0.0000 0.0000 0.0000 -14.0794 0.0000 -5.0309
#
#
#
# Elastic Compliance Matrix: (Units=1/GPa)
#
#
# Indices 1 2 3 4 5 6 
#
# 1 0.040250 -0.006291 -0.041821 0.000000 -0.007258 0.000000
# 2 -0.006291 0.020460 0.008375 0.000000 -0.001400 0.000000
# 3 -0.041821 0.008375 0.051197 0.000000 0.006558 0.000000
# 4 0.000000 0.000000 0.000000 0.013462 0.000000 -0.037675
# 5 -0.007258 -0.001400 0.006558 0.000000 0.021810 0.000000
# 6 0.000000 0.000000 0.000000 -0.037675 0.000000 -0.093335
#
#
# Mechanical properties :
#
#
# Convention : Reuss Voigt Hill
#
# Bulk Modulus (GPa) = 30.83094 66.53923 48.68508
# Shear Modulus (GPa) = 34.69094 31.45676 33.07385
#
# Velocity S-wave (km/s) = 4.17483 3.97547 4.07637
# Velocity P-wave (km/s) = 6.22325 7.38259 6.82758
#
# Compressibility (1/GPa) = 0.03243495
#
# Stress axis : x y z
#
# Youngs Moduli (GPa) = 24.84453 48.87523 19.53227
#
# Poissons Ratio (x) = 0.30746 0.81685
# Poissons Ratio (y) = 0.15629 -0.16358
# Poissons Ratio (z) = 1.03902 -0.40932
#
# Static dielectric constant tensor:
#      x y z
#    x 1.704900 0.000000 0.014390 
#    y 0.000000 1.756020 0.000000 
#    z 0.014390 0.000000 1.657670 
# 
# From -- ./inp_files/69999.got.cif
#   From: 2010.05.17/outbox.cif.g08.bks.cpg/sg10_35_cif.got.tgz:69999.got - 2010.06.03 11:33:40.
