data_PCOD9148293
_publ_section_title
;
Structure prediction by ZEFSAII (Michael W. Deem and Ramdas Pophale) SiO2 
 PCOD9148293
Probable space group: P 2/M
;
_chemical_formula_sum "Si O2"
_cell_formula_units_Z 28
_cell_length_a 22.625735
_cell_length_b 14.869767
_cell_length_c 9.193139
_cell_angle_alpha 90.000000
_cell_angle_beta 148.078232
_cell_angle_gamma 90.000000
_cell_volume 1635.422509
_symmetry_space_group_name_H-M "P 2/M"
_symmetry_group_IT_number 10
_symmetry_cell_setting 'monoclinic'
loop_
_space_group_symop_operation_xyz
x,y,z
-x,y,-z
-x,-y,-z
x,-y,z
loop_
_atom_site_type_symbol
_atom_site_label
_atom_site_fract_x
_atom_site_fract_y
_atom_site_fract_z
Si Si1 0.629785 0.606544 0.741417
Si Si2 0.662580 0.894601 0.708830
Si Si3 0.249459 0.727505 0.247219
Si Si4 0.676691 0.602639 0.166310
Si Si5 0.387777 0.768960 0.823474
Si Si6 0.596150 0.104469 0.902364
Si Si7 0.880326 0.394958 0.820725
O O1 0.500000 0.630747 0.500000
O O2 0.633479 0.500000 0.713893
O O3 0.683054 0.664203 0.723992
O O4 0.691670 0.620158 0.025985
O O5 0.752990 0.824539 0.836667
O O6 0.536516 0.872349 0.387826
O O7 0.649080 0.884834 0.853954
O O8 0.684152 0.000000 0.720869
O O9 0.315337 0.749882 0.532399
O O10 0.147293 0.669845 0.100810
O O11 0.636827 0.500000 0.096431
O O12 0.590175 0.674242 0.050314
O O13 0.787079 0.613061 0.496910
O O14 0.500000 0.812725 0.000000
O O15 0.342351 0.833920 0.852463
O O16 0.602041 0.000000 0.954864
O O17 0.877447 0.500000 0.861192
O O18 0.000000 0.375768 0.000000
#
# Coordination Sequence:
#
# PCOD9148293 Si02
#       7
#     4   4   4   4   4   4   4
#     4  10  20  32  47  71 105 140 167 198 240 295
#     4   9  18  31  47  67  95 132 168 203 244 295
#     4  11  20  29  50  73  98 128 167 207 248 300
#     4   9  19  33  48  68  97 133 169 202 245 301
#     4  11  19  27  42  68  98 131 164 200 242 287
#     4   9  18  31  45  64  97 137 169 197 238 290
#     4   9  19  37  56  73  97 129 168 217 262 295
#
# _framework density 17.120958000000002
#
# number of rings (size 3 to 8) (size 9 to 14) (size 15 to 20)
#    0.000    2.286    1.429    3.000    2.000    1.714 
#    0.000    0.714    0.000    3.857    0.000    0.000 
#    0.000   10.286    0.000    0.000    0.000    0.000 
#
# Total GULP energy -155900.669571 kJ/mol
# GULP energy per Si atom -5567.881056 kJ/mol
# Density = 1.708199 g / cm^3
# Si number density = 17.120958 Si / 1000 Ang^3
#
#
#
# Elastic Constant Matrix: (Units=GPa)
#
#
# Indices 1 2 3 4 5 6 
#
# 1 96.2033 73.1902 20.9507 0.0000 -3.7762 0.0000
# 2 73.1902 90.2167 17.7080 0.0000 -4.2960 0.0000
# 3 20.9507 17.7080 13.5166 0.0000 -2.5836 0.0000
# 4 0.0000 0.0000 0.0000 44.6062 0.0000 -47.0718
# 5 -3.7762 -4.2960 -2.5836 0.0000 25.3852 0.0000
# 6 0.0000 0.0000 0.0000 -47.0718 0.0000 95.8610
#
#
#
# Elastic Compliance Matrix: (Units=1/GPa)
#
#
# Indices 1 2 3 4 5 6 
#
# 1 0.030789 -0.021029 -0.020373 0.000000 -0.001052 0.000000
# 2 -0.021029 0.029292 -0.005538 0.000000 0.001265 0.000000
# 3 -0.020373 -0.005538 0.114282 0.000000 0.007663 0.000000
# 4 0.000000 0.000000 0.000000 0.046529 0.000000 0.022848
# 5 -0.001052 0.001265 0.007663 0.000000 0.040231 0.000000
# 6 0.000000 0.000000 0.000000 0.022848 0.000000 0.021651
#
#
# Mechanical properties :
#
#
# Convention : Reuss Voigt Hill
#
# Bulk Modulus (GPa) = 12.42528 47.07049 29.74788
# Shear Modulus (GPa) = 12.39207 39.04299 25.71753
#
# Velocity S-wave (km/s) = 2.69326 4.78056 3.87991
# Velocity P-wave (km/s) = 4.11639 7.61736 6.12245
#
# Compressibility (1/GPa) = 0.08048111
#
# Stress axis : x y z
#
# Youngs Moduli (GPa) = 32.47900 34.13860 8.75026
#
# Poissons Ratio (x) = 0.71792 0.17827
# Poissons Ratio (y) = 0.68302 0.04846
# Poissons Ratio (z) = 0.66171 0.18907
#
# Static dielectric constant tensor:
#      x y z
#    x 1.589900 0.000000 -0.020740 
#    y 0.000000 1.626690 0.000000 
#    z -0.020740 0.000000 1.585060 
# 
# From -- ./inp_files/28951.got.cif
#   From: 2010.05.17/outbox.cif.g08.bks.cpg/sg10_15_cif.got.tgz:28951.got - 2010.06.03 11:33:40.
