data_PCOD9148867
_publ_section_title
;
Structure prediction by ZEFSAII (Michael W. Deem and Ramdas Pophale) SiO2 
 PCOD9148867
Probable space group: P 2/M
;
_chemical_formula_sum "Si O2"
_cell_formula_units_Z 26
_cell_length_a 9.078722
_cell_length_b 11.523248
_cell_length_c 13.479132
_cell_angle_alpha 90.000000
_cell_angle_beta 111.995801
_cell_angle_gamma 90.000000
_cell_volume 1307.495706
_symmetry_space_group_name_H-M "P 2/M"
_symmetry_group_IT_number 10
_symmetry_cell_setting 'monoclinic'
loop_
_space_group_symop_operation_xyz
x,y,z
-x,y,-z
-x,-y,-z
x,-y,z
loop_
_atom_site_type_symbol
_atom_site_label
_atom_site_fract_x
_atom_site_fract_y
_atom_site_fract_z
Si Si1 0.729014 0.241804 0.860144
Si Si2 0.222136 0.000000 0.610291
Si Si3 0.115985 0.261334 0.616070
Si Si4 0.423837 0.000000 0.243894
Si Si5 0.418489 0.363909 0.769148
Si Si6 0.780511 0.000000 0.627435
Si Si7 0.670183 0.203019 0.065945
Si Si8 0.002857 0.196843 0.220881
O O1 0.655227 0.113141 0.823929
O O2 0.596764 0.328674 0.784207
O O3 0.896525 0.244002 0.846447
O O4 0.729639 0.259647 0.978222
O O5 0.136909 0.878907 0.614393
O O6 0.759338 0.000000 0.504619
O O7 0.387122 0.000000 0.712248
O O8 0.042392 0.288439 0.705266
O O9 0.000000 0.298952 0.500000
O O10 0.290094 0.316593 0.658307
O O11 0.380502 0.000000 0.349766
O O12 0.403098 0.500000 0.779362
O O13 0.378897 0.294680 0.861205
O O14 0.880050 0.891427 0.693919
O O15 0.832301 0.143078 0.145218
O O16 0.500000 0.141450 0.000000
#
# Coordination Sequence:
#
# PCOD9148867 Si02
#       8
#     4   2   4   2   4   2   4   4
#     4  10  20  38  58  86 120 156 192 238 295 350
#     4  12  19  36  60  91 121 158 201 232 286 356
#     4  11  21  36  60  90 121 155 195 241 290 347
#     4  10  21  34  56  90 125 153 191 238 296 353
#     4  10  22  41  63  85 113 152 201 249 290 342
#     4  10  20  33  55  89 120 161 192 238 287 342
#     4   9  20  37  58  84 113 152 191 236 286 345
#     4  10  20  35  55  86 123 152 192 236 290 346
#
# _framework density 19.885342000000001
#
# number of rings (size 3 to 8) (size 9 to 14) (size 15 to 20)
#    0.000    1.846    3.077    1.385    0.000    3.692 
#    0.000   10.769    0.000    8.308    0.000    0.000 
#    0.000    0.000    0.000    0.000    0.000    0.000 
#
# Total GULP energy -144907.829052 kJ/mol
# GULP energy per Si atom -5573.378040 kJ/mol
# Density = 1.984008 g / cm^3
# Si number density = 19.885342 Si / 1000 Ang^3
#
#
#
# Elastic Constant Matrix: (Units=GPa)
#
#
# Indices 1 2 3 4 5 6 
#
# 1 121.6139 5.5276 39.4943 0.0000 7.8331 0.0000
# 2 5.5276 63.3618 2.0451 0.0000 8.7358 0.0000
# 3 39.4943 2.0451 93.7038 0.0000 21.9616 0.0000
# 4 0.0000 0.0000 0.0000 -0.7328 0.0000 -5.4441
# 5 7.8331 8.7358 21.9616 0.0000 35.3615 0.0000
# 6 0.0000 0.0000 0.0000 -5.4441 0.0000 -1.3479
#
#
#
# Elastic Compliance Matrix: (Units=1/GPa)
#
#
# Indices 1 2 3 4 5 6 
#
# 1 0.009571 -0.000792 -0.004173 0.000000 0.000667 0.000000
# 2 -0.000792 0.016443 0.001037 0.000000 -0.004530 0.000000
# 3 -0.004173 0.001037 0.014339 0.000000 -0.008237 0.000000
# 4 0.000000 0.000000 0.000000 0.047045 0.000000 -0.190019
# 5 0.000667 -0.004530 -0.008237 0.000000 0.034366 0.000000
# 6 0.000000 0.000000 0.000000 -0.190019 0.000000 0.025576
#
#
# Mechanical properties :
#
#
# Convention : Reuss Voigt Hill
#
# Bulk Modulus (GPa) = 30.77364 41.42374 36.09869
# Shear Modulus (GPa) = 30.11528 22.09702 26.10615
#
# Velocity S-wave (km/s) = 3.89581 3.33712 3.62724
# Velocity P-wave (km/s) = 5.97876 5.97704 5.97790
#
# Compressibility (1/GPa) = 0.03249534
#
# Stress axis : x y z
#
# Youngs Moduli (GPa) = 104.48244 60.81747 69.74146
#
# Poissons Ratio (x) = 0.04818 0.29104
# Poissons Ratio (y) = 0.08278 -0.07231
# Poissons Ratio (z) = 0.43601 -0.06306
#
# Static dielectric constant tensor:
#      x y z
#    x 1.749500 0.000000 0.003030 
#    y 0.000000 1.688000 0.000000 
#    z 0.003030 0.000000 1.735190 
# 
# From -- ./inp_files/61112.got.cif
#   From: 2010.05.17/outbox.cif.g08.bks.cpg/sg10_31_cif.got.tgz:61112.got - 2010.06.03 11:33:40.
