data_PCOD9148857
_publ_section_title
;
Structure prediction by ZEFSAII (Michael W. Deem and Ramdas Pophale) SiO2 
 PCOD9148857
Probable space group: P 2/M
;
_chemical_formula_sum "Si O2"
_cell_formula_units_Z 32
_cell_length_a 28.992324
_cell_length_b 9.916194
_cell_length_c 11.475024
_cell_angle_alpha 90.000000
_cell_angle_beta 29.935300
_cell_angle_gamma 90.000000
_cell_volume 1646.270189
_symmetry_space_group_name_H-M "P 2/M"
_symmetry_group_IT_number 10
_symmetry_cell_setting 'monoclinic'
loop_
_space_group_symop_operation_xyz
x,y,z
-x,y,-z
-x,-y,-z
x,-y,z
loop_
_atom_site_type_symbol
_atom_site_label
_atom_site_fract_x
_atom_site_fract_y
_atom_site_fract_z
Si Si1 0.606677 0.350683 0.736286
Si Si2 0.637104 0.843733 0.882941
Si Si3 0.971900 0.345609 0.248407
Si Si4 0.163296 0.849155 0.577469
Si Si5 0.142589 0.150590 0.891988
Si Si6 0.431915 0.841108 0.394432
Si Si7 0.097919 0.655349 0.339457
Si Si8 0.750916 0.845242 0.100325
O O1 0.650203 0.500000 0.626916
O O2 0.639182 0.264029 0.774801
O O3 0.602734 0.258350 0.630843
O O4 0.500000 0.370607 0.000000
O O5 0.741169 0.833540 0.703753
O O6 0.629347 0.000000 0.857284
O O7 0.543030 0.820629 0.163070
O O8 0.988313 0.500000 0.178313
O O9 0.911208 0.262628 0.289800
O O10 0.915762 0.344438 0.492402
O O11 0.066278 0.266007 0.065260
O O12 0.183448 0.844073 0.672113
O O13 0.126323 0.000000 0.634875
O O14 0.214015 0.163827 0.841650
O O15 0.100602 0.000000 0.996270
O O16 0.359244 0.817761 0.657957
O O17 0.419952 0.000000 0.388345
O O18 0.109883 0.500000 0.273054
O O19 0.000000 0.704640 0.500000
O O20 0.183729 0.745011 0.112667
O O21 0.765736 0.000000 0.030084
#
# Coordination Sequence:
#
# PCOD9148857 Si02
#       8
#     4   4   4   4   4   4   4   4
#     4   9  16  25  40  66  99 135 175 215 254 299
#     4   9  17  31  50  69 100 143 179 214 258 307
#     4  11  23  38  56  77 103 138 179 220 263 316
#     4  10  21  36  54  78 108 144 181 215 258 310
#     4  10  20  34  52  78 112 142 171 213 262 313
#     4   9  17  30  48  73 104 138 175 215 260 311
#     4  10  21  39  58  77 105 137 172 217 271 323
#     4  10  20  33  55  85 110 135 175 220 263 314
#
# _framework density 19.437878999999999
#
# number of rings (size 3 to 8) (size 9 to 14) (size 15 to 20)
#    0.000    2.250    1.250    1.875    0.000    7.750 
#    0.000    1.250    0.000    0.750    0.000    5.250 
#    0.000    0.000    0.000    0.000    0.000    0.000 
#
# Total GULP energy -178238.810580 kJ/mol
# GULP energy per Si atom -5569.962831 kJ/mol
# Density = 1.939364 g / cm^3
# Si number density = 19.437879 Si / 1000 Ang^3
#
#
#
# Elastic Constant Matrix: (Units=GPa)
#
#
# Indices 1 2 3 4 5 6 
#
# 1 10.8432 2.1545 -5.2560 0.0000 -1.2571 0.0000
# 2 2.1545 102.2973 59.6465 0.0000 -13.0973 0.0000
# 3 -5.2560 59.6465 113.1218 0.0000 -9.6564 0.0000
# 4 0.0000 0.0000 0.0000 -82.5376 0.0000 8.6990
# 5 -1.2571 -13.0973 -9.6564 0.0000 17.7536 0.0000
# 6 0.0000 0.0000 0.0000 8.6990 0.0000 14.1599
#
#
#
# Elastic Compliance Matrix: (Units=1/GPa)
#
#
# Indices 1 2 3 4 5 6 
#
# 1 0.098289 -0.006037 0.008352 0.000000 0.007049 0.000000
# 2 -0.006037 0.015283 -0.007774 0.000000 0.006619 0.000000
# 3 0.008352 -0.007774 0.013515 0.000000 0.002208 0.000000
# 4 0.000000 0.000000 0.000000 -0.011379 0.000000 0.006991
# 5 0.007049 0.006619 0.002208 0.000000 0.062909 0.000000
# 6 0.000000 0.000000 0.000000 0.006991 0.000000 0.066327
#
#
# Mechanical properties :
#
#
# Convention : Reuss Voigt Hill
#
# Bulk Modulus (GPa) = 8.60817 37.70581 23.15699
# Shear Modulus (GPa) = 16.97298 1.18966 9.08132
#
# Velocity S-wave (km/s) = 2.95819 0.78317 2.16382
# Velocity P-wave (km/s) = 4.01323 4.50089 4.26404
#
# Compressibility (1/GPa) = 0.11616867
#
# Stress axis : x y z
#
# Youngs Moduli (GPa) = 10.17409 65.43393 73.98948
#
# Poissons Ratio (x) = 0.39505 -0.61795
# Poissons Ratio (y) = 0.06142 0.57517
# Poissons Ratio (z) = -0.08497 0.50866
#
# Static dielectric constant tensor:
#      x y z
#    x 1.843070 0.000000 0.035700 
#    y 0.000000 1.719160 0.000000 
#    z 0.035700 0.000000 1.720280 
# 
# From -- ./inp_files/58093.got.cif
#   From: 2010.05.17/outbox.cif.g08.bks.cpg/sg10_30_cif.got.tgz:58093.got - 2010.06.03 11:33:40.
