data_PCOD9148753
_publ_section_title
;
Structure prediction by ZEFSAII (Michael W. Deem and Ramdas Pophale) SiO2 
 PCOD9148753
Probable space group: P 2/M
;
_chemical_formula_sum "Si O2"
_cell_formula_units_Z 28
_cell_length_a 7.958971
_cell_length_b 9.256027
_cell_length_c 26.095915
_cell_angle_alpha 90.000000
_cell_angle_beta 39.608859
_cell_angle_gamma 90.000000
_cell_volume 1225.641976
_symmetry_space_group_name_H-M "P 2/M"
_symmetry_group_IT_number 10
_symmetry_cell_setting 'monoclinic'
loop_
_space_group_symop_operation_xyz
x,y,z
-x,y,-z
-x,-y,-z
x,-y,z
loop_
_atom_site_type_symbol
_atom_site_label
_atom_site_fract_x
_atom_site_fract_y
_atom_site_fract_z
Si Si1 0.696557 0.666501 0.030162
Si Si2 0.704368 0.332011 0.689088
Si Si3 0.099048 0.667186 0.125662
Si Si4 0.472803 0.834158 0.833738
Si Si5 0.213899 0.830900 0.541149
Si Si6 0.561265 0.666947 0.602910
Si Si7 0.065567 0.164220 0.740366
O O1 0.751999 0.500000 0.029997
O O2 0.398567 0.666281 0.077407
O O3 0.694179 0.763164 0.081179
O O4 0.876645 0.709389 0.939483
O O5 0.733514 0.500000 0.695851
O O6 0.497997 0.259176 0.776341
O O7 0.622016 0.321929 0.648941
O O8 0.982193 0.249297 0.625601
O O9 0.000902 0.500000 0.152924
O O10 0.956404 0.778235 0.196392
O O11 0.774486 0.833219 0.784766
O O12 0.397516 0.000000 0.841796
O O13 0.500000 0.815147 0.500000
O O14 0.248048 0.759622 0.477510
O O15 0.150568 0.000000 0.553016
O O16 0.580524 0.500000 0.583101
O O17 0.268363 0.729587 0.665372
O O18 0.165840 0.000000 0.714204
#
# Coordination Sequence:
#
# PCOD9148753 Si02
#       7
#     4   4   4   4   4   4   4
#     4   8  14  26  46  73 105 141 180 222 269 319
#     4  11  24  40  58  81 109 143 183 222 263 315
#     4   8  14  26  46  73 105 141 180 222 269 319
#     4  10  20  33  52  80 111 143 181 224 271 322
#     4  11  24  41  62  88 114 139 172 215 264 318
#     4  11  24  40  58  81 109 143 183 222 263 315
#     4  10  20  33  52  80 111 143 181 224 271 322
#
# _framework density 22.845172999999999
#
# number of rings (size 3 to 8) (size 9 to 14) (size 15 to 20)
#    0.000    2.143    0.000    4.286    0.000   10.857 
#    0.000    2.857    0.000    0.857    0.000    6.000 
#    0.000    0.000    0.000    0.000    0.000    0.000 
#
# Total GULP energy -156694.226812 kJ/mol
# GULP energy per Si atom -5596.222386 kJ/mol
# Density = 2.279318 g / cm^3
# Si number density = 22.845173 Si / 1000 Ang^3
#
#
#
# Elastic Constant Matrix: (Units=GPa)
#
#
# Indices 1 2 3 4 5 6 
#
# 1 74.0851 44.9607 20.7001 0.0000 7.7807 0.0000
# 2 44.9607 110.3202 44.2168 0.0000 30.2209 0.0000
# 3 20.7001 44.2168 106.7417 0.0000 23.0758 0.0000
# 4 0.0000 0.0000 0.0000 13.6162 0.0000 3.1242
# 5 7.7807 30.2209 23.0758 0.0000 37.2853 0.0000
# 6 0.0000 0.0000 0.0000 3.1242 0.0000 77.4351
#
#
#
# Elastic Compliance Matrix: (Units=1/GPa)
#
#
# Indices 1 2 3 4 5 6 
#
# 1 0.018240 -0.007934 -0.000944 0.000000 0.003209 0.000000
# 2 -0.007934 0.016144 -0.003092 0.000000 -0.009516 0.000000
# 3 -0.000944 -0.003092 0.011831 0.000000 -0.004619 0.000000
# 4 0.000000 0.000000 0.000000 0.074128 0.000000 -0.002991
# 5 0.003209 -0.009516 -0.004619 0.000000 0.036722 0.000000
# 6 0.000000 0.000000 0.000000 -0.002991 0.000000 0.013035
#
#
# Mechanical properties :
#
#
# Convention : Reuss Voigt Hill
#
# Bulk Modulus (GPa) = 44.89439 56.76689 50.83064
# Shear Modulus (GPa) = 24.81816 37.75194 31.28505
#
# Velocity S-wave (km/s) = 3.29958 4.06952 3.70461
# Velocity P-wave (km/s) = 5.84898 6.85447 6.37159
#
# Compressibility (1/GPa) = 0.02227450
#
# Stress axis : x y z
#
# Youngs Moduli (GPa) = 54.82485 61.94224 84.52519
#
# Poissons Ratio (x) = 0.49146 0.07981
# Poissons Ratio (y) = 0.43499 0.26132
# Poissons Ratio (z) = 0.05177 0.19150
#
# Static dielectric constant tensor:
#      x y z
#    x 1.907450 0.000000 -0.028060 
#    y 0.000000 1.780100 0.000000 
#    z -0.028060 0.000000 1.853090 
# 
# From -- ./inp_files/91959.got.cif
#   From: 2010.05.17/outbox.cif.g08.bks.cpg/sg10_46_cif.got.tgz:91959.got - 2010.06.03 11:33:40.
