data_PCOD9148267
_publ_section_title
;
Structure prediction by ZEFSAII (Michael W. Deem and Ramdas Pophale) SiO2 
 PCOD9148267
Probable space group: P 2/M
;
_chemical_formula_sum "Si O2"
_cell_formula_units_Z 32
_cell_length_a 17.250568
_cell_length_b 9.401180
_cell_length_c 23.037025
_cell_angle_alpha 90.000000
_cell_angle_beta 30.990953
_cell_angle_gamma 90.000000
_cell_volume 1923.700016
_symmetry_space_group_name_H-M "P 2/M"
_symmetry_group_IT_number 10
_symmetry_cell_setting 'monoclinic'
loop_
_space_group_symop_operation_xyz
x,y,z
-x,y,-z
-x,-y,-z
x,-y,z
loop_
_atom_site_type_symbol
_atom_site_label
_atom_site_fract_x
_atom_site_fract_y
_atom_site_fract_z
Si Si1 0.504895 0.830410 0.362325
Si Si2 0.559680 0.829646 0.726247
Si Si3 0.324008 0.336219 0.171094
Si Si4 0.863200 0.831278 0.804585
Si Si5 0.588154 0.168033 0.057215
Si Si6 0.804431 0.830245 0.370610
Si Si7 0.830564 0.335586 0.603390
Si Si8 0.341584 0.663406 0.636971
O O1 0.506791 0.789880 0.293534
O O2 0.336706 0.803776 0.495847
O O3 0.621215 0.744985 0.327525
O O4 0.532036 0.000000 0.350374
O O5 0.454546 0.794315 0.849167
O O6 0.719242 0.754295 0.634795
O O7 0.581335 0.000000 0.711942
O O8 0.346874 0.500000 0.139381
O O9 0.219651 0.254833 0.192602
O O10 0.480773 0.256493 0.083193
O O11 0.240474 0.334193 0.286903
O O12 0.035624 0.789444 0.704556
O O13 0.859885 0.000000 0.792890
O O14 0.760093 0.810189 0.928019
O O15 0.554035 0.000000 0.071645
O O16 0.771957 0.746874 0.332056
O O17 0.807626 0.000000 0.357213
O O18 0.837522 0.500000 0.578745
O O19 0.000000 0.279627 0.500000
O O20 0.500000 0.663831 0.500000
O O21 0.297341 0.500000 0.674651
#
# Coordination Sequence:
#
# PCOD9148267 Si02
#       8
#     4   4   4   4   4   4   4   4
#     4   9  17  30  49  72  96 120 150 189 230 277
#     4   9  18  31  49  71  91 119 159 196 229 271
#     4  10  20  32  47  68  92 123 163 200 235 276
#     4  10  20  32  49  70  94 124 157 196 238 279
#     4   9  18  34  50  66  92 125 161 198 234 273
#     4   9  18  31  47  70  97 122 149 186 235 280
#     4   9  19  33  45  62  94 130 156 187 235 282
#     4   9  17  30  48  71  97 124 151 181 225 280
#
# _framework density 16.634609999999999
#
# number of rings (size 3 to 8) (size 9 to 14) (size 15 to 20)
#    0.000    2.750    0.000    1.125    1.750    5.250 
#    0.000    0.000    0.000    0.750    0.000    5.250 
#    0.000    0.000    0.000    0.000    0.000    0.000 
#
# Total GULP energy -178365.862717 kJ/mol
# GULP energy per Si atom -5573.933210 kJ/mol
# Density = 1.659675 g / cm^3
# Si number density = 16.634610 Si / 1000 Ang^3
#
#
#
# Elastic Constant Matrix: (Units=GPa)
#
#
# Indices 1 2 3 4 5 6 
#
# 1 122.1014 51.1258 20.5869 0.0000 10.8535 0.0000
# 2 51.1258 42.8157 18.4128 0.0000 3.7944 0.0000
# 3 20.5869 18.4128 27.0569 0.0000 -4.3155 0.0000
# 4 0.0000 0.0000 0.0000 14.6657 0.0000 1.3014
# 5 10.8535 3.7944 -4.3155 0.0000 17.7262 0.0000
# 6 0.0000 0.0000 0.0000 1.3014 0.0000 3.9715
#
#
#
# Elastic Compliance Matrix: (Units=1/GPa)
#
#
# Indices 1 2 3 4 5 6 
#
# 1 0.017030 -0.019437 -0.000759 0.000000 -0.006452 0.000000
# 2 -0.019437 0.058382 -0.026048 0.000000 -0.006937 0.000000
# 3 -0.000759 -0.026048 0.058498 0.000000 0.020282 0.000000
# 4 0.000000 0.000000 0.000000 0.070228 0.000000 -0.023012
# 5 -0.006452 -0.006937 0.020282 0.000000 0.066787 0.000000
# 6 0.000000 0.000000 0.000000 -0.023012 0.000000 0.259331
#
#
# Mechanical properties :
#
#
# Convention : Reuss Voigt Hill
#
# Bulk Modulus (GPa) = 24.14180 41.35832 32.75006
# Shear Modulus (GPa) = 7.85482 14.06257 10.95869
#
# Velocity S-wave (km/s) = 2.17537 2.91070 2.56947
# Velocity P-wave (km/s) = 4.56663 6.01772 5.34168
#
# Compressibility (1/GPa) = 0.04142193
#
# Stress axis : x y z
#
# Youngs Moduli (GPa) = 58.71979 17.12856 17.09461
#
# Poissons Ratio (x) = 0.33293 0.01298
# Poissons Ratio (y) = 1.14134 0.44527
# Poissons Ratio (z) = 0.04459 0.44616
#
# Static dielectric constant tensor:
#      x y z
#    x 1.534680 0.000000 0.017970 
#    y 0.000000 1.560830 0.000000 
#    z 0.017970 0.000000 1.564570 
# 
# From -- ./inp_files/54885.got.cif
#   From: 2010.05.17/outbox.cif.g08.bks.cpg/sg10_28_cif.got.tgz:54885.got - 2010.06.03 11:33:40.
