data_PCOD9148454
_publ_section_title
;
Structure prediction by ZEFSAII (Michael W. Deem and Ramdas Pophale) SiO2 
 PCOD9148454
Probable space group: P 2/M
;
_chemical_formula_sum "Si O2"
_cell_formula_units_Z 28
_cell_length_a 19.298069
_cell_length_b 18.360819
_cell_length_c 7.572422
_cell_angle_alpha 90.000000
_cell_angle_beta 146.921830
_cell_angle_gamma 90.000000
_cell_volume 1464.402680
_symmetry_space_group_name_H-M "P 2/M"
_symmetry_group_IT_number 10
_symmetry_cell_setting 'monoclinic'
loop_
_space_group_symop_operation_xyz
x,y,z
-x,y,-z
-x,-y,-z
x,-y,z
loop_
_atom_site_type_symbol
_atom_site_label
_atom_site_fract_x
_atom_site_fract_y
_atom_site_fract_z
Si Si1 0.737990 0.262717 0.158478
Si Si2 0.988234 0.785274 0.275074
Si Si3 0.880371 0.083946 0.878918
Si Si4 0.840828 0.415818 0.466193
Si Si5 0.264105 0.282008 0.255284
Si Si6 0.868608 0.417200 0.951080
Si Si7 0.365812 0.822016 0.750928
O O1 0.749125 0.349374 0.217161
O O2 0.643530 0.217117 0.078985
O O3 0.875154 0.229890 0.510972
O O4 0.719866 0.252575 0.909408
O O5 0.000000 0.760093 0.500000
O O6 0.935684 0.867162 0.155725
O O7 0.872770 0.739982 0.950340
O O8 0.753174 0.123576 0.536109
O O9 0.855197 0.000000 0.866984
O O10 0.000000 0.087206 0.000000
O O11 0.808167 0.500000 0.349315
O O12 0.853020 0.414110 0.705235
O O13 0.982734 0.399324 0.693856
O O14 0.241159 0.367742 0.199800
O O15 0.358023 0.243534 0.590036
O O16 0.852005 0.500000 0.973079
O O17 0.500000 0.859849 0.000000
#
# Coordination Sequence:
#
# PCOD9148454 Si02
#       7
#     4   4   4   4   4   4   4
#     4  11  19  33  56  80 115 148 187 238 274 331
#     4   9  18  31  52  86 113 144 180 227 277 323
#     4  10  20  36  61  89 114 144 182 221 271 339
#     4   9  17  27  47  80 117 154 185 229 293 338
#     4  10  20  32  54  83 108 146 195 229 279 336
#     4   9  16  27  46  78 117 150 185 232 287 343
#     4  11  24  40  59  81 113 152 185 231 285 327
#
# _framework density 19.120422999999999
#
# number of rings (size 3 to 8) (size 9 to 14) (size 15 to 20)
#    0.000    2.143    4.286    0.857    0.000    1.714 
#    0.000    1.429    0.000    1.714    0.000    6.000 
#    0.000    0.000    0.000    0.000    0.000    0.000 
#
# Total GULP energy -155872.619585 kJ/mol
# GULP energy per Si atom -5566.879271 kJ/mol
# Density = 1.907690 g / cm^3
# Si number density = 19.120423 Si / 1000 Ang^3
#
#
#
# Elastic Constant Matrix: (Units=GPa)
#
#
# Indices 1 2 3 4 5 6 
#
# 1 70.1180 12.7191 23.1701 0.0000 1.9719 0.0000
# 2 12.7191 93.4847 4.7754 0.0000 8.8300 0.0000
# 3 23.1701 4.7754 30.3695 0.0000 12.8289 0.0000
# 4 0.0000 0.0000 0.0000 9.1530 0.0000 -1.2859
# 5 1.9719 8.8300 12.8289 0.0000 24.9863 0.0000
# 6 0.0000 0.0000 0.0000 -1.2859 0.0000 20.5299
#
#
#
# Elastic Compliance Matrix: (Units=1/GPa)
#
#
# Indices 1 2 3 4 5 6 
#
# 1 0.020930 -0.002732 -0.019472 0.000000 0.009312 0.000000
# 2 -0.002732 0.011423 0.002430 0.000000 -0.005069 0.000000
# 3 -0.019472 0.002430 0.060164 0.000000 -0.030213 0.000000
# 4 0.000000 0.000000 0.000000 0.110224 0.000000 0.006904
# 5 0.009312 -0.005069 -0.030213 0.000000 0.056591 0.000000
# 6 0.000000 0.000000 0.000000 0.006904 0.000000 0.049142
#
#
# Mechanical properties :
#
#
# Convention : Reuss Voigt Hill
#
# Bulk Modulus (GPa) = 18.87937 30.58903 24.73420
# Shear Modulus (GPa) = 13.67315 21.15432 17.41373
#
# Velocity S-wave (km/s) = 2.67705 3.32983 3.02112
# Velocity P-wave (km/s) = 4.41031 5.55126 5.01335
#
# Compressibility (1/GPa) = 0.05296788
#
# Stress axis : x y z
#
# Youngs Moduli (GPa) = 47.77855 87.53998 16.62113
#
# Poissons Ratio (x) = 0.23920 0.32365
# Poissons Ratio (y) = 0.13055 -0.04038
# Poissons Ratio (z) = 0.93035 -0.21269
#
# Static dielectric constant tensor:
#      x y z
#    x 1.696050 0.000000 0.015360 
#    y 0.000000 1.732470 0.000000 
#    z 0.015360 0.000000 1.709500 
# 
# From -- ./inp_files/35385.got.cif
#   From: 2010.05.17/outbox.cif.g08.bks.cpg/sg10_18_cif.got.tgz:35385.got - 2010.06.03 11:33:40.
