data_PCOD9148664
_publ_section_title
;
Structure prediction by ZEFSAII (Michael W. Deem and Ramdas Pophale) SiO2 
 PCOD9148664
Probable space group: P 2/M
;
_chemical_formula_sum "Si O2"
_cell_formula_units_Z 28
_cell_length_a 17.460089
_cell_length_b 13.459709
_cell_length_c 19.737533
_cell_angle_alpha 90.000000
_cell_angle_beta 20.616776
_cell_angle_gamma 90.000000
_cell_volume 1633.279054
_symmetry_space_group_name_H-M "P 2/M"
_symmetry_group_IT_number 10
_symmetry_cell_setting 'monoclinic'
loop_
_space_group_symop_operation_xyz
x,y,z
-x,y,-z
-x,-y,-z
x,-y,z
loop_
_atom_site_type_symbol
_atom_site_label
_atom_site_fract_x
_atom_site_fract_y
_atom_site_fract_z
Si Si1 0.772467 0.615606 0.037933
Si Si2 0.768283 0.296941 0.334767
Si Si3 0.490328 0.786814 0.228649
Si Si4 0.060121 0.881504 0.528376
Si Si5 0.678850 0.611595 0.272752
Si Si6 0.678601 0.113621 0.498738
Si Si7 0.169181 0.112560 0.151889
O O1 0.776241 0.500000 0.015701
O O2 0.563104 0.674501 0.183747
O O3 0.763123 0.621814 0.127342
O O4 0.996675 0.670684 0.832556
O O5 0.580743 0.372823 0.513980
O O6 0.764678 0.309809 0.256493
O O7 0.693223 0.190218 0.424497
O O8 0.474454 0.842947 0.314691
O O9 0.262352 0.812888 0.381942
O O10 0.674434 0.827141 0.025969
O O11 0.863490 0.857081 0.742819
O O12 0.000000 0.870172 0.500000
O O13 0.113156 0.000000 0.496006
O O14 0.732755 0.500000 0.252273
O O15 0.923609 0.113171 0.326151
O O16 0.620076 0.000000 0.530507
O O17 0.252667 0.000000 0.082105
#
# Coordination Sequence:
#
# PCOD9148664 Si02
#       7
#     4   4   4   4   4   4   4
#     4  11  22  35  55  81 106 135 181 232 275 321
#     4  11  19  35  54  76 105 138 177 229 277 319
#     4  11  19  34  54  77 110 144 175 215 269 315
#     4   9  19  34  54  85 116 140 175 216 257 316
#     4  10  21  36  55  77 103 139 182 231 286 324
#     4  10  20  33  51  76 106 143 181 217 260 323
#     4   9  17  31  53  77 105 142 174 206 257 313
#
# _framework density 17.143426999999999
#
# number of rings (size 3 to 8) (size 9 to 14) (size 15 to 20)
#    0.000    1.857    2.857    4.286    0.000    1.714 
#    0.000    3.571    0.000    1.286    0.000    1.000 
#    0.000    0.000    0.000    0.000    0.000    0.000 
#
# Total GULP energy -156034.978834 kJ/mol
# GULP energy per Si atom -5572.677816 kJ/mol
# Density = 1.710441 g / cm^3
# Si number density = 17.143427 Si / 1000 Ang^3
#
#
#
# Elastic Constant Matrix: (Units=GPa)
#
#
# Indices 1 2 3 4 5 6 
#
# 1 73.6693 52.7664 20.4531 0.0000 10.1128 0.0000
# 2 52.7664 110.9208 35.5875 0.0000 7.4869 0.0000
# 3 20.4531 35.5875 69.6491 0.0000 11.1573 0.0000
# 4 0.0000 0.0000 0.0000 23.9744 0.0000 -0.4170
# 5 10.1128 7.4869 11.1573 0.0000 24.2076 0.0000
# 6 0.0000 0.0000 0.0000 -0.4170 0.0000 18.6105
#
#
#
# Elastic Compliance Matrix: (Units=1/GPa)
#
#
# Indices 1 2 3 4 5 6 
#
# 1 0.021397 -0.009653 -0.000429 0.000000 -0.005755 0.000000
# 2 -0.009653 0.015154 -0.005187 0.000000 0.001736 0.000000
# 3 -0.000429 -0.005187 0.018191 0.000000 -0.006601 0.000000
# 4 0.000000 0.000000 0.000000 0.041727 0.000000 0.000935
# 5 -0.005755 0.001736 -0.006601 0.000000 0.046219 0.000000
# 6 0.000000 0.000000 0.000000 0.000935 0.000000 0.053754
#
#
# Mechanical properties :
#
#
# Convention : Reuss Voigt Hill
#
# Bulk Modulus (GPa) = 41.31314 52.42811 46.87063
# Shear Modulus (GPa) = 21.27213 23.05399 22.16306
#
# Velocity S-wave (km/s) = 3.52637 3.67109 3.59946
# Velocity P-wave (km/s) = 6.38210 6.97264 6.68389
#
# Compressibility (1/GPa) = 0.02420537
#
# Stress axis : x y z
#
# Youngs Moduli (GPa) = 46.73485 65.98819 54.97123
#
# Poissons Ratio (x) = 0.63696 0.02361
# Poissons Ratio (y) = 0.45112 0.28511
# Poissons Ratio (z) = 0.02007 0.34226
#
# Static dielectric constant tensor:
#      x y z
#    x 1.598570 0.000000 0.004220 
#    y 0.000000 1.591660 0.000000 
#    z 0.004220 0.000000 1.617230 
# 
# From -- ./inp_files/85820.got.cif
#   From: 2010.05.17/outbox.cif.g08.bks.cpg/sg10_43_cif.got.tgz:85820.got - 2010.06.03 11:33:40.
