data_PCOD9148030
_publ_section_title
;
Structure prediction by ZEFSAII (Michael W. Deem and Ramdas Pophale) SiO2 
 PCOD9148030
Probable space group: P 2/M
;
_chemical_formula_sum "Si O2"
_cell_formula_units_Z 29
_cell_length_a 17.205038
_cell_length_b 9.550687
_cell_length_c 12.168727
_cell_angle_alpha 90.000000
_cell_angle_beta 44.337457
_cell_angle_gamma 90.000000
_cell_volume 1397.461606
_symmetry_space_group_name_H-M "P 2/M"
_symmetry_group_IT_number 10
_symmetry_cell_setting 'monoclinic'
loop_
_space_group_symop_operation_xyz
x,y,z
-x,y,-z
-x,-y,-z
x,-y,z
loop_
_atom_site_type_symbol
_atom_site_label
_atom_site_fract_x
_atom_site_fract_y
_atom_site_fract_z
Si Si1 0.686377 0.159870 0.650139
Si Si2 0.899450 0.658097 0.412835
Si Si3 0.516253 0.158037 0.277145
Si Si4 0.120907 0.659687 0.829231
Si Si5 0.636777 0.236947 0.938768
Si Si6 0.847947 0.330991 0.847012
Si Si7 0.735164 0.829824 0.164018
Si Si8 0.500000 0.500000 0.000000
O O1 0.799037 0.244573 0.548546
O O2 0.600224 0.222718 0.646815
O O3 0.631461 0.163627 0.826348
O O4 0.709046 0.000000 0.596944
O O5 0.881266 0.500000 0.473081
O O6 0.892184 0.656577 0.287834
O O7 0.025021 0.701441 0.312856
O O8 0.490235 0.000000 0.339393
O O9 0.588207 0.154433 0.091589
O O10 0.606389 0.214841 0.272635
O O11 0.147261 0.500000 0.839837
O O12 0.213073 0.768277 0.777221
O O13 0.000000 0.697024 0.000000
O O14 0.762320 0.280590 0.841526
O O15 0.567608 0.378536 0.998433
O O16 0.841126 0.500000 0.871528
O O17 0.809224 0.246453 0.994891
O O18 0.741345 0.000000 0.151446
#
# Coordination Sequence:
#
# PCOD9148030 Si02
#       8
#     4   4   4   4   4   4   4   1
#     4  11  23  39  58  79 114 158 191 230 282 337
#     4  10  23  39  58  80 111 149 190 231 276 339
#     4   9  19  37  57  81 111 147 186 227 280 334
#     4  10  19  38  61  83 110 147 186 229 283 341
#     4  11  21  34  58  87 114 145 192 237 277 321
#     4  10  20  37  56  82 114 152 186 228 284 335
#     4  10  20  33  58  89 114 139 182 239 282 330
#     4  12  20  32  54  98 112 140 196 248 268 328
#
# _framework density 20.751912000000001
#
# number of rings (size 3 to 8) (size 9 to 14) (size 15 to 20)
#    0.000    1.793    3.448    0.828    0.966    3.586 
#    0.000    2.759    0.000    4.138    0.000    0.000 
#    0.000    0.000    0.000    0.000    0.000    0.000 
#
# Total GULP energy -161497.187412 kJ/mol
# GULP energy per Si atom -5568.868531 kJ/mol
# Density = 2.070468 g / cm^3
# Si number density = 20.751912 Si / 1000 Ang^3
#
#
#
# Elastic Constant Matrix: (Units=GPa)
#
#
# Indices 1 2 3 4 5 6 
#
# 1 97.3151 21.8788 -1.3525 0.0000 -32.6621 0.0000
# 2 21.8788 66.5310 9.5128 0.0000 -19.8169 0.0000
# 3 -1.3525 9.5128 28.2450 0.0000 -15.0178 0.0000
# 4 0.0000 0.0000 0.0000 4.4501 0.0000 0.8258
# 5 -32.6621 -19.8169 -15.0178 0.0000 33.4859 0.0000
# 6 0.0000 0.0000 0.0000 0.8258 0.0000 35.7595
#
#
#
# Elastic Compliance Matrix: (Units=1/GPa)
#
#
# Indices 1 2 3 4 5 6 
#
# 1 0.018731 -0.001031 0.013963 0.000000 0.023922 0.000000
# 2 -0.001031 0.018310 -0.001299 0.000000 0.009248 0.000000
# 3 0.013963 -0.001299 0.056915 0.000000 0.038377 0.000000
# 4 0.000000 0.000000 0.000000 0.225680 0.000000 -0.005212
# 5 0.023922 0.009248 0.038377 0.000000 0.075881 0.000000
# 6 0.000000 0.000000 0.000000 -0.005212 0.000000 0.028085
#
#
# Mechanical properties :
#
#
# Convention : Reuss Voigt Hill
#
# Bulk Modulus (GPa) = 8.53070 28.01880 18.27475
# Shear Modulus (GPa) = 11.37893 25.54259 18.46076
#
# Velocity S-wave (km/s) = 2.34419 3.51216 2.98584
# Velocity P-wave (km/s) = 3.38330 5.47523 4.55109
#
# Compressibility (1/GPa) = 0.11722366
#
# Stress axis : x y z
#
# Youngs Moduli (GPa) = 53.38803 54.61555 17.56997
#
# Poissons Ratio (x) = 0.05629 -0.24534
# Poissons Ratio (y) = 0.05502 0.02282
# Poissons Ratio (z) = -0.74548 0.07094
#
# Static dielectric constant tensor:
#      x y z
#    x 1.779970 0.000000 -0.003560 
#    y 0.000000 1.718630 0.000000 
#    z -0.003560 0.000000 1.771390 
# 
# From -- ./inp_files/68638.got.cif
#   From: 2010.05.17/outbox.cif.g08.bks.cpg/sg10_35_cif.got.tgz:68638.got - 2010.06.03 11:33:40.
