data_PCOD9148643
_publ_section_title
;
Structure prediction by ZEFSAII (Michael W. Deem and Ramdas Pophale) SiO2 
 PCOD9148643
Probable space group: P 2/M
;
_chemical_formula_sum "Si O2"
_cell_formula_units_Z 28
_cell_length_a 30.486142
_cell_length_b 9.271155
_cell_length_c 9.462453
_cell_angle_alpha 90.000000
_cell_angle_beta 28.265031
_cell_angle_gamma 90.000000
_cell_volume 1266.504009
_symmetry_space_group_name_H-M "P 2/M"
_symmetry_group_IT_number 10
_symmetry_cell_setting 'monoclinic'
loop_
_space_group_symop_operation_xyz
x,y,z
-x,y,-z
-x,-y,-z
x,-y,z
loop_
_atom_site_type_symbol
_atom_site_label
_atom_site_fract_x
_atom_site_fract_y
_atom_site_fract_z
Si Si1 0.608041 0.164657 0.146123
Si Si2 0.648085 0.828808 0.339138
Si Si3 0.831949 0.164393 0.296926
Si Si4 0.028139 0.165179 0.579858
Si Si5 0.713452 0.334561 0.405355
Si Si6 0.100757 0.666371 0.633218
Si Si7 0.542847 0.664756 0.081793
O O1 0.500000 0.164101 0.500000
O O2 0.663489 0.201590 0.130252
O O3 0.609935 0.279549 0.016708
O O4 0.627541 0.000000 0.046637
O O5 0.717116 0.750681 0.248999
O O6 0.545153 0.768938 0.666060
O O7 0.649691 0.000000 0.354770
O O8 0.772283 0.256313 0.357419
O O9 0.838682 0.237499 0.431297
O O10 0.799252 0.000000 0.399368
O O11 0.933202 0.158813 0.938507
O O12 0.000000 0.213496 0.500000
O O13 0.090186 0.264248 0.507060
O O14 0.065185 0.000000 0.462684
O O15 0.741680 0.500000 0.309620
O O16 0.606903 0.332347 0.762296
O O17 0.131524 0.500000 0.537860
O O18 0.000000 0.664995 0.000000
O O19 0.512435 0.500000 0.193379
#
# Coordination Sequence:
#
# PCOD9148643 Si02
#       7
#     4   4   4   4   4   4   4
#     4   8  16  31  50  72  96 123 161 209 255 303
#     4  10  20  34  53  76 101 133 175 218 261 310
#     4  10  20  35  55  77 103 138 176 210 253 307
#     4   9  18  34  57  84 110 135 168 210 252 300
#     4  11  23  36  50  73 106 138 172 217 263 306
#     4   9  17  31  53  79 106 135 166 201 243 295
#     4  10  20  33  51  75 101 133 174 217 262 311
#
# _framework density 22.108101999999999
#
# number of rings (size 3 to 8) (size 9 to 14) (size 15 to 20)
#    0.000    2.429    0.000    3.429    0.000    9.714 
#    0.000    1.429    0.000    1.714    0.000    0.000 
#    0.000    0.000    0.000    0.000    0.000    0.000 
#
# Total GULP energy -156400.821093 kJ/mol
# GULP energy per Si atom -5585.743610 kJ/mol
# Density = 2.205778 g / cm^3
# Si number density = 22.108102 Si / 1000 Ang^3
#
#
#
# Elastic Constant Matrix: (Units=GPa)
#
#
# Indices 1 2 3 4 5 6 
#
# 1 195.4360 109.1298 6.4828 0.0000 29.5348 0.0000
# 2 109.1298 146.0340 7.9248 0.0000 24.7068 0.0000
# 3 6.4828 7.9248 43.6234 0.0000 12.9740 0.0000
# 4 0.0000 0.0000 0.0000 3.1968 0.0000 -14.8091
# 5 29.5348 24.7068 12.9740 0.0000 24.8970 0.0000
# 6 0.0000 0.0000 0.0000 -14.8091 0.0000 24.3555
#
#
#
# Elastic Compliance Matrix: (Units=1/GPa)
#
#
# Indices 1 2 3 4 5 6 
#
# 1 0.009338 -0.006075 0.001441 0.000000 -0.005799 0.000000
# 2 -0.006075 0.012227 0.000174 0.000000 -0.005018 0.000000
# 3 0.001441 0.000174 0.027499 0.000000 -0.016212 0.000000
# 4 0.000000 0.000000 0.000000 -0.172185 0.000000 -0.104695
# 5 -0.005799 -0.005018 -0.016212 0.000000 0.060472 0.000000
# 6 0.000000 0.000000 0.000000 -0.104695 0.000000 -0.022600
#
#
# Mechanical properties :
#
#
# Convention : Reuss Voigt Hill
#
# Bulk Modulus (GPa) = 24.91089 70.24092 47.57591
# Shear Modulus (GPa) = -79.43155 27.92693 -25.75231
#
# Velocity S-wave (km/s) = -6.00056 3.55801 -3.41667
# Velocity P-wave (km/s) = 6.05943 6.97995 2.44980
#
# Compressibility (1/GPa) = 0.04014308
#
# Stress axis : x y z
#
# Youngs Moduli (GPa) = 107.09470 81.78692 36.36455
#
# Poissons Ratio (x) = 0.49685 -0.05239
# Poissons Ratio (y) = 0.65059 -0.00632
# Poissons Ratio (z) = -0.15429 -0.01422
#
# Static dielectric constant tensor:
#      x y z
#    x 1.837100 0.000000 -0.026530 
#    y 0.000000 1.757550 0.000000 
#    z -0.026530 0.000000 1.880300 
# 
# From -- ./inp_files/37049.got.cif
#   From: 2010.05.17/outbox.cif.g08.bks.cpg/sg10_19_cif.got.tgz:37049.got - 2010.06.03 11:33:40.
