data_PCOD9148797
_publ_section_title
;
Structure prediction by ZEFSAII (Michael W. Deem and Ramdas Pophale) SiO2 
 PCOD9148797
Probable space group: P 2/M
;
_chemical_formula_sum "Si O2"
_cell_formula_units_Z 32
_cell_length_a 12.216150
_cell_length_b 7.381913
_cell_length_c 32.666634
_cell_angle_alpha 90.000000
_cell_angle_beta 151.399221
_cell_angle_gamma 90.000000
_cell_volume 1410.179953
_symmetry_space_group_name_H-M "P 2/M"
_symmetry_group_IT_number 10
_symmetry_cell_setting 'monoclinic'
loop_
_space_group_symop_operation_xyz
x,y,z
-x,y,-z
-x,-y,-z
x,-y,z
loop_
_atom_site_type_symbol
_atom_site_label
_atom_site_fract_x
_atom_site_fract_y
_atom_site_fract_z
Si Si1 0.101342 0.221457 0.810286
Si Si2 0.069838 0.219742 0.158884
Si Si3 0.717855 0.219129 0.518988
Si Si4 0.606257 0.788510 0.964599
Si Si5 0.195494 0.779753 0.362748
Si Si6 0.265006 0.719165 0.085190
Si Si7 0.499743 0.291342 0.755504
Si Si8 0.069831 0.708129 0.566332
O O1 0.954266 0.272302 0.801643
O O2 0.362954 0.285145 0.899363
O O3 0.986601 0.281774 0.730337
O O4 0.106411 0.000000 0.811241
O O5 0.290212 0.287149 0.207229
O O6 0.078885 0.000000 0.159770
O O7 0.838746 0.284890 0.060481
O O8 0.834849 0.276823 0.600190
O O9 0.452341 0.272768 0.433985
O O10 0.852469 0.289855 0.524495
O O11 0.723092 0.000000 0.519153
O O12 0.626412 0.773127 0.922302
O O13 0.604854 0.000000 0.975714
O O14 0.191192 0.000000 0.361483
O O15 0.259815 0.500000 0.085064
O O16 0.406747 0.786324 0.171006
O O17 0.000000 0.780316 0.000000
O O18 0.439458 0.500000 0.745175
O O19 0.279783 0.208877 0.660867
O O20 0.140305 0.500000 0.580532
O O21 0.000000 0.791114 0.500000
#
# Coordination Sequence:
#
# PCOD9148797 Si02
#       8
#     4   4   4   4   4   4   4   4
#     4   9  18  32  52  77 109 142 172 212 266 314
#     4  10  20  34  54  80 109 140 178 219 260 312
#     4   9  18  34  57  81 106 134 173 218 263 316
#     4  10  20  33  53  81 111 140 174 219 265 310
#     4   8  16  32  53  79 107 137 169 214 269 313
#     4  10  20  36  56  76 104 144 181 217 264 316
#     4  10  22  39  56  75 105 145 181 216 266 321
#     4  10  23  40  56  77 109 144 175 217 273 322
#
# _framework density 22.692139999999998
#
# number of rings (size 3 to 8) (size 9 to 14) (size 15 to 20)
#    0.000    2.500    1.250    1.125    3.500    3.000 
#    0.000    1.875    0.000    3.000    0.000    0.000 
#    0.000    0.000    0.000    0.000    0.000    0.000 
#
# Total GULP energy -178801.103222 kJ/mol
# GULP energy per Si atom -5587.534476 kJ/mol
# Density = 2.264049 g / cm^3
# Si number density = 22.692140 Si / 1000 Ang^3
#
#
#
# Elastic Constant Matrix: (Units=GPa)
#
#
# Indices 1 2 3 4 5 6 
#
# 1 79.1092 -16.2801 6.2240 0.0000 -14.8564 0.0000
# 2 -16.2801 80.3504 5.8109 0.0000 -2.6145 0.0000
# 3 6.2240 5.8109 88.5669 0.0000 -19.9854 0.0000
# 4 0.0000 0.0000 0.0000 -14.5928 0.0000 7.1595
# 5 -14.8564 -2.6145 -19.9854 0.0000 26.3110 0.0000
# 6 0.0000 0.0000 0.0000 7.1595 0.0000 23.1257
#
#
#
# Elastic Compliance Matrix: (Units=1/GPa)
#
#
# Indices 1 2 3 4 5 6 
#
# 1 0.015028 0.003291 0.000865 0.000000 0.009470 0.000000
# 2 0.003291 0.013237 -0.000463 0.000000 0.002822 0.000000
# 3 0.000865 -0.000463 0.013710 0.000000 0.010856 0.000000
# 4 0.000000 0.000000 0.000000 -0.059491 0.000000 0.018418
# 5 0.009470 0.002822 0.010856 0.000000 0.051881 0.000000
# 6 0.000000 0.000000 0.000000 0.018418 0.000000 0.037540
#
#
# Mechanical properties :
#
#
# Convention : Reuss Voigt Hill
#
# Bulk Modulus (GPa) = 20.25904 26.61511 23.43707
# Shear Modulus (GPa) = 61.74751 23.78689 42.76720
#
# Velocity S-wave (km/s) = 5.22207 3.24117 4.34599
# Velocity P-wave (km/s) = 6.73106 5.07555 5.96106
#
# Compressibility (1/GPa) = 0.04936069
#
# Stress axis : x y z
#
# Youngs Moduli (GPa) = 66.54146 75.54305 72.93779
#
# Poissons Ratio (x) = -0.24857 -0.06308
# Poissons Ratio (y) = -0.21895 0.03377
# Poissons Ratio (z) = -0.05755 0.03498
#
# Static dielectric constant tensor:
#      x y z
#    x 1.774380 0.000000 -0.018670 
#    y 0.000000 1.877730 0.000000 
#    z -0.018670 0.000000 1.838000 
# 
# From -- ./inp_files/95076.got.cif
#   From: 2010.05.17/outbox.cif.g08.bks.cpg/sg10_48_cif.got.tgz:95076.got - 2010.06.03 11:33:40.
