data_PCOD9148355
_publ_section_title
;
Structure prediction by ZEFSAII (Michael W. Deem and Ramdas Pophale) SiO2 
 PCOD9148355
Probable space group: P 2/M
;
_chemical_formula_sum "Si O2"
_cell_formula_units_Z 32
_cell_length_a 26.641143
_cell_length_b 14.433449
_cell_length_c 9.875300
_cell_angle_alpha 90.000000
_cell_angle_beta 28.219929
_cell_angle_gamma 90.000000
_cell_volume 1795.574175
_symmetry_space_group_name_H-M "P 2/M"
_symmetry_group_IT_number 10
_symmetry_cell_setting 'monoclinic'
loop_
_space_group_symop_operation_xyz
x,y,z
-x,y,-z
-x,-y,-z
x,-y,z
loop_
_atom_site_type_symbol
_atom_site_label
_atom_site_fract_x
_atom_site_fract_y
_atom_site_fract_z
Si Si1 0.793653 0.894106 0.708629
Si Si2 0.161437 0.607614 0.039551
Si Si3 0.117020 0.254247 0.681088
Si Si4 0.927592 0.607959 0.459982
Si Si5 0.597398 0.112121 0.362189
Si Si6 0.792100 0.757996 0.260341
Si Si7 0.972935 0.893198 0.716755
Si Si8 0.395023 0.891420 0.340032
O O1 0.803433 0.824441 0.561403
O O2 0.913611 0.892730 0.479928
O O3 0.767400 0.000000 0.731585
O O4 0.708888 0.864259 0.023991
O O5 0.193222 0.500000 0.953871
O O6 0.144165 0.630368 0.238386
O O7 0.047159 0.616357 0.234642
O O8 0.232655 0.681521 0.793908
O O9 0.096676 0.327250 0.609397
O O10 0.169329 0.291228 0.694044
O O11 0.000000 0.216746 0.000000
O O12 0.912207 0.500000 0.461003
O O13 0.500000 0.145708 0.500000
O O14 0.589856 0.137605 0.538104
O O15 0.592640 0.000000 0.373049
O O16 0.694229 0.826321 0.510491
O O17 0.888556 0.823758 0.980282
O O18 0.000000 0.864627 0.500000
O O19 0.933030 0.000000 0.810199
O O20 0.362314 0.000000 0.418661
O O21 0.500000 0.884498 0.000000
#
# Coordination Sequence:
#
# PCOD9148355 Si02
#       8
#     4   4   4   4   4   4   4   4
#     4  10  21  34  49  73 112 149 186 224 265 328
#     4   9  19  35  57  81 106 146 190 231 280 335
#     4  12  23  34  48  83 116 151 186 222 279 328
#     4   9  19  36  55  77 112 151 187 227 276 335
#     4   9  19  37  59  78  99 142 195 238 278 319
#     4  12  23  34  56  81 115 148 185 231 280 338
#     4  10  20  32  49  75 108 149 187 222 272 331
#     4  10  23  41  59  83 113 147 190 238 285 332
#
# _framework density 17.821598000000002
#
# number of rings (size 3 to 8) (size 9 to 14) (size 15 to 20)
#    0.000    1.875    2.500    1.875    7.000    4.000 
#    0.000    0.000    0.000    0.375    0.000    0.000 
#    0.000    3.000    0.000    0.000    0.000    0.000 
#
# Total GULP energy -178516.965651 kJ/mol
# GULP energy per Si atom -5578.655177 kJ/mol
# Density = 1.778103 g / cm^3
# Si number density = 17.821598 Si / 1000 Ang^3
#
#
#
# Elastic Constant Matrix: (Units=GPa)
#
#
# Indices 1 2 3 4 5 6 
#
# 1 77.6074 31.1335 29.5651 0.0000 19.1288 0.0000
# 2 31.1335 64.5129 41.4844 0.0000 14.6342 0.0000
# 3 29.5651 41.4844 80.3585 0.0000 15.0276 0.0000
# 4 0.0000 0.0000 0.0000 18.0514 0.0000 -3.2260
# 5 19.1288 14.6342 15.0276 0.0000 26.8294 0.0000
# 6 0.0000 0.0000 0.0000 -3.2260 0.0000 44.9176
#
#
#
# Elastic Compliance Matrix: (Units=1/GPa)
#
#
# Indices 1 2 3 4 5 6 
#
# 1 0.018005 -0.005243 -0.002292 0.000000 -0.008693 0.000000
# 2 -0.005243 0.025841 -0.010583 0.000000 -0.004429 0.000000
# 3 -0.002292 -0.010583 0.019397 0.000000 -0.003458 0.000000
# 4 0.000000 0.000000 0.000000 0.056118 0.000000 0.004030
# 5 -0.008693 -0.004429 -0.003458 0.000000 0.047824 0.000000
# 6 0.000000 0.000000 0.000000 0.004030 0.000000 0.022552
#
#
# Mechanical properties :
#
#
# Convention : Reuss Voigt Hill
#
# Bulk Modulus (GPa) = 37.02677 47.42721 42.22699
# Shear Modulus (GPa) = 21.27887 25.97940 23.62914
#
# Velocity S-wave (km/s) = 3.45917 3.82219 3.64520
# Velocity P-wave (km/s) = 6.06432 6.79329 6.43913
#
# Compressibility (1/GPa) = 0.02700749
#
# Stress axis : x y z
#
# Youngs Moduli (GPa) = 55.54145 38.69816 51.55317
#
# Poissons Ratio (x) = 0.20290 0.11814
# Poissons Ratio (y) = 0.29122 0.54558
# Poissons Ratio (z) = 0.12728 0.40954
#
# Static dielectric constant tensor:
#      x y z
#    x 1.649060 0.000000 0.012970 
#    y 0.000000 1.624220 0.000000 
#    z 0.012970 0.000000 1.606040 
# 
# From -- ./inp_files/36329.got.cif
#   From: 2010.05.17/outbox.cif.g08.bks.cpg/sg10_19_cif.got.tgz:36329.got - 2010.06.03 11:33:40.
