data_PCOD9148973
_publ_section_title
;
Structure prediction by ZEFSAII (Michael W. Deem and Ramdas Pophale) SiO2 
 PCOD9148973
Probable space group: P 2/M
;
_chemical_formula_sum "Si O2"
_cell_formula_units_Z 28
_cell_length_a 15.509806
_cell_length_b 8.588014
_cell_length_c 12.156844
_cell_angle_alpha 90.000000
_cell_angle_beta 61.197293
_cell_angle_gamma 90.000000
_cell_volume 1418.942492
_symmetry_space_group_name_H-M "P 2/M"
_symmetry_group_IT_number 10
_symmetry_cell_setting 'monoclinic'
loop_
_space_group_symop_operation_xyz
x,y,z
-x,y,-z
-x,-y,-z
x,-y,z
loop_
_atom_site_type_symbol
_atom_site_label
_atom_site_fract_x
_atom_site_fract_y
_atom_site_fract_z
Si Si1 0.781601 0.180898 0.967109
Si Si2 0.312602 0.819625 0.354252
Si Si3 0.482863 0.679086 0.381486
Si Si4 0.387215 0.684485 0.081332
Si Si5 0.005637 0.810191 0.124683
Si Si6 0.293495 0.319903 0.776903
Si Si7 0.804501 0.811516 0.369721
O O1 0.691089 0.259233 0.960732
O O2 0.892324 0.242557 0.881874
O O3 0.779517 0.000000 0.939652
O O4 0.764993 0.206440 0.107180
O O5 0.407406 0.796418 0.374078
O O6 0.339612 0.728761 0.227635
O O7 0.222195 0.768414 0.488399
O O8 0.298404 0.000000 0.334202
O O9 0.500000 0.702491 0.500000
O O10 0.448018 0.500000 0.386341
O O11 0.591648 0.692313 0.264912
O O12 0.394331 0.500000 0.067875
O O13 0.500000 0.747223 0.000000
O O14 0.910718 0.767274 0.255190
O O15 0.008627 0.000000 0.119354
O O16 0.000000 0.757845 0.000000
O O17 0.264079 0.500000 0.810591
O O18 0.272434 0.269682 0.665320
O O19 0.794480 0.000000 0.368558
#
# Coordination Sequence:
#
# PCOD9148973 Si02
#       7
#     4   4   4   4   4   4   4
#     4  11  22  38  63  89 116 152 199 250 293 341
#     4  11  23  37  59  88 117 151 197 252 297 340
#     4  10  20  34  51  76 115 158 191 226 288 361
#     4  11  25  45  65  84 115 159 200 240 294 362
#     4   9  17  34  60  88 120 158 194 235 295 353
#     4  11  21  33  53  83 119 156 193 235 291 351
#     4  10  20  36  57  85 119 153 193 238 290 349
#
# _framework density 19.733007000000001
#
# number of rings (size 3 to 8) (size 9 to 14) (size 15 to 20)
#    0.000    1.571    2.857    2.571    0.000    6.571 
#    0.000    2.857    0.000    4.286    0.000    0.000 
#    0.000    0.000    0.000    0.000    0.000    0.000 
#
# Total GULP energy -156249.072507 kJ/mol
# GULP energy per Si atom -5580.324018 kJ/mol
# Density = 1.968809 g / cm^3
# Si number density = 19.733007 Si / 1000 Ang^3
#
#
#
# Elastic Constant Matrix: (Units=GPa)
#
#
# Indices 1 2 3 4 5 6 
#
# 1 93.1124 22.9872 49.3930 0.0000 -14.5137 0.0000
# 2 22.9872 21.8640 12.6742 0.0000 -4.0904 0.0000
# 3 49.3930 12.6742 100.4850 0.0000 -12.0754 0.0000
# 4 0.0000 0.0000 0.0000 23.4959 0.0000 11.8885
# 5 -14.5137 -4.0904 -12.0754 0.0000 25.3990 0.0000
# 6 0.0000 0.0000 0.0000 11.8885 0.0000 13.3569
#
#
#
# Elastic Compliance Matrix: (Units=1/GPa)
#
#
# Indices 1 2 3 4 5 6 
#
# 1 0.018792 -0.014889 -0.006742 0.000000 0.005135 0.000000
# 2 -0.014889 0.061820 -0.000323 0.000000 0.001294 0.000000
# 3 -0.006742 -0.000323 0.013615 0.000000 0.002568 0.000000
# 4 0.000000 0.000000 0.000000 0.077433 0.000000 -0.068921
# 5 0.005135 0.001294 0.002568 0.000000 0.043735 0.000000
# 6 0.000000 0.000000 0.000000 -0.068921 0.000000 0.136212
#
#
# Mechanical properties :
#
#
# Convention : Reuss Voigt Hill
#
# Bulk Modulus (GPa) = 19.87309 42.84116 31.35713
# Shear Modulus (GPa) = 12.12736 21.14415 16.63576
#
# Velocity S-wave (km/s) = 2.48175 3.27695 2.90667
# Velocity P-wave (km/s) = 4.27843 6.00628 5.21442
#
# Compressibility (1/GPa) = 0.05031929
#
# Stress axis : x y z
#
# Youngs Moduli (GPa) = 53.21301 16.17590 73.44672
#
# Poissons Ratio (x) = 0.24084 0.49520
# Poissons Ratio (y) = 0.79227 0.02375
# Poissons Ratio (z) = 0.35878 0.00523
#
# Static dielectric constant tensor:
#      x y z
#    x 1.698920 0.000000 -0.025610 
#    y 0.000000 1.675220 0.000000 
#    z -0.025610 0.000000 1.746100 
# 
# From -- ./inp_files/49655.got.cif
#   From: 2010.05.17/outbox.cif.g08.bks.cpg/sg10_25_cif.got.tgz:49655.got - 2010.06.03 11:33:40.
