data_PCOD9148665
_publ_section_title
;
Structure prediction by ZEFSAII (Michael W. Deem and Ramdas Pophale) SiO2 
 PCOD9148665
Probable space group: P 2/M
;
_chemical_formula_sum "Si O2"
_cell_formula_units_Z 32
_cell_length_a 13.612302
_cell_length_b 13.675345
_cell_length_c 13.861413
_cell_angle_alpha 90.000000
_cell_angle_beta 136.799410
_cell_angle_gamma 90.000000
_cell_volume 1766.385421
_symmetry_space_group_name_H-M "P 2/M"
_symmetry_group_IT_number 10
_symmetry_cell_setting 'monoclinic'
loop_
_space_group_symop_operation_xyz
x,y,z
-x,y,-z
-x,-y,-z
x,-y,z
loop_
_atom_site_type_symbol
_atom_site_label
_atom_site_fract_x
_atom_site_fract_y
_atom_site_fract_z
Si Si1 0.394031 0.291378 0.305251
Si Si2 0.892019 0.389294 0.547988
Si Si3 0.157362 0.281195 0.800155
Si Si4 0.316072 0.611459 0.431534
Si Si5 0.067043 0.115874 0.885581
Si Si6 0.783555 0.113717 0.797010
Si Si7 0.658418 0.613279 0.211281
Si Si8 0.657882 0.610845 0.927707
O O1 0.558829 0.319143 0.439102
O O2 0.303133 0.361693 0.310983
O O3 0.352418 0.183076 0.305757
O O4 0.353343 0.314466 0.167693
O O5 0.948804 0.500000 0.576078
O O6 0.824100 0.378808 0.605275
O O7 0.761541 0.379279 0.379113
O O8 0.020643 0.312982 0.638868
O O9 0.125678 0.184202 0.840795
O O10 0.290046 0.299049 0.821462
O O11 0.201889 0.362936 0.910771
O O12 0.366641 0.500000 0.479817
O O13 0.904774 0.141224 0.804447
O O14 0.071255 0.000000 0.863016
O O15 0.152820 0.125746 0.048662
O O16 0.752033 0.000000 0.761362
O O17 0.679004 0.500000 0.188138
O O18 0.491661 0.620126 0.120276
O O19 0.662448 0.500000 0.894949
#
# Coordination Sequence:
#
# PCOD9148665 Si02
#       8
#     4   4   4   4   4   4   4   4
#     4  11  18  32  54  78 104 144 182 216 262 324
#     4  10  20  35  52  77 111 148 185 219 260 318
#     4  12  21  33  56  84 103 136 185 237 269 302
#     4  10  20  33  51  76 111 155 185 205 258 341
#     4   9  19  36  56  78 106 138 174 219 281 342
#     4   9  18  35  57  79 104 136 177 225 276 330
#     4  10  21  37  54  75 111 154 186 214 260 319
#     4  11  21  34  52  81 115 145 181 221 263 314
#
# _framework density 18.116091999999998
#
# number of rings (size 3 to 8) (size 9 to 14) (size 15 to 20)
#    0.000    1.750    2.500    4.875    0.000    2.000 
#    0.000    1.250    0.000    7.500    0.000    0.000 
#    0.000    0.000    0.000    0.000    0.000    0.000 
#
# Total GULP energy -178306.767440 kJ/mol
# GULP energy per Si atom -5572.086482 kJ/mol
# Density = 1.807486 g / cm^3
# Si number density = 18.116092 Si / 1000 Ang^3
#
#
#
# Elastic Constant Matrix: (Units=GPa)
#
#
# Indices 1 2 3 4 5 6 
#
# 1 73.8448 42.6194 4.4752 0.0000 -3.9174 0.0000
# 2 42.6194 87.6135 16.3066 0.0000 10.7426 0.0000
# 3 4.4752 16.3066 48.2028 0.0000 4.9044 0.0000
# 4 0.0000 0.0000 0.0000 15.3305 0.0000 -0.4590
# 5 -3.9174 10.7426 4.9044 0.0000 21.8110 0.0000
# 6 0.0000 0.0000 0.0000 -0.4590 0.0000 33.3038
#
#
#
# Elastic Compliance Matrix: (Units=1/GPa)
#
#
# Indices 1 2 3 4 5 6 
#
# 1 0.020438 -0.011226 0.000987 0.000000 0.008978 0.000000
# 2 -0.011226 0.018950 -0.004312 0.000000 -0.010380 0.000000
# 3 0.000987 -0.004312 0.022391 0.000000 -0.002734 0.000000
# 4 0.000000 0.000000 0.000000 0.065256 0.000000 0.000899
# 5 0.008978 -0.010380 -0.002734 0.000000 0.053188 0.000000
# 6 0.000000 0.000000 0.000000 0.000899 0.000000 0.030039
#
#
# Mechanical properties :
#
#
# Convention : Reuss Voigt Hill
#
# Bulk Modulus (GPa) = 30.60421 37.38483 33.99452
# Shear Modulus (GPa) = 19.97941 23.83972 21.90956
#
# Velocity S-wave (km/s) = 3.32453 3.63153 3.48141
# Velocity P-wave (km/s) = 5.62732 6.18587 5.91319
#
# Compressibility (1/GPa) = 0.03267524
#
# Stress axis : x y z
#
# Youngs Moduli (GPa) = 48.92926 52.77003 44.66077
#
# Poissons Ratio (x) = 0.59242 -0.04407
# Poissons Ratio (y) = 0.54930 0.19259
# Poissons Ratio (z) = -0.04829 0.22756
#
# Static dielectric constant tensor:
#      x y z
#    x 1.665100 0.000000 -0.014300 
#    y 0.000000 1.600590 0.000000 
#    z -0.014300 0.000000 1.648330 
# 
# From -- ./inp_files/67366.got.cif
#   From: 2010.05.17/outbox.cif.g08.bks.cpg/sg10_34_cif.got.tgz:67366.got - 2010.06.03 11:33:40.
