data_PCOD9148542
_publ_section_title
;
Structure prediction by ZEFSAII (Michael W. Deem and Ramdas Pophale) SiO2 
 PCOD9148542
Probable space group: P 2/M
;
_chemical_formula_sum "Si O2"
_cell_formula_units_Z 28
_cell_length_a 28.290253
_cell_length_b 9.186623
_cell_length_c 7.614754
_cell_angle_alpha 90.000000
_cell_angle_beta 132.206422
_cell_angle_gamma 90.000000
_cell_volume 1465.912770
_symmetry_space_group_name_H-M "P 2/M"
_symmetry_group_IT_number 10
_symmetry_cell_setting 'monoclinic'
loop_
_space_group_symop_operation_xyz
x,y,z
-x,y,-z
-x,-y,-z
x,-y,z
loop_
_atom_site_type_symbol
_atom_site_label
_atom_site_fract_x
_atom_site_fract_y
_atom_site_fract_z
Si Si1 0.673539 0.675439 0.148762
Si Si2 0.572748 0.322580 0.191763
Si Si3 0.069248 0.830406 0.587618
Si Si4 0.794738 0.164751 0.024571
Si Si5 0.070334 0.328063 0.233051
Si Si6 0.803214 0.832366 0.474659
Si Si7 0.331600 0.325469 0.271276
O O1 0.680744 0.500000 0.172635
O O2 0.615538 0.717336 0.130503
O O3 0.739718 0.748315 0.373239
O O4 0.660969 0.717771 0.914321
O O5 0.570780 0.500000 0.190828
O O6 0.611254 0.274753 0.461056
O O7 0.500000 0.270930 0.000000
O O8 0.133307 0.805194 0.861457
O O9 0.071834 0.712288 0.441483
O O10 0.000000 0.820450 0.500000
O O11 0.075459 0.000000 0.538402
O O12 0.800879 0.171625 0.253885
O O13 0.777566 0.000000 0.933863
O O14 0.736745 0.268523 0.832149
O O15 0.076265 0.500000 0.216955
O O16 0.131029 0.244274 0.305911
O O17 0.000000 0.278256 0.000000
O O18 0.802192 0.000000 0.526615
O O19 0.330564 0.500000 0.273498
#
# Coordination Sequence:
#
# PCOD9148542 Si02
#       7
#     4   4   4   4   4   4   4
#     4   9  17  31  52  75 101 132 168 212 257 305
#     4   9  18  32  50  76 108 135 165 211 258 304
#     4   9  18  33  51  71  99 134 173 215 260 311
#     4   8  15  29  49  70  94 126 163 207 252 295
#     4  10  20  33  49  72 103 135 170 214 263 311
#     4   9  17  31  52  73  95 129 171 211 253 305
#     4   9  17  30  50  74  97 130 171 206 252 305
#
# _framework density 19.100728
#
# number of rings (size 3 to 8) (size 9 to 14) (size 15 to 20)
#    0.000    3.000    0.000    1.714    0.000    5.429 
#    2.571    3.571    0.000    1.714    0.000    4.000 
#    0.000    0.000    0.000    0.000    0.000    0.000 
#
# Total GULP energy -156007.088957 kJ/mol
# GULP energy per Si atom -5571.681748 kJ/mol
# Density = 1.905725 g / cm^3
# Si number density = 19.100728 Si / 1000 Ang^3
#
#
#
# Elastic Constant Matrix: (Units=GPa)
#
#
# Indices 1 2 3 4 5 6 
#
# 1 113.5349 29.2461 67.8436 0.0000 37.4631 0.0000
# 2 29.2461 22.9239 41.8890 0.0000 13.4146 0.0000
# 3 67.8436 41.8890 135.1984 0.0000 38.9995 0.0000
# 4 0.0000 0.0000 0.0000 5.2502 0.0000 5.4834
# 5 37.4631 13.4146 38.9995 0.0000 37.4851 0.0000
# 6 0.0000 0.0000 0.0000 5.4834 0.0000 21.5096
#
#
#
# Elastic Compliance Matrix: (Units=1/GPa)
#
#
# Indices 1 2 3 4 5 6 
#
# 1 0.016164 -0.011975 -0.001396 0.000000 -0.010416 0.000000
# 2 -0.011975 0.110110 -0.028851 0.000000 0.002580 0.000000
# 3 -0.001396 -0.028851 0.019511 0.000000 -0.008579 0.000000
# 4 0.000000 0.000000 0.000000 0.259587 0.000000 -0.066176
# 5 -0.010416 0.002580 -0.008579 0.000000 0.045090 0.000000
# 6 0.000000 0.000000 0.000000 -0.066176 0.000000 0.063361
#
#
# Mechanical properties :
#
#
# Convention : Reuss Voigt Hill
#
# Bulk Modulus (GPa) = 16.30240 61.06828 38.68534
# Shear Modulus (GPa) = 8.08128 21.69420 14.88774
#
# Velocity S-wave (km/s) = 2.05914 3.37379 2.79486
# Velocity P-wave (km/s) = 3.76921 6.87151 5.54187
#
# Compressibility (1/GPa) = 0.06134065
#
# Stress axis : x y z
#
# Youngs Moduli (GPa) = 61.86573 9.08183 51.25362
#
# Poissons Ratio (x) = 0.10876 0.07156
# Poissons Ratio (y) = 0.74085 1.47871
# Poissons Ratio (z) = 0.08638 0.26202
#
# Static dielectric constant tensor:
#      x y z
#    x 1.696570 0.000000 -0.016440 
#    y 0.000000 1.637390 0.000000 
#    z -0.016440 0.000000 1.690800 
# 
# From -- ./inp_files/38018.got.cif
#   From: 2010.05.17/outbox.cif.g08.bks.cpg/sg10_20_cif.got.tgz:38018.got - 2010.06.03 11:33:40.
