data_PCOD9148498
_publ_section_title
;
Structure prediction by ZEFSAII (Michael W. Deem and Ramdas Pophale) SiO2 
 PCOD9148498
Probable space group: P 2/M
;
_chemical_formula_sum "Si O2"
_cell_formula_units_Z 28
_cell_length_a 17.765553
_cell_length_b 8.867889
_cell_length_c 14.111951
_cell_angle_alpha 90.000000
_cell_angle_beta 137.064694
_cell_angle_gamma 90.000000
_cell_volume 1514.408065
_symmetry_space_group_name_H-M "P 2/M"
_symmetry_group_IT_number 10
_symmetry_cell_setting 'monoclinic'
loop_
_space_group_symop_operation_xyz
x,y,z
-x,y,-z
-x,-y,-z
x,-y,z
loop_
_atom_site_type_symbol
_atom_site_label
_atom_site_fract_x
_atom_site_fract_y
_atom_site_fract_z
Si Si1 0.624193 0.321332 0.510462
Si Si2 0.166388 0.679513 0.001128
Si Si3 0.177690 0.178656 0.208485
Si Si4 0.459728 0.819686 0.860841
Si Si5 0.744609 0.819693 0.441885
Si Si6 0.036934 0.821433 0.268978
Si Si7 0.418724 0.317794 0.208736
O O1 0.627722 0.500000 0.532804
O O2 0.698491 0.237078 0.655821
O O3 0.686480 0.279216 0.469619
O O4 0.498277 0.275518 0.370795
O O5 0.165986 0.500000 0.004042
O O6 0.133899 0.743740 0.073839
O O7 0.292155 0.731732 0.099686
O O8 0.078096 0.735896 0.843232
O O9 0.104211 0.212573 0.233597
O O10 0.177447 0.000000 0.195458
O O11 0.329401 0.794718 0.719096
O O12 0.527216 0.746412 0.836992
O O13 0.477693 0.000000 0.873363
O O14 0.500000 0.764559 0.000000
O O15 0.874766 0.785848 0.566777
O O16 0.734330 0.000000 0.457440
O O17 0.015049 0.000000 0.250412
O O18 0.421518 0.500000 0.207719
#
# Coordination Sequence:
#
# PCOD9148498 Si02
#       7
#     4   4   4   4   4   4   4
#     4   9  16  29  48  67  91 123 159 196 234 279
#     4  11  22  33  46  66  94 128 166 204 236 272
#     4  10  20  33  48  68  94 124 162 205 245 280
#     4   9  17  31  55  83 102 118 148 190 233 284
#     4   8  15  29  48  71  99 124 148 188 238 280
#     4   9  18  32  48  66  92 127 163 197 235 278
#     4   9  20  35  48  68  99 130 156 189 239 289
#
# _framework density 18.489072
#
# number of rings (size 3 to 8) (size 9 to 14) (size 15 to 20)
#    0.000    2.714    0.000    2.571    0.000    7.143 
#    0.000    2.857    0.000    0.857    0.000    6.000 
#    0.000    0.000    0.000    0.000    0.000    0.000 
#
# Total GULP energy -156044.842913 kJ/mol
# GULP energy per Si atom -5573.030104 kJ/mol
# Density = 1.844699 g / cm^3
# Si number density = 18.489072 Si / 1000 Ang^3
#
#
#
# Elastic Constant Matrix: (Units=GPa)
#
#
# Indices 1 2 3 4 5 6 
#
# 1 18.3295 8.3165 26.1697 0.0000 12.2491 0.0000
# 2 8.3165 11.6961 29.7999 0.0000 11.9862 0.0000
# 3 26.1697 29.7999 151.5649 0.0000 22.0768 0.0000
# 4 0.0000 0.0000 0.0000 52.5270 0.0000 -6.0188
# 5 12.2491 11.9862 22.0768 0.0000 30.0927 0.0000
# 6 0.0000 0.0000 0.0000 -6.0188 0.0000 14.7429
#
#
#
# Elastic Compliance Matrix: (Units=1/GPa)
#
#
# Indices 1 2 3 4 5 6 
#
# 1 0.090909 -0.019140 -0.008570 0.000000 -0.023094 0.000000
# 2 -0.019140 0.277102 -0.040571 0.000000 -0.072818 0.000000
# 3 -0.008570 -0.040571 0.014771 0.000000 0.008812 0.000000
# 4 0.000000 0.000000 0.000000 0.019972 0.000000 0.008154
# 5 -0.023094 -0.072818 0.008812 0.000000 0.065170 0.000000
# 6 0.000000 0.000000 0.000000 0.008154 0.000000 0.071158
#
#
# Mechanical properties :
#
#
# Convention : Reuss Voigt Hill
#
# Bulk Modulus (GPa) = 4.06140 34.46252 19.26196
# Shear Modulus (GPa) = 6.59878 27.29282 16.94580
#
# Velocity S-wave (km/s) = 1.89123 3.84625 3.03071
# Velocity P-wave (km/s) = 2.64016 6.19715 4.76315
#
# Compressibility (1/GPa) = 0.24622071
#
# Stress axis : x y z
#
# Youngs Moduli (GPa) = 11.00002 3.60878 67.70087
#
# Poissons Ratio (x) = 0.06907 0.58018
# Poissons Ratio (y) = 0.21054 2.74670
# Poissons Ratio (z) = 0.09427 0.14641
#
# Static dielectric constant tensor:
#      x y z
#    x 1.633330 0.000000 0.021510 
#    y 0.000000 1.619000 0.000000 
#    z 0.021510 0.000000 1.707260 
# 
# From -- ./inp_files/54654.got.cif
#   From: 2010.05.17/outbox.cif.g08.bks.cpg/sg10_28_cif.got.tgz:54654.got - 2010.06.03 11:33:40.
