data_PCOD9148713
_publ_section_title
;
Structure prediction by ZEFSAII (Michael W. Deem and Ramdas Pophale) SiO2 
 PCOD9148713
Probable space group: P 2/M
;
_chemical_formula_sum "Si O2"
_cell_formula_units_Z 32
_cell_length_a 25.004409
_cell_length_b 7.842888
_cell_length_c 12.221441
_cell_angle_alpha 90.000000
_cell_angle_beta 137.497783
_cell_angle_gamma 90.000000
_cell_volume 1619.260445
_symmetry_space_group_name_H-M "P 2/M"
_symmetry_group_IT_number 10
_symmetry_cell_setting 'monoclinic'
loop_
_space_group_symop_operation_xyz
x,y,z
-x,y,-z
-x,-y,-z
x,-y,z
loop_
_atom_site_type_symbol
_atom_site_label
_atom_site_fract_x
_atom_site_fract_y
_atom_site_fract_z
Si Si1 0.655256 0.202693 0.043975
Si Si2 0.527012 0.296342 0.246975
Si Si3 0.270320 0.202284 0.064901
Si Si4 0.193321 0.200657 0.340937
Si Si5 0.134741 0.793810 0.015345
Si Si6 0.581791 0.706017 0.563588
Si Si7 0.336557 0.205594 0.700175
Si Si8 0.969731 0.702712 0.835709
O O1 0.561615 0.226700 0.884442
O O2 0.702882 0.274771 0.011944
O O3 0.670144 0.000000 0.069269
O O4 0.674711 0.271970 0.193772
O O5 0.520952 0.500000 0.243210
O O6 0.574209 0.237172 0.426541
O O7 0.577214 0.246741 0.216957
O O8 0.191593 0.270123 0.004817
O O9 0.343054 0.225128 0.258551
O O10 0.258361 0.000000 0.032506
O O11 0.169081 0.271027 0.184694
O O12 0.270691 0.273519 0.516278
O O13 0.117622 0.222029 0.306499
O O14 0.207168 0.000000 0.345103
O O15 0.138062 0.000000 0.023132
O O16 0.042632 0.745328 0.867046
O O17 0.500000 0.755095 0.500000
O O18 0.586772 0.500000 0.573855
O O19 0.329399 0.000000 0.692938
O O20 0.961072 0.500000 0.827977
O O21 0.000000 0.767974 0.000000
#
# Coordination Sequence:
#
# PCOD9148713 Si02
#       8
#     4   4   4   4   4   4   4   4
#     4  10  21  36  52  71  98 133 171 212 252 291
#     4  11  22  35  52  73  98 130 170 212 254 300
#     4  10  20  33  52  76 100 131 171 209 246 296
#     4   9  17  31  51  73  99 129 159 196 245 295
#     4   9  17  30  49  75 102 126 158 198 242 295
#     4  10  20  34  49  69 100 132 162 202 253 301
#     4  10  21  36  53  73  99 131 169 211 253 294
#     4   9  17  29  48  75 104 129 154 190 241 297
#
# _framework density 19.762108000000001
#
# number of rings (size 3 to 8) (size 9 to 14) (size 15 to 20)
#    0.000    2.250    1.250    1.875    0.000    6.750 
#    0.000    2.500    0.000    0.750    0.000    5.250 
#    0.000    0.000    0.000    0.000    0.000    0.000 
#
# Total GULP energy -178553.925883 kJ/mol
# GULP energy per Si atom -5579.810184 kJ/mol
# Density = 1.971713 g / cm^3
# Si number density = 19.762108 Si / 1000 Ang^3
#
#
#
# Elastic Constant Matrix: (Units=GPa)
#
#
# Indices 1 2 3 4 5 6 
#
# 1 136.8411 -4.1272 34.0323 0.0000 3.4993 0.0000
# 2 -4.1272 21.6105 -1.7992 0.0000 -6.6702 0.0000
# 3 34.0323 -1.7992 27.3686 0.0000 -6.5032 0.0000
# 4 0.0000 0.0000 0.0000 308.1956 0.0000 484.1349
# 5 3.4993 -6.6702 -6.5032 0.0000 28.9225 0.0000
# 6 0.0000 0.0000 0.0000 484.1349 0.0000 787.1625
#
#
#
# Elastic Compliance Matrix: (Units=1/GPa)
#
#
# Indices 1 2 3 4 5 6 
#
# 1 0.011166 -0.000633 -0.015088 0.000000 -0.004890 0.000000
# 2 -0.000633 0.050921 0.007335 0.000000 0.013469 0.000000
# 3 -0.015088 0.007335 0.059814 0.000000 0.016966 0.000000
# 4 0.000000 0.000000 0.000000 0.095839 0.000000 -0.058944
# 5 -0.004890 0.013469 0.016966 0.000000 0.042088 0.000000
# 6 0.000000 0.000000 0.000000 -0.058944 0.000000 0.037523
#
#
# Mechanical properties :
#
#
# Convention : Reuss Voigt Hill
#
# Bulk Modulus (GPa) = 9.51217 26.89246 18.20232
# Shear Modulus (GPa) = 14.31983 235.37040 124.84511
#
# Velocity S-wave (km/s) = 2.69478 10.92522 7.95683
# Velocity P-wave (km/s) = 3.80870 13.14477 9.67706
#
# Compressibility (1/GPa) = 0.10512850
#
# Stress axis : x y z
#
# Youngs Moduli (GPa) = 89.55642 19.63828 16.71854
#
# Poissons Ratio (x) = 0.01243 0.25225
# Poissons Ratio (y) = 0.05667 -0.12263
# Poissons Ratio (z) = 1.35125 -0.14405
#
# Static dielectric constant tensor:
#      x y z
#    x 1.732720 0.000000 -0.013340 
#    y 0.000000 1.702110 0.000000 
#    z -0.013340 0.000000 1.688420 
# 
# From -- ./inp_files/55353.got.cif
#   From: 2010.05.17/outbox.cif.g08.bks.cpg/sg10_28_cif.got.tgz:55353.got - 2010.06.03 11:33:40.
