data_PCOD9148817
_publ_section_title
;
Structure prediction by ZEFSAII (Michael W. Deem and Ramdas Pophale) SiO2 
 PCOD9148817
Probable space group: P 2/M
;
_chemical_formula_sum "Si O2"
_cell_formula_units_Z 28
_cell_length_a 9.553351
_cell_length_b 17.680300
_cell_length_c 15.947606
_cell_angle_alpha 90.000000
_cell_angle_beta 32.564283
_cell_angle_gamma 90.000000
_cell_volume 1449.844014
_symmetry_space_group_name_H-M "P 2/M"
_symmetry_group_IT_number 10
_symmetry_cell_setting 'monoclinic'
loop_
_space_group_symop_operation_xyz
x,y,z
-x,y,-z
-x,-y,-z
x,-y,z
loop_
_atom_site_type_symbol
_atom_site_label
_atom_site_fract_x
_atom_site_fract_y
_atom_site_fract_z
Si Si1 0.937737 0.087281 0.167668
Si Si2 0.685499 0.413482 0.654062
Si Si3 0.131503 0.807660 0.353034
Si Si4 0.294803 0.652896 0.534870
Si Si5 0.430473 0.913709 0.795663
Si Si6 0.233618 0.832046 0.596175
Si Si7 0.699536 0.658706 0.822556
O O1 0.698274 0.108975 0.227695
O O2 0.961115 0.146482 0.230601
O O3 0.900356 0.000000 0.215691
O O4 0.191954 0.087203 0.981669
O O5 0.597566 0.500000 0.689058
O O6 0.618058 0.367698 0.603570
O O7 0.599698 0.380430 0.787149
O O8 0.000000 0.413690 0.500000
O O9 0.351311 0.860046 0.279377
O O10 0.249705 0.745596 0.231008
O O11 0.000000 0.767505 0.500000
O O12 0.912333 0.855937 0.414705
O O13 0.500000 0.622884 0.500000
O O14 0.285436 0.743655 0.552623
O O15 0.991469 0.627976 0.697188
O O16 0.521787 0.000000 0.741747
O O17 0.500000 0.865716 0.500000
O O18 0.500000 0.651799 0.000000
#
# Coordination Sequence:
#
# PCOD9148817 Si02
#       7
#     4   4   4   4   4   4   4
#     4   9  19  36  54  76 108 146 182 230 287 339
#     4   9  18  36  61  86 115 156 192 224 278 340
#     4  11  22  35  57  80 110 145 186 235 281 332
#     4   9  19  36  58  83 117 150 192 232 278 335
#     4   9  20  37  56  77 107 144 187 232 284 337
#     4  10  20  33  54  77 109 143 186 229 275 330
#     4  10  21  36  58  86 118 149 189 237 281 335
#
# _framework density 19.312422999999999
#
# number of rings (size 3 to 8) (size 9 to 14) (size 15 to 20)
#    0.000    2.429    0.000    3.857    4.000    2.857 
#    0.000    2.143    0.000    0.857    0.000    0.000 
#    0.000    0.000    0.000    0.000    0.000    0.000 
#
# Total GULP energy -155986.560313 kJ/mol
# GULP energy per Si atom -5570.948583 kJ/mol
# Density = 1.926847 g / cm^3
# Si number density = 19.312423 Si / 1000 Ang^3
#
#
#
# Elastic Constant Matrix: (Units=GPa)
#
#
# Indices 1 2 3 4 5 6 
#
# 1 142.0196 57.5673 62.5234 0.0000 20.5532 0.0000
# 2 57.5673 59.5710 26.0503 0.0000 8.3834 0.0000
# 3 62.5234 26.0503 99.9944 0.0000 26.1507 0.0000
# 4 0.0000 0.0000 0.0000 -9.4471 0.0000 0.1689
# 5 20.5532 8.3834 26.1507 0.0000 34.8921 0.0000
# 6 0.0000 0.0000 0.0000 0.1689 0.0000 19.2219
#
#
#
# Elastic Compliance Matrix: (Units=1/GPa)
#
#
# Indices 1 2 3 4 5 6 
#
# 1 0.014219 -0.011075 -0.005611 0.000000 -0.001510 0.000000
# 2 -0.011075 0.027602 -0.000296 0.000000 0.000113 0.000000
# 3 -0.005611 -0.000296 0.015800 0.000000 -0.008465 0.000000
# 4 0.000000 0.000000 0.000000 -0.105835 0.000000 0.000930
# 5 -0.001510 0.000113 -0.008465 0.000000 0.035866 0.000000
# 6 0.000000 0.000000 0.000000 0.000930 0.000000 0.052016
#
#
# Mechanical properties :
#
#
# Convention : Reuss Voigt Hill
#
# Bulk Modulus (GPa) = 42.26819 65.98521 54.12670
# Shear Modulus (GPa) = 61.33747 19.29631 40.31689
#
# Velocity S-wave (km/s) = 5.64177 3.16439 4.57400
# Velocity P-wave (km/s) = 8.02331 6.89873 7.48218
#
# Compressibility (1/GPa) = 0.02365845
#
# Stress axis : x y z
#
# Youngs Moduli (GPa) = 70.32882 36.22889 63.29230
#
# Poissons Ratio (x) = 0.40122 0.35511
# Poissons Ratio (y) = 0.77887 0.01873
# Poissons Ratio (z) = 0.39459 0.01072
#
# Static dielectric constant tensor:
#      x y z
#    x 1.713400 0.000000 -0.007380 
#    y 0.000000 1.686270 0.000000 
#    z -0.007380 0.000000 1.702880 
# 
# From -- ./inp_files/62294.got.cif
#   From: 2010.05.17/outbox.cif.g08.bks.cpg/sg10_32_cif.got.tgz:62294.got - 2010.06.03 11:33:40.
