data_PCOD9148516
_publ_section_title
;
Structure prediction by ZEFSAII (Michael W. Deem and Ramdas Pophale) SiO2 
 PCOD9148516
Probable space group: P 2/M
;
_chemical_formula_sum "Si O2"
_cell_formula_units_Z 28
_cell_length_a 18.455475
_cell_length_b 8.630062
_cell_length_c 26.455707
_cell_angle_alpha 90.000000
_cell_angle_beta 25.072194
_cell_angle_gamma 90.000000
_cell_volume 1785.576112
_symmetry_space_group_name_H-M "P 2/M"
_symmetry_group_IT_number 10
_symmetry_cell_setting 'monoclinic'
loop_
_space_group_symop_operation_xyz
x,y,z
-x,y,-z
-x,-y,-z
x,-y,z
loop_
_atom_site_type_symbol
_atom_site_label
_atom_site_fract_x
_atom_site_fract_y
_atom_site_fract_z
Si Si1 0.290491 0.684274 0.583681
Si Si2 0.054615 0.316252 0.383898
Si Si3 0.671561 0.184056 0.332902
Si Si4 0.726960 0.316627 0.665783
Si Si5 0.836417 0.183718 0.436737
Si Si6 0.818866 0.313000 0.138109
Si Si7 0.474009 0.688069 0.299169
O O1 0.287506 0.500000 0.590157
O O2 0.251444 0.760802 0.662372
O O3 0.484125 0.737485 0.447930
O O4 0.171190 0.740011 0.613516
O O5 0.076580 0.500000 0.360236
O O6 0.890401 0.302756 0.525059
O O7 0.998760 0.232405 0.368149
O O8 0.212617 0.254344 0.317964
O O9 0.781385 0.237428 0.215810
O O10 0.648583 0.000000 0.347677
O O11 0.699445 0.500000 0.691345
O O12 0.572278 0.258080 0.728601
O O13 0.668989 0.244496 0.572815
O O14 0.826439 0.000000 0.438564
O O15 0.817226 0.500000 0.145134
O O16 0.660989 0.271527 0.201060
O O17 0.000000 0.267782 0.000000
O O18 0.456985 0.500000 0.311110
#
# Coordination Sequence:
#
# PCOD9148516 Si02
#       7
#     4   4   4   4   4   4   4
#     4  11  20  32  49  66  88 119 152 185 223 272
#     4   8  13  23  37  54  79 112 147 178 213 260
#     4  11  21  33  48  68  91 115 148 190 234 271
#     4   7  11  21  38  56  75 108 150 183 212 256
#     4  11  19  26  39  63  91 116 146 182 221 267
#     4  10  20  33  49  68  91 122 160 194 224 264
#     4   9  16  28  44  59  82 117 154 188 223 263
#
# _framework density 15.681213
#
# number of rings (size 3 to 8) (size 9 to 14) (size 15 to 20)
#    0.000    2.429    1.429    6.429    0.000    0.286 
#    0.000    5.714    0.000    0.000    0.000    0.000 
#    0.000    1.143    0.000   13.429    0.000    2.857 
#
# Total GULP energy -155953.747188 kJ/mol
# GULP energy per Si atom -5569.776685 kJ/mol
# Density = 1.564552 g / cm^3
# Si number density = 15.681213 Si / 1000 Ang^3
#
#
#
# Elastic Constant Matrix: (Units=GPa)
#
#
# Indices 1 2 3 4 5 6 
#
# 1 140.6354 19.1323 35.5697 0.0000 5.0911 0.0000
# 2 19.1323 38.8708 13.1587 0.0000 -0.0723 0.0000
# 3 35.5697 13.1587 48.4250 0.0000 3.6667 0.0000
# 4 0.0000 0.0000 0.0000 28.2746 0.0000 30.9739
# 5 5.0911 -0.0723 3.6667 0.0000 10.6101 0.0000
# 6 0.0000 0.0000 0.0000 30.9739 0.0000 31.0716
#
#
#
# Elastic Compliance Matrix: (Units=1/GPa)
#
#
# Indices 1 2 3 4 5 6 
#
# 1 0.008987 -0.002481 -0.005750 0.000000 -0.002342 0.000000
# 2 -0.002481 0.029107 -0.006358 0.000000 0.003586 0.000000
# 3 -0.005750 -0.006358 0.027105 0.000000 -0.006652 0.000000
# 4 0.000000 0.000000 0.000000 -0.384322 0.000000 0.383114
# 5 -0.002342 0.003586 -0.006652 0.000000 0.097697 0.000000
# 6 0.000000 0.000000 0.000000 0.383114 0.000000 -0.349726
#
#
# Mechanical properties :
#
#
# Convention : Reuss Voigt Hill
#
# Bulk Modulus (GPa) = 27.76201 40.40585 34.08393
# Shear Modulus (GPa) = -9.43454 24.66263 7.61405
#
# Velocity S-wave (km/s) = -2.45551 3.97009 2.20592
# Velocity P-wave (km/s) = 3.11497 6.84387 5.31703
#
# Compressibility (1/GPa) = 0.03602045
#
# Stress axis : x y z
#
# Youngs Moduli (GPa) = 111.26955 34.35641 36.89325
#
# Poissons Ratio (x) = 0.08525 0.21213
# Poissons Ratio (y) = 0.27611 0.23457
# Poissons Ratio (z) = 0.63977 0.21844
#
# Static dielectric constant tensor:
#      x y z
#    x 1.589020 0.000000 -0.008360 
#    y 0.000000 1.520100 0.000000 
#    z -0.008360 0.000000 1.480100 
# 
# From -- ./inp_files/89870.got.cif
#   From: 2010.05.17/outbox.cif.g08.bks.cpg/sg10_45_cif.got.tgz:89870.got - 2010.06.03 11:33:40.
