data_PCOD9148191
_publ_section_title
;
Structure prediction by ZEFSAII (Michael W. Deem and Ramdas Pophale) SiO2 
 PCOD9148191
Probable space group: P 2/M
;
_chemical_formula_sum "Si O2"
_cell_formula_units_Z 32
_cell_length_a 11.236994
_cell_length_b 7.290202
_cell_length_c 26.766156
_cell_angle_alpha 90.000000
_cell_angle_beta 37.823505
_cell_angle_gamma 90.000000
_cell_volume 1344.621115
_symmetry_space_group_name_H-M "P 2/M"
_symmetry_group_IT_number 10
_symmetry_cell_setting 'monoclinic'
loop_
_space_group_symop_operation_xyz
x,y,z
-x,y,-z
-x,-y,-z
x,-y,z
loop_
_atom_site_type_symbol
_atom_site_label
_atom_site_fract_x
_atom_site_fract_y
_atom_site_fract_z
Si Si1 0.209135 0.776862 0.686853
Si Si2 0.731129 0.221141 0.217506
Si Si3 0.045368 0.776390 0.374042
Si Si4 0.068597 0.709259 0.029822
Si Si5 0.695124 0.777532 0.624414
Si Si6 0.796278 0.221952 0.780366
Si Si7 0.567756 0.709782 0.030575
Si Si8 0.368846 0.222977 0.469569
O O1 0.221535 0.726435 0.741130
O O2 0.410579 0.716474 0.593879
O O3 0.003207 0.718079 0.734082
O O4 0.210069 0.000000 0.683841
O O5 0.508288 0.274342 0.282468
O O6 0.885649 0.292674 0.127289
O O7 0.740105 0.000000 0.212425
O O8 0.127387 0.716360 0.400322
O O9 0.190854 0.723552 0.281769
O O10 0.823804 0.718291 0.437394
O O11 0.041471 0.000000 0.375930
O O12 0.130254 0.500000 0.997237
O O13 0.249088 0.792442 0.000640
O O14 0.000000 0.792731 0.000000
O O15 0.678976 0.724636 0.572055
O O16 0.704183 0.000000 0.619947
O O17 0.615372 0.290133 0.871849
O O18 0.787941 0.000000 0.785564
O O19 0.627408 0.500000 0.998693
O O20 0.500000 0.791993 0.000000
O O21 0.374560 0.000000 0.470951
#
# Coordination Sequence:
#
# PCOD9148191 Si02
#       8
#     4   4   4   4   4   4   4   4
#     4   8  15  28  44  68  99 129 161 198 241 284
#     4   9  17  30  50  71  94 126 162 198 239 291
#     4   9  16  24  38  66 100 130 160 196 238 284
#     4  10  22  37  52  73 100 125 156 203 252 296
#     4   8  14  24  40  64  95 128 163 199 232 277
#     4  10  20  31  48  75 104 126 155 206 254 288
#     4  10  22  40  58  73  94 130 172 204 238 300
#     4   8  13  23  40  62  95 136 165 190 233 284
#
# _framework density 23.798525000000001
#
# number of rings (size 3 to 8) (size 9 to 14) (size 15 to 20)
#    0.000    3.000    0.000    2.625    1.750    3.000 
#    0.000    2.500    0.000    0.000    0.000    5.250 
#    0.000    5.000    0.000    0.000    0.000    0.000 
#
# Total GULP energy -178690.771411 kJ/mol
# GULP energy per Si atom -5584.086607 kJ/mol
# Density = 2.374436 g / cm^3
# Si number density = 23.798525 Si / 1000 Ang^3
#
#
#
# Elastic Constant Matrix: (Units=GPa)
#
#
# Indices 1 2 3 4 5 6 
#
# 1 114.6805 4.6942 24.1628 0.0000 -18.0505 0.0000
# 2 4.6942 97.7283 -9.7861 0.0000 -0.1936 0.0000
# 3 24.1628 -9.7861 126.2405 0.0000 -13.5047 0.0000
# 4 0.0000 0.0000 0.0000 17.7773 0.0000 15.4420
# 5 -18.0505 -0.1936 -13.5047 0.0000 31.1970 0.0000
# 6 0.0000 0.0000 0.0000 15.4420 0.0000 -41.9442
#
#
#
# Elastic Compliance Matrix: (Units=1/GPa)
#
#
# Indices 1 2 3 4 5 6 
#
# 1 0.009837 -0.000601 -0.001385 0.000000 0.005088 0.000000
# 2 -0.000601 0.010355 0.000931 0.000000 0.000119 0.000000
# 3 -0.001385 0.000931 0.008570 0.000000 0.002914 0.000000
# 4 0.000000 0.000000 0.000000 0.042621 0.000000 0.015691
# 5 0.005088 0.000119 0.002914 0.000000 0.036261 0.000000
# 6 0.000000 0.000000 0.000000 0.015691 0.000000 -0.018064
#
#
# Mechanical properties :
#
#
# Convention : Reuss Voigt Hill
#
# Bulk Modulus (GPa) = 37.52223 41.86567 39.69395
# Shear Modulus (GPa) = 49.71390 22.71124 36.21257
#
# Velocity S-wave (km/s) = 4.57546 3.09255 3.90504
# Velocity P-wave (km/s) = 6.61165 5.51196 6.08669
#
# Compressibility (1/GPa) = 0.02665087
#
# Stress axis : x y z
#
# Youngs Moduli (GPa) = 101.65442 96.57413 116.68061
#
# Poissons Ratio (x) = 0.05805 0.16162
# Poissons Ratio (y) = 0.06111 -0.10857
# Poissons Ratio (z) = 0.14080 -0.08986
#
# Static dielectric constant tensor:
#      x y z
#    x 1.900990 0.000000 -0.001200 
#    y 0.000000 1.968900 0.000000 
#    z -0.001200 0.000000 1.837890 
# 
# From -- ./inp_files/80564.got.cif
#   From: 2010.05.17/outbox.cif.g08.bks.cpg/sg10_41_cif.got.tgz:80564.got - 2010.06.03 11:33:40.
