data_PCOD9148279
_publ_section_title
;
Structure prediction by ZEFSAII (Michael W. Deem and Ramdas Pophale) SiO2 
 PCOD9148279
Probable space group: P 2/M
;
_chemical_formula_sum "Si O2"
_cell_formula_units_Z 32
_cell_length_a 21.927077
_cell_length_b 8.908698
_cell_length_c 22.046841
_cell_angle_alpha 90.000000
_cell_angle_beta 154.138702
_cell_angle_gamma 90.000000
_cell_volume 1878.542797
_symmetry_space_group_name_H-M "P 2/M"
_symmetry_group_IT_number 10
_symmetry_cell_setting 'monoclinic'
loop_
_space_group_symop_operation_xyz
x,y,z
-x,y,-z
-x,-y,-z
x,-y,z
loop_
_atom_site_type_symbol
_atom_site_label
_atom_site_fract_x
_atom_site_fract_y
_atom_site_fract_z
Si Si1 0.511758 0.672797 0.318692
Si Si2 0.176850 0.327598 0.993391
Si Si3 0.878804 0.681944 0.310051
Si Si4 0.438550 0.821656 0.759712
Si Si5 0.870230 0.820854 0.925746
Si Si6 0.738569 0.317419 0.059428
Si Si7 0.428501 0.318391 0.372908
Si Si8 0.196037 0.681730 0.623447
O O1 0.559651 0.500000 0.356530
O O2 0.579578 0.769679 0.326426
O O3 0.520220 0.725385 0.395851
O O4 0.344355 0.673201 0.156012
O O5 0.129000 0.500000 0.955416
O O6 0.167777 0.276152 0.915572
O O7 0.110066 0.231620 0.987088
O O8 0.876743 0.500000 0.307783
O O9 0.806350 0.731557 0.183331
O O10 0.802387 0.726552 0.304074
O O11 0.041620 0.723856 0.461139
O O12 0.315784 0.756727 0.691314
O O13 0.444674 0.000000 0.768587
O O14 0.585484 0.751508 0.913492
O O15 0.725602 0.749491 0.772661
O O16 0.857892 0.000000 0.912831
O O17 0.000000 0.774046 0.000000
O O18 0.726414 0.500000 0.047474
O O19 0.500000 0.275633 0.500000
O O20 0.416585 0.500000 0.359895
O O21 0.208866 0.500000 0.631657
#
# Coordination Sequence:
#
# PCOD9148279 Si02
#       8
#     4   4   4   4   4   4   4   4
#     4   8  15  30  50  70  93 123 158 196 237 280
#     4   8  15  28  48  70  92 121 157 197 240 281
#     4   8  16  32  55  75  91 120 162 199 236 285
#     4  11  21  31  46  72 101 129 160 193 233 281
#     4  10  20  32  47  69  98 131 163 193 230 281
#     4   9  17  32  52  74  96 119 155 202 243 280
#     4   9  18  33  53  75  96 120 156 201 244 283
#     4   9  17  33  54  73  94 124 160 197 237 282
#
# _framework density 17.034481
#
# number of rings (size 3 to 8) (size 9 to 14) (size 15 to 20)
#    0.000    3.000    0.000    3.750    0.000    6.250 
#    0.000    6.250    0.000    6.000    0.000    0.000 
#    0.000    0.000    0.000    0.000    0.000    0.000 
#
# Total GULP energy -178247.570957 kJ/mol
# GULP energy per Si atom -5570.236592 kJ/mol
# Density = 1.699571 g / cm^3
# Si number density = 17.034481 Si / 1000 Ang^3
#
#
#
# Elastic Constant Matrix: (Units=GPa)
#
#
# Indices 1 2 3 4 5 6 
#
# 1 188.2075 54.2839 83.4772 0.0000 -16.7117 0.0000
# 2 54.2839 38.9721 27.6664 0.0000 -1.2790 0.0000
# 3 83.4772 27.6664 69.1311 0.0000 -22.1595 0.0000
# 4 0.0000 0.0000 0.0000 6.0825 0.0000 3.3750
# 5 -16.7117 -1.2790 -22.1595 0.0000 30.6475 0.0000
# 6 0.0000 0.0000 0.0000 3.3750 0.0000 -25.0289
#
#
#
# Elastic Compliance Matrix: (Units=1/GPa)
#
#
# Indices 1 2 3 4 5 6 
#
# 1 0.014105 -0.009774 -0.014040 0.000000 -0.002868 0.000000
# 2 -0.009774 0.046060 -0.010053 0.000000 -0.010676 0.000000
# 3 -0.014040 -0.010053 0.042765 0.000000 0.022845 0.000000
# 4 0.000000 0.000000 0.000000 0.152961 0.000000 0.020626
# 5 -0.002868 -0.010676 0.022845 0.000000 0.047138 0.000000
# 6 0.000000 0.000000 0.000000 0.020626 0.000000 -0.037173
#
#
# Mechanical properties :
#
#
# Convention : Reuss Voigt Hill
#
# Bulk Modulus (GPa) = 28.41263 69.68508 49.04886
# Shear Modulus (GPa) = 14.47932 11.06579 12.77256
#
# Velocity S-wave (km/s) = 2.91864 2.55151 2.74123
# Velocity P-wave (km/s) = 5.29846 7.04822 6.23502
#
# Compressibility (1/GPa) = 0.03519561
#
# Stress axis : x y z
#
# Youngs Moduli (GPa) = 70.89844 21.71099 23.38382
#
# Poissons Ratio (x) = 0.21220 0.32830
# Poissons Ratio (y) = 0.69294 0.23509
# Poissons Ratio (z) = 0.99538 0.21827
#
# Static dielectric constant tensor:
#      x y z
#    x 1.595830 0.000000 -0.031100 
#    y 0.000000 1.564250 0.000000 
#    z -0.031100 0.000000 1.564320 
# 
# From -- ./inp_files/86146.got.cif
#   From: 2010.05.17/outbox.cif.g08.bks.cpg/sg10_44_cif.got.tgz:86146.got - 2010.06.03 11:33:40.
