data_PCOD9148844
_publ_section_title
;
Structure prediction by ZEFSAII (Michael W. Deem and Ramdas Pophale) SiO2 
 PCOD9148844
Probable space group: P 2/M
;
_chemical_formula_sum "Si O2"
_cell_formula_units_Z 28
_cell_length_a 12.702885
_cell_length_b 11.630356
_cell_length_c 10.531811
_cell_angle_alpha 90.000000
_cell_angle_beta 57.740647
_cell_angle_gamma 90.000000
_cell_volume 1315.783119
_symmetry_space_group_name_H-M "P 2/M"
_symmetry_group_IT_number 10
_symmetry_cell_setting 'monoclinic'
loop_
_space_group_symop_operation_xyz
x,y,z
-x,y,-z
-x,-y,-z
x,-y,z
loop_
_atom_site_type_symbol
_atom_site_label
_atom_site_fract_x
_atom_site_fract_y
_atom_site_fract_z
Si Si1 0.458294 0.128559 0.381204
Si Si2 0.005493 0.000000 0.338921
Si Si3 0.850813 0.757825 0.109660
Si Si4 0.199466 0.369209 0.351974
Si Si5 0.744397 0.366190 0.943574
Si Si6 0.822395 0.795113 0.412082
Si Si7 0.868784 0.000000 0.002787
Si Si8 0.493888 0.368215 0.221960
O O1 0.500000 0.125706 0.500000
O O2 0.308826 0.144751 0.471700
O O3 0.508692 0.250136 0.293120
O O4 0.489259 0.000000 0.306773
O O5 0.928552 0.889502 0.344073
O O6 0.000000 0.000000 0.500000
O O7 0.116982 0.000000 0.160364
O O8 0.795280 0.670138 0.045809
O O9 0.813656 0.739717 0.278668
O O10 0.000000 0.753721 0.000000
O O11 0.805857 0.883777 0.092471
O O12 0.153790 0.500000 0.388309
O O13 0.146178 0.295976 0.500064
O O14 0.349627 0.371636 0.275707
O O15 0.187549 0.310958 0.221197
O O16 0.767347 0.500000 0.909502
O O17 0.596120 0.352348 0.046417
O O18 0.000000 0.000000 0.000000
O O19 0.518993 0.500000 0.258786
#
# Coordination Sequence:
#
# PCOD9148844 Si02
#       8
#     4   2   4   4   4   4   2   4
#     4  10  20  33  54  85 122 155 188 237 301 354
#     4  12  24  38  63  86 113 155 199 243 289 344
#     4  11  22  38  61  83 114 151 196 244 287 343
#     4   9  20  37  61  88 117 150 190 239 293 349
#     4  10  21  38  60  86 115 152 196 238 290 347
#     4  11  21  38  60  85 118 153 193 239 292 347
#     4  10  20  42  60  82 110 148 201 244 282 343
#     4   9  18  36  59  83 113 156 199 238 284 354
#
# _framework density 21.280103
#
# number of rings (size 3 to 8) (size 9 to 14) (size 15 to 20)
#    0.000    1.857    3.571    1.286    2.000    2.857 
#    1.286    2.857    0.000    3.857    0.000    0.000 
#    0.000    0.000    0.000    0.000    0.000    0.000 
#
# Total GULP energy -156044.647185 kJ/mol
# GULP energy per Si atom -5573.023114 kJ/mol
# Density = 2.123167 g / cm^3
# Si number density = 21.280103 Si / 1000 Ang^3
#
#
#
# Elastic Constant Matrix: (Units=GPa)
#
#
# Indices 1 2 3 4 5 6 
#
# 1 32.5248 4.3560 3.1626 0.0000 4.9799 0.0000
# 2 4.3560 93.0653 48.2233 0.0000 0.4582 0.0000
# 3 3.1626 48.2233 126.4490 0.0000 24.3792 0.0000
# 4 0.0000 0.0000 0.0000 31.9370 0.0000 -2.9707
# 5 4.9799 0.4582 24.3792 0.0000 28.8962 0.0000
# 6 0.0000 0.0000 0.0000 -2.9707 0.0000 -9.6071
#
#
#
# Elastic Compliance Matrix: (Units=1/GPa)
#
#
# Indices 1 2 3 4 5 6 
#
# 1 0.031907 -0.002120 0.001271 0.000000 -0.006537 0.000000
# 2 -0.002120 0.014138 -0.006408 0.000000 0.005548 0.000000
# 3 0.001271 -0.006408 0.012352 0.000000 -0.010539 0.000000
# 4 0.000000 0.000000 0.000000 0.030436 0.000000 -0.009411
# 5 -0.006537 0.005548 -0.010539 0.000000 0.044537 0.000000
# 6 0.000000 0.000000 0.000000 -0.009411 0.000000 -0.101179
#
#
# Mechanical properties :
#
#
# Convention : Reuss Voigt Hill
#
# Bulk Modulus (GPa) = 22.78809 40.39143 31.58976
# Shear Modulus (GPa) = 81.52353 23.33169 52.42761
#
# Velocity S-wave (km/s) = 6.19620 3.31480 4.96894
# Velocity P-wave (km/s) = 7.86908 5.80281 6.91357
#
# Compressibility (1/GPa) = 0.04388257
#
# Stress axis : x y z
#
# Youngs Moduli (GPa) = 31.34112 70.73378 80.95710
#
# Poissons Ratio (x) = 0.14993 -0.10287
# Poissons Ratio (y) = 0.06643 0.51878
# Poissons Ratio (z) = -0.03983 0.45327
#
# Static dielectric constant tensor:
#      x y z
#    x 1.801560 0.000000 -0.020400 
#    y 0.000000 1.790680 0.000000 
#    z -0.020400 0.000000 1.820850 
# 
# From -- ./inp_files/28516.got.cif
#   From: 2010.05.17/outbox.cif.g08.bks.cpg/sg10_15_cif.got.tgz:28516.got - 2010.06.03 11:33:40.
