data_PCOD9148288
_publ_section_title
;
Structure prediction by ZEFSAII (Michael W. Deem and Ramdas Pophale) SiO2 
 PCOD9148288
Probable space group: P 2/M
;
_chemical_formula_sum "Si O2"
_cell_formula_units_Z 24
_cell_length_a 15.129491
_cell_length_b 14.783313
_cell_length_c 12.994528
_cell_angle_alpha 90.000000
_cell_angle_beta 30.807326
_cell_angle_gamma 90.000000
_cell_volume 1488.524738
_symmetry_space_group_name_H-M "P 2/M"
_symmetry_group_IT_number 10
_symmetry_cell_setting 'monoclinic'
loop_
_space_group_symop_operation_xyz
x,y,z
-x,y,-z
-x,-y,-z
x,-y,z
loop_
_atom_site_type_symbol
_atom_site_label
_atom_site_fract_x
_atom_site_fract_y
_atom_site_fract_z
Si Si1 0.699324 0.109804 0.800673
Si Si2 0.710179 0.104595 0.015360
Si Si3 0.710168 0.895405 0.564289
Si Si4 0.197415 0.262236 0.923726
Si Si5 0.197423 0.737765 0.681441
Si Si6 0.500004 0.602923 0.375103
O O1 0.773269 0.134395 0.838152
O O2 0.773263 0.134397 0.615308
O O3 0.696586 0.000000 0.803410
O O4 0.500000 0.140703 0.000000
O O5 0.761316 0.000000 0.981613
O O6 0.500005 0.106143 0.223917
O O7 0.773384 0.172595 0.038742
O O8 0.773373 0.827407 0.414493
O O9 0.761305 0.000000 0.495761
O O10 0.229054 0.242968 0.770948
O O11 0.332202 0.339119 0.822417
O O12 0.999995 0.292702 0.131661
O O13 0.332212 0.660883 0.513170
O O14 0.500000 0.598670 0.500000
O O15 0.500003 0.500000 0.336887
#
# Coordination Sequence:
#
# PCOD9148288 Si02
#       6
#     4   4   4   4   4   4
#     4   7  12  24  43  67  91 121 163 202 231 262
#     4   9  16  28  47  69  97 131 163 195 230 271
#     4   9  16  28  47  69  97 131 163 195 230 271
#     4  10  20  32  47  71 100 126 156 192 232 282
#     4  10  20  32  47  71 100 126 156 192 232 282
#     4   9  18  34  53  70  91 120 155 196 241 285
#
# _framework density 16.123346999999999
#
# number of rings (size 3 to 8) (size 9 to 14) (size 15 to 20)
#    0.000    3.000    1.667    2.000    0.000    2.000 
#    0.000    7.500    0.000    3.000    0.000    2.333 
#    0.000    2.667    0.000    0.000    0.000    0.000 
#
# Total GULP energy -133615.831417 kJ/mol
# GULP energy per Si atom -5567.326309 kJ/mol
# Density = 1.608665 g / cm^3
# Si number density = 16.123347 Si / 1000 Ang^3
#
#
#
# Elastic Constant Matrix: (Units=GPa)
#
#
# Indices 1 2 3 4 5 6 
#
# 1 68.2563 55.5251 50.0357 0.0000 3.8699 0.0000
# 2 55.5251 106.8998 52.7071 0.0000 3.4345 0.0000
# 3 50.0357 52.7071 67.8109 0.0000 -3.3440 0.0000
# 4 0.0000 0.0000 0.0000 -4.3178 0.0000 1.5205
# 5 3.8699 3.4345 -3.3440 0.0000 16.3321 0.0000
# 6 0.0000 0.0000 0.0000 1.5205 0.0000 -3.0744
#
#
#
# Elastic Compliance Matrix: (Units=1/GPa)
#
#
# Indices 1 2 3 4 5 6 
#
# 1 0.038979 -0.008734 -0.022565 0.000000 -0.012020 0.000000
# 2 -0.008734 0.017660 -0.007438 0.000000 -0.003167 0.000000
# 3 -0.022565 -0.007438 0.037903 0.000000 0.014672 0.000000
# 4 0.000000 0.000000 0.000000 -0.280439 0.000000 -0.138692
# 5 -0.012020 -0.003167 0.014672 0.000000 0.067747 0.000000
# 6 0.000000 0.000000 0.000000 -0.138692 0.000000 -0.393859
#
#
# Mechanical properties :
#
#
# Convention : Reuss Voigt Hill
#
# Bulk Modulus (GPa) = 58.59643 62.16698 60.38171
# Shear Modulus (GPa) = -11.65926 7.43459 -2.11233
#
# Velocity S-wave (km/s) = -2.69202 2.14967 -1.14584
# Velocity P-wave (km/s) = 5.17289 6.69345 5.98168
#
# Compressibility (1/GPa) = 0.01706589
#
# Stress axis : x y z
#
# Youngs Moduli (GPa) = 25.65491 56.62383 26.38347
#
# Poissons Ratio (x) = 0.49455 0.59536
# Poissons Ratio (y) = 0.22407 0.19625
# Poissons Ratio (z) = 0.57892 0.42119
#
# Static dielectric constant tensor:
#      x y z
#    x 1.566640 0.000000 -0.013550 
#    y 0.000000 1.500860 0.000000 
#    z -0.013550 0.000000 1.577740 
# 
# From -- ./inp_files/51518.got.cif
#   From: 2010.05.17/outbox.cif.g08.bks.cpg/sg10_26_cif.got.tgz:51518.got - 2010.06.03 11:33:40.
