data_PCOD9148043
_publ_section_title
;
Structure prediction by ZEFSAII (Michael W. Deem and Ramdas Pophale) SiO2 
 PCOD9148043
Probable space group: P 2/M
;
_chemical_formula_sum "Si O2"
_cell_formula_units_Z 24
_cell_length_a 7.778501
_cell_length_b 8.040337
_cell_length_c 22.220555
_cell_angle_alpha 90.000000
_cell_angle_beta 120.563563
_cell_angle_gamma 90.000000
_cell_volume 1196.633875
_symmetry_space_group_name_H-M "P 2/M"
_symmetry_group_IT_number 10
_symmetry_cell_setting 'monoclinic'
loop_
_space_group_symop_operation_xyz
x,y,z
-x,y,-z
-x,-y,-z
x,-y,z
loop_
_atom_site_type_symbol
_atom_site_label
_atom_site_fract_x
_atom_site_fract_y
_atom_site_fract_z
Si Si1 0.795113 0.682258 0.332059
Si Si2 0.634714 0.701477 0.079810
Si Si3 0.661914 0.000000 0.581435
Si Si4 0.797146 0.309749 0.674122
Si Si5 0.074737 0.000000 0.581123
Si Si6 0.486693 0.190676 0.183799
Si Si7 0.909425 0.300437 0.832514
O O1 0.790206 0.500000 0.360081
O O2 0.609214 0.702763 0.254196
O O3 0.993844 0.690851 0.325654
O O4 0.805384 0.834001 0.380139
O O5 0.634943 0.500000 0.080435
O O6 0.547383 0.759902 0.127627
O O7 0.864695 0.756027 0.116010
O O8 0.500000 0.757587 0.000000
O O9 0.500000 0.000000 0.500000
O O10 0.658790 0.167255 0.621023
O O11 0.877400 0.000000 0.587459
O O12 0.718655 0.500000 0.657122
O O13 0.849259 0.268853 0.752413
O O14 0.000000 0.000000 0.500000
O O15 0.253784 0.217580 0.154213
O O16 0.543830 0.000000 0.204592
O O17 0.901479 0.500000 0.839850
#
# Coordination Sequence:
#
# PCOD9148043 Si02
#       7
#     4   4   2   4   2   4   4
#     4  10  19  38  63  87 119 162 212 262 314 373
#     4  10  22  42  66  90 124 168 212 267 325 376
#     4  10  22  36  56  84 120 161 196 251 309 373
#     4   9  19  36  61  86 114 158 208 257 308 367
#     4  10  22  38  56  88 126 159 208 251 313 385
#     4  12  24  37  61  94 126 164 213 265 316 380
#     4  10  21  38  62  92 120 159 214 263 312 377
#
# _framework density 20.056260000000002
#
# number of rings (size 3 to 8) (size 9 to 14) (size 15 to 20)
#    0.000    1.833    2.500    1.500    1.167    3.667 
#    0.000    3.333    0.000    0.000    0.000    0.000 
#    0.000    0.000    0.000    0.000    0.000    0.000 
#
# Total GULP energy -134129.616927 kJ/mol
# GULP energy per Si atom -5588.734039 kJ/mol
# Density = 2.001061 g / cm^3
# Si number density = 20.056260 Si / 1000 Ang^3
#
#
#
# Elastic Constant Matrix: (Units=GPa)
#
#
# Indices 1 2 3 4 5 6 
#
# 1 76.0056 34.4062 36.2292 0.0000 10.2511 0.0000
# 2 34.4062 98.9830 61.4139 0.0000 12.3600 0.0000
# 3 36.2292 61.4139 116.5926 0.0000 16.1157 0.0000
# 4 0.0000 0.0000 0.0000 23.9419 0.0000 -3.1973
# 5 10.2511 12.3600 16.1157 0.0000 19.5959 0.0000
# 6 0.0000 0.0000 0.0000 -3.1973 0.0000 7.4659
#
#
#
# Elastic Compliance Matrix: (Units=1/GPa)
#
#
# Indices 1 2 3 4 5 6 
#
# 1 0.016634 -0.003580 -0.002699 0.000000 -0.004224 0.000000
# 2 -0.003580 0.015975 -0.006959 0.000000 -0.002480 0.000000
# 3 -0.002699 -0.006959 0.013854 0.000000 -0.005592 0.000000
# 4 0.000000 0.000000 0.000000 0.044301 0.000000 0.018972
# 5 -0.004224 -0.002480 -0.005592 0.000000 0.059404 0.000000
# 6 0.000000 0.000000 0.000000 0.018972 0.000000 0.142068
#
#
# Mechanical properties :
#
#
# Convention : Reuss Voigt Hill
#
# Bulk Modulus (GPa) = 50.03474 61.74218 55.88846
# Shear Modulus (GPa) = 15.36690 20.83619 18.10155
#
# Velocity S-wave (km/s) = 2.77102 3.22667 3.00749
# Velocity P-wave (km/s) = 5.93628 6.68829 6.32347
#
# Compressibility (1/GPa) = 0.01998611
#
# Stress axis : x y z
#
# Youngs Moduli (GPa) = 60.11896 62.59935 72.17940
#
# Poissons Ratio (x) = 0.22408 0.19483
# Poissons Ratio (y) = 0.21520 0.50232
# Poissons Ratio (z) = 0.16228 0.43565
#
# Static dielectric constant tensor:
#      x y z
#    x 1.694280 0.000000 0.009070 
#    y 0.000000 1.721410 0.000000 
#    z 0.009070 0.000000 1.651240 
# 
# From -- ./inp_files/82081.got.cif
#   From: 2010.05.17/outbox.cif.g08.bks.cpg/sg10_42_cif.got.tgz:82081.got - 2010.06.03 11:33:40.
