data_PCOD9148725
_publ_section_title
;
Structure prediction by ZEFSAII (Michael W. Deem and Ramdas Pophale) SiO2 
 PCOD9148725
Probable space group: P 2/M
;
_chemical_formula_sum "Si O2"
_cell_formula_units_Z 32
_cell_length_a 29.779643
_cell_length_b 9.359817
_cell_length_c 10.884106
_cell_angle_alpha 90.000000
_cell_angle_beta 149.651984
_cell_angle_gamma 90.000000
_cell_volume 1532.804592
_symmetry_space_group_name_H-M "P 2/M"
_symmetry_group_IT_number 10
_symmetry_cell_setting 'monoclinic'
loop_
_space_group_symop_operation_xyz
x,y,z
-x,y,-z
-x,-y,-z
x,-y,z
loop_
_atom_site_type_symbol
_atom_site_label
_atom_site_fract_x
_atom_site_fract_y
_atom_site_fract_z
Si Si1 0.752374 0.835442 0.063532
Si Si2 0.911073 0.662735 0.350005
Si Si3 0.800538 0.670379 0.689458
Si Si4 0.164027 0.835397 0.464486
Si Si5 0.994255 0.337747 0.814156
Si Si6 0.361188 0.168313 0.602977
Si Si7 0.404895 0.337774 0.210328
Si Si8 0.542096 0.168809 0.904732
O O1 0.823583 0.758144 0.144028
O O2 0.790093 0.832029 0.293413
O O3 0.739556 0.000000 0.998623
O O4 0.662022 0.748551 0.861155
O O5 0.896538 0.500000 0.267638
O O6 0.941480 0.653011 0.562391
O O7 0.000000 0.725507 0.500000
O O8 0.790542 0.500000 0.661961
O O9 0.788372 0.739953 0.525759
O O10 0.727984 0.739682 0.607491
O O11 0.903378 0.704184 0.965306
O O12 0.066172 0.768592 0.250014
O O13 0.161675 0.000000 0.418218
O O14 0.994755 0.500000 0.863348
O O15 0.439137 0.206123 0.690999
O O16 0.341352 0.000000 0.542032
O O17 0.405774 0.186796 0.843529
O O18 0.500000 0.340951 0.500000
O O19 0.372242 0.500000 0.115801
O O20 0.417392 0.259812 0.109447
O O21 0.546705 0.000000 0.884430
#
# Coordination Sequence:
#
# PCOD9148725 Si02
#       8
#     4   4   4   4   4   4   4   4
#     4  10  21  37  58  83 109 140 182 229 275 326
#     4   9  18  36  60  80 104 144 185 224 272 323
#     4  11  21  31  47  76 111 144 176 215 265 321
#     4  10  20  33  52  77 105 139 179 222 266 316
#     4   9  19  34  49  72 106 140 176 217 265 320
#     4   9  19  36  57  81 109 143 182 224 273 332
#     4  11  24  40  58  84 115 147 186 235 284 333
#     4   9  19  38  61  81 107 143 183 228 277 331
#
# _framework density 20.876764000000001
#
# number of rings (size 3 to 8) (size 9 to 14) (size 15 to 20)
#    0.000    2.250    0.000    3.375    0.000    9.250 
#    2.250    1.250    0.000    0.000    0.000    0.000 
#    0.000    0.000    0.000    0.000    0.000    0.000 
#
# Total GULP energy -178710.836866 kJ/mol
# GULP energy per Si atom -5584.713652 kJ/mol
# Density = 2.082925 g / cm^3
# Si number density = 20.876764 Si / 1000 Ang^3
#
#
#
# Elastic Constant Matrix: (Units=GPa)
#
#
# Indices 1 2 3 4 5 6 
#
# 1 68.5404 45.2250 15.7693 0.0000 39.6237 0.0000
# 2 45.2250 100.6096 43.5451 0.0000 43.5143 0.0000
# 3 15.7693 43.5451 58.3848 0.0000 34.9767 0.0000
# 4 0.0000 0.0000 0.0000 16.5266 0.0000 2.0108
# 5 39.6237 43.5143 34.9767 0.0000 45.0221 0.0000
# 6 0.0000 0.0000 0.0000 2.0108 0.0000 31.6540
#
#
#
# Elastic Compliance Matrix: (Units=1/GPa)
#
#
# Indices 1 2 3 4 5 6 
#
# 1 0.041638 -0.008710 0.022746 0.000000 -0.045897 0.000000
# 2 -0.008710 0.019836 -0.010380 0.000000 -0.003442 0.000000
# 3 0.022746 -0.010380 0.046219 0.000000 -0.045893 0.000000
# 4 0.000000 0.000000 0.000000 0.060980 0.000000 -0.003874
# 5 -0.045897 -0.003442 -0.045893 0.000000 0.101586 0.000000
# 6 0.000000 0.000000 0.000000 -0.003874 0.000000 0.031838
#
#
# Mechanical properties :
#
#
# Convention : Reuss Voigt Hill
#
# Bulk Modulus (GPa) = 8.69528 48.51263 28.60396
# Shear Modulus (GPa) = 15.00969 26.84023 20.92496
#
# Velocity S-wave (km/s) = 2.68426 3.58949 3.16936
# Velocity P-wave (km/s) = 3.71229 6.36139 5.20809
#
# Compressibility (1/GPa) = 0.11500486
#
# Stress axis : x y z
#
# Youngs Moduli (GPa) = 24.01673 50.41366 21.63613
#
# Poissons Ratio (x) = 0.43913 -0.49214
# Poissons Ratio (y) = 0.20920 0.22458
# Poissons Ratio (z) = -0.54629 0.52328
#
# Static dielectric constant tensor:
#      x y z
#    x 1.786420 0.000000 -0.008870 
#    y 0.000000 1.716880 0.000000 
#    z -0.008870 0.000000 1.778040 
# 
# From -- ./inp_files/58331.got.cif
#   From: 2010.05.17/outbox.cif.g08.bks.cpg/sg10_30_cif.got.tgz:58331.got - 2010.06.03 11:33:40.
