data_PCOD9148467
_publ_section_title
;
Structure prediction by ZEFSAII (Michael W. Deem and Ramdas Pophale) SiO2 
 PCOD9148467
Probable space group: P 2/M
;
_chemical_formula_sum "Si O2"
_cell_formula_units_Z 22
_cell_length_a 7.338592
_cell_length_b 13.338124
_cell_length_c 9.746298
_cell_angle_alpha 90.000000
_cell_angle_beta 100.334460
_cell_angle_gamma 90.000000
_cell_volume 938.520982
_symmetry_space_group_name_H-M "P 2/M"
_symmetry_group_IT_number 10
_symmetry_cell_setting 'monoclinic'
loop_
_space_group_symop_operation_xyz
x,y,z
-x,y,-z
-x,-y,-z
x,-y,z
loop_
_atom_site_type_symbol
_atom_site_label
_atom_site_fract_x
_atom_site_fract_y
_atom_site_fract_z
Si Si1 0.500000 0.215582 0.000000
Si Si2 0.625095 0.608265 0.178587
Si Si3 0.843243 0.829707 0.873092
Si Si4 0.208289 0.392653 0.211343
Si Si5 0.805217 0.107999 0.554573
Si Si6 0.221186 0.324241 0.515593
O O1 0.354434 0.288123 0.899744
O O2 0.637719 0.160022 0.913315
O O3 0.687873 0.500000 0.132260
O O4 0.403418 0.603842 0.161120
O O5 0.703353 0.622671 0.340502
O O6 0.883512 0.711054 0.846942
O O7 0.842007 0.878553 0.722213
O O8 0.000000 0.866179 0.000000
O O9 0.111815 0.500000 0.179038
O O10 0.258038 0.379805 0.378420
O O11 0.709213 0.209676 0.488815
O O12 0.000000 0.106057 0.500000
O O13 0.715074 0.000000 0.516994
O O14 0.000000 0.321114 0.500000
#
# Coordination Sequence:
#
# PCOD9148467 Si02
#       6
#     2   4   4   4   4   4
#     4  10  23  38  59  88 132 174 205 250 299 366
#     4  10  20  35  55  80 121 168 205 242 296 362
#     4  10  22  39  63  92 125 167 210 252 309 368
#     4   9  19  35  52  81 119 160 207 247 298 358
#     4   9  20  40  66  92 118 155 209 262 318 379
#     4  10  20  32  55  87 115 151 204 257 309 360
#
# _framework density 23.441137999999999
#
# number of rings (size 3 to 8) (size 9 to 14) (size 15 to 20)
#    0.000    2.364    0.000    1.364    7.636    4.364 
#    0.000    0.455    0.000   19.636    0.000    0.000 
#    0.000    0.000    0.000    0.000    0.000    0.000 
#
# Total GULP energy -122820.644527 kJ/mol
# GULP energy per Si atom -5582.756569 kJ/mol
# Density = 2.338779 g / cm^3
# Si number density = 23.441138 Si / 1000 Ang^3
#
#
#
# Elastic Constant Matrix: (Units=GPa)
#
#
# Indices 1 2 3 4 5 6 
#
# 1 93.6000 12.9162 26.2681 0.0000 -14.1004 0.0000
# 2 12.9162 99.7838 -0.4382 0.0000 -7.8664 0.0000
# 3 26.2681 -0.4382 123.6838 0.0000 -16.7571 0.0000
# 4 0.0000 0.0000 0.0000 5.8820 0.0000 -7.3847
# 5 -14.1004 -7.8664 -16.7571 0.0000 36.6924 0.0000
# 6 0.0000 0.0000 0.0000 -7.3847 0.0000 25.5891
#
#
#
# Elastic Compliance Matrix: (Units=1/GPa)
#
#
# Indices 1 2 3 4 5 6 
#
# 1 0.011955 -0.001291 -0.002088 0.000000 0.003364 0.000000
# 2 -0.001291 0.010348 0.000580 0.000000 0.001987 0.000000
# 3 -0.002088 0.000580 0.008995 0.000000 0.003430 0.000000
# 4 0.000000 0.000000 0.000000 0.266603 0.000000 0.076938
# 5 0.003364 0.001987 0.003430 0.000000 0.030539 0.000000
# 6 0.000000 0.000000 0.000000 0.076938 0.000000 0.061282
#
#
# Mechanical properties :
#
#
# Convention : Reuss Voigt Hill
#
# Bulk Modulus (GPa) = 38.91069 43.83997 41.37533
# Shear Modulus (GPa) = 12.37972 32.18746 22.28359
#
# Velocity S-wave (km/s) = 2.30058 3.70958 3.08656
# Velocity P-wave (km/s) = 4.86747 6.09022 5.51285
#
# Compressibility (1/GPa) = 0.02569988
#
# Stress axis : x y z
#
# Youngs Moduli (GPa) = 83.64972 96.63665 111.16889
#
# Poissons Ratio (x) = 0.12480 0.23210
# Poissons Ratio (y) = 0.10803 -0.06450
# Poissons Ratio (z) = 0.17464 -0.05606
#
# Static dielectric constant tensor:
#      x y z
#    x 1.928340 0.000000 -0.085200 
#    y 0.000000 1.941320 0.000000 
#    z -0.085200 0.000000 1.937380 
# 
# From -- ./inp_files/18914.got.cif
#   From: 2010.05.17/outbox.cif.g08.bks.cpg/sg10_10_cif.got.tgz:18914.got - 2010.06.03 11:33:40.
