data_PCOD9148076
_publ_section_title
;
Structure prediction by ZEFSAII (Michael W. Deem and Ramdas Pophale) SiO2 
 PCOD9148076
Probable space group: P 2/M
;
_chemical_formula_sum "Si O2"
_cell_formula_units_Z 20
_cell_length_a 5.189547
_cell_length_b 12.787822
_cell_length_c 12.602903
_cell_angle_alpha 90.000000
_cell_angle_beta 87.929720
_cell_angle_gamma 90.000000
_cell_volume 835.820569
_symmetry_space_group_name_H-M "P 2/M"
_symmetry_group_IT_number 10
_symmetry_cell_setting 'monoclinic'
loop_
_space_group_symop_operation_xyz
x,y,z
-x,y,-z
-x,-y,-z
x,-y,z
loop_
_atom_site_type_symbol
_atom_site_label
_atom_site_fract_x
_atom_site_fract_y
_atom_site_fract_z
Si Si1 0.982672 0.618376 0.228308
Si Si2 0.783632 0.000000 0.255576
Si Si3 0.264639 0.349349 0.432313
Si Si4 0.299314 0.769423 0.087634
Si Si5 0.421393 0.787099 0.692202
Si Si6 0.287340 0.000000 0.113190
O O1 0.902552 0.500000 0.201360
O O2 0.206376 0.608438 0.314846
O O3 0.076100 0.688748 0.126497
O O4 0.769624 0.688347 0.291674
O O5 0.731458 0.893676 0.318999
O O6 0.572758 0.000000 0.161886
O O7 0.071169 0.000000 0.207390
O O8 0.500000 0.392078 0.500000
O O9 0.365929 0.234124 0.399855
O O10 0.000000 0.357615 0.500000
O O11 0.439192 0.789664 0.196936
O O12 0.240377 0.889323 0.054417
O O13 0.500000 0.724096 0.000000
#
# Coordination Sequence:
#
# PCOD9148076 Si02
#       6
#     4   2   4   4   4   2
#     4  11  24  42  66  94 130 175 218 268 325 388
#     4  10  20  38  67  92 131 174 207 266 325 376
#     4  11  23  44  70  96 131 163 215 275 329 388
#     4  10  22  40  63  97 135 173 218 269 321 383
#     4  10  22  42  65  96 133 170 218 266 324 390
#     4  10  19  38  66  99 125 167 219 268 322 376
#
# _framework density 23.928578999999999
#
# number of rings (size 3 to 8) (size 9 to 14) (size 15 to 20)
#    0.000    1.600    4.000    0.300    0.000    5.200 
#    0.000    4.000    0.000    0.000    0.000    0.000 
#    0.000    0.000    0.000    0.000    0.000    0.000 
#
# Total GULP energy -111547.329183 kJ/mol
# GULP energy per Si atom -5577.366459 kJ/mol
# Density = 2.387412 g / cm^3
# Si number density = 23.928579 Si / 1000 Ang^3
#
#
#
# Elastic Constant Matrix: (Units=GPa)
#
#
# Indices 1 2 3 4 5 6 
#
# 1 108.0507 34.2025 26.5168 0.0000 -2.8896 0.0000
# 2 34.2025 179.8103 16.2797 0.0000 -32.0031 0.0000
# 3 26.5168 16.2797 66.3011 0.0000 -10.0832 0.0000
# 4 0.0000 0.0000 0.0000 -14.7030 0.0000 -37.2064
# 5 -2.8896 -32.0031 -10.0832 0.0000 45.8479 0.0000
# 6 0.0000 0.0000 0.0000 -37.2064 0.0000 109.1625
#
#
#
# Elastic Compliance Matrix: (Units=1/GPa)
#
#
# Indices 1 2 3 4 5 6 
#
# 1 0.010842 -0.001976 -0.004094 0.000000 -0.001596 0.000000
# 2 -0.001976 0.006765 -0.000178 0.000000 0.004558 0.000000
# 3 -0.004094 -0.000178 0.017284 0.000000 0.003419 0.000000
# 4 0.000000 0.000000 0.000000 -0.036517 0.000000 -0.012446
# 5 -0.001596 0.004558 0.003419 0.000000 0.025644 0.000000
# 6 0.000000 0.000000 0.000000 -0.012446 0.000000 0.004918
#
#
# Mechanical properties :
#
#
# Convention : Reuss Voigt Hill
#
# Bulk Modulus (GPa) = 44.65078 56.46223 50.55651
# Shear Modulus (GPa) = 102.25740 46.53901 74.39820
#
# Velocity S-wave (km/s) = 6.54425 4.41490 5.58205
# Velocity P-wave (km/s) = 8.70652 7.04527 7.91957
#
# Compressibility (1/GPa) = 0.02239602
#
# Stress axis : x y z
#
# Youngs Moduli (GPa) = 92.23090 147.82788 57.85811
#
# Poissons Ratio (x) = 0.29208 0.23687
# Poissons Ratio (y) = 0.18223 0.01027
# Poissons Ratio (z) = 0.37759 0.02624
#
# Static dielectric constant tensor:
#      x y z
#    x 1.968830 0.000000 0.027890 
#    y 0.000000 2.006390 0.000000 
#    z 0.027890 0.000000 1.917880 
# 
# From -- ./inp_files/58834.got.cif
#   From: 2010.05.17/outbox.cif.g08.bks.cpg/sg10_30_cif.got.tgz:58834.got - 2010.06.03 11:33:40.
