data_PCOD9148740
_publ_section_title
;
Structure prediction by ZEFSAII (Michael W. Deem and Ramdas Pophale) SiO2 
 PCOD9148740
Probable space group: P 2/M
;
_chemical_formula_sum "Si O2"
_cell_formula_units_Z 28
_cell_length_a 14.319124
_cell_length_b 12.370270
_cell_length_c 9.778174
_cell_angle_alpha 90.000000
_cell_angle_beta 62.678902
_cell_angle_gamma 90.000000
_cell_volume 1538.811924
_symmetry_space_group_name_H-M "P 2/M"
_symmetry_group_IT_number 10
_symmetry_cell_setting 'monoclinic'
loop_
_space_group_symop_operation_xyz
x,y,z
-x,y,-z
-x,-y,-z
x,-y,z
loop_
_atom_site_type_symbol
_atom_site_label
_atom_site_fract_x
_atom_site_fract_y
_atom_site_fract_z
Si Si1 0.669631 0.869559 0.242823
Si Si2 0.896673 0.130228 0.981534
Si Si3 0.878584 0.500000 0.937008
Si Si4 0.299996 0.871353 0.478443
Si Si5 0.137482 0.696993 0.543383
Si Si6 0.112491 0.296213 0.247664
Si Si7 0.135507 0.500000 0.738926
Si Si8 0.511431 0.867977 0.837277
O O1 0.789998 0.839022 0.132418
O O2 0.643465 0.844305 0.416629
O O3 0.585101 0.828759 0.191165
O O4 0.667522 0.000000 0.233277
O O5 0.903146 0.000000 0.964245
O O6 0.881607 0.185636 0.843566
O O7 0.000000 0.166139 0.000000
O O8 0.848222 0.391772 0.876949
O O9 0.007201 0.500000 0.839907
O O10 0.835585 0.500000 0.120456
O O11 0.190766 0.808969 0.549120
O O12 0.377605 0.838602 0.304685
O O13 0.282979 0.000000 0.484919
O O14 0.161536 0.688294 0.365022
O O15 0.171934 0.602758 0.624593
O O16 0.012349 0.694470 0.642922
O O17 0.508698 0.000000 0.838471
O O18 0.500000 0.831598 0.000000
#
# Coordination Sequence:
#
# PCOD9148740 Si02
#       8
#     4   4   2   4   4   4   2   4
#     4   9  18  32  50  71 102 144 182 218 257 305
#     4  10  21  33  50  77 114 151 178 209 255 322
#     4   9  19  33  57  77  94 136 182 238 259 301
#     4  10  20  33  52  78 108 139 176 216 268 320
#     4  10  21  35  51  77 108 143 172 223 268 315
#     4  10  21  34  52  75 108 141 182 216 266 314
#     4   9  19  35  55  75 101 133 184 222 270 312
#     4   9  18  32  51  74 102 136 180 229 268 306
#
# _framework density 18.195855999999999
#
# number of rings (size 3 to 8) (size 9 to 14) (size 15 to 20)
#    0.000    2.429    0.000    1.714    8.000    5.714 
#    0.000    1.429    0.000    0.000    0.000    3.500 
#    0.000    0.000    0.000    0.000    0.000    0.000 
#
# Total GULP energy -155924.585947 kJ/mol
# GULP energy per Si atom -5568.735212 kJ/mol
# Density = 1.815444 g / cm^3
# Si number density = 18.195856 Si / 1000 Ang^3
#
#
#
# Elastic Constant Matrix: (Units=GPa)
#
#
# Indices 1 2 3 4 5 6 
#
# 1 47.0499 24.4511 26.1990 0.0000 12.2158 0.0000
# 2 24.4511 52.1752 44.9360 0.0000 8.6757 0.0000
# 3 26.1990 44.9360 138.3541 0.0000 27.1793 0.0000
# 4 0.0000 0.0000 0.0000 25.0188 0.0000 2.8273
# 5 12.2158 8.6757 27.1793 0.0000 23.7906 0.0000
# 6 0.0000 0.0000 0.0000 2.8273 0.0000 2.5057
#
#
#
# Elastic Compliance Matrix: (Units=1/GPa)
#
#
# Indices 1 2 3 4 5 6 
#
# 1 0.030705 -0.013073 0.000764 0.000000 -0.011871 0.000000
# 2 -0.013073 0.032177 -0.009011 0.000000 0.005273 0.000000
# 3 0.000764 -0.009011 0.012173 0.000000 -0.011014 0.000000
# 4 0.000000 0.000000 0.000000 0.045811 0.000000 -0.051691
# 5 -0.011871 0.005273 -0.011014 0.000000 0.058788 0.000000
# 6 0.000000 0.000000 0.000000 -0.051691 0.000000 0.457417
#
#
# Mechanical properties :
#
#
# Convention : Reuss Voigt Hill
#
# Bulk Modulus (GPa) = 30.85082 47.63906 39.24494
# Shear Modulus (GPa) = 7.24095 19.72923 13.48509
#
# Velocity S-wave (km/s) = 1.99702 3.29640 2.72528
# Velocity P-wave (km/s) = 4.72325 6.38173 5.61407
#
# Compressibility (1/GPa) = 0.03241405
#
# Stress axis : x y z
#
# Youngs Moduli (GPa) = 32.56812 31.07840 82.14575
#
# Poissons Ratio (x) = 0.40630 -0.06274
# Poissons Ratio (y) = 0.42577 0.74022
# Poissons Ratio (z) = -0.02488 0.28005
#
# Static dielectric constant tensor:
#      x y z
#    x 1.625520 0.000000 0.019570 
#    y 0.000000 1.624460 0.000000 
#    z 0.019570 0.000000 1.660020 
# 
# From -- ./inp_files/28260.got.cif
#   From: 2010.05.17/outbox.cif.g08.bks.cpg/sg10_15_cif.got.tgz:28260.got - 2010.06.03 11:33:40.
