data_PCOD9148555
_publ_section_title
;
Structure prediction by ZEFSAII (Michael W. Deem and Ramdas Pophale) SiO2 
 PCOD9148555
Probable space group: P 2/M
;
_chemical_formula_sum "Si O2"
_cell_formula_units_Z 28
_cell_length_a 17.843427
_cell_length_b 7.625957
_cell_length_c 14.795255
_cell_angle_alpha 90.000000
_cell_angle_beta 138.192864
_cell_angle_gamma 90.000000
_cell_volume 1342.075274
_symmetry_space_group_name_H-M "P 2/M"
_symmetry_group_IT_number 10
_symmetry_cell_setting 'monoclinic'
loop_
_space_group_symop_operation_xyz
x,y,z
-x,y,-z
-x,-y,-z
x,-y,z
loop_
_atom_site_type_symbol
_atom_site_label
_atom_site_fract_x
_atom_site_fract_y
_atom_site_fract_z
Si Si1 0.345932 0.795940 0.683987
Si Si2 0.949158 0.290149 0.259166
Si Si3 0.763542 0.791149 0.942078
Si Si4 0.186145 0.793062 0.392470
Si Si5 0.220576 0.296484 0.746186
Si Si6 0.126995 0.215238 0.139949
Si Si7 0.405425 0.213938 0.060630
O O1 0.288192 0.717228 0.543102
O O2 0.257287 0.788052 0.685854
O O3 0.466168 0.724081 0.823884
O O4 0.368653 0.000000 0.684822
O O5 0.953307 0.500000 0.269298
O O6 0.884859 0.224356 0.291176
O O7 0.072778 0.223986 0.349223
O O8 0.869843 0.243028 0.102912
O O9 0.791546 0.724446 0.867584
O O10 0.655619 0.729579 0.901242
O O11 0.751287 0.000000 0.922988
O O12 0.162297 0.721965 0.270934
O O13 0.207816 0.000000 0.400239
O O14 0.198125 0.500000 0.706683
O O15 0.327314 0.281398 0.909576
O O16 0.126777 0.000000 0.141020
O O17 0.000000 0.267377 0.000000
O O18 0.401606 0.000000 0.049856
#
# Coordination Sequence:
#
# PCOD9148555 Si02
#       7
#     4   4   4   4   4   4   4
#     4  10  21  35  50  72 102 134 167 206 245 288
#     4  10  20  33  49  74 103 127 161 209 253 291
#     4   9  16  30  53  76  99 130 164 200 246 293
#     4  10  20  34  51  72 102 136 167 198 244 301
#     4  10  21  35  53  75  98 129 168 208 250 295
#     4   9  15  27  51  78  99 125 165 204 239 289
#     4   9  18  33  53  76 101 129 166 207 244 286
#
# _framework density 20.863209999999999
#
# number of rings (size 3 to 8) (size 9 to 14) (size 15 to 20)
#    0.000    2.429    1.429    1.286    0.000    5.143 
#    0.000    5.000    0.000    4.286    0.000    0.000 
#    0.000    6.857    0.000    0.000    0.000    0.000 
#
# Total GULP energy -156249.330535 kJ/mol
# GULP energy per Si atom -5580.333233 kJ/mol
# Density = 2.081572 g / cm^3
# Si number density = 20.863210 Si / 1000 Ang^3
#
#
#
# Elastic Constant Matrix: (Units=GPa)
#
#
# Indices 1 2 3 4 5 6 
#
# 1 80.5688 -10.2667 14.7173 0.0000 -14.9540 0.0000
# 2 -10.2667 44.3237 -10.7776 0.0000 -5.4326 0.0000
# 3 14.7173 -10.7776 28.6400 0.0000 -18.9535 0.0000
# 4 0.0000 0.0000 0.0000 136.7022 0.0000 -49.8774
# 5 -14.9540 -5.4326 -18.9535 0.0000 19.4754 0.0000
# 6 0.0000 0.0000 0.0000 -49.8774 0.0000 14.9795
#
#
#
# Elastic Compliance Matrix: (Units=1/GPa)
#
#
# Indices 1 2 3 4 5 6 
#
# 1 0.017364 0.014075 0.021899 0.000000 0.038571 0.000000
# 2 0.014075 0.068573 0.107832 0.000000 0.134877 0.000000
# 3 0.021899 0.107832 0.267664 0.000000 0.307385 0.000000
# 4 0.000000 0.000000 0.000000 -0.034042 0.000000 -0.113351
# 5 0.038571 0.134877 0.307385 0.000000 0.417734 0.000000
# 6 0.000000 0.000000 0.000000 -0.113351 0.000000 -0.310668
#
#
# Mechanical properties :
#
#
# Convention : Reuss Voigt Hill
#
# Bulk Modulus (GPa) = 1.55955 15.65317 8.60636
# Shear Modulus (GPa) = 14.17431 44.88872 29.53151
#
# Velocity S-wave (km/s) = 2.60934 4.64354 3.76637
# Velocity P-wave (km/s) = 3.13486 6.02237 4.80085
#
# Compressibility (1/GPa) = 0.64121204
#
# Stress axis : x y z
#
# Youngs Moduli (GPa) = 57.59063 14.58307 3.73603
#
# Poissons Ratio (x) = -0.20525 -0.08182
# Poissons Ratio (y) = -0.81056 -0.40286
# Poissons Ratio (z) = -1.26120 -1.57252
#
# Static dielectric constant tensor:
#      x y z
#    x 1.755880 0.000000 -0.003860 
#    y 0.000000 1.784410 0.000000 
#    z -0.003860 0.000000 1.737520 
# 
# From -- ./inp_files/68608.got.cif
#   From: 2010.05.17/outbox.cif.g08.bks.cpg/sg10_35_cif.got.tgz:68608.got - 2010.06.03 11:33:40.
