data_PCOD9148696
_publ_section_title
;
Structure prediction by ZEFSAII (Michael W. Deem and Ramdas Pophale) SiO2 
 PCOD9148696
Probable space group: P 2/M
;
_chemical_formula_sum "Si O2"
_cell_formula_units_Z 28
_cell_length_a 20.566581
_cell_length_b 9.617140
_cell_length_c 23.845603
_cell_angle_alpha 90.000000
_cell_angle_beta 18.572949
_cell_angle_gamma 90.000000
_cell_volume 1502.248852
_symmetry_space_group_name_H-M "P 2/M"
_symmetry_group_IT_number 10
_symmetry_cell_setting 'monoclinic'
loop_
_space_group_symop_operation_xyz
x,y,z
-x,y,-z
-x,-y,-z
x,-y,z
loop_
_atom_site_type_symbol
_atom_site_label
_atom_site_fract_x
_atom_site_fract_y
_atom_site_fract_z
Si Si1 0.272266 0.850354 0.657751
Si Si2 0.091941 0.335429 0.267716
Si Si3 0.221852 0.339881 0.289729
Si Si4 0.328137 0.165026 0.382192
Si Si5 0.560897 0.166415 0.075655
Si Si6 0.215503 0.350426 0.795643
Si Si7 0.495598 0.840317 0.367504
O O1 0.500000 0.855057 0.500000
O O2 0.176598 0.724420 0.768514
O O3 0.299709 0.833710 0.569166
O O4 0.174927 0.000000 0.749391
O O5 0.072769 0.500000 0.269335
O O6 0.196354 0.327660 0.243846
O O7 0.872621 0.260928 0.454057
O O8 0.234237 0.250388 0.108061
O O9 0.285779 0.500000 0.250392
O O10 0.383293 0.230910 0.181627
O O11 0.000000 0.318991 0.500000
O O12 0.475869 0.189358 0.208310
O O13 0.442515 0.191630 0.347348
O O14 0.271015 0.000000 0.427802
O O15 0.586537 0.000000 0.046402
O O16 0.315717 0.500000 0.704979
O O17 0.347558 0.259713 0.730300
O O18 0.000000 0.364804 0.000000
O O19 0.569068 0.000000 0.310966
#
# Coordination Sequence:
#
# PCOD9148696 Si02
#       7
#     4   4   4   4   4   4   4
#     4   8  15  30  53  76  97 128 173 218 260 312
#     4  11  23  39  61  86 115 154 196 241 293 350
#     4  10  20  37  60  85 115 152 196 243 293 347
#     4  10  22  41  61  83 117 155 194 242 289 342
#     4  11  23  38  60  88 119 153 193 244 296 344
#     4  10  20  33  51  80 115 143 174 223 275 324
#     4   9  19  37  58  79 105 142 186 226 272 330
#
# _framework density 18.638722000000001
#
# number of rings (size 3 to 8) (size 9 to 14) (size 15 to 20)
#    0.000    2.143    1.429    2.571    0.000    8.000 
#    2.571    0.000    0.000    0.000    0.000    0.000 
#    0.000    0.000    0.000    0.000    0.000    0.000 
#
# Total GULP energy -156078.143372 kJ/mol
# GULP energy per Si atom -5574.219406 kJ/mol
# Density = 1.859630 g / cm^3
# Si number density = 18.638722 Si / 1000 Ang^3
#
#
#
# Elastic Constant Matrix: (Units=GPa)
#
#
# Indices 1 2 3 4 5 6 
#
# 1 91.3460 59.9252 29.8257 0.0000 22.6204 0.0000
# 2 59.9252 128.5869 62.5704 0.0000 17.2063 0.0000
# 3 29.8257 62.5704 80.8959 0.0000 26.3534 0.0000
# 4 0.0000 0.0000 0.0000 39.1944 0.0000 -32.4681
# 5 22.6204 17.2063 26.3534 0.0000 18.2233 0.0000
# 6 0.0000 0.0000 0.0000 -32.4681 0.0000 132.7094
#
#
#
# Elastic Compliance Matrix: (Units=1/GPa)
#
#
# Indices 1 2 3 4 5 6 
#
# 1 0.023970 -0.012451 0.012585 0.000000 -0.036197 0.000000
# 2 -0.012451 0.019103 -0.017667 0.000000 0.022967 0.000000
# 3 0.012585 -0.017667 0.039784 0.000000 -0.056473 0.000000
# 4 0.000000 0.000000 0.000000 0.031999 0.000000 0.007829
# 5 -0.036197 0.022967 -0.056473 0.000000 0.159789 0.000000
# 6 0.000000 0.000000 0.000000 0.007829 0.000000 0.009451
#
#
# Mechanical properties :
#
#
# Convention : Reuss Voigt Hill
#
# Bulk Modulus (GPa) = 20.92475 67.27462 44.09968
# Shear Modulus (GPa) = 14.92131 47.92591 31.42361
#
# Velocity S-wave (km/s) = 2.83248 5.07631 4.11046
# Velocity P-wave (km/s) = 4.68488 8.39827 6.79996
#
# Compressibility (1/GPa) = 0.04779031
#
# Stress axis : x y z
#
# Youngs Moduli (GPa) = 41.71873 52.34843 25.13591
#
# Poissons Ratio (x) = 0.65179 -0.31633
# Poissons Ratio (y) = 0.51944 0.44407
# Poissons Ratio (z) = -0.52502 0.92483
#
# Static dielectric constant tensor:
#      x y z
#    x 1.623380 0.000000 0.022670 
#    y 0.000000 1.709160 0.000000 
#    z 0.022670 0.000000 1.665940 
# 
# From -- ./inp_files/90351.got.cif
#   From: 2010.05.17/outbox.cif.g08.bks.cpg/sg10_46_cif.got.tgz:90351.got - 2010.06.03 11:33:40.
