data_PCOD9148997
_publ_section_title
;
Structure prediction by ZEFSAII (Michael W. Deem and Ramdas Pophale) SiO2 
 PCOD9148997
Probable space group: P 2/M
;
_chemical_formula_sum "Si O2"
_cell_formula_units_Z 24
_cell_length_a 18.706866
_cell_length_b 7.535942
_cell_length_c 25.152704
_cell_angle_alpha 90.000000
_cell_angle_beta 18.997057
_cell_angle_gamma 90.000000
_cell_volume 1154.251344
_symmetry_space_group_name_H-M "P 2/M"
_symmetry_group_IT_number 10
_symmetry_cell_setting 'monoclinic'
loop_
_space_group_symop_operation_xyz
x,y,z
-x,y,-z
-x,-y,-z
x,-y,z
loop_
_atom_site_type_symbol
_atom_site_label
_atom_site_fract_x
_atom_site_fract_y
_atom_site_fract_z
Si Si1 0.867304 0.215065 0.367541
Si Si2 0.540636 0.708845 0.692875
Si Si3 0.041763 0.205233 0.029009
Si Si4 0.258001 0.791189 0.163817
Si Si5 0.752645 0.217033 0.330196
Si Si6 0.938174 0.715050 0.484565
O O1 0.671234 0.265327 0.545629
O O2 0.832046 0.276302 0.332391
O O3 0.094297 0.281530 0.233947
O O4 0.871847 0.000000 0.364286
O O5 0.508972 0.500000 0.723457
O O6 0.300134 0.790687 0.859743
O O7 0.706076 0.775959 0.622631
O O8 0.968276 0.000000 0.076745
O O9 0.000000 0.285900 0.000000
O O10 0.902348 0.280724 0.176059
O O11 0.124915 0.771948 0.312008
O O12 0.284361 0.000000 0.133082
O O13 0.500000 0.713209 0.000000
O O14 0.500000 0.267592 0.500000
O O15 0.761387 0.000000 0.324789
O O16 0.931895 0.500000 0.489204
O O17 0.000000 0.775728 0.500000
#
# Coordination Sequence:
#
# PCOD9148997 Si02
#       6
#     4   4   4   4   4   4
#     4   9  17  32  52  71  96 130 165 203 247 295
#     4  10  20  34  52  74 101 132 167 208 250 292
#     4  10  20  34  54  78 102 131 166 202 245 299
#     4   9  18  31  48  73 101 127 160 205 253 295
#     4   9  17  30  50  74  96 122 160 201 238 284
#     4   9  19  35  52  71  98 134 172 206 245 296
#
# _framework density 20.792698000000001
#
# number of rings (size 3 to 8) (size 9 to 14) (size 15 to 20)
#    0.000    2.667    0.000    1.500    0.000    5.667 
#    0.000    2.500    0.000    2.000    0.000    0.000 
#    0.000    0.000    0.000    0.000    0.000    0.000 
#
# Total GULP energy -133949.865079 kJ/mol
# GULP energy per Si atom -5581.244378 kJ/mol
# Density = 2.074537 g / cm^3
# Si number density = 20.792698 Si / 1000 Ang^3
#
#
#
# Elastic Constant Matrix: (Units=GPa)
#
#
# Indices 1 2 3 4 5 6 
#
# 1 191.3803 -6.2637 96.7234 0.0000 3.3984 0.0000
# 2 -6.2637 50.6548 -11.6346 0.0000 0.6061 0.0000
# 3 96.7234 -11.6346 151.0637 0.0000 -16.5875 0.0000
# 4 0.0000 0.0000 0.0000 73.1167 0.0000 12.0426
# 5 3.3984 0.6061 -16.5875 0.0000 21.9763 0.0000
# 6 0.0000 0.0000 0.0000 12.0426 0.0000 15.2970
#
#
#
# Elastic Compliance Matrix: (Units=1/GPa)
#
#
# Indices 1 2 3 4 5 6 
#
# 1 0.008358 -0.000278 -0.006012 0.000000 -0.005823 0.000000
# 2 -0.000278 0.020115 0.001822 0.000000 0.000863 0.000000
# 3 -0.006012 0.001822 0.011674 0.000000 0.009691 0.000000
# 4 0.000000 0.000000 0.000000 0.015714 0.000000 -0.012371
# 5 -0.005823 0.000863 0.009691 0.000000 0.053695 0.000000
# 6 0.000000 0.000000 0.000000 -0.012371 0.000000 0.075111
#
#
# Mechanical properties :
#
#
# Convention : Reuss Voigt Hill
#
# Bulk Modulus (GPa) = 32.04031 61.19431 46.61731
# Shear Modulus (GPa) = 24.50892 43.02960 33.76926
#
# Velocity S-wave (km/s) = 3.43698 4.55406 4.03438
# Velocity P-wave (km/s) = 5.58510 7.55958 6.64607
#
# Compressibility (1/GPa) = 0.03121068
#
# Stress axis : x y z
#
# Youngs Moduli (GPa) = 119.64392 49.71353 85.66250
#
# Poissons Ratio (x) = 0.01381 0.51503
# Poissons Ratio (y) = 0.03323 -0.15607
# Poissons Ratio (z) = 0.71934 -0.09057
#
# Static dielectric constant tensor:
#      x y z
#    x 1.738560 0.000000 -0.014520 
#    y 0.000000 1.767860 0.000000 
#    z -0.014520 0.000000 1.694240 
# 
# From -- ./inp_files/27285.got.cif
#   From: 2010.05.17/outbox.cif.g08.bks.cpg/sg10_14_cif.got.tgz:27285.got - 2010.06.03 11:33:40.
