data_PCOD9148616
_publ_section_title
;
Structure prediction by ZEFSAII (Michael W. Deem and Ramdas Pophale) SiO2 
 PCOD9148616
Probable space group: P 2/M
;
_chemical_formula_sum "Si O2"
_cell_formula_units_Z 32
_cell_length_a 22.155240
_cell_length_b 7.440310
_cell_length_c 28.532900
_cell_angle_alpha 90.000000
_cell_angle_beta 18.748036
_cell_angle_gamma 90.000000
_cell_volume 1511.710896
_symmetry_space_group_name_H-M "P 2/M"
_symmetry_group_IT_number 10
_symmetry_cell_setting 'monoclinic'
loop_
_space_group_symop_operation_xyz
x,y,z
-x,y,-z
-x,-y,-z
x,-y,z
loop_
_atom_site_type_symbol
_atom_site_label
_atom_site_fract_x
_atom_site_fract_y
_atom_site_fract_z
Si Si1 0.659070 0.219867 0.420464
Si Si2 0.154939 0.218993 0.922529
Si Si3 0.426404 0.219444 0.411174
Si Si4 0.199941 0.283999 0.221993
Si Si5 0.238387 0.213396 0.454535
Si Si6 0.487795 0.283999 0.934139
Si Si7 0.923903 0.780556 0.913675
Si Si8 0.533297 0.786604 0.159623
O O1 0.500000 0.277007 0.500000
O O2 0.621143 0.278055 0.501519
O O3 0.869509 0.278055 0.253151
O O4 0.655546 0.000000 0.422226
O O5 0.362087 0.273732 0.755895
O O6 0.152903 0.000000 0.923547
O O7 0.109855 0.273732 0.008130
O O8 0.000000 0.281181 0.000000
O O9 0.299138 0.281954 0.461267
O O10 0.418136 0.000000 0.418026
O O11 0.208412 0.500000 0.215393
O O12 0.335710 0.221509 0.164290
O O13 0.983560 0.237809 0.388549
O O14 0.299146 0.222267 0.100427
O O15 0.373066 0.283249 0.313467
O O16 0.271171 0.000000 0.431749
O O17 0.486808 0.500000 0.936997
O O18 0.504877 0.237808 0.867232
O O19 0.926506 0.000000 0.909655
O O20 0.742481 0.718046 0.017923
O O21 0.540509 0.000000 0.162411
#
# Coordination Sequence:
#
# PCOD9148616 Si02
#       8
#     4   4   4   4   4   4   4   4
#     4   9  16  24  36  58  90 129 172 212 249 293
#     4   9  14  22  38  56  84 131 172 198 237 293
#     4   9  16  26  38  60  95 131 166 205 248 294
#     4   9  20  39  59  78 101 130 168 213 256 302
#     4  10  20  33  50  76 110 142 171 207 252 305
#     4   9  20  39  59  78 101 130 168 213 256 302
#     4   9  16  26  38  60  95 131 166 205 248 294
#     4  10  20  33  50  76 110 142 171 207 252 305
#
# _framework density 21.168068000000002
#
# number of rings (size 3 to 8) (size 9 to 14) (size 15 to 20)
#    0.000    2.750    1.250    1.500    1.750    5.000 
#    0.000    3.750    0.000    0.000    0.000    0.000 
#    0.000    6.000    0.000    0.000    0.000    0.000 
#
# Total GULP energy -178586.678748 kJ/mol
# GULP energy per Si atom -5580.833711 kJ/mol
# Density = 2.111989 g / cm^3
# Si number density = 21.168068 Si / 1000 Ang^3
#
#
#
# Elastic Constant Matrix: (Units=GPa)
#
#
# Indices 1 2 3 4 5 6 
#
# 1 189.5202 1.9196 132.3374 0.0000 12.5942 0.0000
# 2 1.9196 63.2060 3.7769 0.0000 1.2951 0.0000
# 3 132.3374 3.7769 224.7669 0.0000 11.9765 0.0000
# 4 0.0000 0.0000 0.0000 17.2141 0.0000 -25.5873
# 5 12.5942 1.2951 11.9765 0.0000 37.1930 0.0000
# 6 0.0000 0.0000 0.0000 -25.5873 0.0000 53.9147
#
#
#
# Elastic Compliance Matrix: (Units=1/GPa)
#
#
# Indices 1 2 3 4 5 6 
#
# 1 0.009029 0.000067 -0.005244 0.000000 -0.001371 0.000000
# 2 0.000067 0.015846 -0.000280 0.000000 -0.000484 0.000000
# 3 -0.005244 -0.000280 0.007576 0.000000 -0.000654 0.000000
# 4 0.000000 0.000000 0.000000 0.197211 0.000000 0.093594
# 5 -0.001371 -0.000484 -0.000654 0.000000 0.027578 0.000000
# 6 0.000000 0.000000 0.000000 0.093594 0.000000 0.062967
#
#
# Mechanical properties :
#
#
# Convention : Reuss Voigt Hill
#
# Bulk Modulus (GPa) = 46.43133 83.72899 65.08016
# Shear Modulus (GPa) = 14.77980 44.29497 29.53739
#
# Velocity S-wave (km/s) = 2.64524 4.57939 3.73952
# Velocity P-wave (km/s) = 5.59571 8.22200 7.03254
#
# Compressibility (1/GPa) = 0.02153718
#
# Stress axis : x y z
#
# Youngs Moduli (GPa) = 110.75912 63.10780 131.99401
#
# Poissons Ratio (x) = -0.00424 0.69216
# Poissons Ratio (y) = -0.00745 0.03697
# Poissons Ratio (z) = 0.58081 0.01767
#
# Static dielectric constant tensor:
#      x y z
#    x 1.739600 0.000000 0.010940 
#    y 0.000000 1.830070 0.000000 
#    z 0.010940 0.000000 1.755290 
# 
# From -- ./inp_files/93565.got.cif
#   From: 2010.05.17/outbox.cif.g08.bks.cpg/sg10_47_cif.got.tgz:93565.got - 2010.06.03 11:33:40.
