data_PCOD9148531
_publ_section_title
;
Structure prediction by ZEFSAII (Michael W. Deem and Ramdas Pophale) SiO2 
 PCOD9148531
Probable space group: P 2/M
;
_chemical_formula_sum "Si O2"
_cell_formula_units_Z 32
_cell_length_a 9.304678
_cell_length_b 11.226089
_cell_length_c 31.475404
_cell_angle_alpha 90.000000
_cell_angle_beta 29.154733
_cell_angle_gamma 90.000000
_cell_volume 1601.701356
_symmetry_space_group_name_H-M "P 2/M"
_symmetry_group_IT_number 10
_symmetry_cell_setting 'monoclinic'
loop_
_space_group_symop_operation_xyz
x,y,z
-x,y,-z
-x,-y,-z
x,-y,z
loop_
_atom_site_type_symbol
_atom_site_label
_atom_site_fract_x
_atom_site_fract_y
_atom_site_fract_z
Si Si1 0.631097 0.145475 0.843520
Si Si2 0.617247 0.857817 0.183287
Si Si3 0.129170 0.366843 0.513812
Si Si4 0.278411 0.375066 0.597702
Si Si5 0.767254 0.856864 0.632815
Si Si6 0.289532 0.133878 0.687446
Si Si7 0.284088 0.855060 0.017913
Si Si8 0.259289 0.124591 0.599337
O O1 0.508582 0.185720 0.829502
O O2 0.963735 0.189163 0.768179
O O3 0.649364 0.000000 0.836932
O O4 0.418997 0.176274 0.937243
O O5 0.408839 0.843300 0.277857
O O6 0.947196 0.812139 0.108091
O O7 0.651335 0.000000 0.168938
O O8 0.043915 0.500000 0.553641
O O9 0.015020 0.246162 0.565933
O O10 0.000000 0.364109 0.500000
O O11 0.485340 0.367238 0.424908
O O12 0.500000 0.378517 0.500000
O O13 0.114721 0.500000 0.642175
O O14 0.107565 0.252400 0.637659
O O15 0.542883 0.821574 0.652729
O O16 0.852962 0.000000 0.605726
O O17 0.393477 0.121288 0.611903
O O18 0.237992 0.000000 0.718105
O O19 0.281396 0.000000 0.020919
O O20 0.500000 0.814269 0.000000
O O21 0.500000 0.122348 0.500000
O O22 0.083990 0.000000 0.640863
#
# Coordination Sequence:
#
# PCOD9148531 Si02
#       8
#     4   4   4   4   4   4   4   4
#     4   9  16  26  41  62  93 130 162 197 242 288
#     4   9  17  27  40  64  96 127 160 199 242 287
#     4  10  21  36  52  70  94 125 162 203 244 286
#     4   9  18  32  48  65  86 114 149 189 232 277
#     4  10  20  33  49  70  98 128 159 198 243 292
#     4   9  17  29  43  62  89 120 154 193 238 284
#     4   9  15  24  40  61  90 131 170 198 233 287
#     4   9  17  28  44  66  90 117 153 195 236 282
#
# _framework density 19.978756000000001
#
# number of rings (size 3 to 8) (size 9 to 14) (size 15 to 20)
#    0.000    2.750    0.000    1.875    0.000    7.250 
#    0.000    3.750    0.000    0.000    0.000    0.000 
#    0.000    7.500    0.000    0.000    0.000    0.375 
#
# Total GULP energy -178192.656323 kJ/mol
# GULP energy per Si atom -5568.520510 kJ/mol
# Density = 1.993328 g / cm^3
# Si number density = 19.978756 Si / 1000 Ang^3
#
#
#
# Elastic Constant Matrix: (Units=GPa)
#
#
# Indices 1 2 3 4 5 6 
#
# 1 134.1680 14.8643 27.0426 0.0000 -4.8705 0.0000
# 2 14.8643 130.8000 35.7095 0.0000 -6.8931 0.0000
# 3 27.0426 35.7095 79.1160 0.0000 -3.7575 0.0000
# 4 0.0000 0.0000 0.0000 4.6787 0.0000 -1.9513
# 5 -4.8705 -6.8931 -3.7575 0.0000 28.9070 0.0000
# 6 0.0000 0.0000 0.0000 -1.9513 0.0000 11.9272
#
#
#
# Elastic Compliance Matrix: (Units=1/GPa)
#
#
# Indices 1 2 3 4 5 6 
#
# 1 0.008036 -0.000142 -0.002636 0.000000 0.000977 0.000000
# 2 -0.000142 0.008794 -0.003846 0.000000 0.001573 0.000000
# 3 -0.002636 -0.003846 0.015307 0.000000 0.000628 0.000000
# 4 0.000000 0.000000 0.000000 0.229387 0.000000 0.037528
# 5 0.000977 0.001573 0.000628 0.000000 0.035215 0.000000
# 6 0.000000 0.000000 0.000000 0.037528 0.000000 0.089981
#
#
# Mechanical properties :
#
#
# Convention : Reuss Voigt Hill
#
# Bulk Modulus (GPa) = 52.94336 55.47963 54.21150
# Shear Modulus (GPa) = 12.30724 26.86708 19.58716
#
# Velocity S-wave (km/s) = 2.48466 3.67111 3.13453
# Velocity P-wave (km/s) = 5.89820 6.76749 6.34774
#
# Compressibility (1/GPa) = 0.01888811
#
# Stress axis : x y z
#
# Youngs Moduli (GPa) = 124.44139 113.70967 65.33140
#
# Poissons Ratio (x) = 0.01615 0.17223
# Poissons Ratio (y) = 0.01767 0.25127
# Poissons Ratio (z) = 0.32806 0.43734
#
# Static dielectric constant tensor:
#      x y z
#    x 1.786370 0.000000 -0.005440 
#    y 0.000000 1.769820 0.000000 
#    z -0.005440 0.000000 1.711170 
# 
# From -- ./inp_files/94648.got.cif
#   From: 2010.05.17/outbox.cif.g08.bks.cpg/sg10_48_cif.got.tgz:94648.got - 2010.06.03 11:33:40.
