data_PCOD9148748
_publ_section_title
;
Structure prediction by ZEFSAII (Michael W. Deem and Ramdas Pophale) SiO2 
 PCOD9148748
Probable space group: P 2/M
;
_chemical_formula_sum "Si O2"
_cell_formula_units_Z 24
_cell_length_a 16.933888
_cell_length_b 12.653691
_cell_length_c 11.899192
_cell_angle_alpha 90.000000
_cell_angle_beta 152.234631
_cell_angle_gamma 90.000000
_cell_volume 1187.788850
_symmetry_space_group_name_H-M "P 2/M"
_symmetry_group_IT_number 10
_symmetry_cell_setting 'monoclinic'
loop_
_space_group_symop_operation_xyz
x,y,z
-x,y,-z
-x,-y,-z
x,-y,z
loop_
_atom_site_type_symbol
_atom_site_label
_atom_site_fract_x
_atom_site_fract_y
_atom_site_fract_z
Si Si1 0.370115 0.120312 0.233001
Si Si2 0.827940 0.316219 0.349413
Si Si3 0.512916 0.728884 0.817565
Si Si4 0.165361 0.618720 0.385393
Si Si5 0.276268 0.880913 0.655029
Si Si6 0.994131 0.168290 0.122051
O O1 0.500000 0.130799 0.500000
O O2 0.412823 0.205952 0.192566
O O3 0.385236 0.000000 0.207730
O O4 0.182709 0.138425 0.044888
O O5 0.827261 0.373097 0.469035
O O6 0.811718 0.191628 0.361255
O O7 0.000000 0.337902 0.500000
O O8 0.660550 0.336574 0.065004
O O9 0.351543 0.657834 0.581091
O O10 0.435149 0.815626 0.805967
O O11 0.128581 0.500000 0.304242
O O12 0.030596 0.705875 0.176046
O O13 0.145235 0.880872 0.385434
O O14 0.310592 0.000000 0.733129
O O15 0.000000 0.135570 0.000000
#
# Coordination Sequence:
#
# PCOD9148748 Si02
#       6
#     4   4   4   4   4   4
#     4  11  22  36  58  87 118 152 185 222 273 331
#     4  10  21  36  54  80 113 145 182 229 280 335
#     4  10  20  36  56  81 114 146 187 234 276 329
#     4  10  22  40  61  82 107 145 190 237 286 329
#     4  10  20  33  52  79 111 150 190 228 273 326
#     4  10  21  38  58  81 114 147 185 233 276 329
#
# _framework density 20.205611000000001
#
# number of rings (size 3 to 8) (size 9 to 14) (size 15 to 20)
#    0.000    2.167    0.000    7.000    0.000    7.000 
#    0.000    2.500    0.000    2.000    0.000    0.000 
#    0.000    0.000    0.000    0.000    0.000    0.000 
#
# Total GULP energy -134089.013266 kJ/mol
# GULP energy per Si atom -5587.042219 kJ/mol
# Density = 2.015962 g / cm^3
# Si number density = 20.205611 Si / 1000 Ang^3
#
#
#
# Elastic Constant Matrix: (Units=GPa)
#
#
# Indices 1 2 3 4 5 6 
#
# 1 90.0462 -16.3567 17.4249 0.0000 15.2753 0.0000
# 2 -16.3567 77.5893 -16.0861 0.0000 2.7882 0.0000
# 3 17.4249 -16.0861 89.3012 0.0000 9.7363 0.0000
# 4 0.0000 0.0000 0.0000 1.6559 0.0000 -1.1507
# 5 15.2753 2.7882 9.7363 0.0000 31.8082 0.0000
# 6 0.0000 0.0000 0.0000 -1.1507 0.0000 -3.5181
#
#
#
# Elastic Compliance Matrix: (Units=1/GPa)
#
#
# Indices 1 2 3 4 5 6 
#
# 1 0.012869 0.002641 -0.001382 0.000000 -0.005988 0.000000
# 2 0.002641 0.014052 0.002367 0.000000 -0.003225 0.000000
# 3 -0.001382 0.002367 0.012253 0.000000 -0.003294 0.000000
# 4 0.000000 0.000000 0.000000 0.492068 0.000000 -0.160945
# 5 -0.005988 -0.003225 -0.003294 0.000000 0.035605 0.000000
# 6 0.000000 0.000000 0.000000 -0.160945 0.000000 -0.231605
#
#
# Mechanical properties :
#
#
# Convention : Reuss Voigt Hill
#
# Bulk Modulus (GPa) = 21.53916 25.21120 23.37518
# Shear Modulus (GPa) = 14.55755 24.11952 19.33854
#
# Velocity S-wave (km/s) = 2.68707 3.45875 3.09704
# Velocity P-wave (km/s) = 4.50669 5.33432 4.93788
#
# Compressibility (1/GPa) = 0.04642707
#
# Stress axis : x y z
#
# Youngs Moduli (GPa) = 77.70883 71.16463 81.60994
#
# Poissons Ratio (x) = -0.18798 0.11281
# Poissons Ratio (y) = -0.20526 -0.19320
# Poissons Ratio (z) = 0.10741 -0.16848
#
# Static dielectric constant tensor:
#      x y z
#    x 1.684710 0.000000 -0.017360 
#    y 0.000000 1.719970 0.000000 
#    z -0.017360 0.000000 1.737100 
# 
# From -- ./inp_files/51698.got.cif
#   From: 2010.05.17/outbox.cif.g08.bks.cpg/sg10_26_cif.got.tgz:51698.got - 2010.06.03 11:33:40.
