data_PCOD9148460
_publ_section_title
;
Structure prediction by ZEFSAII (Michael W. Deem and Ramdas Pophale) SiO2 
 PCOD9148460
Probable space group: P 2/M
;
_chemical_formula_sum "Si O2"
_cell_formula_units_Z 32
_cell_length_a 20.963416
_cell_length_b 11.005916
_cell_length_c 22.023079
_cell_angle_alpha 90.000000
_cell_angle_beta 20.352581
_cell_angle_gamma 90.000000
_cell_volume 1767.222112
_symmetry_space_group_name_H-M "P 2/M"
_symmetry_group_IT_number 10
_symmetry_cell_setting 'monoclinic'
loop_
_space_group_symop_operation_xyz
x,y,z
-x,y,-z
-x,-y,-z
x,-y,z
loop_
_atom_site_type_symbol
_atom_site_label
_atom_site_fract_x
_atom_site_fract_y
_atom_site_fract_z
Si Si1 0.691962 0.143230 0.145581
Si Si2 0.894583 0.858782 0.533585
Si Si3 0.089247 0.855544 0.734515
Si Si4 0.691974 0.371617 0.948940
Si Si5 0.494344 0.365842 0.254796
Si Si6 0.460499 0.854736 0.468211
Si Si7 0.523796 0.131331 0.050596
Si Si8 0.083058 0.282597 0.612886
O O1 0.575747 0.246024 0.214389
O O2 0.630596 0.159164 0.270235
O O3 0.649210 0.000000 0.167978
O O4 0.904480 0.163965 0.938752
O O5 0.677569 0.855147 0.740868
O O6 0.926162 0.790368 0.442430
O O7 0.000000 0.811808 0.500000
O O8 0.950895 0.000000 0.476425
O O9 0.273274 0.808286 0.603735
O O10 0.070410 0.799748 0.684499
O O11 0.110120 0.000000 0.708507
O O12 0.645674 0.500000 0.958893
O O13 0.906449 0.367208 0.771288
O O14 0.581676 0.366792 0.110119
O O15 0.642054 0.248388 0.959544
O O16 0.535703 0.500000 0.245583
O O17 0.276946 0.349701 0.443324
O O18 0.500000 0.804792 0.500000
O O19 0.432047 0.000000 0.500360
O O20 0.601283 0.000000 0.002228
O O21 0.500000 0.125815 0.000000
#
# Coordination Sequence:
#
# PCOD9148460 Si02
#       8
#     4   4   4   4   4   4   4   4
#     4  10  20  36  58  87 120 153 195 238 283 341
#     4  10  21  36  56  86 119 151 189 240 297 347
#     4  10  20  32  54  89 119 151 195 239 289 342
#     4  11  24  40  58  84 116 149 190 239 295 351
#     4  11  23  39  58  84 117 152 193 242 291 343
#     4   9  18  33  55  86 125 159 189 234 288 340
#     4  10  21  39  61  84 112 149 193 239 292 352
#     4  12  21  37  60  83 112 154 196 243 285 353
#
# _framework density 18.107514999999999
#
# number of rings (size 3 to 8) (size 9 to 14) (size 15 to 20)
#    0.000    1.625    3.750    1.500    0.000    3.750 
#    0.000    2.500    0.000    2.250    0.000    0.875 
#    0.000    0.000    0.000    0.000    0.000    0.000 
#
# Total GULP energy -178392.450697 kJ/mol
# GULP energy per Si atom -5574.764084 kJ/mol
# Density = 1.806630 g / cm^3
# Si number density = 18.107515 Si / 1000 Ang^3
#
#
#
# Elastic Constant Matrix: (Units=GPa)
#
#
# Indices 1 2 3 4 5 6 
#
# 1 96.2031 50.0171 38.9624 0.0000 9.4222 0.0000
# 2 50.0171 97.9953 44.1299 0.0000 3.9202 0.0000
# 3 38.9624 44.1299 121.9283 0.0000 4.8727 0.0000
# 4 0.0000 0.0000 0.0000 72.5886 0.0000 -4.9832
# 5 9.4222 3.9202 4.8727 0.0000 19.1274 0.0000
# 6 0.0000 0.0000 0.0000 -4.9832 0.0000 -15.3011
#
#
#
# Elastic Compliance Matrix: (Units=1/GPa)
#
#
# Indices 1 2 3 4 5 6 
#
# 1 0.015270 -0.006539 -0.002289 0.000000 -0.005599 0.000000
# 2 -0.006539 0.015028 -0.003390 0.000000 0.001005 0.000000
# 3 -0.002289 -0.003390 0.010191 0.000000 -0.000774 0.000000
# 4 0.000000 0.000000 0.000000 0.013475 0.000000 -0.004388
# 5 -0.005599 0.001005 -0.000774 0.000000 0.055030 0.000000
# 6 0.000000 0.000000 0.000000 -0.004388 0.000000 -0.063925
#
#
# Mechanical properties :
#
#
# Convention : Reuss Voigt Hill
#
# Bulk Modulus (GPa) = 62.29282 64.70505 63.49894
# Shear Modulus (GPa) = 66.79523 27.48413 47.13968
#
# Velocity S-wave (km/s) = 6.08015 3.90016 5.10781
# Velocity P-wave (km/s) = 9.15245 7.48953 8.36243
#
# Compressibility (1/GPa) = 0.01605321
#
# Stress axis : x y z
#
# Youngs Moduli (GPa) = 65.48897 66.54053 98.12713
#
# Poissons Ratio (x) = 0.43510 0.22462
# Poissons Ratio (y) = 0.42823 0.33264
# Poissons Ratio (z) = 0.14991 0.22557
#
# Static dielectric constant tensor:
#      x y z
#    x 1.613240 0.000000 -0.012680 
#    y 0.000000 1.619670 0.000000 
#    z -0.012680 0.000000 1.631280 
# 
# From -- ./inp_files/86263.got.cif
#   From: 2010.05.17/outbox.cif.g08.bks.cpg/sg10_44_cif.got.tgz:86263.got - 2010.06.03 11:33:40.
