data_PCOD9148861
_publ_section_title
;
Structure prediction by ZEFSAII (Michael W. Deem and Ramdas Pophale) SiO2 
 PCOD9148861
Probable space group: P 2/M
;
_chemical_formula_sum "Si O2"
_cell_formula_units_Z 32
_cell_length_a 12.147488
_cell_length_b 8.340550
_cell_length_c 29.797717
_cell_angle_alpha 90.000000
_cell_angle_beta 152.857423
_cell_angle_gamma 90.000000
_cell_volume 1377.290160
_symmetry_space_group_name_H-M "P 2/M"
_symmetry_group_IT_number 10
_symmetry_cell_setting 'monoclinic'
loop_
_space_group_symop_operation_xyz
x,y,z
-x,y,-z
-x,-y,-z
x,-y,z
loop_
_atom_site_type_symbol
_atom_site_label
_atom_site_fract_x
_atom_site_fract_y
_atom_site_fract_z
Si Si1 0.856896 0.184538 0.359763
Si Si2 0.671069 0.312736 0.842892
Si Si3 0.641127 0.691759 0.597381
Si Si4 0.672063 0.690695 0.430267
Si Si5 0.884231 0.183000 0.266977
Si Si6 0.260470 0.812784 0.936819
Si Si7 0.238560 0.190161 0.218323
Si Si8 0.371255 0.313633 0.072158
O O1 0.614354 0.287486 0.269865
O O2 0.963115 0.197905 0.347669
O O3 0.063497 0.234428 0.469225
O O4 0.785124 0.000000 0.341206
O O5 0.728340 0.500000 0.862542
O O6 0.799775 0.229409 0.847974
O O7 0.716107 0.257269 0.910323
O O8 0.500000 0.723874 0.500000
O O9 0.679686 0.500000 0.614230
O O10 0.480766 0.741963 0.581265
O O11 0.896205 0.778443 0.685778
O O12 0.702028 0.500000 0.441734
O O13 0.495657 0.739214 0.326160
O O14 0.661684 0.300973 0.179681
O O15 0.799973 0.000000 0.229982
O O16 0.987272 0.745216 0.833836
O O17 0.249958 0.000000 0.919638
O O18 0.500000 0.741743 0.000000
O O19 0.303981 0.793611 0.005580
O O20 0.247358 0.000000 0.227284
O O21 0.301265 0.500000 0.039914
#
# Coordination Sequence:
#
# PCOD9148861 Si02
#       8
#     4   4   4   4   4   4   4   4
#     4  10  20  36  59  90 125 162 208 255 305 364
#     4  10  22  42  67  95 128 163 207 259 312 370
#     4  10  20  34  53  81 120 165 211 258 307 367
#     4  11  23  38  58  86 125 170 212 257 313 370
#     4  10  20  33  55  86 122 161 204 254 306 366
#     4  10  24  46  68  94 128 165 204 253 313 376
#     4  11  25  44  65  91 125 163 211 263 312 371
#     4  10  22  40  66  96 124 160 204 256 314 372
#
# _framework density 23.234031000000002
#
# number of rings (size 3 to 8) (size 9 to 14) (size 15 to 20)
#    0.000    1.750    1.250    2.250    1.750    6.000 
#    0.000    5.000    0.000    0.000    0.000    0.000 
#    0.000    0.000    0.000    0.000    0.000    0.000 
#
# Total GULP energy -178895.758869 kJ/mol
# GULP energy per Si atom -5590.492465 kJ/mol
# Density = 2.318115 g / cm^3
# Si number density = 23.234031 Si / 1000 Ang^3
#
#
#
# Elastic Constant Matrix: (Units=GPa)
#
#
# Indices 1 2 3 4 5 6 
#
# 1 90.0045 3.3952 17.6596 0.0000 2.0489 0.0000
# 2 3.3952 16.5737 -1.3972 0.0000 4.7699 0.0000
# 3 17.6596 -1.3972 72.4114 0.0000 7.6822 0.0000
# 4 0.0000 0.0000 0.0000 34.0647 0.0000 -5.5321
# 5 2.0489 4.7699 7.6822 0.0000 37.2872 0.0000
# 6 0.0000 0.0000 0.0000 -5.5321 0.0000 24.6477
#
#
#
# Elastic Compliance Matrix: (Units=1/GPa)
#
#
# Indices 1 2 3 4 5 6 
#
# 1 0.011788 -0.002755 -0.002962 0.000000 0.000315 0.000000
# 2 -0.002755 0.063602 0.002808 0.000000 -0.008563 0.000000
# 3 -0.002962 0.002808 0.014934 0.000000 -0.003273 0.000000
# 4 0.000000 0.000000 0.000000 0.030466 0.000000 0.006838
# 5 0.000315 -0.008563 -0.003273 0.000000 0.028571 0.000000
# 6 0.000000 0.000000 0.000000 0.006838 0.000000 0.042107
#
#
# Mechanical properties :
#
#
# Convention : Reuss Voigt Hill
#
# Bulk Modulus (GPa) = 11.83342 24.25610 18.04476
# Shear Modulus (GPa) = 22.17730 29.82203 25.99967
#
# Velocity S-wave (km/s) = 3.09288 3.58655 3.34883
# Velocity P-wave (km/s) = 4.22596 5.25488 4.76825
#
# Compressibility (1/GPa) = 0.08450641
#
# Stress axis : x y z
#
# Youngs Moduli (GPa) = 84.82918 15.72267 66.96284
#
# Poissons Ratio (x) = 0.04332 0.19831
# Poissons Ratio (y) = 0.23372 -0.18801
# Poissons Ratio (z) = 0.25122 -0.04414
#
# Static dielectric constant tensor:
#      x y z
#    x 1.888220 0.000000 0.013000 
#    y 0.000000 1.804690 0.000000 
#    z 0.013000 0.000000 1.907440 
# 
# From -- ./inp_files/95095.got.cif
#   From: 2010.05.17/outbox.cif.g08.bks.cpg/sg10_48_cif.got.tgz:95095.got - 2010.06.03 11:33:40.
