data_PCOD9148408
_publ_section_title
;
Structure prediction by ZEFSAII (Michael W. Deem and Ramdas Pophale) SiO2 
 PCOD9148408
Probable space group: P 2/M
;
_chemical_formula_sum "Si O2"
_cell_formula_units_Z 22
_cell_length_a 10.630040
_cell_length_b 8.436238
_cell_length_c 15.788006
_cell_angle_alpha 90.000000
_cell_angle_beta 41.126437
_cell_angle_gamma 90.000000
_cell_volume 931.223558
_symmetry_space_group_name_H-M "P 2/M"
_symmetry_group_IT_number 10
_symmetry_cell_setting 'monoclinic'
loop_
_space_group_symop_operation_xyz
x,y,z
-x,y,-z
-x,-y,-z
x,-y,z
loop_
_atom_site_type_symbol
_atom_site_label
_atom_site_fract_x
_atom_site_fract_y
_atom_site_fract_z
Si Si1 0.732421 0.177391 0.378066
Si Si2 0.998056 0.308675 0.102460
Si Si3 0.498910 0.500000 0.253497
Si Si4 0.680360 0.500000 0.843597
Si Si5 0.317669 0.500000 0.525876
Si Si6 0.632779 0.822455 0.131461
Si Si7 0.317518 0.833709 0.154704
O O1 0.500000 0.173372 0.500000
O O2 0.783597 0.333051 0.405963
O O3 0.831587 0.220882 0.238122
O O4 0.790713 0.000000 0.374106
O O5 0.997523 0.500000 0.117584
O O6 0.202038 0.225678 0.019726
O O7 0.000000 0.280603 0.000000
O O8 0.400810 0.500000 0.211059
O O9 0.375094 0.500000 0.399481
O O10 0.616652 0.664092 0.196397
O O11 0.784650 0.666074 0.803380
O O12 0.500000 0.500000 0.000000
O O13 0.500000 0.500000 0.500000
O O14 0.427381 0.832582 0.189429
O O15 0.672420 0.000000 0.145547
O O16 0.212490 0.000000 0.198260
O O17 0.500000 0.836279 0.000000
#
# Coordination Sequence:
#
# PCOD9148408 Si02
#       7
#     4   4   2   2   2   4   4
#     4  10  22  38  55  72  95 137 188 228 267 318
#     4  11  23  36  55  75 105 144 182 233 283 317
#     4  10  20  33  50  77 108 141 178 220 271 316
#     4   8  14  26  45  69 101 134 164 204 261 322
#     4  10  22  35  51  69 102 142 184 228 260 307
#     4  10  20  32  51  78 108 138 178 222 270 325
#     4   8  14  26  44  69 103 136 162 198 258 323
#
# _framework density 23.624832000000001
#
# number of rings (size 3 to 8) (size 9 to 14) (size 15 to 20)
#    0.000    2.364    1.818    0.545    5.091    2.182 
#    0.000    0.000    0.000    0.000    0.000    0.000 
#    0.000   46.545    0.000   94.727    0.000    0.000 
#
# Total GULP energy -122590.176145 kJ/mol
# GULP energy per Si atom -5572.280734 kJ/mol
# Density = 2.357106 g / cm^3
# Si number density = 23.624832 Si / 1000 Ang^3
#
#
#
# Elastic Constant Matrix: (Units=GPa)
#
#
# Indices 1 2 3 4 5 6 
#
# 1 56.9039 21.8963 41.5055 0.0000 -1.4032 0.0000
# 2 21.8963 328.7677 66.6227 0.0000 1.6461 0.0000
# 3 41.5055 66.6227 139.1371 0.0000 6.1717 0.0000
# 4 0.0000 0.0000 0.0000 8.7814 0.0000 6.4992
# 5 -1.4032 1.6461 6.1717 0.0000 39.3693 0.0000
# 6 0.0000 0.0000 0.0000 6.4992 0.0000 -3.8238
#
#
#
# Elastic Compliance Matrix: (Units=1/GPa)
#
#
# Indices 1 2 3 4 5 6 
#
# 1 0.022603 -0.000146 -0.006756 0.000000 0.001871 0.000000
# 2 -0.000146 0.003370 -0.001575 0.000000 0.000101 0.000000
# 3 -0.006756 -0.001575 0.010034 0.000000 -0.001748 0.000000
# 4 0.000000 0.000000 0.000000 0.050434 0.000000 0.085721
# 5 0.001871 0.000101 -0.001748 0.000000 0.025737 0.000000
# 6 0.000000 0.000000 0.000000 0.085721 0.000000 -0.115822
#
#
# Mechanical properties :
#
#
# Convention : Reuss Voigt Hill
#
# Bulk Modulus (GPa) = 52.48024 87.20642 69.84333
# Shear Modulus (GPa) = 254.31360 35.18433 144.74896
#
# Velocity S-wave (km/s) = 10.38655 3.86332 7.83600
# Velocity P-wave (km/s) = 12.88809 7.54278 10.55927
#
# Compressibility (1/GPa) = 0.01905479
#
# Stress axis : x y z
#
# Youngs Moduli (GPa) = 44.24101 296.74032 99.66103
#
# Poissons Ratio (x) = 0.04324 0.67331
# Poissons Ratio (y) = 0.00645 0.15693
# Poissons Ratio (z) = 0.29889 0.46725
#
# Static dielectric constant tensor:
#      x y z
#    x 2.105260 0.000000 -0.107560 
#    y 0.000000 1.967890 0.000000 
#    z -0.107560 0.000000 1.902450 
# 
# From -- ./inp_files/27257.got.cif
#   From: 2010.05.17/outbox.cif.g08.bks.cpg/sg10_14_cif.got.tgz:27257.got - 2010.06.03 11:33:40.
