data_PCOD9148932
_publ_section_title
;
Structure prediction by ZEFSAII (Michael W. Deem and Ramdas Pophale) SiO2 
 PCOD9148932
Probable space group: P 2/M
;
_chemical_formula_sum "Si O2"
_cell_formula_units_Z 28
_cell_length_a 14.344944
_cell_length_b 9.152391
_cell_length_c 16.546945
_cell_angle_alpha 90.000000
_cell_angle_beta 40.380793
_cell_angle_gamma 90.000000
_cell_volume 1407.458121
_symmetry_space_group_name_H-M "P 2/M"
_symmetry_group_IT_number 10
_symmetry_cell_setting 'monoclinic'
loop_
_space_group_symop_operation_xyz
x,y,z
-x,y,-z
-x,-y,-z
x,-y,z
loop_
_atom_site_type_symbol
_atom_site_label
_atom_site_fract_x
_atom_site_fract_y
_atom_site_fract_z
Si Si1 0.344292 0.827640 0.432424
Si Si2 0.927997 0.322392 0.963249
Si Si3 0.827162 0.164156 0.621516
Si Si4 0.588816 0.170002 0.023638
Si Si5 0.171334 0.332979 0.219684
Si Si6 0.592477 0.325018 0.182011
Si Si7 0.885373 0.670710 0.314461
O O1 0.248044 0.807941 0.414278
O O2 0.493372 0.745225 0.316349
O O3 0.252013 0.761256 0.566552
O O4 0.367114 0.000000 0.427674
O O5 0.925598 0.500000 0.959891
O O6 0.028179 0.275976 0.821966
O O7 0.760373 0.278571 0.073695
O O8 0.000000 0.279625 0.000000
O O9 0.796416 0.280100 0.711571
O O10 0.000000 0.161995 0.500000
O O11 0.781390 0.000000 0.678985
O O12 0.535333 0.264206 0.134107
O O13 0.587902 0.000000 0.046110
O O14 0.500000 0.190190 0.000000
O O15 0.745563 0.228089 0.896266
O O16 0.218054 0.500000 0.175171
O O17 0.003587 0.324157 0.308349
O O18 0.584403 0.500000 0.190328
O O19 0.846723 0.500000 0.328043
#
# Coordination Sequence:
#
# PCOD9148932 Si02
#       7
#     4   4   4   4   4   4   4
#     4  11  23  38  57  84 121 166 203 239 295 358
#     4   9  19  40  69  95 118 148 193 250 309 368
#     4  10  20  34  50  74 112 161 210 245 285 350
#     4  11  23  37  54  79 117 164 205 240 289 356
#     4  11  21  33  53  82 113 149 199 253 298 340
#     4  11  22  39  62  91 122 154 197 254 306 352
#     4  10  20  37  60  88 116 147 194 247 297 353
#
# _framework density 19.894020000000001
#
# number of rings (size 3 to 8) (size 9 to 14) (size 15 to 20)
#    0.000    1.571    2.857    2.571    0.000    6.571 
#    0.000    0.714    0.000    8.143    0.000    0.000 
#    0.000    0.000    0.000    0.000    0.000    0.000 
#
# Total GULP energy -156377.495502 kJ/mol
# GULP energy per Si atom -5584.910554 kJ/mol
# Density = 1.984874 g / cm^3
# Si number density = 19.894020 Si / 1000 Ang^3
#
#
#
# Elastic Constant Matrix: (Units=GPa)
#
#
# Indices 1 2 3 4 5 6 
#
# 1 60.0256 35.0284 40.9323 0.0000 5.0263 0.0000
# 2 35.0284 72.2375 73.1757 0.0000 -2.2289 0.0000
# 3 40.9323 73.1757 165.4795 0.0000 -4.3866 0.0000
# 4 0.0000 0.0000 0.0000 -137.9103 0.0000 -29.9448
# 5 5.0263 -2.2289 -4.3866 0.0000 18.6819 0.0000
# 6 0.0000 0.0000 0.0000 -29.9448 0.0000 5.3180
#
#
#
# Elastic Compliance Matrix: (Units=1/GPa)
#
#
# Indices 1 2 3 4 5 6 
#
# 1 0.024617 -0.010510 -0.001661 0.000000 -0.008267 0.000000
# 2 -0.010510 0.029566 -0.010370 0.000000 0.003920 0.000000
# 3 -0.001661 -0.010370 0.011088 0.000000 0.001813 0.000000
# 4 0.000000 0.000000 0.000000 -0.003262 0.000000 -0.018370
# 5 -0.008267 0.003920 0.001813 0.000000 0.056645 0.000000
# 6 0.000000 0.000000 0.000000 -0.018370 0.000000 0.084603
#
#
# Mechanical properties :
#
#
# Convention : Reuss Voigt Hill
#
# Bulk Modulus (GPa) = 49.53302 66.22395 57.87848
# Shear Modulus (GPa) = 19.60260 -12.87500 3.36380
#
# Velocity S-wave (km/s) = 3.14244 -2.54673 1.30174
# Velocity P-wave (km/s) = 6.17406 4.97120 5.60499
#
# Compressibility (1/GPa) = 0.02018855
#
# Stress axis : x y z
#
# Youngs Moduli (GPa) = 40.62154 33.82318 90.18900
#
# Poissons Ratio (x) = 0.35547 0.14980
# Poissons Ratio (y) = 0.42692 0.93530
# Poissons Ratio (z) = 0.06747 0.35076
#
# Static dielectric constant tensor:
#      x y z
#    x 1.699940 0.000000 -0.014260 
#    y 0.000000 1.670850 0.000000 
#    z -0.014260 0.000000 1.734230 
# 
# From -- ./inp_files/77699.got.cif
#   From: 2010.05.17/outbox.cif.g08.bks.cpg/sg10_39_cif.got.tgz:77699.got - 2010.06.03 11:33:40.
