data_PCOD9148593
_publ_section_title
;
Structure prediction by ZEFSAII (Michael W. Deem and Ramdas Pophale) SiO2 
 PCOD9148593
Probable space group: P 2/M
;
_chemical_formula_sum "Si O2"
_cell_formula_units_Z 32
_cell_length_a 25.779396
_cell_length_b 9.637286
_cell_length_c 22.351048
_cell_angle_alpha 90.000000
_cell_angle_beta 164.253278
_cell_angle_gamma 90.000000
_cell_volume 1506.995075
_symmetry_space_group_name_H-M "P 2/M"
_symmetry_group_IT_number 10
_symmetry_cell_setting 'monoclinic'
loop_
_space_group_symop_operation_xyz
x,y,z
-x,y,-z
-x,-y,-z
x,-y,z
loop_
_atom_site_type_symbol
_atom_site_label
_atom_site_fract_x
_atom_site_fract_y
_atom_site_fract_z
Si Si1 0.220998 0.840158 0.721000
Si Si2 0.904869 0.656663 0.522671
Si Si3 0.661778 0.159197 0.543184
Si Si4 0.330721 0.343337 0.948526
Si Si5 0.478628 0.842336 0.740280
Si Si6 0.955312 0.842336 0.693659
Si Si7 0.898967 0.159196 0.017562
Si Si8 0.220641 0.659024 0.220641
O O1 0.344760 0.756197 0.906845
O O2 0.000000 0.843185 0.500000
O O3 0.220602 0.756199 0.658521
O O4 0.279616 0.000000 0.779618
O O5 0.830380 0.500000 0.447854
O O6 0.105634 0.644743 0.711275
O O7 0.951813 0.733030 0.636710
O O8 0.532075 0.194120 0.341797
O O9 0.656990 0.260569 0.593848
O O10 0.881443 0.162015 0.762887
O O11 0.622439 0.000000 0.516948
O O12 0.404554 0.500000 0.022031
O O13 0.417964 0.266971 0.102863
O O14 0.260045 0.847006 0.520084
O O15 0.555763 0.000000 0.832296
O O16 0.087360 0.805876 0.897081
O O17 0.002684 0.000000 0.726150
O O18 0.833422 0.000000 0.938915
O O19 0.783278 0.260570 0.846421
O O20 0.277395 0.500000 0.277394
O O21 0.000000 0.661013 0.000000
#
# Coordination Sequence:
#
# PCOD9148593 Si02
#       8
#     4   4   4   4   4   4   4   4
#     4   9  17  31  52  73  92 119 156 196 234 271
#     4  10  20  33  50  73  99 125 154 190 233 281
#     4   8  14  25  40  58  84 118 152 187 228 271
#     4  10  20  33  50  73  99 125 154 190 233 281
#     4   9  18  32  49  70  96 126 160 196 234 277
#     4   9  18  32  49  70  96 126 160 196 234 277
#     4   8  14  25  40  58  84 118 152 187 228 271
#     4   9  15  21  33  57  86 115 150 189 226 268
#
# _framework density 21.234309
#
# number of rings (size 3 to 8) (size 9 to 14) (size 15 to 20)
#    0.000    3.000    0.000    3.000    0.000    6.000 
#    0.000    3.125    0.000    3.750    0.000    0.875 
#    0.000    7.000    0.000    0.000    0.000    0.000 
#
# Total GULP energy -178654.783552 kJ/mol
# GULP energy per Si atom -5582.961986 kJ/mol
# Density = 2.118598 g / cm^3
# Si number density = 21.234309 Si / 1000 Ang^3
#
#
#
# Elastic Constant Matrix: (Units=GPa)
#
#
# Indices 1 2 3 4 5 6 
#
# 1 78.2709 80.4585 47.6450 0.0000 -28.5776 0.0000
# 2 80.4585 221.6847 90.3709 0.0000 -78.7030 0.0000
# 3 47.6450 90.3709 86.2248 0.0000 -34.6511 0.0000
# 4 0.0000 0.0000 0.0000 -5.7358 0.0000 11.6697
# 5 -28.5776 -78.7030 -34.6511 0.0000 65.3502 0.0000
# 6 0.0000 0.0000 0.0000 11.6697 0.0000 -4.2681
#
#
#
# Elastic Compliance Matrix: (Units=1/GPa)
#
#
# Indices 1 2 3 4 5 6 
#
# 1 0.022426 -0.005544 -0.006765 0.000000 -0.000456 0.000000
# 2 -0.005544 0.012236 -0.006117 0.000000 0.009069 0.000000
# 3 -0.006765 -0.006117 0.022363 0.000000 0.001532 0.000000
# 4 0.000000 0.000000 0.000000 0.038210 0.000000 0.104472
# 5 -0.000456 0.009069 0.001532 0.000000 0.026837 0.000000
# 6 0.000000 0.000000 0.000000 0.104472 0.000000 0.051349
#
#
# Mechanical properties :
#
#
# Convention : Reuss Voigt Hill
#
# Bulk Modulus (GPa) = 49.57002 91.45879 70.51441
# Shear Modulus (GPa) = 23.04192 22.24966 22.64579
#
# Velocity S-wave (km/s) = 3.29770 3.24051 3.26923
# Velocity P-wave (km/s) = 6.15587 7.56082 6.89423
#
# Compressibility (1/GPa) = 0.02017348
#
# Stress axis : x y z
#
# Youngs Moduli (GPa) = 44.59091 81.72638 44.71753
#
# Poissons Ratio (x) = 0.45305 0.30253
# Poissons Ratio (y) = 0.24719 0.27353
# Poissons Ratio (z) = 0.30167 0.49990
#
# Static dielectric constant tensor:
#      x y z
#    x 1.790400 0.000000 0.054350 
#    y 0.000000 1.726250 0.000000 
#    z 0.054350 0.000000 1.783560 
# 
# From -- ./inp_files/86981.got.cif
#   From: 2010.05.17/outbox.cif.g08.bks.cpg/sg10_44_cif.got.tgz:86981.got - 2010.06.03 11:33:40.
