data_PCOD9148215
_publ_section_title
;
Structure prediction by ZEFSAII (Michael W. Deem and Ramdas Pophale) SiO2 
 PCOD9148215
Probable space group: P 2/M
;
_chemical_formula_sum "Si O2"
_cell_formula_units_Z 20
_cell_length_a 10.611704
_cell_length_b 11.902801
_cell_length_c 9.082572
_cell_angle_alpha 90.000000
_cell_angle_beta 115.667349
_cell_angle_gamma 90.000000
_cell_volume 1034.008447
_symmetry_space_group_name_H-M "P 2/M"
_symmetry_group_IT_number 10
_symmetry_cell_setting 'monoclinic'
loop_
_space_group_symop_operation_xyz
x,y,z
-x,y,-z
-x,-y,-z
x,-y,z
loop_
_atom_site_type_symbol
_atom_site_label
_atom_site_fract_x
_atom_site_fract_y
_atom_site_fract_z
Si Si1 0.862823 0.798181 0.231981
Si Si2 0.850210 0.000000 0.001157
Si Si3 0.384797 0.235512 0.332878
Si Si4 0.575087 0.000000 0.695167
Si Si5 0.178408 0.135254 0.471190
Si Si6 0.842802 0.366081 0.976063
O O1 0.788026 0.818874 0.349087
O O2 0.026301 0.818233 0.349659
O O3 0.828795 0.892819 0.093841
O O4 0.834169 0.681332 0.137376
O O5 0.738242 0.000000 0.816149
O O6 0.000000 0.000000 0.000000
O O7 0.500000 0.291142 0.500000
O O8 0.455056 0.131325 0.275649
O O9 0.283258 0.175879 0.400171
O O10 0.283356 0.311934 0.182908
O O11 0.500000 0.000000 0.500000
O O12 0.172153 0.000000 0.477381
O O13 0.834582 0.500000 0.964402
O O14 0.000000 0.331803 0.000000
#
# Coordination Sequence:
#
# PCOD9148215 Si02
#       6
#     4   2   4   2   4   4
#     4  11  20  34  56  90 121 149 189 244 297 345
#     4  12  18  28  59  89 108 150 193 233 293 344
#     4  11  22  37  60  86 121 155 190 237 293 349
#     4  10  20  31  53  85 117 146 182 230 288 338
#     4  11  20  34  56  93 128 150 182 236 304 362
#     4  11  23  40  62  85 111 152 208 251 278 330
#
# _framework density 19.342199999999998
#
# number of rings (size 3 to 8) (size 9 to 14) (size 15 to 20)
#    0.000    1.000    7.000    2.400    0.000    0.400 
#    0.000    4.000    0.000    4.800    0.000    0.000 
#    0.000    0.000    0.000    0.000    0.000    0.000 
#
# Total GULP energy -111410.336575 kJ/mol
# GULP energy per Si atom -5570.516829 kJ/mol
# Density = 1.929818 g / cm^3
# Si number density = 19.342200 Si / 1000 Ang^3
#
#
#
# Elastic Constant Matrix: (Units=GPa)
#
#
# Indices 1 2 3 4 5 6 
#
# 1 43.5396 12.8879 39.4391 0.0000 2.2848 0.0000
# 2 12.8879 91.1041 53.9588 0.0000 3.7781 0.0000
# 3 39.4391 53.9588 150.8879 0.0000 13.8688 0.0000
# 4 0.0000 0.0000 0.0000 28.3006 0.0000 3.4935
# 5 2.2848 3.7781 13.8688 0.0000 39.0142 0.0000
# 6 0.0000 0.0000 0.0000 3.4935 0.0000 19.4066
#
#
#
# Elastic Compliance Matrix: (Units=1/GPa)
#
#
# Indices 1 2 3 4 5 6 
#
# 1 0.030156 0.000528 -0.008171 0.000000 0.001087 0.000000
# 2 0.000528 0.013942 -0.005166 0.000000 0.000455 0.000000
# 3 -0.008171 -0.005166 0.010876 0.000000 -0.002887 0.000000
# 4 0.000000 0.000000 0.000000 0.036138 0.000000 -0.006505
# 5 0.001087 0.000455 -0.002887 0.000000 0.026550 0.000000
# 6 0.000000 0.000000 0.000000 -0.006505 0.000000 0.052700
#
#
# Mechanical properties :
#
#
# Convention : Reuss Voigt Hill
#
# Bulk Modulus (GPa) = 34.06333 55.34480 44.70406
# Shear Modulus (GPa) = 24.29959 29.29402 26.79680
#
# Velocity S-wave (km/s) = 3.54828 3.89590 3.72614
# Velocity P-wave (km/s) = 5.86823 6.99378 6.45558
#
# Compressibility (1/GPa) = 0.02935708
#
# Stress axis : x y z
#
# Youngs Moduli (GPa) = 33.16140 71.72330 91.94603
#
# Poissons Ratio (x) = -0.03791 0.75129
# Poissons Ratio (y) = -0.01753 0.47499
# Poissons Ratio (z) = 0.27096 0.37052
#
# Static dielectric constant tensor:
#      x y z
#    x 1.755100 0.000000 0.003720 
#    y 0.000000 1.713640 0.000000 
#    z 0.003720 0.000000 1.699210 
# 
# From -- ./inp_files/23675.got.cif
#   From: 2010.05.17/outbox.cif.g08.bks.cpg/sg10_12_cif.got.tgz:23675.got - 2010.06.03 11:33:40.
