data_PCOD9148167
_publ_section_title
;
Structure prediction by ZEFSAII (Michael W. Deem and Ramdas Pophale) SiO2 
 PCOD9148167
Probable space group: P 2/M
;
_chemical_formula_sum "Si O2"
_cell_formula_units_Z 32
_cell_length_a 6.688652
_cell_length_b 17.792785
_cell_length_c 17.325762
_cell_angle_alpha 90.000000
_cell_angle_beta 92.065764
_cell_angle_gamma 90.000000
_cell_volume 2060.594523
_symmetry_space_group_name_H-M "P 2/M"
_symmetry_group_IT_number 10
_symmetry_cell_setting 'monoclinic'
loop_
_space_group_symop_operation_xyz
x,y,z
-x,y,-z
-x,-y,-z
x,-y,z
loop_
_atom_site_type_symbol
_atom_site_label
_atom_site_fract_x
_atom_site_fract_y
_atom_site_fract_z
Si Si1 0.871551 0.414412 0.816610
Si Si2 0.442023 0.583429 0.329219
Si Si3 0.173819 0.329249 0.715746
Si Si4 0.596628 0.683229 0.924486
Si Si5 0.924432 0.588296 0.585742
Si Si6 0.741961 0.779764 0.164581
Si Si7 0.879553 0.178483 0.926198
Si Si8 0.485501 0.087511 0.093412
O O1 0.918452 0.500000 0.840202
O O2 0.721404 0.417169 0.741411
O O3 0.745827 0.370675 0.879953
O O4 0.068408 0.372568 0.786793
O O5 0.531036 0.500000 0.337395
O O6 0.613404 0.638928 0.306699
O O7 0.312467 0.599375 0.403760
O O8 0.209244 0.245286 0.747477
O O9 0.033839 0.351658 0.642016
O O10 0.416332 0.717727 0.870318
O O11 0.730031 0.755299 0.951217
O O12 0.500000 0.648795 0.000000
O O13 0.963290 0.500000 0.609898
O O14 0.000000 0.595851 0.500000
O O15 0.636520 0.858521 0.141531
O O16 0.955926 0.784287 0.125905
O O17 0.737033 0.115785 0.888143
O O18 0.000000 0.145991 0.000000
O O19 0.518121 0.000000 0.108958
O O20 0.500000 0.098848 0.000000
#
# Coordination Sequence:
#
# PCOD9148167 Si02
#       8
#     4   4   4   4   4   4   4   4
#     4  10  20  31  43  64  91 120 166 217 250 283
#     4   9  17  30  48  67  92 126 161 201 246 288
#     4  11  19  31  52  69  90 130 170 200 241 298
#     4  11  20  31  47  64  90 122 168 215 252 288
#     4   9  19  33  48  73 104 128 161 208 251 297
#     4  11  20  32  50  70  92 126 165 201 241 295
#     4  11  18  32  50  68  89 126 161 199 247 292
#     4  10  21  33  48  74 101 123 156 201 248 301
#
# _framework density 15.529498999999999
#
# number of rings (size 3 to 8) (size 9 to 14) (size 15 to 20)
#    0.000    1.750    5.000    2.625    0.000    1.500 
#    0.000    1.875    0.000    1.125    0.000    0.000 
#    0.000    0.500    0.000    3.000    0.000    0.875 
#
# Total GULP energy -178194.703586 kJ/mol
# GULP energy per Si atom -5568.584487 kJ/mol
# Density = 1.549415 g / cm^3
# Si number density = 15.529499 Si / 1000 Ang^3
#
#
#
# Elastic Constant Matrix: (Units=GPa)
#
#
# Indices 1 2 3 4 5 6 
#
# 1 80.7682 24.9546 23.7813 0.0000 -16.7352 0.0000
# 2 24.9546 74.7344 33.2146 0.0000 -8.2866 0.0000
# 3 23.7813 33.2146 62.6093 0.0000 -18.6229 0.0000
# 4 0.0000 0.0000 0.0000 8.1927 0.0000 0.5831
# 5 -16.7352 -8.2866 -18.6229 0.0000 25.2735 0.0000
# 6 0.0000 0.0000 0.0000 0.5831 0.0000 10.3715
#
#
#
# Elastic Compliance Matrix: (Units=1/GPa)
#
#
# Indices 1 2 3 4 5 6 
#
# 1 0.015629 -0.003598 -0.001665 0.000000 0.007942 0.000000
# 2 -0.003598 0.018377 -0.009347 0.000000 -0.003245 0.000000
# 3 -0.001665 -0.009347 0.026029 0.000000 0.015012 0.000000
# 4 0.000000 0.000000 0.000000 0.122551 0.000000 -0.006889
# 5 0.007942 -0.003245 0.015012 0.000000 0.054824 0.000000
# 6 0.000000 0.000000 0.000000 -0.006889 0.000000 0.096805
#
#
# Mechanical properties :
#
#
# Convention : Reuss Voigt Hill
#
# Bulk Modulus (GPa) = 32.45419 42.44590 37.45004
# Shear Modulus (GPa) = 13.37949 17.84495 15.61222
#
# Velocity S-wave (km/s) = 2.93841 3.39352 3.17413
# Velocity P-wave (km/s) = 5.69703 6.53807 6.13198
#
# Compressibility (1/GPa) = 0.03081267
#
# Stress axis : x y z
#
# Youngs Moduli (GPa) = 63.98519 54.41695 38.41905
#
# Poissons Ratio (x) = 0.19578 0.06398
# Poissons Ratio (y) = 0.23021 0.35912
# Poissons Ratio (z) = 0.10656 0.50866
#
# Static dielectric constant tensor:
#      x y z
#    x 1.551240 0.000000 0.001370 
#    y 0.000000 1.523280 0.000000 
#    z 0.001370 0.000000 1.542690 
# 
# From -- ./inp_files/13365.got.cif
#   From: 2010.05.17/outbox.cif.g08.bks.cpg/sg10_7_cif.got.tgz:13365.got - 2010.06.03 11:33:40.
