data_PCOD9148754
_publ_section_title
;
Structure prediction by ZEFSAII (Michael W. Deem and Ramdas Pophale) SiO2 
 PCOD9148754
Probable space group: P 2/M
;
_chemical_formula_sum "Si O2"
_cell_formula_units_Z 32
_cell_length_a 28.300508
_cell_length_b 8.367906
_cell_length_c 23.074428
_cell_angle_alpha 90.000000
_cell_angle_beta 162.066591
_cell_angle_gamma 90.000000
_cell_volume 1682.549265
_symmetry_space_group_name_H-M "P 2/M"
_symmetry_group_IT_number 10
_symmetry_cell_setting 'monoclinic'
loop_
_space_group_symop_operation_xyz
x,y,z
-x,y,-z
-x,-y,-z
x,-y,z
loop_
_atom_site_type_symbol
_atom_site_label
_atom_site_fract_x
_atom_site_fract_y
_atom_site_fract_z
Si Si1 0.039030 0.806911 0.919039
Si Si2 0.106610 0.807072 0.369576
Si Si3 0.659240 0.695382 0.156467
Si Si4 0.423599 0.191384 0.679811
Si Si5 0.726167 0.310201 0.610044
Si Si6 0.661832 0.193239 0.663725
Si Si7 0.043247 0.307461 0.424306
Si Si8 0.715089 0.306812 0.089640
O O1 0.005185 0.755911 0.813475
O O2 0.893945 0.752517 0.787474
O O3 0.039714 0.000000 0.919819
O O4 0.196229 0.749906 0.131160
O O5 0.278384 0.757225 0.550326
O O6 0.060199 0.740625 0.377353
O O7 0.104649 0.000000 0.370022
O O8 0.658424 0.500000 0.155886
O O9 0.807556 0.748553 0.365997
O O10 0.676159 0.746551 0.109557
O O11 0.500000 0.747831 0.000000
O O12 0.388242 0.252820 0.574103
O O13 0.423291 0.000000 0.678020
O O14 0.581377 0.251930 0.890683
O O15 0.728426 0.500000 0.613819
O O16 0.683286 0.245013 0.622766
O O17 0.500000 0.249699 0.500000
O O18 0.662916 0.000000 0.666673
O O19 0.042599 0.500000 0.427101
O O20 0.882833 0.250683 0.264629
O O21 0.717589 0.500000 0.093036
#
# Coordination Sequence:
#
# PCOD9148754 Si02
#       8
#     4   4   4   4   4   4   4   4
#     4   9  19  37  58  79 107 144 185 224 265 319
#     4   9  19  35  54  77 104 138 182 228 267 310
#     4   9  17  31  53  78 106 143 183 221 264 317
#     4  10  21  38  58  79 105 140 182 223 268 323
#     4  11  22  36  57  84 111 140 179 227 275 321
#     4  10  21  37  57  81 111 149 187 222 267 323
#     4  10  20  33  52  80 112 145 177 215 268 325
#     4  10  20  34  53  80 112 142 177 222 270 320
#
# _framework density 19.01876
#
# number of rings (size 3 to 8) (size 9 to 14) (size 15 to 20)
#    0.000    2.250    0.000    3.750    0.000    8.750 
#    0.000    1.875    0.000    3.750    0.000    0.000 
#    0.000    0.000    0.000    0.000    0.000    0.000 
#
# Total GULP energy -178688.861641 kJ/mol
# GULP energy per Si atom -5584.026926 kJ/mol
# Density = 1.897547 g / cm^3
# Si number density = 19.018760 Si / 1000 Ang^3
#
#
#
# Elastic Constant Matrix: (Units=GPa)
#
#
# Indices 1 2 3 4 5 6 
#
# 1 27.9289 -3.7661 129.6931 0.0000 -7.7266 0.0000
# 2 -3.7661 3.4802 20.9133 0.0000 -0.1976 0.0000
# 3 129.6931 20.9133 212.2589 0.0000 -2.1654 0.0000
# 4 0.0000 0.0000 0.0000 23.5282 0.0000 -5.6398
# 5 -7.7266 -0.1976 -2.1654 0.0000 17.7952 0.0000
# 6 0.0000 0.0000 0.0000 -5.6398 0.0000 26.5173
#
#
#
# Elastic Compliance Matrix: (Units=1/GPa)
#
#
# Indices 1 2 3 4 5 6 
#
# 1 -0.004060 -0.047300 0.007127 0.000000 -0.001421 0.000000
# 2 -0.047300 0.153359 0.013616 0.000000 -0.017178 0.000000
# 3 0.007127 0.013616 -0.000953 0.000000 0.003130 0.000000
# 4 0.000000 0.000000 0.000000 0.044785 0.000000 0.009525
# 5 -0.001421 -0.017178 0.003130 0.000000 0.055768 0.000000
# 6 0.000000 0.000000 0.000000 0.009525 0.000000 0.039737
#
#
# Mechanical properties :
#
#
# Convention : Reuss Voigt Hill
#
# Bulk Modulus (GPa) = 10.50081 59.70540 35.10311
# Shear Modulus (GPa) = 13.38701 20.02332 16.70517
#
# Velocity S-wave (km/s) = 2.65596 3.24824 2.96692
# Velocity P-wave (km/s) = 3.86507 6.74753 5.49854
#
# Compressibility (1/GPa) = 0.09523071
#
# Stress axis : x y z
#
# Youngs Moduli (GPa) = -246.30123 6.52063 -1049.46917
#
# Poissons Ratio (x) = 0.30843 7.47919
# Poissons Ratio (y) = -11.65016 14.28949
# Poissons Ratio (z) = 1.75530 -0.08878
#
# Static dielectric constant tensor:
#      x y z
#    x 1.627100 0.000000 0.002000 
#    y 0.000000 1.662460 0.000000 
#    z 0.002000 0.000000 1.653420 
# 
# From -- ./inp_files/87064.got.cif
#   From: 2010.05.17/outbox.cif.g08.bks.cpg/sg10_44_cif.got.tgz:87064.got - 2010.06.03 11:33:40.
