data_PCOD9148311
_publ_section_title
;
Structure prediction by ZEFSAII (Michael W. Deem and Ramdas Pophale) SiO2 
 PCOD9148311
Probable space group: P 2/M
;
_chemical_formula_sum "Si O2"
_cell_formula_units_Z 28
_cell_length_a 20.800561
_cell_length_b 9.191056
_cell_length_c 18.784819
_cell_angle_alpha 90.000000
_cell_angle_beta 153.467635
_cell_angle_gamma 90.000000
_cell_volume 1604.229896
_symmetry_space_group_name_H-M "P 2/M"
_symmetry_group_IT_number 10
_symmetry_cell_setting 'monoclinic'
loop_
_space_group_symop_operation_xyz
x,y,z
-x,y,-z
-x,-y,-z
x,-y,z
loop_
_atom_site_type_symbol
_atom_site_label
_atom_site_fract_x
_atom_site_fract_y
_atom_site_fract_z
Si Si1 0.175704 0.833007 0.172027
Si Si2 0.656342 0.173895 0.085257
Si Si3 0.346677 0.674320 0.776253
Si Si4 0.819454 0.667223 0.682452
Si Si5 0.845204 0.326069 0.552314
Si Si6 0.150833 0.172274 0.862572
Si Si7 0.170463 0.667630 0.024764
O O1 0.226291 0.764411 0.296501
O O2 0.220841 0.742524 0.147432
O O3 0.219136 0.000000 0.208415
O O4 0.000000 0.828873 0.000000
O O5 0.718588 0.250864 0.217735
O O6 0.752013 0.197385 0.110365
O O7 0.641128 0.000000 0.081396
O O8 0.501760 0.249850 0.921271
O O9 0.361204 0.500000 0.800683
O O10 0.253369 0.700289 0.613450
O O11 0.777077 0.500000 0.653034
O O12 0.773992 0.713396 0.557979
O O13 0.994823 0.670943 0.853229
O O14 0.875317 0.500000 0.586342
O O15 0.994204 0.240701 0.693819
O O16 0.137925 0.000000 0.862064
O O17 0.211707 0.247380 0.994156
O O18 0.214660 0.500000 0.065121
#
# Coordination Sequence:
#
# PCOD9148311 Si02
#       7
#     4   4   4   4   4   4   4
#     4   9  15  22  35  58  88 121 157 192 227 274
#     4  10  21  36  52  72  98 127 159 197 241 287
#     4  10  20  35  55  75  94 123 163 201 237 283
#     4   8  14  25  39  58  88 122 153 188 232 278
#     4   9  19  33  49  72 100 127 158 199 243 284
#     4  10  20  32  48  71  99 129 160 196 240 288
#     4   9  16  26  41  61  89 124 158 194 236 278
#
# _framework density 17.453856999999999
#
# number of rings (size 3 to 8) (size 9 to 14) (size 15 to 20)
#    0.000    2.714    0.000    3.857    0.000    9.143 
#    0.000    2.857    0.000    0.000    0.000    1.000 
#    0.000    8.000    0.000    0.000    0.000    0.000 
#
# Total GULP energy -156052.573629 kJ/mol
# GULP energy per Si atom -5573.306201 kJ/mol
# Density = 1.741413 g / cm^3
# Si number density = 17.453857 Si / 1000 Ang^3
#
#
#
# Elastic Constant Matrix: (Units=GPa)
#
#
# Indices 1 2 3 4 5 6 
#
# 1 116.8599 86.4957 77.6799 0.0000 -59.7379 0.0000
# 2 86.4957 122.8508 56.9509 0.0000 -37.1898 0.0000
# 3 77.6799 56.9509 33.1081 0.0000 -23.2045 0.0000
# 4 0.0000 0.0000 0.0000 6.3590 0.0000 -12.1063
# 5 -59.7379 -37.1898 -23.2045 0.0000 23.9422 0.0000
# 6 0.0000 0.0000 0.0000 -12.1063 0.0000 29.7224
#
#
#
# Elastic Compliance Matrix: (Units=1/GPa)
#
#
# Indices 1 2 3 4 5 6 
#
# 1 -0.006467 -0.012233 0.036133 0.000000 -0.000117 0.000000
# 2 -0.012233 0.018667 -0.013965 0.000000 -0.015060 0.000000
# 3 0.036133 -0.013965 0.054354 0.000000 0.121142 0.000000
# 4 0.000000 0.000000 0.000000 0.700296 0.000000 0.285240
# 5 -0.000117 -0.015060 0.121142 0.000000 0.135493 0.000000
# 6 0.000000 0.000000 0.000000 0.285240 0.000000 0.149827
#
#
# Mechanical properties :
#
#
# Convention : Reuss Voigt Hill
#
# Bulk Modulus (GPa) = 11.57067 79.45242 45.51154
# Shear Modulus (GPa) = 4.71206 15.45087 10.08146
#
# Velocity S-wave (km/s) = 1.64487 2.97853 2.40595
# Velocity P-wave (km/s) = 3.20174 7.57952 5.81808
#
# Compressibility (1/GPa) = 0.08642543
#
# Stress axis : x y z
#
# Youngs Moduli (GPa) = -154.63664 53.56919 18.39803
#
# Poissons Ratio (x) = 0.65530 -0.66478
# Poissons Ratio (y) = -1.89163 0.25692
# Poissons Ratio (z) = 5.58748 0.74808
#
# Static dielectric constant tensor:
#      x y z
#    x 1.596970 0.000000 -0.023100 
#    y 0.000000 1.585500 0.000000 
#    z -0.023100 0.000000 1.585560 
# 
# From -- ./inp_files/38065.got.cif
#   From: 2010.05.17/outbox.cif.g08.bks.cpg/sg10_20_cif.got.tgz:38065.got - 2010.06.03 11:33:40.
