data_PCOD9148907
_publ_section_title
;
Structure prediction by ZEFSAII (Michael W. Deem and Ramdas Pophale) SiO2 
 PCOD9148907
Probable space group: P 2/M
;
_chemical_formula_sum "Si O2"
_cell_formula_units_Z 30
_cell_length_a 16.675012
_cell_length_b 7.433496
_cell_length_c 12.419163
_cell_angle_alpha 90.000000
_cell_angle_beta 121.367033
_cell_angle_gamma 90.000000
_cell_volume 1314.417700
_symmetry_space_group_name_H-M "P 2/M"
_symmetry_group_IT_number 10
_symmetry_cell_setting 'monoclinic'
loop_
_space_group_symop_operation_xyz
x,y,z
-x,y,-z
-x,-y,-z
x,-y,z
loop_
_atom_site_type_symbol
_atom_site_label
_atom_site_fract_x
_atom_site_fract_y
_atom_site_fract_z
Si Si1 0.545510 0.218102 0.645621
Si Si2 0.380409 0.210601 0.680756
Si Si3 0.763068 0.293732 0.811861
Si Si4 0.604099 0.703147 0.069897
Si Si5 0.788483 0.719526 0.071563
Si Si6 0.207759 0.284403 0.401932
Si Si7 0.105405 0.287803 0.534754
Si Si8 0.847109 0.000000 0.268675
O O1 0.500000 0.271897 0.500000
O O2 0.477009 0.275745 0.693738
O O3 0.650035 0.288892 0.729276
O O4 0.549682 0.000000 0.649560
O O5 0.363752 0.300996 0.783612
O O6 0.300108 0.231627 0.534496
O O7 0.390192 0.000000 0.710914
O O8 0.795856 0.500000 0.834856
O O9 0.794916 0.210082 0.720626
O O10 0.790992 0.225556 0.948626
O O11 0.591099 0.500000 0.019507
O O12 0.687735 0.778846 0.054684
O O13 0.500000 0.788486 0.000000
O O14 0.797227 0.500000 0.088789
O O15 0.860848 0.838109 0.188999
O O16 0.213238 0.500000 0.396285
O O17 0.121780 0.243456 0.421174
O O18 0.125277 0.500000 0.564715
O O19 0.167707 0.156225 0.648586
O O20 0.000000 0.249225 0.500000
#
# Coordination Sequence:
#
# PCOD9148907 Si02
#       8
#     4   4   4   4   4   4   4   2
#     4  10  20  34  48  75 118 159 203 256 312 359
#     4  11  22  33  51  81 114 152 195 254 308 358
#     4  10  21  38  59  83 117 163 212 257 305 357
#     4  10  21  37  53  72 108 156 209 264 311 359
#     4  10  23  40  58  88 125 164 213 262 303 358
#     4  10  21  37  61  90 116 151 199 246 308 373
#     4  10  23  44  70 101 133 156 188 249 313 378
#     4  12  23  40  67  97 121 166 201 239 301 382
#
# _framework density 22.823796999999999
#
# number of rings (size 3 to 8) (size 9 to 14) (size 15 to 20)
#    0.000    1.733    1.333    2.600    4.667    4.800 
#    0.000    0.000    0.000    1.600    0.000    4.667 
#    0.000    0.000    0.000    0.000    0.000    0.000 
#
# Total GULP energy -167084.852583 kJ/mol
# GULP energy per Si atom -5569.495086 kJ/mol
# Density = 2.277185 g / cm^3
# Si number density = 22.823797 Si / 1000 Ang^3
#
#
#
# Elastic Constant Matrix: (Units=GPa)
#
#
# Indices 1 2 3 4 5 6 
#
# 1 107.0827 20.2633 35.2969 0.0000 -36.0429 0.0000
# 2 20.2633 89.9531 20.4432 0.0000 -10.5105 0.0000
# 3 35.2969 20.4432 99.9688 0.0000 -52.4064 0.0000
# 4 0.0000 0.0000 0.0000 -40.1752 0.0000 31.2926
# 5 -36.0429 -10.5105 -52.4064 0.0000 43.5991 0.0000
# 6 0.0000 0.0000 0.0000 31.2926 0.0000 -19.9155
#
#
#
# Elastic Compliance Matrix: (Units=1/GPa)
#
#
# Indices 1 2 3 4 5 6 
#
# 1 0.013607 -0.002105 0.003399 0.000000 0.014826 0.000000
# 2 -0.002105 0.011985 -0.002988 0.000000 -0.002443 0.000000
# 3 0.003399 -0.002988 0.028413 0.000000 0.036242 0.000000
# 4 0.000000 0.000000 0.000000 0.111184 0.000000 0.174700
# 5 0.014826 -0.002443 0.036242 0.000000 0.078167 0.000000
# 6 0.000000 0.000000 0.000000 0.174700 0.000000 0.224289
#
#
# Mechanical properties :
#
#
# Convention : Reuss Voigt Hill
#
# Bulk Modulus (GPa) = 19.75681 49.89016 34.82349
# Shear Modulus (GPa) = 10.24785 11.43511 10.84148
#
# Velocity S-wave (km/s) = 2.12126 2.24077 2.18183
# Velocity P-wave (km/s) = 3.83075 5.34799 4.65165
#
# Compressibility (1/GPa) = 0.05061545
#
# Stress axis : x y z
#
# Youngs Moduli (GPa) = 73.49092 83.43901 35.19461
#
# Poissons Ratio (x) = 0.17566 -0.11961
# Poissons Ratio (y) = 0.15471 0.10517
# Poissons Ratio (z) = -0.24976 0.24934
#
# Static dielectric constant tensor:
#      x y z
#    x 1.911260 0.000000 0.017430 
#    y 0.000000 1.928640 0.000000 
#    z 0.017430 0.000000 1.878730 
# 
# From -- ./inp_files/53102.got.cif
#   From: 2010.05.17/outbox.cif.g08.bks.cpg/sg10_27_cif.got.tgz:53102.got - 2010.06.03 11:33:40.
