data_PCOD9148891
_publ_section_title
;
Structure prediction by ZEFSAII (Michael W. Deem and Ramdas Pophale) SiO2 
 PCOD9148891
Probable space group: P 2/M
;
_chemical_formula_sum "Si O2"
_cell_formula_units_Z 30
_cell_length_a 11.569785
_cell_length_b 7.518563
_cell_length_c 15.946727
_cell_angle_alpha 90.000000
_cell_angle_beta 114.099292
_cell_angle_gamma 90.000000
_cell_volume 1266.269026
_symmetry_space_group_name_H-M "P 2/M"
_symmetry_group_IT_number 10
_symmetry_cell_setting 'monoclinic'
loop_
_space_group_symop_operation_xyz
x,y,z
-x,y,-z
-x,-y,-z
x,-y,z
loop_
_atom_site_type_symbol
_atom_site_label
_atom_site_fract_x
_atom_site_fract_y
_atom_site_fract_z
Si Si1 0.003836 0.709939 0.216306
Si Si2 0.654316 0.286299 0.281852
Si Si3 0.597708 0.707494 0.714060
Si Si4 0.709589 0.286144 0.113505
Si Si5 0.169170 0.712220 0.102362
Si Si6 0.249470 0.000000 0.000390
Si Si7 0.139134 0.207737 0.532760
Si Si8 0.756458 0.201800 0.603757
O O1 0.006410 0.500000 0.236029
O O2 0.061079 0.733128 0.140410
O O3 0.105930 0.793424 0.309846
O O4 0.858100 0.766062 0.175394
O O5 0.663478 0.500000 0.290657
O O6 0.538688 0.216158 0.304111
O O7 0.638307 0.246600 0.179310
O O8 0.784570 0.217947 0.358997
O O9 0.587695 0.500000 0.730070
O O10 0.703960 0.773068 0.809932
O O11 0.654885 0.720273 0.638239
O O12 0.703455 0.500000 0.094994
O O13 0.672865 0.159071 0.027203
O O14 0.173596 0.500000 0.082226
O O15 0.167326 0.843087 0.024713
O O16 0.221589 0.286016 0.480759
O O17 0.000000 0.287425 0.500000
O O18 0.122108 0.000000 0.504796
O O19 0.713685 0.000000 0.580510
#
# Coordination Sequence:
#
# PCOD9148891 Si02
#       8
#     4   4   4   4   4   2   4   4
#     4   9  19  36  58  83 121 161 192 243 299 351
#     4  10  22  41  63  84 113 158 203 245 295 349
#     4   9  20  40  62  83 116 157 195 247 301 346
#     4  10  23  40  57  87 122 156 204 249 299 365
#     4   9  20  38  58  86 120 153 197 248 303 362
#     4  12  24  37  63  90 115 160 195 250 313 359
#     4  10  22  38  57  88 127 159 191 239 294 347
#     4  10  20  33  57  90 119 154 201 246 289 348
#
# _framework density 23.691647
#
# number of rings (size 3 to 8) (size 9 to 14) (size 15 to 20)
#    0.000    2.267    0.000    2.400    5.600    3.467 
#    0.000    6.000    0.000    3.200    0.000    0.000 
#    0.000    0.000    0.000    0.000    0.000    0.000 
#
# Total GULP energy -167070.096121 kJ/mol
# GULP energy per Si atom -5569.003204 kJ/mol
# Density = 2.363772 g / cm^3
# Si number density = 23.691647 Si / 1000 Ang^3
#
#
#
# Elastic Constant Matrix: (Units=GPa)
#
#
# Indices 1 2 3 4 5 6 
#
# 1 66.7818 6.0582 -6.9436 0.0000 0.1986 0.0000
# 2 6.0582 80.5185 22.2399 0.0000 -11.6204 0.0000
# 3 -6.9436 22.2399 36.9336 0.0000 -9.9690 0.0000
# 4 0.0000 0.0000 0.0000 18.2392 0.0000 -18.0324
# 5 0.1986 -11.6204 -9.9690 0.0000 20.9055 0.0000
# 6 0.0000 0.0000 0.0000 -18.0324 0.0000 1.1609
#
#
#
# Elastic Compliance Matrix: (Units=1/GPa)
#
#
# Indices 1 2 3 4 5 6 
#
# 1 0.015655 -0.002328 0.004540 0.000000 0.000722 0.000000
# 2 -0.002328 0.015638 -0.008610 0.000000 0.004609 0.000000
# 3 0.004540 -0.008610 0.036510 0.000000 0.012581 0.000000
# 4 0.000000 0.000000 0.000000 -0.003819 0.000000 -0.059318
# 5 0.000722 0.004609 0.012581 0.000000 0.056389 0.000000
# 6 0.000000 0.000000 0.000000 -0.059318 0.000000 -0.059998
#
#
# Mechanical properties :
#
#
# Convention : Reuss Voigt Hill
#
# Bulk Modulus (GPa) = 18.17959 25.21589 21.69774
# Shear Modulus (GPa) = 54.64127 18.91973 36.78050
#
# Velocity S-wave (km/s) = 4.80766 2.82899 3.94441
# Velocity P-wave (km/s) = 6.20550 4.61924 5.47017
#
# Compressibility (1/GPa) = 0.05500675
#
# Stress axis : x y z
#
# Youngs Moduli (GPa) = 63.87671 63.94699 27.39001
#
# Poissons Ratio (x) = 0.14884 -0.12434
# Poissons Ratio (y) = 0.14868 0.23583
# Poissons Ratio (z) = -0.28998 0.55060
#
# Static dielectric constant tensor:
#      x y z
#    x 1.942140 0.000000 0.008550 
#    y 0.000000 1.894400 0.000000 
#    z 0.008550 0.000000 1.931270 
# 
# From -- ./inp_files/63876.got.cif
#   From: 2010.05.17/outbox.cif.g08.bks.cpg/sg10_32_cif.got.tgz:63876.got - 2010.06.03 11:33:40.
