data_PCOD9148079
_publ_section_title
;
Structure prediction by ZEFSAII (Michael W. Deem and Ramdas Pophale) SiO2 
 PCOD9148079
Probable space group: P 2/M
;
_chemical_formula_sum "Si O2"
_cell_formula_units_Z 28
_cell_length_a 10.787578
_cell_length_b 14.201705
_cell_length_c 10.083747
_cell_angle_alpha 90.000000
_cell_angle_beta 112.656766
_cell_angle_gamma 90.000000
_cell_volume 1425.632611
_symmetry_space_group_name_H-M "P 2/M"
_symmetry_group_IT_number 10
_symmetry_cell_setting 'monoclinic'
loop_
_space_group_symop_operation_xyz
x,y,z
-x,y,-z
-x,-y,-z
x,-y,z
loop_
_atom_site_type_symbol
_atom_site_label
_atom_site_fract_x
_atom_site_fract_y
_atom_site_fract_z
Si Si1 0.804601 0.608222 0.965454
Si Si2 0.494452 0.608680 0.851595
Si Si3 0.879768 0.715620 0.262876
Si Si4 0.173673 0.721870 0.280477
Si Si5 0.258546 0.612462 0.567413
Si Si6 0.841856 0.893920 0.393176
Si Si7 0.659307 0.109574 0.582140
O O1 0.850475 0.500000 0.994309
O O2 0.646208 0.606721 0.866672
O O3 0.863517 0.665634 0.867315
O O4 0.823872 0.660087 0.113110
O O5 0.446983 0.500000 0.853430
O O6 0.392704 0.645709 0.700314
O O7 0.500000 0.653857 0.000000
O O8 0.857556 0.649407 0.381685
O O9 0.810651 0.813522 0.274194
O O10 0.032355 0.742009 0.292721
O O11 0.249610 0.656980 0.418964
O O12 0.264663 0.814064 0.295219
O O13 0.254543 0.500000 0.554182
O O14 0.742896 0.882197 0.478334
O O15 0.000000 0.884697 0.500000
O O16 0.824966 0.000000 0.335492
O O17 0.500000 0.129224 0.500000
O O18 0.671783 0.000000 0.630357
#
# Coordination Sequence:
#
# PCOD9148079 Si02
#       7
#     4   4   4   4   4   4   4
#     4  11  25  41  59  84 131 181 214 262 325 380
#     4   9  18  37  59  81 109 159 218 259 312 374
#     4  12  22  39  60  90 123 171 218 252 319 392
#     4  12  25  38  59  94 124 162 219 266 319 383
#     4  11  22  36  60  89 122 161 217 275 310 368
#     4  10  19  38  67  95 123 157 207 271 328 380
#     4  10  22  41  66  96 128 161 201 263 339 394
#
# _framework density 19.640402999999999
#
# number of rings (size 3 to 8) (size 9 to 14) (size 15 to 20)
#    0.000    1.286    4.286    1.714    2.000    3.429 
#    0.000    2.857    0.000    1.714    0.000    4.000 
#    0.000    0.000    0.000    0.000    0.000    0.000 
#
# Total GULP energy -156235.561642 kJ/mol
# GULP energy per Si atom -5579.841487 kJ/mol
# Density = 1.959570 g / cm^3
# Si number density = 19.640403 Si / 1000 Ang^3
#
#
#
# Elastic Constant Matrix: (Units=GPa)
#
#
# Indices 1 2 3 4 5 6 
#
# 1 81.8483 20.4699 10.2268 0.0000 12.5951 0.0000
# 2 20.4699 136.1550 52.3248 0.0000 -2.9129 0.0000
# 3 10.2268 52.3248 104.4433 0.0000 -1.8147 0.0000
# 4 0.0000 0.0000 0.0000 29.1396 0.0000 -1.8483
# 5 12.5951 -2.9129 -1.8147 0.0000 30.0695 0.0000
# 6 0.0000 0.0000 0.0000 -1.8483 0.0000 22.4839
#
#
#
# Elastic Compliance Matrix: (Units=1/GPa)
#
#
# Indices 1 2 3 4 5 6 
#
# 1 0.013694 -0.002020 -0.000432 0.000000 -0.005958 0.000000
# 2 -0.002020 0.009405 -0.004488 0.000000 0.001486 0.000000
# 3 -0.000432 -0.004488 0.011873 0.000000 0.000463 0.000000
# 4 0.000000 0.000000 0.000000 0.034497 0.000000 0.002836
# 5 -0.005958 0.001486 0.000463 0.000000 0.035924 0.000000
# 6 0.000000 0.000000 0.000000 0.002836 0.000000 0.044709
#
#
# Mechanical properties :
#
#
# Convention : Reuss Voigt Hill
#
# Bulk Modulus (GPa) = 47.41354 54.27663 50.84509
# Shear Modulus (GPa) = 29.23742 32.30028 30.76885
#
# Velocity S-wave (km/s) = 3.86247 4.05975 3.96234
# Velocity P-wave (km/s) = 6.63964 7.04773 6.84673
#
# Compressibility (1/GPa) = 0.02109102
#
# Stress axis : x y z
#
# Youngs Moduli (GPa) = 73.02617 106.32800 84.22168
#
# Poissons Ratio (x) = 0.21479 0.03641
# Poissons Ratio (y) = 0.14752 0.37799
# Poissons Ratio (z) = 0.03157 0.47721
#
# Static dielectric constant tensor:
#      x y z
#    x 1.750610 0.000000 0.010060 
#    y 0.000000 1.715870 0.000000 
#    z 0.010060 0.000000 1.687280 
# 
# From -- ./inp_files/25392.got.cif
#   From: 2010.05.17/outbox.cif.g08.bks.cpg/sg10_13_cif.got.tgz:25392.got - 2010.06.03 11:33:40.
