data_PCOD9148256
_publ_section_title
;
Structure prediction by ZEFSAII (Michael W. Deem and Ramdas Pophale) SiO2 
 PCOD9148256
Probable space group: P 2/M
;
_chemical_formula_sum "Si O2"
_cell_formula_units_Z 30
_cell_length_a 25.764885
_cell_length_b 15.191914
_cell_length_c 20.625519
_cell_angle_alpha 90.000000
_cell_angle_beta 13.730023
_cell_angle_gamma 90.000000
_cell_volume 1916.150910
_symmetry_space_group_name_H-M "P 2/M"
_symmetry_group_IT_number 10
_symmetry_cell_setting 'monoclinic'
loop_
_space_group_symop_operation_xyz
x,y,z
-x,y,-z
-x,-y,-z
x,-y,z
loop_
_atom_site_type_symbol
_atom_site_label
_atom_site_fract_x
_atom_site_fract_y
_atom_site_fract_z
Si Si1 0.482348 0.192171 0.632102
Si Si2 0.182189 0.105492 0.229841
Si Si3 0.123819 0.102978 0.153230
Si Si4 0.674942 0.101933 0.627671
Si Si5 0.500000 0.335709 0.500000
Si Si6 0.973912 0.600722 0.955360
Si Si7 0.842535 0.905516 0.128042
Si Si8 0.170919 0.226460 0.674027
O O1 0.457859 0.273792 0.613611
O O2 0.602299 0.116368 0.444826
O O3 0.658172 0.215002 0.474598
O O4 0.266264 0.157552 0.929185
O O5 0.161501 0.136221 0.180604
O O6 0.000000 0.141328 0.500000
O O7 0.146918 0.000000 0.268886
O O8 0.431750 0.118440 0.949234
O O9 0.869216 0.106629 0.443664
O O10 0.193310 0.000000 0.065423
O O11 0.727313 0.174451 0.509756
O O12 0.675535 0.000000 0.600674
O O13 0.281387 0.390194 0.751775
O O14 0.046943 0.500000 0.858973
O O15 0.106227 0.671304 0.751809
O O16 0.000000 0.625583 0.000000
O O17 0.855145 0.000000 0.078839
O O18 0.000000 0.910132 0.000000
O O19 0.946070 0.826058 0.962482
#
# Coordination Sequence:
#
# PCOD9148256 Si02
#       8
#     4   4   4   4   2   4   4   4
#     4  11  20  31  49  68  99 133 167 206 250 288
#     4   9  18  33  51  70  96 131 168 204 244 292
#     4  10  20  32  46  70 100 134 172 207 244 288
#     4  10  20  32  51  74  99 132 166 204 250 295
#     4  12  21  36  51  72  92 130 167 214 253 298
#     4  11  22  37  53  69  91 125 169 213 255 295
#     4   9  17  27  43  64  90 128 168 202 236 277
#     4  11  18  35  50  67  97 130 166 209 250 287
#
# _framework density 15.656387
#
# number of rings (size 3 to 8) (size 9 to 14) (size 15 to 20)
#    0.000    1.733    4.000    2.200    0.000    1.600 
#    0.000    3.333    0.000    0.000    0.000    0.000 
#    0.000    0.533    0.000    3.733    0.000    0.133 
#
# Total GULP energy -167344.514146 kJ/mol
# GULP energy per Si atom -5578.150472 kJ/mol
# Density = 1.562075 g / cm^3
# Si number density = 15.656387 Si / 1000 Ang^3
#
#
#
# Elastic Constant Matrix: (Units=GPa)
#
#
# Indices 1 2 3 4 5 6 
#
# 1 37.7720 2.3177 27.7953 0.0000 -5.9412 0.0000
# 2 2.3177 62.0489 20.4614 0.0000 4.9896 0.0000
# 3 27.7953 20.4614 97.2282 0.0000 5.2629 0.0000
# 4 0.0000 0.0000 0.0000 9.4948 0.0000 -3.5337
# 5 -5.9412 4.9896 5.2629 0.0000 26.7957 0.0000
# 6 0.0000 0.0000 0.0000 -3.5337 0.0000 10.4886
#
#
#
# Elastic Compliance Matrix: (Units=1/GPa)
#
#
# Indices 1 2 3 4 5 6 
#
# 1 0.036192 0.001545 -0.011210 0.000000 0.009938 0.000000
# 2 0.001545 0.017556 -0.004021 0.000000 -0.002137 0.000000
# 3 -0.011210 -0.004021 0.014585 0.000000 -0.004601 0.000000
# 4 0.000000 0.000000 0.000000 0.120420 0.000000 0.040571
# 5 0.009938 -0.002137 -0.004601 0.000000 0.040825 0.000000
# 6 0.000000 0.000000 0.000000 0.040571 0.000000 0.109011
#
#
# Mechanical properties :
#
#
# Convention : Reuss Voigt Hill
#
# Bulk Modulus (GPa) = 24.41219 33.13308 28.77263
# Shear Modulus (GPa) = 13.17131 19.12081 16.14606
#
# Velocity S-wave (km/s) = 2.90362 3.49847 3.21483
# Velocity P-wave (km/s) = 5.18340 6.12598 5.67430
#
# Compressibility (1/GPa) = 0.04096314
#
# Stress axis : x y z
#
# Youngs Moduli (GPa) = 27.63052 56.95952 68.56418
#
# Poissons Ratio (x) = -0.08803 0.76858
# Poissons Ratio (y) = -0.04270 0.27568
# Poissons Ratio (z) = 0.30973 0.22902
#
# Static dielectric constant tensor:
#      x y z
#    x 1.550210 0.000000 -0.027290 
#    y 0.000000 1.516470 0.000000 
#    z -0.027290 0.000000 1.534240 
# 
# From -- ./inp_files/91500.got.cif
#   From: 2010.05.17/outbox.cif.g08.bks.cpg/sg10_46_cif.got.tgz:91500.got - 2010.06.03 11:33:40.
