data_PCOD9148013
_publ_section_title
;
Structure prediction by ZEFSAII (Michael W. Deem and Ramdas Pophale) SiO2 
 PCOD9148013
Probable space group: P 2/M
;
_chemical_formula_sum "Si O2"
_cell_formula_units_Z 32
_cell_length_a 10.886610
_cell_length_b 18.679287
_cell_length_c 13.968755
_cell_angle_alpha 90.000000
_cell_angle_beta 148.895716
_cell_angle_gamma 90.000000
_cell_volume 1467.448385
_symmetry_space_group_name_H-M "P 2/M"
_symmetry_group_IT_number 10
_symmetry_cell_setting 'monoclinic'
loop_
_space_group_symop_operation_xyz
x,y,z
-x,y,-z
-x,-y,-z
x,-y,z
loop_
_atom_site_type_symbol
_atom_site_label
_atom_site_fract_x
_atom_site_fract_y
_atom_site_fract_z
Si Si1 0.141379 0.418418 0.901243
Si Si2 0.484125 0.322481 0.237619
Si Si3 0.243588 0.082509 0.074038
Si Si4 0.005277 0.372294 0.397414
Si Si5 0.311353 0.232233 0.787703
Si Si6 0.747506 0.689265 0.717776
Si Si7 0.757079 0.145992 0.718623
Si Si8 0.335916 0.078011 0.796438
O O1 0.126927 0.500000 0.924562
O O2 0.110839 0.414441 0.766693
O O3 0.937605 0.368636 0.811318
O O4 0.382190 0.380472 0.095487
O O5 0.722148 0.354313 0.442474
O O6 0.554442 0.253710 0.221231
O O7 0.300606 0.310195 0.200618
O O8 0.267218 0.131247 0.183895
O O9 0.475247 0.086386 0.163257
O O10 0.224106 0.000000 0.092700
O O11 0.999274 0.103065 0.855445
O O12 0.000000 0.405580 0.500000
O O13 0.872642 0.295934 0.317613
O O14 0.198834 0.153112 0.709874
O O15 0.500000 0.233534 0.000000
O O16 0.500000 0.673024 0.500000
O O17 0.810382 0.770875 0.732353
O O18 0.500000 0.127648 0.500000
O O19 0.215225 0.000000 0.709799
O O20 0.500000 0.075699 0.000000
#
# Coordination Sequence:
#
# PCOD9148013 Si02
#       8
#     4   4   4   4   4   4   4   4
#     4  12  27  45  69  99 130 168 212 258 323 393
#     4  11  23  42  67  95 130 168 213 264 322 379
#     4  10  21  37  62  94 128 171 213 261 323 371
#     4  10  23  44  68  98 128 165 215 265 317 376
#     4  10  19  37  69  95 122 170 216 268 315 375
#     4  11  24  42  64  96 131 171 218 260 322 386
#     4  10  22  37  60  94 124 168 216 267 310 373
#     4   9  19  35  60  94 128 169 212 258 320 375
#
# _framework density 21.806557999999999
#
# number of rings (size 3 to 8) (size 9 to 14) (size 15 to 20)
#    0.000    1.625    2.500    1.875    5.250    3.000 
#    0.000    4.375    0.000    3.375    0.000    0.000 
#    0.000    0.000    0.000    0.000    0.000    0.000 
#
# Total GULP energy -178749.000279 kJ/mol
# GULP energy per Si atom -5585.906259 kJ/mol
# Density = 2.175693 g / cm^3
# Si number density = 21.806558 Si / 1000 Ang^3
#
#
#
# Elastic Constant Matrix: (Units=GPa)
#
#
# Indices 1 2 3 4 5 6 
#
# 1 48.3473 4.8724 -6.9295 0.0000 -11.9629 0.0000
# 2 4.8724 132.5176 31.3639 0.0000 1.4175 0.0000
# 3 -6.9295 31.3639 106.9372 0.0000 -13.9280 0.0000
# 4 0.0000 0.0000 0.0000 -26.1849 0.0000 3.4680
# 5 -11.9629 1.4175 -13.9280 0.0000 25.1788 0.0000
# 6 0.0000 0.0000 0.0000 3.4680 0.0000 20.6888
#
#
#
# Elastic Compliance Matrix: (Units=1/GPa)
#
#
# Indices 1 2 3 4 5 6 
#
# 1 0.024997 -0.002035 0.004072 0.000000 0.014243 0.000000
# 2 -0.002035 0.008361 -0.002986 0.000000 -0.003090 0.000000
# 3 0.004072 -0.002986 0.011601 0.000000 0.008520 0.000000
# 4 0.000000 0.000000 0.000000 -0.037361 0.000000 0.006263
# 5 0.014243 -0.003090 0.008520 0.000000 0.051370 0.000000
# 6 0.000000 0.000000 0.000000 0.006263 0.000000 0.047286
#
#
# Mechanical properties :
#
#
# Convention : Reuss Voigt Hill
#
# Bulk Modulus (GPa) = 23.22414 38.49062 30.85738
# Shear Modulus (GPa) = 40.81440 21.16956 30.99198
#
# Velocity S-wave (km/s) = 4.33096 3.11913 3.77400
# Velocity P-wave (km/s) = 5.97351 5.53726 5.75951
#
# Compressibility (1/GPa) = 0.04305865
#
# Stress axis : x y z
#
# Youngs Moduli (GPa) = 40.00528 119.60477 86.20171
#
# Poissons Ratio (x) = 0.24341 -0.35099
# Poissons Ratio (y) = 0.08142 0.25744
# Poissons Ratio (z) = -0.16289 0.35720
#
# Static dielectric constant tensor:
#      x y z
#    x 1.855270 0.000000 -0.016270 
#    y 0.000000 1.781620 0.000000 
#    z -0.016270 0.000000 1.805380 
# 
# From -- ./inp_files/65415.got.cif
#   From: 2010.05.17/outbox.cif.g08.bks.cpg/sg10_33_cif.got.tgz:65415.got - 2010.06.03 11:33:40.
