data_PCOD9148895
_publ_section_title
;
Structure prediction by ZEFSAII (Michael W. Deem and Ramdas Pophale) SiO2 
 PCOD9148895
Probable space group: P 2/M
;
_chemical_formula_sum "Si O2"
_cell_formula_units_Z 24
_cell_length_a 17.133316
_cell_length_b 7.641132
_cell_length_c 15.505194
_cell_angle_alpha 90.000000
_cell_angle_beta 141.528745
_cell_angle_gamma 90.000000
_cell_volume 1262.850210
_symmetry_space_group_name_H-M "P 2/M"
_symmetry_group_IT_number 10
_symmetry_cell_setting 'monoclinic'
loop_
_space_group_symop_operation_xyz
x,y,z
-x,y,-z
-x,-y,-z
x,-y,z
loop_
_atom_site_type_symbol
_atom_site_label
_atom_site_fract_x
_atom_site_fract_y
_atom_site_fract_z
Si Si1 0.599510 0.205590 0.155750
Si Si2 0.564411 0.290101 0.825316
Si Si3 0.398276 0.704495 0.336791
Si Si4 0.976958 0.000000 0.125505
Si Si5 0.198516 0.000000 0.194528
Si Si6 0.873696 0.786982 0.342232
Si Si7 0.152129 0.703563 0.879741
O O1 0.538393 0.222642 0.196830
O O2 0.741473 0.273576 0.269688
O O3 0.609775 0.000000 0.144038
O O4 0.500000 0.281795 0.000000
O O5 0.559112 0.500000 0.826351
O O6 0.549679 0.241230 0.712395
O O7 0.704632 0.237285 0.976315
O O8 0.500000 0.720261 0.500000
O O9 0.360902 0.500000 0.297661
O O10 0.283952 0.828891 0.261213
O O11 0.940793 0.829685 0.149206
O O12 0.117158 0.000000 0.210778
O O13 0.890437 0.000000 0.965779
O O14 0.871573 0.724059 0.242063
O O15 0.000000 0.728764 0.500000
O O16 0.875922 0.000000 0.343847
O O17 0.140660 0.500000 0.895272
#
# Coordination Sequence:
#
# PCOD9148895 Si02
#       7
#     4   4   4   2   2   4   4
#     4  10  20  33  58  89 116 155 203 249 295 356
#     4  10  21  36  59  88 116 153 201 254 303 353
#     4  10  22  42  64  91 127 160 201 259 314 370
#     4  11  24  40  63  92 123 153 207 263 304 367
#     4  11  23  40  66  91 117 165 199 251 322 377
#     4  10  21  39  59  86 127 165 200 251 309 363
#     4  11  22  39  64  87 119 165 205 253 308 364
#
# _framework density 19.004629000000001
#
# number of rings (size 3 to 8) (size 9 to 14) (size 15 to 20)
#    0.000    1.667    4.167    0.250    2.333    2.000 
#    3.000    1.667    0.000    0.000    0.000    0.000 
#    0.000    0.000    0.000    0.000    0.000    0.000 
#
# Total GULP energy -134018.456201 kJ/mol
# GULP energy per Si atom -5584.102342 kJ/mol
# Density = 1.896137 g / cm^3
# Si number density = 19.004629 Si / 1000 Ang^3
#
#
#
# Elastic Constant Matrix: (Units=GPa)
#
#
# Indices 1 2 3 4 5 6 
#
# 1 178.3108 46.2378 73.7845 0.0000 9.2568 0.0000
# 2 46.2378 63.5090 29.8527 0.0000 8.2444 0.0000
# 3 73.7845 29.8527 116.7656 0.0000 -5.5879 0.0000
# 4 0.0000 0.0000 0.0000 12.0565 0.0000 -7.0640
# 5 9.2568 8.2444 -5.5879 0.0000 29.6059 0.0000
# 6 0.0000 0.0000 0.0000 -7.0640 0.0000 0.2157
#
#
#
# Elastic Compliance Matrix: (Units=1/GPa)
#
#
# Indices 1 2 3 4 5 6 
#
# 1 0.008626 -0.003791 -0.004601 0.000000 -0.002510 0.000000
# 2 -0.003791 0.020646 -0.003129 0.000000 -0.005155 0.000000
# 3 -0.004601 -0.003129 0.012495 0.000000 0.004669 0.000000
# 4 0.000000 0.000000 0.000000 -0.004559 0.000000 -0.149344
# 5 -0.002510 -0.005155 0.004669 0.000000 0.036878 0.000000
# 6 0.000000 0.000000 0.000000 -0.149344 0.000000 -0.254894
#
#
# Mechanical properties :
#
#
# Convention : Reuss Voigt Hill
#
# Bulk Modulus (GPa) = 53.41034 73.14835 63.27935
# Shear Modulus (GPa) = -32.99846 22.28963 -5.35441
#
# Velocity S-wave (km/s) = -4.17146 3.42841 -1.68034
# Velocity P-wave (km/s) = 2.22788 7.36514 5.44099
#
# Compressibility (1/GPa) = 0.01872297
#
# Stress axis : x y z
#
# Youngs Moduli (GPa) = 115.93397 48.43515 80.03006
#
# Poissons Ratio (x) = 0.18363 0.36825
# Poissons Ratio (y) = 0.43953 0.25045
# Poissons Ratio (z) = 0.53346 0.15158
#
# Static dielectric constant tensor:
#      x y z
#    x 1.635940 0.000000 0.003250 
#    y 0.000000 1.676810 0.000000 
#    z 0.003250 0.000000 1.653780 
# 
# From -- ./inp_files/54630.got.cif
#   From: 2010.05.17/outbox.cif.g08.bks.cpg/sg10_28_cif.got.tgz:54630.got - 2010.06.03 11:33:40.
