data_PCOD9148784
_publ_section_title
;
Structure prediction by ZEFSAII (Michael W. Deem and Ramdas Pophale) SiO2 
 PCOD9148784
Probable space group: P 2/M
;
_chemical_formula_sum "Si O2"
_cell_formula_units_Z 32
_cell_length_a 16.123282
_cell_length_b 8.652125
_cell_length_c 26.012667
_cell_angle_alpha 90.000000
_cell_angle_beta 30.046746
_cell_angle_gamma 90.000000
_cell_volume 1816.955364
_symmetry_space_group_name_H-M "P 2/M"
_symmetry_group_IT_number 10
_symmetry_cell_setting 'monoclinic'
loop_
_space_group_symop_operation_xyz
x,y,z
-x,y,-z
-x,-y,-z
x,-y,z
loop_
_atom_site_type_symbol
_atom_site_label
_atom_site_fract_x
_atom_site_fract_y
_atom_site_fract_z
Si Si1 0.354168 0.184242 0.144132
Si Si2 0.608045 0.812226 0.394395
Si Si3 0.147397 0.313632 0.349671
Si Si4 0.895977 0.684996 0.106225
Si Si5 0.226092 0.686158 0.424109
Si Si6 0.539888 0.185117 0.315130
Si Si7 0.711350 0.315615 0.932002
Si Si8 0.979052 0.185431 0.172171
O O1 0.246030 0.236444 0.250586
O O2 0.281012 0.251621 0.130259
O O3 0.360294 0.000000 0.137211
O O4 0.540979 0.249411 0.047079
O O5 0.500000 0.754494 0.500000
O O6 0.535813 0.767530 0.377521
O O7 0.801137 0.766883 0.291682
O O8 0.605769 0.000000 0.397198
O O9 0.157566 0.500000 0.339232
O O10 0.219836 0.272479 0.367001
O O11 0.952716 0.271655 0.456076
O O12 0.900626 0.500000 0.109970
O O13 0.706480 0.740082 0.203120
O O14 0.969387 0.762960 0.118034
O O15 0.000000 0.726816 0.000000
O O16 0.240261 0.500000 0.419361
O O17 0.377700 0.762101 0.372215
O O18 0.556406 0.000000 0.304391
O O19 0.701508 0.500000 0.935903
O O20 0.868559 0.260861 0.880085
O O21 0.991885 0.000000 0.168051
#
# Coordination Sequence:
#
# PCOD9148784 Si02
#       8
#     4   4   4   4   4   4   4   4
#     4  11  22  37  57  82 110 140 178 226 274 318
#     4   8  16  32  52  75 105 138 170 208 258 312
#     4   9  19  37  57  79 108 144 182 220 269 323
#     4  10  21  37  56  77 104 142 184 223 268 323
#     4   9  19  36  57  78 107 145 182 222 266 321
#     4  10  20  33  53  80 108 139 176 223 274 319
#     4  11  22  38  58  79 108 145 182 221 267 324
#     4  10  20  35  56  82 110 139 175 222 271 316
#
# _framework density 17.611879999999999
#
# number of rings (size 3 to 8) (size 9 to 14) (size 15 to 20)
#    0.000    2.250    0.000    5.625    0.000    4.000 
#    0.000    3.750    0.000   12.750    0.000    0.000 
#    0.000    0.000    0.000    0.000    0.000    0.000 
#
# Total GULP energy -178624.302439 kJ/mol
# GULP energy per Si atom -5582.009451 kJ/mol
# Density = 1.757179 g / cm^3
# Si number density = 17.611880 Si / 1000 Ang^3
#
#
#
# Elastic Constant Matrix: (Units=GPa)
#
#
# Indices 1 2 3 4 5 6 
#
# 1 129.4025 51.5070 105.9609 0.0000 -20.7869 0.0000
# 2 51.5070 83.2893 60.3182 0.0000 0.8087 0.0000
# 3 105.9609 60.3182 160.3905 0.0000 16.3216 0.0000
# 4 0.0000 0.0000 0.0000 23.5887 0.0000 -4.5226
# 5 -20.7869 0.8087 16.3216 0.0000 28.5943 0.0000
# 6 0.0000 0.0000 0.0000 -4.5226 0.0000 27.2483
#
#
#
# Elastic Compliance Matrix: (Units=1/GPa)
#
#
# Indices 1 2 3 4 5 6 
#
# 1 0.045653 -0.004149 -0.033962 0.000000 0.052691 0.000000
# 2 -0.004149 0.017169 -0.003567 0.000000 -0.001465 0.000000
# 3 -0.033962 -0.003567 0.034520 0.000000 -0.044292 0.000000
# 4 0.000000 0.000000 0.000000 0.043787 0.000000 0.007268
# 5 0.052691 -0.001465 -0.044292 0.000000 0.098599 0.000000
# 6 0.000000 0.000000 0.000000 0.007268 0.000000 0.037906
#
#
# Mechanical properties :
#
#
# Convention : Reuss Voigt Hill
#
# Bulk Modulus (GPa) = 71.49360 89.85049 80.67204
# Shear Modulus (GPa) = 13.67422 26.23935 19.95678
#
# Velocity S-wave (km/s) = 2.78945 3.86407 3.36987
# Velocity P-wave (km/s) = 7.14541 8.42827 7.81321
#
# Compressibility (1/GPa) = 0.01398727
#
# Stress axis : x y z
#
# Youngs Moduli (GPa) = 21.90442 58.24335 28.96852
#
# Poissons Ratio (x) = 0.24163 0.98383
# Poissons Ratio (y) = 0.09087 0.10333
# Poissons Ratio (z) = 0.74392 0.20776
#
# Static dielectric constant tensor:
#      x y z
#    x 1.573570 0.000000 0.004940 
#    y 0.000000 1.593710 0.000000 
#    z 0.004940 0.000000 1.583890 
# 
# From -- ./inp_files/89481.got.cif
#   From: 2010.05.17/outbox.cif.g08.bks.cpg/sg10_45_cif.got.tgz:89481.got - 2010.06.03 11:33:40.
