data_PCOD9148078
_publ_section_title
;
Structure prediction by ZEFSAII (Michael W. Deem and Ramdas Pophale) SiO2 
 PCOD9148078
Probable space group: P 2/M
;
_chemical_formula_sum "Si O2"
_cell_formula_units_Z 32
_cell_length_a 14.557540
_cell_length_b 16.583646
_cell_length_c 12.298244
_cell_angle_alpha 90.000000
_cell_angle_beta 30.903859
_cell_angle_gamma 90.000000
_cell_volume 1524.878785
_symmetry_space_group_name_H-M "P 2/M"
_symmetry_group_IT_number 10
_symmetry_cell_setting 'monoclinic'
loop_
_space_group_symop_operation_xyz
x,y,z
-x,y,-z
-x,-y,-z
x,-y,z
loop_
_atom_site_type_symbol
_atom_site_label
_atom_site_fract_x
_atom_site_fract_y
_atom_site_fract_z
Si Si1 0.226383 0.912685 0.070446
Si Si2 0.684341 0.407978 0.561102
Si Si3 0.584494 0.312669 0.301251
Si Si4 0.522713 0.123237 0.600604
Si Si5 0.065881 0.870713 0.814288
Si Si6 0.012430 0.692678 0.161556
Si Si7 0.850506 0.748759 0.743784
Si Si8 0.217932 0.411033 0.284565
O O1 0.236679 0.834354 0.137172
O O2 0.062987 0.899711 0.151102
O O3 0.206461 0.000000 0.145447
O O4 0.397911 0.913722 0.818350
O O5 0.652177 0.500000 0.563730
O O6 0.517461 0.355008 0.693628
O O7 0.722362 0.404674 0.651291
O O8 0.860227 0.374061 0.321613
O O9 0.500000 0.341474 0.500000
O O10 0.541482 0.217202 0.336573
O O11 0.795534 0.328455 0.083167
O O12 0.500000 0.094066 0.500000
O O13 0.729414 0.109937 0.416232
O O14 0.058207 0.773337 0.823432
O O15 0.000000 0.899332 0.000000
O O16 0.054376 0.718322 0.243052
O O17 0.731518 0.672187 0.826572
O O18 0.000000 0.762895 0.500000
O O19 0.277815 0.500000 0.181265
O O20 0.000000 0.412302 0.500000
#
# Coordination Sequence:
#
# PCOD9148078 Si02
#       8
#     4   4   4   4   4   4   4   4
#     4  11  25  40  60  98 134 170 220 266 323 400
#     4  11  23  38  63  97 130 168 216 273 331 394
#     4  11  23  40  63  91 130 174 221 266 315 391
#     4  11  20  38  64  93 126 170 217 273 323 380
#     4  11  20  38  66  92 124 170 222 266 323 388
#     4  11  21  37  64  92 122 170 217 263 324 389
#     4  10  19  38  67  91 122 171 214 266 339 384
#     4   9  17  34  64  96 124 159 214 280 334 381
#
# _framework density 20.985275999999999
#
# number of rings (size 3 to 8) (size 9 to 14) (size 15 to 20)
#    0.000    1.375    7.500    0.750    0.000    2.000 
#    0.000    1.250    5.500    1.500    0.000    5.250 
#    0.000    0.000    0.000    0.000    0.000    0.000 
#
# Total GULP energy -178771.563106 kJ/mol
# GULP energy per Si atom -5586.611347 kJ/mol
# Density = 2.093751 g / cm^3
# Si number density = 20.985276 Si / 1000 Ang^3
#
#
#
# Elastic Constant Matrix: (Units=GPa)
#
#
# Indices 1 2 3 4 5 6 
#
# 1 50.0154 24.0616 22.7936 0.0000 -2.4775 0.0000
# 2 24.0616 158.3167 26.3269 0.0000 12.5690 0.0000
# 3 22.7936 26.3269 114.3336 0.0000 -6.3126 0.0000
# 4 0.0000 0.0000 0.0000 13.4766 0.0000 -9.6053
# 5 -2.4775 12.5690 -6.3126 0.0000 36.8941 0.0000
# 6 0.0000 0.0000 0.0000 -9.6053 0.0000 22.2789
#
#
#
# Elastic Compliance Matrix: (Units=1/GPa)
#
#
# Indices 1 2 3 4 5 6 
#
# 1 0.023310 -0.003060 -0.003835 0.000000 0.001952 0.000000
# 2 -0.003060 0.007210 -0.001209 0.000000 -0.002869 0.000000
# 3 -0.003835 -0.001209 0.009891 0.000000 0.001847 0.000000
# 4 0.000000 0.000000 0.000000 0.107120 0.000000 0.046184
# 5 0.001952 -0.002869 0.001847 0.000000 0.028529 0.000000
# 6 0.000000 0.000000 0.000000 0.046184 0.000000 0.064797
#
#
# Mechanical properties :
#
#
# Convention : Reuss Voigt Hill
#
# Bulk Modulus (GPa) = 41.31410 52.11444 46.71427
# Shear Modulus (GPa) = 18.85850 31.16214 25.01032
#
# Velocity S-wave (km/s) = 3.00101 3.85769 3.45600
# Velocity P-wave (km/s) = 5.63365 6.68805 6.18337
#
# Compressibility (1/GPa) = 0.02420481
#
# Stress axis : x y z
#
# Youngs Moduli (GPa) = 42.89953 138.69129 101.10118
#
# Poissons Ratio (x) = 0.42440 0.38770
# Poissons Ratio (y) = 0.13127 0.12219
# Poissons Ratio (z) = 0.16451 0.16762
#
# Static dielectric constant tensor:
#      x y z
#    x 1.733860 0.000000 0.004060 
#    y 0.000000 1.788580 0.000000 
#    z 0.004060 0.000000 1.758980 
# 
# From -- ./inp_files/51923.got.cif
#   From: 2010.05.17/outbox.cif.g08.bks.cpg/sg10_26_cif.got.tgz:51923.got - 2010.06.03 11:33:40.
