data_PCOD9148995
_publ_section_title
;
Structure prediction by ZEFSAII (Michael W. Deem and Ramdas Pophale) SiO2 
 PCOD9148995
Probable space group: P 2/M
;
_chemical_formula_sum "Si O2"
_cell_formula_units_Z 32
_cell_length_a 29.214824
_cell_length_b 8.290826
_cell_length_c 23.089900
_cell_angle_alpha 90.000000
_cell_angle_beta 161.504937
_cell_angle_gamma 90.000000
_cell_volume 1774.139292
_symmetry_space_group_name_H-M "P 2/M"
_symmetry_group_IT_number 10
_symmetry_cell_setting 'monoclinic'
loop_
_space_group_symop_operation_xyz
x,y,z
-x,y,-z
-x,-y,-z
x,-y,z
loop_
_atom_site_type_symbol
_atom_site_label
_atom_site_fract_x
_atom_site_fract_y
_atom_site_fract_z
Si Si1 0.304757 0.807099 0.503593
Si Si2 0.655220 0.194726 0.208203
Si Si3 0.555723 0.305055 0.504753
Si Si4 0.200574 0.692896 0.503216
Si Si5 0.094613 0.305067 0.792445
Si Si6 0.049359 0.194979 0.496066
Si Si7 0.592549 0.694768 0.791235
Si Si8 0.156790 0.194834 0.207954
O O1 0.247234 0.749529 0.496096
O O2 0.465968 0.747509 0.682742
O O3 0.205028 0.750161 0.330073
O O4 0.305543 0.000000 0.503891
O O5 0.692759 0.246122 0.318468
O O6 0.790043 0.249679 0.330219
O O7 0.653473 0.000000 0.204277
O O8 0.500000 0.253419 0.000000
O O9 0.500000 0.247493 0.500000
O O10 0.404258 0.500000 0.205653
O O11 0.456357 0.250386 0.331576
O O12 0.717055 0.249643 0.683736
O O13 0.200709 0.500000 0.504511
O O14 0.039880 0.749350 0.329032
O O15 0.096112 0.500000 0.795139
O O16 0.057365 0.250062 0.682897
O O17 0.249691 0.247035 0.000710
O O18 0.000000 0.252053 0.500000
O O19 0.050559 0.000000 0.498293
O O20 0.553606 0.500000 0.502582
O O21 0.154126 0.000000 0.205374
O O22 0.000000 0.253107 0.000000
#
# Coordination Sequence:
#
# PCOD9148995 Si02
#       8
#     4   4   4   4   4   4   4   4
#     4  10  20  34  52  74 100 131 168 207 248 296
#     4   9  18  33  51  71  98 131 166 204 244 288
#     4   9  18  32  51  75 101 130 165 204 245 292
#     4  10  20  34  52  75 103 133 166 205 249 296
#     4   9  19  34  51  72  99 131 164 200 243 291
#     4   9  18  32  49  70  96 125 159 200 242 285
#     4   9  18  34  52  72 101 132 164 204 247 291
#     4   9  19  35  52  72 100 132 166 206 250 296
#
# _framework density 18.036915
#
# number of rings (size 3 to 8) (size 9 to 14) (size 15 to 20)
#    0.000    2.750    0.000    0.750    0.000    4.500 
#    0.000    2.500    0.000    0.000    0.000    0.000 
#    0.000    0.000    0.000    0.000    0.000    0.000 
#
# Total GULP energy -178456.091097 kJ/mol
# GULP energy per Si atom -5576.752847 kJ/mol
# Density = 1.799586 g / cm^3
# Si number density = 18.036915 Si / 1000 Ang^3
#
#
#
# Elastic Constant Matrix: (Units=GPa)
#
#
# Indices 1 2 3 4 5 6 
#
# 1 189.3673 11.4940 103.1159 0.0000 -0.9915 0.0000
# 2 11.4940 3.8527 16.8342 0.0000 0.2544 0.0000
# 3 103.1159 16.8342 197.1735 0.0000 4.8653 0.0000
# 4 0.0000 0.0000 0.0000 20.5494 0.0000 5.7869
# 5 -0.9915 0.2544 4.8653 0.0000 6.2736 0.0000
# 6 0.0000 0.0000 0.0000 5.7869 0.0000 -27.3300
#
#
#
# Elastic Compliance Matrix: (Units=1/GPa)
#
#
# Indices 1 2 3 4 5 6 
#
# 1 0.007656 -0.008249 -0.003403 0.000000 0.004184 0.000000
# 2 -0.008249 0.423620 -0.032010 0.000000 0.006340 0.000000
# 3 -0.003403 -0.032010 0.009752 0.000000 -0.006803 0.000000
# 4 0.000000 0.000000 0.000000 0.045925 0.000000 0.009724
# 5 0.004184 0.006340 -0.006803 0.000000 0.165079 0.000000
# 6 0.000000 0.000000 0.000000 0.009724 0.000000 -0.034531
#
#
# Mechanical properties :
#
#
# Convention : Reuss Voigt Hill
#
# Bulk Modulus (GPa) = 2.82721 72.58685 37.70703
# Shear Modulus (GPa) = 6.07735 17.16187 11.61961
#
# Velocity S-wave (km/s) = 1.83758 3.08796 2.54089
# Velocity P-wave (km/s) = 2.46437 7.28319 5.43682
#
# Compressibility (1/GPa) = 0.35370499
#
# Stress axis : x y z
#
# Youngs Moduli (GPa) = 130.61027 2.36060 102.54117
#
# Poissons Ratio (x) = 0.01947 0.34895
# Poissons Ratio (y) = 1.07736 3.28237
# Poissons Ratio (z) = 0.44447 0.07556
#
# Static dielectric constant tensor:
#      x y z
#    x 1.595790 0.000000 0.000980 
#    y 0.000000 1.623100 0.000000 
#    z 0.000980 0.000000 1.612440 
# 
# From -- ./inp_files/87030.got.cif
#   From: 2010.05.17/outbox.cif.g08.bks.cpg/sg10_44_cif.got.tgz:87030.got - 2010.06.03 11:33:40.
