data_PCOD9148011
_publ_section_title
;
Structure prediction by ZEFSAII (Michael W. Deem and Ramdas Pophale) SiO2 
 PCOD9148011
Probable space group: P 2/M
;
_chemical_formula_sum "Si O2"
_cell_formula_units_Z 32
_cell_length_a 15.624106
_cell_length_b 20.774949
_cell_length_c 9.268438
_cell_angle_alpha 90.000000
_cell_angle_beta 27.703278
_cell_angle_gamma 90.000000
_cell_volume 1398.602882
_symmetry_space_group_name_H-M "P 2/M"
_symmetry_group_IT_number 10
_symmetry_cell_setting 'monoclinic'
loop_
_space_group_symop_operation_xyz
x,y,z
-x,y,-z
-x,-y,-z
x,-y,z
loop_
_atom_site_type_symbol
_atom_site_label
_atom_site_fract_x
_atom_site_fract_y
_atom_site_fract_z
Si Si1 0.809103 0.571857 0.341297
Si Si2 0.199704 0.077339 0.272952
Si Si3 0.456654 0.888567 0.407156
Si Si4 0.304856 0.428964 0.811832
Si Si5 0.830386 0.309979 0.854418
Si Si6 0.150634 0.928433 0.665254
Si Si7 0.541589 0.681712 0.782600
Si Si8 0.811407 0.764822 0.186886
O O1 0.845044 0.500000 0.353587
O O2 0.730965 0.560902 0.300541
O O3 0.654226 0.614936 0.649087
O O4 0.000000 0.604113 0.000000
O O5 0.184604 0.102420 0.459838
O O6 0.000000 0.081887 0.500000
O O7 0.251165 0.000000 0.194762
O O8 0.347949 0.118452 0.963271
O O9 0.500000 0.916304 0.500000
O O10 0.337731 0.930712 0.474707
O O11 0.323274 0.827090 0.626957
O O12 0.500000 0.393070 0.500000
O O13 0.322731 0.500000 0.854610
O O14 0.156386 0.383295 0.105482
O O15 0.000000 0.292450 0.500000
O O16 0.645989 0.315120 0.031030
O O17 0.830876 0.265035 0.996579
O O18 0.080979 0.000000 0.732335
O O19 0.000000 0.901893 0.000000
O O20 0.689905 0.717738 0.465142
O O21 0.500000 0.712133 0.000000
O O22 0.000000 0.772076 0.000000
#
# Coordination Sequence:
#
# PCOD9148011 Si02
#       8
#     4   4   4   4   4   4   4   4
#     4  10  21  38  64  95 133 176 218 272 340 410
#     4  10  22  42  71 108 149 188 228 275 332 400
#     4  12  25  42  68  99 135 181 228 280 333 394
#     4  10  19  37  66  95 131 177 217 273 347 415
#     4  12  25  44  71  99 131 174 226 284 345 418
#     4  10  21  40  67 101 141 182 223 270 329 392
#     4  12  25  42  68  99 130 173 224 276 341 410
#     4  12  27  51  72  93 129 173 228 288 347 404
#
# _framework density 22.879975000000002
#
# number of rings (size 3 to 8) (size 9 to 14) (size 15 to 20)
#    0.000    1.000    2.500    4.125    1.750    4.500 
#    0.000    7.500    0.000    0.000    0.000    0.000 
#    0.000    0.000    0.000    0.000    0.000    0.000 
#
# Total GULP energy -178297.967030 kJ/mol
# GULP energy per Si atom -5571.811470 kJ/mol
# Density = 2.282790 g / cm^3
# Si number density = 22.879975 Si / 1000 Ang^3
#
#
#
# Elastic Constant Matrix: (Units=GPa)
#
#
# Indices 1 2 3 4 5 6 
#
# 1 96.9583 6.4511 56.0196 0.0000 17.8165 0.0000
# 2 6.4511 70.8257 33.6741 0.0000 6.6716 0.0000
# 3 56.0196 33.6741 174.3911 0.0000 13.5238 0.0000
# 4 0.0000 0.0000 0.0000 9.3993 0.0000 -12.6276
# 5 17.8165 6.6716 13.5238 0.0000 52.1447 0.0000
# 6 0.0000 0.0000 0.0000 -12.6276 0.0000 19.4619
#
#
#
# Elastic Compliance Matrix: (Units=1/GPa)
#
#
# Indices 1 2 3 4 5 6 
#
# 1 0.013342 0.001133 -0.004225 0.000000 -0.003608 0.000000
# 2 0.001133 0.015721 -0.003280 0.000000 -0.001548 0.000000
# 3 -0.004225 -0.003280 0.007736 0.000000 -0.000143 0.000000
# 4 0.000000 0.000000 0.000000 0.829168 0.000000 0.537994
# 5 -0.003608 -0.001548 -0.000143 0.000000 0.020645 0.000000
# 6 0.000000 0.000000 0.000000 0.537994 0.000000 0.400452
#
#
# Mechanical properties :
#
#
# Convention : Reuss Voigt Hill
#
# Bulk Modulus (GPa) = 41.56863 59.38499 50.47681
# Shear Modulus (GPa) = 3.82314 32.60321 18.21317
#
# Velocity S-wave (km/s) = 1.29406 3.77897 2.82446
# Velocity P-wave (km/s) = 4.52110 6.71209 5.72243
#
# Compressibility (1/GPa) = 0.02405660
#
# Stress axis : x y z
#
# Youngs Moduli (GPa) = 74.94919 63.60882 129.26858
#
# Poissons Ratio (x) = -0.07209 0.54616
# Poissons Ratio (y) = -0.08494 0.42396
# Poissons Ratio (z) = 0.31666 0.20862
#
# Static dielectric constant tensor:
#      x y z
#    x 2.181840 0.000000 -0.278300 
#    y 0.000000 2.003980 0.000000 
#    z -0.278300 0.000000 2.045760 
# 
# From -- ./inp_files/30580.got.cif
#   From: 2010.05.17/outbox.cif.g08.bks.cpg/sg10_16_cif.got.tgz:30580.got - 2010.06.03 11:33:40.
