data_PCOD9148929
_publ_section_title
;
Structure prediction by ZEFSAII (Michael W. Deem and Ramdas Pophale) SiO2 
 PCOD9148929
Probable space group: P 2/M
;
_chemical_formula_sum "Si O2"
_cell_formula_units_Z 28
_cell_length_a 28.623283
_cell_length_b 9.118364
_cell_length_c 9.716582
_cell_angle_alpha 90.000000
_cell_angle_beta 40.089769
_cell_angle_gamma 90.000000
_cell_volume 1633.153520
_symmetry_space_group_name_H-M "P 2/M"
_symmetry_group_IT_number 10
_symmetry_cell_setting 'monoclinic'
loop_
_space_group_symop_operation_xyz
x,y,z
-x,y,-z
-x,-y,-z
x,-y,z
loop_
_atom_site_type_symbol
_atom_site_label
_atom_site_fract_x
_atom_site_fract_y
_atom_site_fract_z
Si Si1 0.646164 0.174668 0.509149
Si Si2 0.796318 0.324699 0.138952
Si Si3 0.058071 0.172142 0.674182
Si Si4 0.500906 0.175718 0.660148
Si Si5 0.894658 0.827214 0.121952
Si Si6 0.425514 0.669124 0.078469
Si Si7 0.081279 0.324151 0.353873
O O1 0.719293 0.249214 0.291402
O O2 0.579224 0.203720 0.555306
O O3 0.627727 0.241065 0.701318
O O4 0.654237 0.000000 0.501987
O O5 0.789187 0.500000 0.152313
O O6 0.831419 0.269638 0.202050
O O7 0.856295 0.277079 0.891397
O O8 0.095030 0.189250 0.738633
O O9 0.095601 0.266203 0.473355
O O10 0.059529 0.000000 0.635261
O O11 0.973252 0.214629 0.881704
O O12 0.500000 0.217965 0.500000
O O13 0.487859 0.000000 0.696317
O O14 0.444137 0.257236 0.889538
O O15 0.882484 0.000000 0.119886
O O16 0.402522 0.500000 0.113606
O O17 0.500000 0.669141 0.000000
O O18 0.079438 0.500000 0.355140
O O19 0.000000 0.270464 0.500000
#
# Coordination Sequence:
#
# PCOD9148929 Si02
#       7
#     4   4   4   4   4   4   4
#     4  10  20  35  55  78 106 140 177 218 263 314
#     4  11  22  35  52  75 105 139 176 220 268 320
#     4   9  18  32  52  75  98 126 168 219 264 312
#     4   9  18  34  57  84 111 141 178 216 257 307
#     4   9  18  33  51  74 100 128 167 215 264 313
#     4   9  17  31  53  80 108 138 174 212 251 303
#     4  10  20  34  50  73 103 137 179 222 268 320
#
# _framework density 17.144743999999999
#
# number of rings (size 3 to 8) (size 9 to 14) (size 15 to 20)
#    0.000    2.429    1.429    2.143    0.000    4.571 
#    0.000    2.857    0.000    5.143    0.000    0.000 
#    0.000    0.000    0.000    0.000    0.000    0.000 
#
# Total GULP energy -156070.369598 kJ/mol
# GULP energy per Si atom -5573.941771 kJ/mol
# Density = 1.710572 g / cm^3
# Si number density = 17.144744 Si / 1000 Ang^3
#
#
#
# Elastic Constant Matrix: (Units=GPa)
#
#
# Indices 1 2 3 4 5 6 
#
# 1 57.5647 38.3531 48.3451 0.0000 8.3038 0.0000
# 2 38.3531 50.8042 54.7494 0.0000 -0.1413 0.0000
# 3 48.3451 54.7494 118.2143 0.0000 6.9956 0.0000
# 4 0.0000 0.0000 0.0000 32.4312 0.0000 1.8350
# 5 8.3038 -0.1413 6.9956 0.0000 26.5260 0.0000
# 6 0.0000 0.0000 0.0000 1.8350 0.0000 24.7978
#
#
#
# Elastic Compliance Matrix: (Units=1/GPa)
#
#
# Indices 1 2 3 4 5 6 
#
# 1 0.039137 -0.026082 -0.003243 0.000000 -0.011535 0.000000
# 2 -0.026082 0.057366 -0.016663 0.000000 0.012865 0.000000
# 3 -0.003243 -0.016663 0.017725 0.000000 -0.003748 0.000000
# 4 0.000000 0.000000 0.000000 0.030964 0.000000 -0.002291
# 5 -0.011535 0.012865 -0.003748 0.000000 0.042367 0.000000
# 6 0.000000 0.000000 0.000000 -0.002291 0.000000 0.040496
#
#
# Mechanical properties :
#
#
# Convention : Reuss Voigt Hill
#
# Bulk Modulus (GPa) = 44.94233 56.60870 50.77552
# Shear Modulus (GPa) = 15.26953 22.42671 18.84812
#
# Velocity S-wave (km/s) = 2.98757 3.62066 3.31925
# Velocity P-wave (km/s) = 6.17828 7.11117 6.66108
#
# Compressibility (1/GPa) = 0.02225074
#
# Stress axis : x y z
#
# Youngs Moduli (GPa) = 25.55109 17.43181 56.41863
#
# Poissons Ratio (x) = 0.45466 0.18298
# Poissons Ratio (y) = 0.66643 0.94011
# Poissons Ratio (z) = 0.08287 0.29047
#
# Static dielectric constant tensor:
#      x y z
#    x 1.576210 0.000000 0.002480 
#    y 0.000000 1.576360 0.000000 
#    z 0.002480 0.000000 1.586030 
# 
# From -- ./inp_files/36938.got.cif
#   From: 2010.05.17/outbox.cif.g08.bks.cpg/sg10_19_cif.got.tgz:36938.got - 2010.06.03 11:33:40.
