data_PCOD9148471
_publ_section_title
;
Structure prediction by ZEFSAII (Michael W. Deem and Ramdas Pophale) SiO2 
 PCOD9148471
Probable space group: P 2/M
;
_chemical_formula_sum "Si O2"
_cell_formula_units_Z 28
_cell_length_a 22.065023
_cell_length_b 7.474876
_cell_length_c 14.993031
_cell_angle_alpha 90.000000
_cell_angle_beta 151.138988
_cell_angle_gamma 90.000000
_cell_volume 1193.611540
_symmetry_space_group_name_H-M "P 2/M"
_symmetry_group_IT_number 10
_symmetry_cell_setting 'monoclinic'
loop_
_space_group_symop_operation_xyz
x,y,z
-x,y,-z
-x,-y,-z
x,-y,z
loop_
_atom_site_type_symbol
_atom_site_label
_atom_site_fract_x
_atom_site_fract_y
_atom_site_fract_z
Si Si1 0.125321 0.290182 0.205550
Si Si2 0.603153 0.201886 0.864386
Si Si3 0.743173 0.216835 0.885087
Si Si4 0.395873 0.217956 0.938440
Si Si5 0.099292 0.218072 0.550579
Si Si6 0.020775 0.215512 0.252155
Si Si7 0.380206 0.290377 0.453078
O O1 0.127842 0.500000 0.185743
O O2 0.251449 0.214272 0.327689
O O3 0.118145 0.272296 0.302360
O O4 0.000000 0.211311 0.000000
O O5 0.711986 0.285070 0.944185
O O6 0.491020 0.197499 0.648944
O O7 0.646521 0.000000 0.940394
O O8 0.564664 0.274895 0.910386
O O9 0.642477 0.274393 0.681730
O O10 0.741163 0.000000 0.883782
O O11 0.883245 0.277124 0.042871
O O12 0.247516 0.271425 0.743887
O O13 0.396817 0.000000 0.931335
O O14 0.500000 0.280158 0.000000
O O15 0.000000 0.275226 0.500000
O O16 0.049307 0.274219 0.388925
O O17 0.099588 0.000000 0.554625
O O18 0.019798 0.000000 0.252210
O O19 0.395646 0.500000 0.493568
#
# Coordination Sequence:
#
# PCOD9148471 Si02
#       7
#     4   4   4   4   4   4   4
#     4  10  21  38  54  73 107 146 180 220 274 323
#     4  10  21  36  56  79 110 144 176 220 273 319
#     4  10  20  35  53  81 114 142 172 218 273 320
#     4   9  18  32  51  77 108 141 178 220 267 321
#     4   9  17  31  52  80 112 141 174 221 273 322
#     4  10  20  32  56  86 109 138 181 223 264 318
#     4  11  23  37  55  78 106 144 186 223 264 322
#
# _framework density 23.458216
#
# number of rings (size 3 to 8) (size 9 to 14) (size 15 to 20)
#    0.000    2.143    1.429    1.714    2.000    7.143 
#    0.000    0.000    0.000    1.714    0.000    0.000 
#    0.000    0.000    0.000    0.000    0.000    0.000 
#
# Total GULP energy -156281.536843 kJ/mol
# GULP energy per Si atom -5581.483459 kJ/mol
# Density = 2.340482 g / cm^3
# Si number density = 23.458216 Si / 1000 Ang^3
#
#
#
# Elastic Constant Matrix: (Units=GPa)
#
#
# Indices 1 2 3 4 5 6 
#
# 1 193.6321 -7.9463 48.2352 0.0000 -2.9003 0.0000
# 2 -7.9463 72.4908 -5.7400 0.0000 4.1530 0.0000
# 3 48.2352 -5.7400 89.6626 0.0000 -0.4791 0.0000
# 4 0.0000 0.0000 0.0000 -12.6799 0.0000 -5.5795
# 5 -2.9003 4.1530 -0.4791 0.0000 38.0527 0.0000
# 6 0.0000 0.0000 0.0000 -5.5795 0.0000 19.5557
#
#
#
# Elastic Compliance Matrix: (Units=1/GPa)
#
#
# Indices 1 2 3 4 5 6 
#
# 1 0.005981 0.000381 -0.003191 0.000000 0.000374 0.000000
# 2 0.000381 0.013976 0.000682 0.000000 -0.001488 0.000000
# 3 -0.003191 0.000682 0.012912 0.000000 -0.000155 0.000000
# 4 0.000000 0.000000 0.000000 -0.070068 0.000000 -0.019991
# 5 0.000374 -0.001488 -0.000155 0.000000 0.026468 0.000000
# 6 0.000000 0.000000 0.000000 -0.019991 0.000000 0.045432
#
#
# Mechanical properties :
#
#
# Convention : Reuss Voigt Hill
#
# Bulk Modulus (GPa) = 34.94919 47.20926 41.07923
# Shear Modulus (GPa) = 103.10451 30.40147 66.75299
#
# Velocity S-wave (km/s) = 6.63685 3.60388 5.34022
# Velocity P-wave (km/s) = 8.58261 6.12257 7.45477
#
# Compressibility (1/GPa) = 0.02861296
#
# Stress axis : x y z
#
# Youngs Moduli (GPa) = 167.20812 71.55195 77.44541
#
# Poissons Ratio (x) = -0.02730 0.24712
# Poissons Ratio (y) = -0.06379 -0.05278
# Poissons Ratio (z) = 0.53355 -0.04876
#
# Static dielectric constant tensor:
#      x y z
#    x 1.890480 0.000000 0.028390 
#    y 0.000000 1.887480 0.000000 
#    z 0.028390 0.000000 1.882240 
# 
# From -- ./inp_files/49311.got.cif
#   From: 2010.05.17/outbox.cif.g08.bks.cpg/sg10_25_cif.got.tgz:49311.got - 2010.06.03 11:33:40.
