data_PCOD9148606
_publ_section_title
;
Structure prediction by ZEFSAII (Michael W. Deem and Ramdas Pophale) SiO2 
 PCOD9148606
Probable space group: P 2/M
;
_chemical_formula_sum "Si O2"
_cell_formula_units_Z 32
_cell_length_a 13.127085
_cell_length_b 7.836415
_cell_length_c 12.274438
_cell_angle_alpha 90.000000
_cell_angle_beta 89.292207
_cell_angle_gamma 90.000000
_cell_volume 1262.566328
_symmetry_space_group_name_H-M "P 2/M"
_symmetry_group_IT_number 10
_symmetry_cell_setting 'monoclinic'
loop_
_space_group_symop_operation_xyz
x,y,z
-x,y,-z
-x,-y,-z
x,-y,z
loop_
_atom_site_type_symbol
_atom_site_label
_atom_site_fract_x
_atom_site_fract_y
_atom_site_fract_z
Si Si1 0.810245 0.201458 0.303498
Si Si2 0.889665 0.303396 0.986425
Si Si3 0.689739 0.196865 0.104885
Si Si4 0.521566 0.296905 0.669176
Si Si5 0.208090 0.308720 0.240771
Si Si6 0.594877 0.196259 0.888236
Si Si7 0.978064 0.205541 0.622089
Si Si8 0.336518 0.293315 0.518968
O O1 0.726968 0.277428 0.219309
O O2 0.926503 0.267431 0.304041
O O3 0.764876 0.222967 0.425213
O O4 0.814383 0.000000 0.278239
O O5 0.887014 0.500000 0.028853
O O6 0.869321 0.313669 0.859229
O O7 0.799332 0.200657 0.042615
O O8 0.000000 0.226995 0.000000
O O9 0.658162 0.000000 0.123425
O O10 0.617465 0.273514 0.008377
O O11 0.520024 0.500000 0.658900
O O12 0.515692 0.258444 0.797489
O O13 0.426744 0.233783 0.599687
O O14 0.623330 0.239641 0.601115
O O15 0.246719 0.500000 0.262437
O O16 0.301942 0.211654 0.184566
O O17 0.135511 0.250472 0.338274
O O18 0.574952 0.000000 0.907979
O O19 0.000000 0.268142 0.500000
O O20 0.984667 0.000000 0.622353
O O21 0.330266 0.500000 0.520893
#
# Coordination Sequence:
#
# PCOD9148606 Si02
#       8
#     4   4   4   4   4   4   4   4
#     4  10  21  37  56  78 111 149 184 223 270 325
#     4   9  17  29  47  71  98 130 175 227 268 306
#     4   9  19  34  50  74 106 143 183 220 264 319
#     4   9  19  38  60  84 112 138 174 224 274 326
#     4  10  20  33  50  75 105 140 181 223 269 319
#     4  10  20  34  56  82 110 144 183 228 273 318
#     4  10  22  37  51  74 109 145 184 229 272 319
#     4   9  20  38  60  84 110 141 176 220 273 328
#
# _framework density 25.345203000000001
#
# number of rings (size 3 to 8) (size 9 to 14) (size 15 to 20)
#    0.000    2.500    0.000    2.250    1.750    3.500 
#    0.000    1.875    0.000    3.750    0.000    0.000 
#    0.000    0.000    0.000    0.000    0.000    0.000 
#
# Total GULP energy -178621.047727 kJ/mol
# GULP energy per Si atom -5581.907741 kJ/mol
# Density = 2.528752 g / cm^3
# Si number density = 25.345203 Si / 1000 Ang^3
#
#
#
# Elastic Constant Matrix: (Units=GPa)
#
#
# Indices 1 2 3 4 5 6 
#
# 1 87.9177 4.2896 34.7905 0.0000 -2.2977 0.0000
# 2 4.2896 37.7784 2.4341 0.0000 -0.9692 0.0000
# 3 34.7905 2.4341 165.5996 0.0000 -1.1074 0.0000
# 4 0.0000 0.0000 0.0000 15.7630 0.0000 4.7848
# 5 -2.2977 -0.9692 -1.1074 0.0000 55.1987 0.0000
# 6 0.0000 0.0000 0.0000 4.7848 0.0000 20.9301
#
#
#
# Elastic Compliance Matrix: (Units=1/GPa)
#
#
# Indices 1 2 3 4 5 6 
#
# 1 0.012475 -0.001238 -0.002600 0.000000 0.000445 0.000000
# 2 -0.001238 0.026630 -0.000129 0.000000 0.000413 0.000000
# 3 -0.002600 -0.000129 0.006587 0.000000 0.000022 0.000000
# 4 0.000000 0.000000 0.000000 0.068170 0.000000 -0.015584
# 5 0.000445 0.000413 0.000022 0.000000 0.018143 0.000000
# 6 0.000000 0.000000 0.000000 -0.015584 0.000000 0.051341
#
#
# Mechanical properties :
#
#
# Convention : Reuss Voigt Hill
#
# Bulk Modulus (GPa) = 26.48332 41.59158 34.03745
# Shear Modulus (GPa) = 24.52623 35.03046 29.77835
#
# Velocity S-wave (km/s) = 3.11414 3.72174 3.43142
# Velocity P-wave (km/s) = 4.83759 5.90882 5.39983
#
# Compressibility (1/GPa) = 0.03775962
#
# Stress axis : x y z
#
# Youngs Moduli (GPa) = 80.16007 37.55226 151.81735
#
# Poissons Ratio (x) = 0.04647 0.39468
# Poissons Ratio (y) = 0.09920 0.01953
# Poissons Ratio (z) = 0.20839 0.00483
#
# Static dielectric constant tensor:
#      x y z
#    x 2.072260 0.000000 0.056720 
#    y 0.000000 1.929540 0.000000 
#    z 0.056720 0.000000 2.059580 
# 
# From -- ./inp_files/49975.got.cif
#   From: 2010.05.17/outbox.cif.g08.bks.cpg/sg10_25_cif.got.tgz:49975.got - 2010.06.03 11:33:40.
