data_PCOD9148464
_publ_section_title
;
Structure prediction by ZEFSAII (Michael W. Deem and Ramdas Pophale) SiO2 
 PCOD9148464
Probable space group: P 2/M
;
_chemical_formula_sum "Si O2"
_cell_formula_units_Z 24
_cell_length_a 15.211685
_cell_length_b 16.156694
_cell_length_c 8.745525
_cell_angle_alpha 90.000000
_cell_angle_beta 142.417548
_cell_angle_gamma 90.000000
_cell_volume 1310.919756
_symmetry_space_group_name_H-M "P 2/M"
_symmetry_group_IT_number 10
_symmetry_cell_setting 'monoclinic'
loop_
_space_group_symop_operation_xyz
x,y,z
-x,y,-z
-x,-y,-z
x,-y,z
loop_
_atom_site_type_symbol
_atom_site_label
_atom_site_fract_x
_atom_site_fract_y
_atom_site_fract_z
Si Si1 0.642078 0.143385 0.898990
Si Si2 0.434575 0.000000 0.581347
Si Si3 0.658359 0.407382 0.796338
Si Si4 0.281817 0.752078 0.294121
Si Si5 0.145182 0.000000 0.356191
Si Si6 0.169125 0.000000 0.733119
Si Si7 0.000000 0.146640 0.000000
Si Si8 0.461274 0.702122 0.117306
O O1 0.504118 0.084576 0.739040
O O2 0.653278 0.187648 0.748961
O O3 0.639944 0.217216 0.016759
O O4 0.771550 0.080301 0.100029
O O5 0.500000 0.000000 0.500000
O O6 0.266914 0.000000 0.390147
O O7 0.500000 0.409951 0.500000
O O8 0.718604 0.500000 0.877633
O O9 0.744946 0.336273 0.825771
O O10 0.621708 0.371575 0.912259
O O11 0.400550 0.731135 0.588640
O O12 0.137827 0.796613 0.152792
O O13 0.049484 0.082119 0.200401
O O14 0.217813 0.000000 0.622545
O O15 0.000000 0.000000 0.500000
O O16 0.500000 0.680219 0.000000
#
# Coordination Sequence:
#
# PCOD9148464 Si02
#       8
#     4   2   4   4   2   2   2   4
#     4  10  21  34  53  72 106 143 185 225 278 320
#     4  11  20  33  54  73 101 141 185 235 276 318
#     4   8  16  34  58  83 110 138 173 218 274 332
#     4  10  20  37  56  81 108 148 183 219 270 338
#     4  11  24  35  52  80 107 149 190 240 277 319
#     4  11  24  37  50  73 110 147 195 235 278 322
#     4  11  22  36  55  74 114 148 189 220 272 323
#     4  10  20  32  55  85 109 136 178 228 276 319
#
# _framework density 18.307755
#
# number of rings (size 3 to 8) (size 9 to 14) (size 15 to 20)
#    0.000    2.000    0.000    5.500    4.667    3.667 
#    0.000    0.417    0.000    0.000    0.000    1.167 
#    0.000    0.000    0.000    0.000    0.000    0.000 
#
# Total GULP energy -133807.338034 kJ/mol
# GULP energy per Si atom -5575.305751 kJ/mol
# Density = 1.826609 g / cm^3
# Si number density = 18.307755 Si / 1000 Ang^3
#
#
#
# Elastic Constant Matrix: (Units=GPa)
#
#
# Indices 1 2 3 4 5 6 
#
# 1 69.2109 39.2250 20.0310 0.0000 -2.6953 0.0000
# 2 39.2250 158.6478 31.9683 0.0000 0.1048 0.0000
# 3 20.0310 31.9683 52.8979 0.0000 2.1349 0.0000
# 4 0.0000 0.0000 0.0000 11.4364 0.0000 4.7439
# 5 -2.6953 0.1048 2.1349 0.0000 35.6709 0.0000
# 6 0.0000 0.0000 0.0000 4.7439 0.0000 10.6760
#
#
#
# Elastic Compliance Matrix: (Units=1/GPa)
#
#
# Indices 1 2 3 4 5 6 
#
# 1 0.017843 -0.003459 -0.004732 0.000000 0.001642 0.000000
# 2 -0.003459 0.007850 -0.003431 0.000000 -0.000079 0.000000
# 3 -0.004732 -0.003431 0.022839 0.000000 -0.001714 0.000000
# 4 0.000000 0.000000 0.000000 0.107199 0.000000 -0.047634
# 5 0.001642 -0.000079 -0.001714 0.000000 0.028261 0.000000
# 6 0.000000 0.000000 0.000000 -0.047634 0.000000 0.114835
#
#
# Mechanical properties :
#
#
# Convention : Reuss Voigt Hill
#
# Bulk Modulus (GPa) = 39.54627 51.46725 45.50676
# Shear Modulus (GPa) = 15.12860 24.19214 19.66037
#
# Velocity S-wave (km/s) = 2.87775 3.63907 3.28057
# Velocity P-wave (km/s) = 5.71748 6.76982 6.26578
#
# Compressibility (1/GPa) = 0.02528684
#
# Stress axis : x y z
#
# Youngs Moduli (GPa) = 56.04591 127.39003 43.78471
#
# Poissons Ratio (x) = 0.44064 0.20720
# Poissons Ratio (y) = 0.19386 0.15023
# Poissons Ratio (z) = 0.26523 0.43708
#
# Static dielectric constant tensor:
#      x y z
#    x 1.655270 0.000000 -0.026910 
#    y 0.000000 1.644480 0.000000 
#    z -0.026910 0.000000 1.670810 
# 
# From -- ./inp_files/29746.got.cif
#   From: 2010.05.17/outbox.cif.g08.bks.cpg/sg10_15_cif.got.tgz:29746.got - 2010.06.03 11:33:40.
