data_PCOD9148296
_publ_section_title
;
Structure prediction by ZEFSAII (Michael W. Deem and Ramdas Pophale) SiO2 
 PCOD9148296
Probable space group: P 2/M
;
_chemical_formula_sum "Si O2"
_cell_formula_units_Z 32
_cell_length_a 25.439790
_cell_length_b 7.614516
_cell_length_c 21.650620
_cell_angle_alpha 90.000000
_cell_angle_beta 21.944124
_cell_angle_gamma 90.000000
_cell_volume 1567.298889
_symmetry_space_group_name_H-M "P 2/M"
_symmetry_group_IT_number 10
_symmetry_cell_setting 'monoclinic'
loop_
_space_group_symop_operation_xyz
x,y,z
-x,y,-z
-x,-y,-z
x,-y,z
loop_
_atom_site_type_symbol
_atom_site_label
_atom_site_fract_x
_atom_site_fract_y
_atom_site_fract_z
Si Si1 0.939519 0.715555 0.499240
Si Si2 0.130662 0.788118 0.938478
Si Si3 0.486270 0.210870 0.840629
Si Si4 0.810514 0.214797 0.260197
Si Si5 0.277298 0.293962 0.906152
Si Si6 0.828048 0.292956 0.849366
Si Si7 0.416980 0.797571 0.396403
Si Si8 0.377659 0.708582 0.177642
O O1 0.939510 0.500000 0.498092
O O2 0.779488 0.776362 0.663421
O O3 0.000000 0.767051 0.500000
O O4 0.046049 0.778316 0.329692
O O5 0.206991 0.729375 0.792040
O O6 0.134000 0.000000 0.935536
O O7 0.197767 0.726583 0.928759
O O8 0.967607 0.735702 0.109686
O O9 0.558260 0.278944 0.698923
O O10 0.571323 0.265208 0.808107
O O11 0.482151 0.000000 0.842006
O O12 0.323798 0.271356 0.017871
O O13 0.696439 0.280832 0.433302
O O14 0.804748 0.000000 0.265652
O O15 0.302759 0.500000 0.889638
O O16 0.192939 0.223253 0.058023
O O17 0.429957 0.206606 0.739079
O O18 0.856337 0.500000 0.824493
O O19 0.374103 0.000000 0.433441
O O20 0.369918 0.500000 0.173883
O O21 0.500000 0.782094 0.000000
#
# Coordination Sequence:
#
# PCOD9148296 Si02
#       8
#     4   4   4   4   4   4   4   4
#     4   9  17  31  53  77  96 121 164 207 236 274
#     4   9  17  32  53  73  94 125 165 206 245 288
#     4  10  20  33  51  75 102 130 161 201 246 289
#     4   8  16  32  53  73  93 124 168 208 241 287
#     4  10  20  32  47  72 103 131 160 198 245 293
#     4   9  18  34  53  71  97 132 166 200 239 288
#     4   9  18  34  53  72  96 129 166 201 241 289
#     4  10  20  34  54  77 100 130 165 199 240 290
#
# _framework density 20.417293000000001
#
# number of rings (size 3 to 8) (size 9 to 14) (size 15 to 20)
#    0.000    2.750    0.000    2.250    0.000    4.750 
#    0.000    5.625    0.000    1.500    0.000    0.000 
#    0.000    0.000    0.000    0.000    0.000    0.000 
#
# Total GULP energy -178524.334331 kJ/mol
# GULP energy per Si atom -5578.885448 kJ/mol
# Density = 2.037082 g / cm^3
# Si number density = 20.417293 Si / 1000 Ang^3
#
#
#
# Elastic Constant Matrix: (Units=GPa)
#
#
# Indices 1 2 3 4 5 6 
#
# 1 157.7469 -12.0814 104.8043 0.0000 -2.4382 0.0000
# 2 -12.0814 39.1739 1.8833 0.0000 6.9963 0.0000
# 3 104.8043 1.8833 177.1920 0.0000 31.5178 0.0000
# 4 0.0000 0.0000 0.0000 7.6830 0.0000 -2.2777
# 5 -2.4382 6.9963 31.5178 0.0000 23.0361 0.0000
# 6 0.0000 0.0000 0.0000 -2.2777 0.0000 18.9920
#
#
#
# Elastic Compliance Matrix: (Units=1/GPa)
#
#
# Indices 1 2 3 4 5 6 
#
# 1 0.014380 0.002019 -0.011483 0.000000 0.016620 0.000000
# 2 0.002019 0.027600 -0.000045 0.000000 -0.008107 0.000000
# 3 -0.011483 -0.000045 0.016718 0.000000 -0.024076 0.000000
# 4 0.000000 0.000000 0.000000 0.134957 0.000000 0.016185
# 5 0.016620 -0.008107 -0.024076 0.000000 0.080571 0.000000
# 6 0.000000 0.000000 0.000000 0.016185 0.000000 0.054595
#
#
# Mechanical properties :
#
#
# Convention : Reuss Voigt Hill
#
# Bulk Modulus (GPa) = 25.20254 62.59169 43.89711
# Shear Modulus (GPa) = 13.84787 28.57599 21.21193
#
# Velocity S-wave (km/s) = 2.60713 3.74518 3.22672
# Velocity P-wave (km/s) = 4.62962 7.03026 5.95222
#
# Compressibility (1/GPa) = 0.03967854
#
# Stress axis : x y z
#
# Youngs Moduli (GPa) = 69.54179 36.23221 59.81449
#
# Poissons Ratio (x) = -0.07314 0.68685
# Poissons Ratio (y) = -0.14038 0.00271
# Poissons Ratio (z) = 0.79855 0.00164
#
# Static dielectric constant tensor:
#      x y z
#    x 1.700340 0.000000 0.038600 
#    y 0.000000 1.784510 0.000000 
#    z 0.038600 0.000000 1.717120 
# 
# From -- ./inp_files/91222.got.cif
#   From: 2010.05.17/outbox.cif.g08.bks.cpg/sg10_46_cif.got.tgz:91222.got - 2010.06.03 11:33:40.
