data_PCOD9148062
_publ_section_title
;
Structure prediction by ZEFSAII (Michael W. Deem and Ramdas Pophale) SiO2 
 PCOD9148062
Probable space group: P 2/M
;
_chemical_formula_sum "Si O2"
_cell_formula_units_Z 28
_cell_length_a 24.141561
_cell_length_b 8.820248
_cell_length_c 20.877398
_cell_angle_alpha 90.000000
_cell_angle_beta 160.526449
_cell_angle_gamma 90.000000
_cell_volume 1482.010287
_symmetry_space_group_name_H-M "P 2/M"
_symmetry_group_IT_number 10
_symmetry_cell_setting 'monoclinic'
loop_
_space_group_symop_operation_xyz
x,y,z
-x,y,-z
-x,-y,-z
x,-y,z
loop_
_atom_site_type_symbol
_atom_site_label
_atom_site_fract_x
_atom_site_fract_y
_atom_site_fract_z
Si Si1 0.751743 0.681563 0.389320
Si Si2 0.094479 0.182290 0.944165
Si Si3 0.675681 0.819495 0.686026
Si Si4 0.128790 0.317318 0.843310
Si Si5 0.599597 0.819144 0.958534
Si Si6 0.195894 0.681325 0.702955
Si Si7 0.871166 0.326982 0.797918
O O1 0.737640 0.500000 0.383200
O O2 0.751376 0.711501 0.312553
O O3 0.938994 0.726157 0.615650
O O4 0.590912 0.757783 0.247031
O O5 0.146110 0.254574 0.933903
O O6 0.930779 0.257273 0.796238
O O7 0.081560 0.000000 0.925403
O O8 0.219333 0.225416 0.137751
O O9 0.500000 0.743215 0.500000
O O10 0.736670 0.780433 0.682250
O O11 0.669351 0.000000 0.683609
O O12 0.137774 0.500000 0.850470
O O13 0.275386 0.250670 0.958640
O O14 0.687719 0.769533 0.120998
O O15 0.596672 0.000000 0.948711
O O16 0.212960 0.500000 0.733542
O O17 0.000000 0.717706 0.500000
O O18 0.821683 0.500000 0.734997
O O19 0.000000 0.326610 0.000000
#
# Coordination Sequence:
#
# PCOD9148062 Si02
#       7
#     4   4   4   4   4   4   4
#     4  10  22  41  65  88 115 157 207 252 297 358
#     4  10  20  36  58  84 114 150 190 236 296 352
#     4   9  18  34  56  83 115 149 186 234 290 346
#     4  11  23  43  65  85 117 162 209 250 297 358
#     4  12  25  39  60  92 127 158 196 250 310 363
#     4  10  19  38  65  90 117 158 207 251 300 355
#     4   9  17  31  53  79 106 140 184 229 273 330
#
# _framework density 18.893256000000001
#
# number of rings (size 3 to 8) (size 9 to 14) (size 15 to 20)
#    0.000    1.857    1.429    3.000    0.000    6.286 
#    2.571    0.000    0.000    0.000    0.000    0.000 
#    0.000    0.000    0.000    0.000    0.000    0.000 
#
# Total GULP energy -155989.326088 kJ/mol
# GULP energy per Si atom -5571.047360 kJ/mol
# Density = 1.885025 g / cm^3
# Si number density = 18.893256 Si / 1000 Ang^3
#
#
#
# Elastic Constant Matrix: (Units=GPa)
#
#
# Indices 1 2 3 4 5 6 
#
# 1 144.5228 47.1187 55.5529 0.0000 4.1164 0.0000
# 2 47.1187 12.7696 45.6201 0.0000 -62.6229 0.0000
# 3 55.5529 45.6201 62.1841 0.0000 31.9618 0.0000
# 4 0.0000 0.0000 0.0000 10.5368 0.0000 2.4491
# 5 4.1164 -62.6229 31.9618 0.0000 -73.7019 0.0000
# 6 0.0000 0.0000 0.0000 2.4491 0.0000 34.6085
#
#
#
# Elastic Compliance Matrix: (Units=1/GPa)
#
#
# Indices 1 2 3 4 5 6 
#
# 1 0.011471 -0.005540 -0.007304 0.000000 0.002180 0.000000
# 2 -0.005540 0.018937 -0.000420 0.000000 -0.016582 0.000000
# 3 -0.007304 -0.000420 0.018760 0.000000 0.008085 0.000000
# 4 0.000000 0.000000 0.000000 0.096493 0.000000 -0.006828
# 5 0.002180 -0.016582 0.008085 0.000000 0.004149 0.000000
# 6 0.000000 0.000000 0.000000 -0.006828 0.000000 0.029378
#
#
# Mechanical properties :
#
#
# Convention : Reuss Voigt Hill
#
# Bulk Modulus (GPa) = 44.17325 57.33999 50.75662
# Shear Modulus (GPa) = 23.44533 -0.96566 11.23983
#
# Velocity S-wave (km/s) = 3.52651 -0.71570 2.44173
# Velocity P-wave (km/s) = 6.32558 5.45274 5.90531
#
# Compressibility (1/GPa) = 0.02263814
#
# Stress axis : x y z
#
# Youngs Moduli (GPa) = 87.17575 52.80747 53.30603
#
# Poissons Ratio (x) = 0.29255 0.38936
# Poissons Ratio (y) = 0.48296 0.02241
# Poissons Ratio (z) = 0.63675 0.02220
#
# Static dielectric constant tensor:
#      x y z
#    x 1.619530 0.000000 0.020780 
#    y 0.000000 1.633380 0.000000 
#    z 0.020780 0.000000 1.731860 
# 
# From -- ./inp_files/86535.got.cif
#   From: 2010.05.17/outbox.cif.g08.bks.cpg/sg10_44_cif.got.tgz:86535.got - 2010.06.03 11:33:40.
