data_PCOD9148849
_publ_section_title
;
Structure prediction by ZEFSAII (Michael W. Deem and Ramdas Pophale) SiO2 
 PCOD9148849
Probable space group: P 2/M
;
_chemical_formula_sum "Si O2"
_cell_formula_units_Z 32
_cell_length_a 30.023807
_cell_length_b 7.577519
_cell_length_c 12.560296
_cell_angle_alpha 90.000000
_cell_angle_beta 148.298343
_cell_angle_gamma 90.000000
_cell_volume 1501.627781
_symmetry_space_group_name_H-M "P 2/M"
_symmetry_group_IT_number 10
_symmetry_cell_setting 'monoclinic'
loop_
_space_group_symop_operation_xyz
x,y,z
-x,y,-z
-x,-y,-z
x,-y,z
loop_
_atom_site_type_symbol
_atom_site_label
_atom_site_fract_x
_atom_site_fract_y
_atom_site_fract_z
Si Si1 0.850385 0.286713 0.920971
Si Si2 0.338340 0.284102 0.403826
Si Si3 0.009223 0.788956 0.397293
Si Si4 0.353358 0.295067 0.977828
Si Si5 0.502707 0.716078 0.127997
Si Si6 0.100891 0.296393 0.211885
Si Si7 0.400936 0.714105 0.302780
Si Si8 0.836678 0.201314 0.433664
O O1 0.850667 0.500000 0.916454
O O2 0.756921 0.227649 0.764146
O O3 0.867683 0.221767 0.836383
O O4 0.925284 0.241026 0.155509
O O5 0.338786 0.500000 0.405682
O O6 0.411534 0.230597 0.635769
O O7 0.362303 0.222276 0.334482
O O8 0.092001 0.720936 0.501072
O O9 0.000000 0.721525 0.500000
O O10 0.019825 0.000000 0.425841
O O11 0.378722 0.500000 0.039575
O O12 0.255275 0.287957 0.748723
O O13 0.420331 0.223487 0.027989
O O14 0.361996 0.218180 0.113786
O O15 0.502212 0.500000 0.124572
O O16 0.500000 0.774888 0.000000
O O17 0.130726 0.500000 0.281760
O O18 0.127090 0.204486 0.373542
O O19 0.000000 0.297701 0.000000
O O20 0.500000 0.753408 0.500000
O O21 0.391663 0.500000 0.287075
O O22 0.821794 0.000000 0.370173
#
# Coordination Sequence:
#
# PCOD9148849 Si02
#       8
#     4   4   4   4   4   4   4   4
#     4  10  21  35  57  87 113 139 175 228 280 322
#     4   9  17  29  47  77 112 139 170 215 267 321
#     4  10  23  42  58  75 108 151 188 223 269 331
#     4  10  20  33  55  83 109 142 183 228 274 319
#     4   9  17  29  48  77 112 146 177 215 268 325
#     4  10  20  37  59  83 111 139 177 230 280 325
#     4   9  15  28  49  76 108 138 174 222 269 316
#     4  11  24  39  57  80 109 148 188 226 274 330
#
# _framework density 21.310207999999999
#
# number of rings (size 3 to 8) (size 9 to 14) (size 15 to 20)
#    0.000    2.250    2.500    0.375    3.500    1.500 
#    0.000    0.000    0.000    1.500    0.000    0.000 
#    0.000    0.000    0.000    0.000    0.000    0.000 
#
# Total GULP energy -178620.076435 kJ/mol
# GULP energy per Si atom -5581.877389 kJ/mol
# Density = 2.126171 g / cm^3
# Si number density = 21.310208 Si / 1000 Ang^3
#
#
#
# Elastic Constant Matrix: (Units=GPa)
#
#
# Indices 1 2 3 4 5 6 
#
# 1 214.1480 6.0624 86.4374 0.0000 -4.1791 0.0000
# 2 6.0624 45.5470 -4.4414 0.0000 -0.8341 0.0000
# 3 86.4374 -4.4414 124.5943 0.0000 -6.5668 0.0000
# 4 0.0000 0.0000 0.0000 31.4442 0.0000 8.7809
# 5 -4.1791 -0.8341 -6.5668 0.0000 37.5247 0.0000
# 6 0.0000 0.0000 0.0000 8.7809 0.0000 0.9160
#
#
#
# Elastic Compliance Matrix: (Units=1/GPa)
#
#
# Indices 1 2 3 4 5 6 
#
# 1 0.006565 -0.001325 -0.004607 0.000000 -0.000105 0.000000
# 2 -0.001325 0.022314 0.001749 0.000000 0.000655 0.000000
# 3 -0.004607 0.001749 0.011364 0.000000 0.001515 0.000000
# 4 0.000000 0.000000 0.000000 -0.018964 0.000000 0.181794
# 5 -0.000105 0.000655 0.001515 0.000000 0.026917 0.000000
# 6 0.000000 0.000000 0.000000 0.181794 0.000000 -0.650997
#
#
# Mechanical properties :
#
#
# Convention : Reuss Voigt Hill
#
# Bulk Modulus (GPa) = 31.37000 62.26734 46.81867
# Shear Modulus (GPa) = -8.56444 33.72571 12.58064
#
# Velocity S-wave (km/s) = -2.00690 3.98252 2.43236
# Velocity P-wave (km/s) = 3.06307 7.10142 5.46866
#
# Compressibility (1/GPa) = 0.03187759
#
# Stress axis : x y z
#
# Youngs Moduli (GPa) = 152.33060 44.81447 87.99468
#
# Poissons Ratio (x) = 0.05938 0.40539
# Poissons Ratio (y) = 0.20183 -0.15391
# Poissons Ratio (z) = 0.70178 -0.07838
#
# Static dielectric constant tensor:
#      x y z
#    x 1.745200 0.000000 0.024450 
#    y 0.000000 1.836260 0.000000 
#    z 0.024450 0.000000 1.696260 
# 
# From -- ./inp_files/58378.got.cif
#   From: 2010.05.17/outbox.cif.g08.bks.cpg/sg10_30_cif.got.tgz:58378.got - 2010.06.03 11:33:40.
