data_PCOD9148528
_publ_section_title
;
Structure prediction by ZEFSAII (Michael W. Deem and Ramdas Pophale) SiO2 
 PCOD9148528
Probable space group: P 2/M
;
_chemical_formula_sum "Si O2"
_cell_formula_units_Z 20
_cell_length_a 7.769019
_cell_length_b 14.433087
_cell_length_c 7.678948
_cell_angle_alpha 90.000000
_cell_angle_beta 115.873396
_cell_angle_gamma 90.000000
_cell_volume 774.736583
_symmetry_space_group_name_H-M "P 2/M"
_symmetry_group_IT_number 10
_symmetry_cell_setting 'monoclinic'
loop_
_space_group_symop_operation_xyz
x,y,z
-x,y,-z
-x,-y,-z
x,-y,z
loop_
_atom_site_type_symbol
_atom_site_label
_atom_site_fract_x
_atom_site_fract_y
_atom_site_fract_z
Si Si1 0.720963 0.605610 0.965726
Si Si2 0.078086 0.899917 0.256419
Si Si3 0.924876 0.693559 0.739869
Si Si4 0.401828 0.709174 0.649090
Si Si5 0.687201 0.098735 0.277578
O O1 0.731709 0.500000 0.026892
O O2 0.827121 0.619933 0.825204
O O3 0.507394 0.635440 0.817124
O O4 0.850313 0.671057 0.146563
O O5 0.853357 0.897955 0.206713
O O6 0.118063 0.797338 0.204375
O O7 0.195765 0.902168 0.488730
O O8 0.124400 0.000000 0.193182
O O9 0.815991 0.691238 0.507792
O O10 0.500000 0.713464 0.500000
O O11 0.429583 0.807744 0.756993
O O12 0.583140 0.000000 0.219591
#
# Coordination Sequence:
#
# PCOD9148528 Si02
#       5
#     4   4   4   4   4
#     4  10  20  33  49  70  94 122 161 203 242 282
#     4   8  14  27  49  73  98 129 158 187 229 281
#     4   9  17  31  50  71  94 123 158 193 235 282
#     4   9  18  30  48  74  97 124 158 195 235 277
#     4   8  14  27  48  73 100 129 158 187 227 282
#
# _framework density 25.815225999999999
#
# number of rings (size 3 to 8) (size 9 to 14) (size 15 to 20)
#    0.000    3.200    0.000    2.400    0.000    4.800 
#    0.000    7.000    0.000    6.000    0.000   21.000 
#    0.000    0.000    0.000    0.000    0.000    0.000 
#
# Total GULP energy -111647.155196 kJ/mol
# GULP energy per Si atom -5582.357760 kJ/mol
# Density = 2.575647 g / cm^3
# Si number density = 25.815226 Si / 1000 Ang^3
#
#
#
# Elastic Constant Matrix: (Units=GPa)
#
#
# Indices 1 2 3 4 5 6 
#
# 1 62.1910 8.9430 24.2622 0.0000 17.0327 0.0000
# 2 8.9430 188.5625 50.7302 0.0000 16.7443 0.0000
# 3 24.2622 50.7302 170.3226 0.0000 14.8831 0.0000
# 4 0.0000 0.0000 0.0000 -5.3790 0.0000 3.5341
# 5 17.0327 16.7443 14.8831 0.0000 39.7826 0.0000
# 6 0.0000 0.0000 0.0000 3.5341 0.0000 30.0211
#
#
#
# Elastic Compliance Matrix: (Units=1/GPa)
#
#
# Indices 1 2 3 4 5 6 
#
# 1 0.018903 0.000341 -0.002145 0.000000 -0.007434 0.000000
# 2 0.000341 0.005905 -0.001631 0.000000 -0.002021 0.000000
# 3 -0.002145 -0.001631 0.006743 0.000000 -0.000918 0.000000
# 4 0.000000 0.000000 0.000000 -0.172563 0.000000 0.020314
# 5 -0.007434 -0.002021 -0.000918 0.000000 0.029514 0.000000
# 6 0.000000 0.000000 0.000000 0.020314 0.000000 0.030919
#
#
# Mechanical properties :
#
#
# Convention : Reuss Voigt Hill
#
# Bulk Modulus (GPa) = 40.51571 65.43854 52.97712
# Shear Modulus (GPa) = -76.35641 35.36100 -20.49770
#
# Velocity S-wave (km/s) = -5.44447 3.70506 -2.82089
# Velocity P-wave (km/s) = 4.87796 6.61114 3.15537
#
# Compressibility (1/GPa) = 0.02468178
#
# Stress axis : x y z
#
# Youngs Moduli (GPa) = 52.90085 169.33772 148.30992
#
# Poissons Ratio (x) = -0.05768 0.31806
# Poissons Ratio (y) = -0.01802 0.24186
# Poissons Ratio (z) = 0.11345 0.27616
#
# Static dielectric constant tensor:
#      x y z
#    x 2.162030 0.000000 0.010080 
#    y 0.000000 1.980970 0.000000 
#    z 0.010080 0.000000 2.025630 
# 
# From -- ./inp_files/23464.got.cif
#   From: 2010.05.17/outbox.cif.g08.bks.cpg/sg10_12_cif.got.tgz:23464.got - 2010.06.03 11:33:40.
