data_PCOD9148364
_publ_section_title
;
Structure prediction by ZEFSAII (Michael W. Deem and Ramdas Pophale) SiO2 
 PCOD9148364
Probable space group: P 2/M
;
_chemical_formula_sum "Si O2"
_cell_formula_units_Z 28
_cell_length_a 5.231431
_cell_length_b 18.148870
_cell_length_c 19.113867
_cell_angle_alpha 90.000000
_cell_angle_beta 119.450516
_cell_angle_gamma 90.000000
_cell_volume 1580.255915
_symmetry_space_group_name_H-M "P 2/M"
_symmetry_group_IT_number 10
_symmetry_cell_setting 'monoclinic'
loop_
_space_group_symop_operation_xyz
x,y,z
-x,y,-z
-x,-y,-z
x,-y,z
loop_
_atom_site_type_symbol
_atom_site_label
_atom_site_fract_x
_atom_site_fract_y
_atom_site_fract_z
Si Si1 0.667780 0.195898 0.707989
Si Si2 0.670341 0.911033 0.954331
Si Si3 0.725683 0.675164 0.351638
Si Si4 0.871831 0.083380 0.209036
Si Si5 0.316951 0.587330 0.402507
Si Si6 0.847635 0.082204 0.374086
Si Si7 0.812670 0.214626 0.569422
O O1 0.495457 0.266242 0.717290
O O2 0.436918 0.132576 0.654469
O O3 0.808594 0.222378 0.653516
O O4 0.909363 0.149147 0.782951
O O5 0.455746 0.897911 0.860208
O O6 0.691650 0.000000 0.961776
O O7 0.500000 0.884982 0.000000
O O8 0.000000 0.881844 0.000000
O O9 0.519305 0.624365 0.370792
O O10 0.991682 0.624341 0.358071
O O11 0.920583 0.735127 0.419383
O O12 0.882966 0.078862 0.294431
O O13 0.947845 0.000000 0.192134
O O14 0.500000 0.597035 0.500000
O O15 0.286606 0.500000 0.387821
O O16 0.117619 0.130038 0.438593
O O17 0.819419 0.000000 0.397457
O O18 0.500000 0.237339 0.500000
#
# Coordination Sequence:
#
# PCOD9148364 Si02
#       7
#     4   4   4   4   4   4   4
#     4  10  20  32  50  71  93 129 171 204 257 303
#     4   9  18  30  46  71  97 126 163 206 254 293
#     4  11  21  35  52  72  99 124 159 200 242 295
#     4   9  18  32  49  69 100 132 171 219 251 293
#     4  11  23  36  54  77  99 124 155 196 251 303
#     4   9  19  32  47  67  92 126 170 217 259 298
#     4  10  21  34  49  68  91 126 165 213 260 302
#
# _framework density 17.718647000000001
#
# number of rings (size 3 to 8) (size 9 to 14) (size 15 to 20)
#    0.000    2.143    1.429    1.714    4.000    3.714 
#    0.000    0.714    0.000    0.000    0.000    0.000 
#    0.000    0.000    0.000    0.000    0.000   14.286 
#
# Total GULP energy -155974.420807 kJ/mol
# GULP energy per Si atom -5570.515029 kJ/mol
# Density = 1.767832 g / cm^3
# Si number density = 17.718647 Si / 1000 Ang^3
#
#
#
# Elastic Constant Matrix: (Units=GPa)
#
#
# Indices 1 2 3 4 5 6 
#
# 1 112.8182 52.1296 22.2913 0.0000 27.7524 0.0000
# 2 52.1296 139.1275 22.7542 0.0000 20.7855 0.0000
# 3 22.2913 22.7542 46.6045 0.0000 23.1819 0.0000
# 4 0.0000 0.0000 0.0000 5.1065 0.0000 9.4708
# 5 27.7524 20.7855 23.1819 0.0000 26.0211 0.0000
# 6 0.0000 0.0000 0.0000 9.4708 0.0000 29.1899
#
#
#
# Elastic Compliance Matrix: (Units=1/GPa)
#
#
# Indices 1 2 3 4 5 6 
#
# 1 0.013258 -0.003304 0.001782 0.000000 -0.013089 0.000000
# 2 -0.003304 0.009031 -0.001784 0.000000 -0.002101 0.000000
# 3 0.001782 -0.001784 0.038991 0.000000 -0.035212 0.000000
# 4 0.000000 0.000000 0.000000 0.491720 0.000000 -0.159542
# 5 -0.013089 -0.002101 -0.035212 0.000000 0.085439 0.000000
# 6 0.000000 0.000000 0.000000 -0.159542 0.000000 0.086023
#
#
# Mechanical properties :
#
#
# Convention : Reuss Voigt Hill
#
# Bulk Modulus (GPa) = 18.29178 54.76670 36.52924
# Shear Modulus (GPa) = 6.67293 25.48851 16.08072
#
# Velocity S-wave (km/s) = 1.94274 3.79689 3.01584
# Velocity P-wave (km/s) = 3.92150 7.08505 5.72609
#
# Compressibility (1/GPa) = 0.05466938
#
# Stress axis : x y z
#
# Youngs Moduli (GPa) = 75.42652 110.72749 25.64690
#
# Poissons Ratio (x) = 0.36580 -0.04571
# Poissons Ratio (y) = 0.24918 0.04576
# Poissons Ratio (z) = -0.13443 0.19754
#
# Static dielectric constant tensor:
#      x y z
#    x 1.696590 0.000000 0.004520 
#    y 0.000000 1.652150 0.000000 
#    z 0.004520 0.000000 1.609090 
# 
# From -- ./inp_files/81449.got.cif
#   From: 2010.05.17/outbox.cif.g08.bks.cpg/sg10_41_cif.got.tgz:81449.got - 2010.06.03 11:33:40.
