data_PCOD9148982
_publ_section_title
;
Structure prediction by ZEFSAII (Michael W. Deem and Ramdas Pophale) SiO2 
 PCOD9148982
Probable space group: P 2/M
;
_chemical_formula_sum "Si O2"
_cell_formula_units_Z 28
_cell_length_a 15.097063
_cell_length_b 7.478716
_cell_length_c 13.426300
_cell_angle_alpha 90.000000
_cell_angle_beta 56.924423
_cell_angle_gamma 90.000000
_cell_volume 1270.266072
_symmetry_space_group_name_H-M "P 2/M"
_symmetry_group_IT_number 10
_symmetry_cell_setting 'monoclinic'
loop_
_space_group_symop_operation_xyz
x,y,z
-x,y,-z
-x,-y,-z
x,-y,z
loop_
_atom_site_type_symbol
_atom_site_label
_atom_site_fract_x
_atom_site_fract_y
_atom_site_fract_z
Si Si1 0.367569 0.283782 0.429886
Si Si2 0.402319 0.282968 0.784544
Si Si3 0.839171 0.208521 0.551233
Si Si4 0.836141 0.780444 0.774931
Si Si5 0.947738 0.784724 0.282719
Si Si6 0.607559 0.207174 0.978646
Si Si7 0.257264 0.288440 0.699909
O O1 0.365921 0.500000 0.432650
O O2 0.486596 0.228812 0.333828
O O3 0.285467 0.224376 0.395441
O O4 0.320741 0.217600 0.564053
O O5 0.401529 0.500000 0.791070
O O6 0.396312 0.214625 0.900032
O O7 0.307136 0.220983 0.771637
O O8 0.863005 0.279413 0.645981
O O9 0.896315 0.284029 0.418276
O O10 0.868646 0.000000 0.536139
O O11 0.930696 0.726360 0.790681
O O12 0.834400 0.000000 0.775876
O O13 0.719714 0.716097 0.874842
O O14 0.866564 0.736487 0.245409
O O15 0.946742 0.000000 0.286673
O O16 0.609072 0.000000 0.944361
O O17 0.500000 0.287955 0.000000
O O18 0.277117 0.500000 0.688076
#
# Coordination Sequence:
#
# PCOD9148982 Si02
#       7
#     4   4   4   4   4   4   4
#     4   9  17  30  49  73 100 128 157 193 242 295
#     4  10  20  34  52  72  96 129 165 199 238 285
#     4   9  16  28  49  75 100 126 158 197 239 285
#     4   9  17  31  50  71  98 131 162 194 239 290
#     4   9  17  30  50  75  99 125 160 199 238 284
#     4  10  21  36  53  73  98 128 161 198 239 283
#     4   9  18  33  51  72  99 128 158 196 243 290
#
# _framework density 22.042627
#
# number of rings (size 3 to 8) (size 9 to 14) (size 15 to 20)
#    0.000    2.714    0.000    1.714    0.000    6.000 
#    0.000    2.857    0.000   12.000    0.000    0.000 
#    0.000    0.000    0.000    0.000    0.000    0.000 
#
# Total GULP energy -156290.182389 kJ/mol
# GULP energy per Si atom -5581.792228 kJ/mol
# Density = 2.199246 g / cm^3
# Si number density = 22.042627 Si / 1000 Ang^3
#
#
#
# Elastic Constant Matrix: (Units=GPa)
#
#
# Indices 1 2 3 4 5 6 
#
# 1 172.8882 -12.9850 43.7736 0.0000 -9.1350 0.0000
# 2 -12.9850 58.9367 -4.5261 0.0000 -2.9123 0.0000
# 3 43.7736 -4.5261 39.2083 0.0000 -10.4489 0.0000
# 4 0.0000 0.0000 0.0000 10.6059 0.0000 -0.0460
# 5 -9.1350 -2.9123 -10.4489 0.0000 34.5929 0.0000
# 6 0.0000 0.0000 0.0000 -0.0460 0.0000 17.6382
#
#
#
# Elastic Compliance Matrix: (Units=1/GPa)
#
#
# Indices 1 2 3 4 5 6 
#
# 1 0.008142 0.001070 -0.009102 0.000000 -0.000509 0.000000
# 2 0.001070 0.017417 0.001395 0.000000 0.002170 0.000000
# 3 -0.009102 0.001395 0.038302 0.000000 0.009283 0.000000
# 4 0.000000 0.000000 0.000000 0.094288 0.000000 0.000246
# 5 -0.000509 0.002170 0.009283 0.000000 0.031760 0.000000
# 6 0.000000 0.000000 0.000000 0.000246 0.000000 0.056696
#
#
# Mechanical properties :
#
#
# Convention : Reuss Voigt Hill
#
# Bulk Modulus (GPa) = 19.76858 35.95091 27.85974
# Shear Modulus (GPa) = 18.06732 28.88546 23.47639
#
# Velocity S-wave (km/s) = 2.86607 3.62392 3.26704
# Velocity P-wave (km/s) = 4.46545 5.81855 5.18632
#
# Compressibility (1/GPa) = 0.05058534
#
# Stress axis : x y z
#
# Youngs Moduli (GPa) = 122.81744 57.41393 26.10835
#
# Poissons Ratio (x) = -0.06142 0.23765
# Poissons Ratio (y) = -0.13138 -0.03641
# Poissons Ratio (z) = 1.11794 -0.08007
#
# Static dielectric constant tensor:
#      x y z
#    x 1.813190 0.000000 -0.022660 
#    y 0.000000 1.871440 0.000000 
#    z -0.022660 0.000000 1.776130 
# 
# From -- ./inp_files/45971.got.cif
#   From: 2010.05.17/outbox.cif.g08.bks.cpg/sg10_23_cif.got.tgz:45971.got - 2010.06.03 11:33:40.
