data_PCOD9148351
_publ_section_title
;
Structure prediction by ZEFSAII (Michael W. Deem and Ramdas Pophale) SiO2 
 PCOD9148351
Probable space group: P 2/M
;
_chemical_formula_sum "Si O2"
_cell_formula_units_Z 28
_cell_length_a 24.916951
_cell_length_b 7.560287
_cell_length_c 22.461942
_cell_angle_alpha 90.000000
_cell_angle_beta 162.155178
_cell_angle_gamma 90.000000
_cell_volume 1296.659697
_symmetry_space_group_name_H-M "P 2/M"
_symmetry_group_IT_number 10
_symmetry_cell_setting 'monoclinic'
loop_
_space_group_symop_operation_xyz
x,y,z
-x,y,-z
-x,-y,-z
x,-y,z
loop_
_atom_site_type_symbol
_atom_site_label
_atom_site_fract_x
_atom_site_fract_y
_atom_site_fract_z
Si Si1 0.678044 0.286819 0.524440
Si Si2 0.802294 0.797141 0.158019
Si Si3 0.586766 0.283949 0.654152
Si Si4 0.446880 0.788916 0.739073
Si Si5 0.202117 0.708943 0.717975
Si Si6 0.023548 0.283865 0.956087
Si Si7 0.798391 0.213161 0.413575
O O1 0.680338 0.500000 0.530045
O O2 0.527780 0.224185 0.411087
O O3 0.637021 0.239021 0.413694
O O4 0.863602 0.224160 0.746238
O O5 0.730166 0.793948 0.149933
O O6 0.999439 0.719569 0.367047
O O7 0.826094 0.000000 0.164029
O O8 0.645334 0.716603 0.953687
O O9 0.500000 0.229997 0.500000
O O10 0.585218 0.500000 0.652597
O O11 0.787456 0.226728 0.867401
O O12 0.322065 0.720599 0.660021
O O13 0.461041 0.000000 0.763489
O O14 0.202490 0.500000 0.728893
O O15 0.276416 0.741728 0.730861
O O16 0.000000 0.772804 0.500000
O O17 0.021980 0.500000 0.954708
O O18 0.000000 0.229915 0.000000
O O19 0.805519 0.000000 0.423260
#
# Coordination Sequence:
#
# PCOD9148351 Si02
#       7
#     4   4   4   4   4   4   4
#     4  10  20  32  49  75 102 128 163 206 250 295
#     4   9  18  34  54  72  95 132 174 208 243 293
#     4   9  15  26  47  75 102 126 156 198 245 292
#     4  10  22  37  51  70  99 136 174 208 242 292
#     4   9  17  30  51  80 107 129 158 207 263 300
#     4   9  15  26  47  75 102 126 156 198 245 292
#     4   9  18  34  54  72  95 132 174 208 243 293
#
# _framework density 21.593945999999999
#
# number of rings (size 3 to 8) (size 9 to 14) (size 15 to 20)
#    0.000    2.714    1.429    0.429    0.000    4.571 
#    0.000    2.857    0.000    0.857    0.000    0.000 
#    0.000    0.000    0.000    0.000    0.000    0.000 
#
# Total GULP energy -156265.469471 kJ/mol
# GULP energy per Si atom -5580.909624 kJ/mol
# Density = 2.154480 g / cm^3
# Si number density = 21.593946 Si / 1000 Ang^3
#
#
#
# Elastic Constant Matrix: (Units=GPa)
#
#
# Indices 1 2 3 4 5 6 
#
# 1 74.0371 -5.9748 26.2409 0.0000 4.6739 0.0000
# 2 -5.9748 52.5515 2.1640 0.0000 4.3613 0.0000
# 3 26.2409 2.1640 129.0012 0.0000 -1.5275 0.0000
# 4 0.0000 0.0000 0.0000 4.5589 0.0000 -12.7153
# 5 4.6739 4.3613 -1.5275 0.0000 35.8219 0.0000
# 6 0.0000 0.0000 0.0000 -12.7153 0.0000 13.2003
#
#
#
# Elastic Compliance Matrix: (Units=1/GPa)
#
#
# Indices 1 2 3 4 5 6 
#
# 1 0.014913 0.002016 -0.003095 0.000000 -0.002323 0.000000
# 2 0.002016 0.019512 -0.000769 0.000000 -0.002671 0.000000
# 3 -0.003095 -0.000769 0.008404 0.000000 0.000856 0.000000
# 4 0.000000 0.000000 0.000000 -0.130052 0.000000 -0.125274
# 5 -0.002323 -0.002671 0.000856 0.000000 0.028581 0.000000
# 6 0.000000 0.000000 0.000000 -0.125274 0.000000 -0.044915
#
#
# Mechanical properties :
#
#
# Convention : Reuss Voigt Hill
#
# Bulk Modulus (GPa) = 25.55400 33.38330 29.46865
# Shear Modulus (GPa) = -57.59237 26.26021 -15.66608
#
# Velocity S-wave (km/s) = -5.16996 3.49103 -2.69640
# Velocity P-wave (km/s) = 4.87632 5.63408 1.99555
#
# Compressibility (1/GPa) = 0.03913282
#
# Stress axis : x y z
#
# Youngs Moduli (GPa) = 67.05567 51.25179 118.98468
#
# Poissons Ratio (x) = -0.10331 0.36824
# Poissons Ratio (y) = -0.13517 0.09150
# Poissons Ratio (z) = 0.20753 0.03941
#
# Static dielectric constant tensor:
#      x y z
#    x 1.757250 0.000000 0.023270 
#    y 0.000000 1.806600 0.000000 
#    z 0.023270 0.000000 1.799440 
# 
# From -- ./inp_files/86478.got.cif
#   From: 2010.05.17/outbox.cif.g08.bks.cpg/sg10_44_cif.got.tgz:86478.got - 2010.06.03 11:33:40.
