data_PCOD9148804
_publ_section_title
;
Structure prediction by ZEFSAII (Michael W. Deem and Ramdas Pophale) SiO2 
 PCOD9148804
Probable space group: P 2/M
;
_chemical_formula_sum "Si O2"
_cell_formula_units_Z 32
_cell_length_a 26.635053
_cell_length_b 7.479645
_cell_length_c 14.470462
_cell_angle_alpha 90.000000
_cell_angle_beta 151.941755
_cell_angle_gamma 90.000000
_cell_volume 1355.987054
_symmetry_space_group_name_H-M "P 2/M"
_symmetry_group_IT_number 10
_symmetry_cell_setting 'monoclinic'
loop_
_space_group_symop_operation_xyz
x,y,z
-x,y,-z
-x,-y,-z
x,-y,z
loop_
_atom_site_type_symbol
_atom_site_label
_atom_site_fract_x
_atom_site_fract_y
_atom_site_fract_z
Si Si1 0.120622 0.716160 0.681272
Si Si2 0.166997 0.715692 0.104354
Si Si3 0.657123 0.284030 0.475467
Si Si4 0.463419 0.297646 0.278699
Si Si5 0.691315 0.207381 0.135144
Si Si6 0.276989 0.789289 0.612609
Si Si7 0.718566 0.281724 0.894569
Si Si8 0.050931 0.791126 0.176695
O O1 0.119084 0.500000 0.674685
O O2 0.185350 0.780391 0.696813
O O3 0.000000 0.777937 0.500000
O O4 0.192971 0.769567 0.886124
O O5 0.164661 0.500000 0.098488
O O6 0.228792 0.772362 0.297633
O O7 0.238767 0.775616 0.135027
O O8 0.045644 0.778314 0.907336
O O9 0.652223 0.500000 0.468835
O O10 0.567151 0.215700 0.399646
O O11 0.647672 0.229265 0.353983
O O12 0.493870 0.500000 0.356066
O O13 0.396018 0.218067 0.253887
O O14 0.378339 0.303758 0.056044
O O15 0.681205 0.282020 0.222003
O O16 0.657605 0.000000 0.076960
O O17 0.161549 0.713375 0.394247
O O18 0.261563 0.000000 0.605732
O O19 0.713185 0.500000 0.885496
O O20 0.071903 0.000000 0.191873
O O21 0.000000 0.711038 0.000000
#
# Coordination Sequence:
#
# PCOD9148804 Si02
#       8
#     4   4   4   4   4   4   4   4
#     4   9  18  33  53  77 107 142 177 212 261 319
#     4  10  20  33  53  83 110 134 174 221 262 306
#     4  10  21  35  55  82 106 135 178 225 266 308
#     4   9  19  38  58  76 106 142 175 216 268 322
#     4  10  21  36  54  78 106 137 179 224 264 307
#     4  10  22  38  54  76 108 144 178 214 265 322
#     4   8  16  32  52  76 107 139 170 208 259 315
#     4  10  20  36  55  73 103 146 179 208 260 320
#
# _framework density 23.599046999999999
#
# number of rings (size 3 to 8) (size 9 to 14) (size 15 to 20)
#    0.000    2.500    1.250    1.125    1.750    3.500 
#    0.000    7.500    0.000    0.000    0.000    5.250 
#    0.000    0.000    0.000    0.000    0.000    0.000 
#
# Total GULP energy -178717.453263 kJ/mol
# GULP energy per Si atom -5584.920414 kJ/mol
# Density = 2.354533 g / cm^3
# Si number density = 23.599047 Si / 1000 Ang^3
#
#
#
# Elastic Constant Matrix: (Units=GPa)
#
#
# Indices 1 2 3 4 5 6 
#
# 1 120.1754 -7.0888 5.5172 0.0000 9.5252 0.0000
# 2 -7.0888 74.1081 -3.3838 0.0000 -4.8475 0.0000
# 3 5.5172 -3.3838 48.5526 0.0000 20.2599 0.0000
# 4 0.0000 0.0000 0.0000 5.2490 0.0000 11.1702
# 5 9.5252 -4.8475 20.2599 0.0000 38.4600 0.0000
# 6 0.0000 0.0000 0.0000 11.1702 0.0000 22.8154
#
#
#
# Elastic Compliance Matrix: (Units=1/GPa)
#
#
# Indices 1 2 3 4 5 6 
#
# 1 0.008522 0.000682 -0.000097 0.000000 -0.001973 0.000000
# 2 0.000682 0.013664 0.000290 0.000000 0.001400 0.000000
# 3 -0.000097 0.000290 0.026407 0.000000 -0.013850 0.000000
# 4 0.000000 0.000000 0.000000 -4.548119 0.000000 2.226720
# 5 -0.001973 0.001400 -0.013850 0.000000 0.033962 0.000000
# 6 0.000000 0.000000 0.000000 2.226720 0.000000 -1.046353
#
#
# Mechanical properties :
#
#
# Convention : Reuss Voigt Hill
#
# Bulk Modulus (GPa) = 19.86403 25.88061 22.87232
# Shear Modulus (GPa) = -0.90961 29.82430 14.45735
#
# Velocity S-wave (km/s) = -0.62151 3.55884 2.47781
# Velocity P-wave (km/s) = 2.81435 5.27994 4.23074
#
# Compressibility (1/GPa) = 0.05034224
#
# Stress axis : x y z
#
# Youngs Moduli (GPa) = 117.33962 73.18575 37.86909
#
# Poissons Ratio (x) = -0.04989 0.00369
# Poissons Ratio (y) = -0.07999 -0.01100
# Poissons Ratio (z) = 0.01143 -0.02126
#
# Static dielectric constant tensor:
#      x y z
#    x 1.907300 0.000000 0.011420 
#    y 0.000000 1.887010 0.000000 
#    z 0.011420 0.000000 1.889380 
# 
# From -- ./inp_files/66616.got.cif
#   From: 2010.05.17/outbox.cif.g08.bks.cpg/sg10_34_cif.got.tgz:66616.got - 2010.06.03 11:33:40.
