data_PCOD9148571
_publ_section_title
;
Structure prediction by ZEFSAII (Michael W. Deem and Ramdas Pophale) SiO2 
 PCOD9148571
Probable space group: P 2/M
;
_chemical_formula_sum "Si O2"
_cell_formula_units_Z 28
_cell_length_a 26.223134
_cell_length_b 7.745839
_cell_length_c 9.847874
_cell_angle_alpha 90.000000
_cell_angle_beta 40.492461
_cell_angle_gamma 90.000000
_cell_volume 1298.892002
_symmetry_space_group_name_H-M "P 2/M"
_symmetry_group_IT_number 10
_symmetry_cell_setting 'monoclinic'
loop_
_space_group_symop_operation_xyz
x,y,z
-x,y,-z
-x,-y,-z
x,-y,z
loop_
_atom_site_type_symbol
_atom_site_label
_atom_site_fract_x
_atom_site_fract_y
_atom_site_fract_z
Si Si1 0.572818 0.793310 0.940940
Si Si2 0.914493 0.710312 0.724976
Si Si3 0.749235 0.298520 0.574287
Si Si4 0.684381 0.209898 0.287556
Si Si5 0.508388 0.210478 0.635333
Si Si6 0.762812 0.200992 0.857608
Si Si7 0.164877 0.698613 0.848046
O O1 0.661159 0.759799 0.717633
O O2 0.564975 0.000000 0.957922
O O3 0.500000 0.725450 0.000000
O O4 0.556885 0.730555 0.126548
O O5 0.910325 0.500000 0.733800
O O6 0.846627 0.774103 0.761131
O O7 0.000000 0.761549 0.500000
O O8 0.893935 0.773521 0.919261
O O9 0.751140 0.500000 0.541904
O O10 0.762384 0.275183 0.707764
O O11 0.814987 0.220955 0.339504
O O12 0.596044 0.252941 0.507878
O O13 0.751223 0.292644 0.244355
O O14 0.693241 0.000000 0.276548
O O15 0.701387 0.263762 0.096809
O O16 0.500000 0.274933 0.500000
O O17 0.504367 0.000000 0.637535
O O18 0.745026 0.000000 0.874586
O O19 0.139131 0.500000 0.881479
#
# Coordination Sequence:
#
# PCOD9148571 Si02
#       7
#     4   4   4   4   4   4   4
#     4  10  20  33  50  71  97 133 176 220 263 305
#     4   9  18  36  61  84 106 133 166 206 254 309
#     4  11  22  35  51  73 106 143 176 212 255 307
#     4   9  17  31  52  74  95 127 171 215 259 304
#     4   9  16  27  44  66  92 122 161 210 257 298
#     4  10  20  34  55  81 107 136 172 214 257 304
#     4   9  19  34  52  75 101 131 167 205 248 302
#
# _framework density 21.556833999999998
#
# number of rings (size 3 to 8) (size 9 to 14) (size 15 to 20)
#    0.000    2.429    0.000    2.571    0.000    5.714 
#    0.000    1.429    0.000    6.000    0.000    0.000 
#    0.000    0.000    0.000    0.000    0.000    0.000 
#
# Total GULP energy -156219.497046 kJ/mol
# GULP energy per Si atom -5579.267752 kJ/mol
# Density = 2.150777 g / cm^3
# Si number density = 21.556834 Si / 1000 Ang^3
#
#
#
# Elastic Constant Matrix: (Units=GPa)
#
#
# Indices 1 2 3 4 5 6 
#
# 1 32.4881 -5.0095 24.2506 0.0000 15.6591 0.0000
# 2 -5.0095 27.5540 2.4484 0.0000 5.9121 0.0000
# 3 24.2506 2.4484 155.7677 0.0000 13.5398 0.0000
# 4 0.0000 0.0000 0.0000 11.4985 0.0000 -3.4241
# 5 15.6591 5.9121 13.5398 0.0000 34.5710 0.0000
# 6 0.0000 0.0000 0.0000 -3.4241 0.0000 21.1538
#
#
#
# Elastic Compliance Matrix: (Units=1/GPa)
#
#
# Indices 1 2 3 4 5 6 
#
# 1 0.047669 0.013835 -0.005752 0.000000 -0.021705 0.000000
# 2 0.013835 0.041690 -0.001703 0.000000 -0.012729 0.000000
# 3 -0.005752 -0.001703 0.007340 0.000000 0.000022 0.000000
# 4 0.000000 0.000000 0.000000 0.091372 0.000000 0.014790
# 5 -0.021705 -0.012729 0.000022 0.000000 0.040926 0.000000
# 6 0.000000 0.000000 0.000000 0.014790 0.000000 0.049667
#
#
# Mechanical properties :
#
#
# Convention : Reuss Voigt Hill
#
# Bulk Modulus (GPa) = 9.13579 28.79875 18.96727
# Shear Modulus (GPa) = 16.53489 26.38602 21.46045
#
# Velocity S-wave (km/s) = 2.77255 3.50240 3.15862
# Velocity P-wave (km/s) = 3.80744 5.45382 4.70323
#
# Compressibility (1/GPa) = 0.10945963
#
# Stress axis : x y z
#
# Youngs Moduli (GPa) = 20.97789 23.98646 136.23604
#
# Poissons Ratio (x) = -0.33185 0.78365
# Poissons Ratio (y) = -0.29023 0.23197
# Poissons Ratio (z) = 0.12067 0.04084
#
# Static dielectric constant tensor:
#      x y z
#    x 1.758620 0.000000 0.051520 
#    y 0.000000 1.799180 0.000000 
#    z 0.051520 0.000000 1.842530 
# 
# From -- ./inp_files/37123.got.cif
#   From: 2010.05.17/outbox.cif.g08.bks.cpg/sg10_19_cif.got.tgz:37123.got - 2010.06.03 11:33:40.
