data_PCOD9148902
_publ_section_title
;
Structure prediction by ZEFSAII (Michael W. Deem and Ramdas Pophale) SiO2 
 PCOD9148902
Probable space group: P 2/M
;
_chemical_formula_sum "Si O2"
_cell_formula_units_Z 32
_cell_length_a 9.633415
_cell_length_b 14.713603
_cell_length_c 19.868049
_cell_angle_alpha 90.000000
_cell_angle_beta 45.855288
_cell_angle_gamma 90.000000
_cell_volume 2020.815538
_symmetry_space_group_name_H-M "P 2/M"
_symmetry_group_IT_number 10
_symmetry_cell_setting 'monoclinic'
loop_
_space_group_symop_operation_xyz
x,y,z
-x,y,-z
-x,-y,-z
x,-y,z
loop_
_atom_site_type_symbol
_atom_site_label
_atom_site_fract_x
_atom_site_fract_y
_atom_site_fract_z
Si Si1 0.347165 0.710795 0.285611
Si Si2 0.817989 0.606700 0.305903
Si Si3 0.008718 0.390871 0.104800
Si Si4 0.049702 0.606079 0.587816
Si Si5 0.182148 0.898698 0.346065
Si Si6 0.431625 0.288912 0.411371
Si Si7 0.261543 0.898660 0.480736
Si Si8 0.318943 0.608934 0.897591
O O1 0.296299 0.812753 0.279601
O O2 0.448224 0.713925 0.324667
O O3 0.484114 0.658621 0.187626
O O4 0.145181 0.658379 0.365238
O O5 0.768475 0.500000 0.310426
O O6 0.946540 0.640282 0.199657
O O7 0.928320 0.611546 0.338913
O O8 0.620150 0.662765 0.376626
O O9 0.029078 0.500000 0.101791
O O10 0.833730 0.374404 0.111608
O O11 0.206848 0.359111 0.002688
O O12 0.042103 0.500000 0.571033
O O13 0.239037 0.654019 0.493674
O O14 0.222258 0.897133 0.413202
O O15 0.951512 0.885874 0.415493
O O16 0.234003 0.000000 0.304455
O O17 0.396888 0.186709 0.449439
O O18 0.332825 0.000000 0.473827
O O19 0.350518 0.500000 0.890203
#
# Coordination Sequence:
#
# PCOD9148902 Si02
#       8
#     4   4   4   4   4   4   4   4
#     4  11  19  29  47  73  93 115 151 196 233 260
#     4  10  20  34  47  61  90 132 164 181 215 275
#     4   8  15  30  48  65  86 119 156 190 225 262
#     4  11  23  32  40  63 100 129 152 185 223 266
#     4   8  14  26  43  64  92 119 144 182 231 276
#     4  11  19  30  48  67  89 126 160 184 219 266
#     4   8  14  26  44  65  88 115 150 192 228 259
#     4   9  16  27  47  72  93 111 147 197 230 260
#
# _framework density 15.835191
#
# number of rings (size 3 to 8) (size 9 to 14) (size 15 to 20)
#    0.000    2.500    2.500    3.000    0.000    3.000 
#    0.000    0.625    0.000    5.250    0.000    2.625 
#    0.000    1.000    0.000    0.000    0.000    0.000 
#
# Total GULP energy -178307.448892 kJ/mol
# GULP energy per Si atom -5572.107778 kJ/mol
# Density = 1.579915 g / cm^3
# Si number density = 15.835191 Si / 1000 Ang^3
#
#
#
# Elastic Constant Matrix: (Units=GPa)
#
#
# Indices 1 2 3 4 5 6 
#
# 1 25.2025 8.7477 1.2152 0.0000 4.7892 0.0000
# 2 8.7477 84.4798 22.7111 0.0000 -0.0051 0.0000
# 3 1.2152 22.7111 78.0268 0.0000 6.5770 0.0000
# 4 0.0000 0.0000 0.0000 6.3106 0.0000 -3.5870
# 5 4.7892 -0.0051 6.5770 0.0000 10.7522 0.0000
# 6 0.0000 0.0000 0.0000 -3.5870 0.0000 10.3352
#
#
#
# Elastic Compliance Matrix: (Units=1/GPa)
#
#
# Indices 1 2 3 4 5 6 
#
# 1 0.045622 -0.005460 0.002733 0.000000 -0.021995 0.000000
# 2 -0.005460 0.013555 -0.004287 0.000000 0.005061 0.000000
# 3 0.002733 -0.004287 0.014892 0.000000 -0.010328 0.000000
# 4 0.000000 0.000000 0.000000 0.197407 0.000000 0.068514
# 5 -0.021995 0.005061 -0.010328 0.000000 0.109121 0.000000
# 6 0.000000 0.000000 0.000000 0.068514 0.000000 0.120536
#
#
# Mechanical properties :
#
#
# Convention : Reuss Voigt Hill
#
# Bulk Modulus (GPa) = 16.65547 28.11745 22.38646
# Shear Modulus (GPa) = 9.34273 15.81529 12.57901
#
# Velocity S-wave (km/s) = 2.43162 3.16372 2.82152
# Velocity P-wave (km/s) = 4.29238 5.58035 4.97820
#
# Compressibility (1/GPa) = 0.06004032
#
# Stress axis : x y z
#
# Youngs Moduli (GPa) = 21.91939 73.77165 67.15025
#
# Poissons Ratio (x) = 0.40279 -0.18350
# Poissons Ratio (y) = 0.11968 0.28788
# Poissons Ratio (z) = -0.05990 0.31626
#
# Static dielectric constant tensor:
#      x y z
#    x 1.529580 0.000000 0.016020 
#    y 0.000000 1.540370 0.000000 
#    z 0.016020 0.000000 1.528620 
# 
# From -- ./inp_files/29052.got.cif
#   From: 2010.05.17/outbox.cif.g08.bks.cpg/sg10_15_cif.got.tgz:29052.got - 2010.06.03 11:33:40.
