data_PCOD9148881
_publ_section_title
;
Structure prediction by ZEFSAII (Michael W. Deem and Ramdas Pophale) SiO2 
 PCOD9148881
Probable space group: P 2/M
;
_chemical_formula_sum "Si O2"
_cell_formula_units_Z 18
_cell_length_a 7.764784
_cell_length_b 18.499015
_cell_length_c 5.552073
_cell_angle_alpha 90.000000
_cell_angle_beta 61.064561
_cell_angle_gamma 90.000000
_cell_volume 697.948388
_symmetry_space_group_name_H-M "P 2/M"
_symmetry_group_IT_number 10
_symmetry_cell_setting 'monoclinic'
loop_
_space_group_symop_operation_xyz
x,y,z
-x,y,-z
-x,-y,-z
x,-y,z
loop_
_atom_site_type_symbol
_atom_site_label
_atom_site_fract_x
_atom_site_fract_y
_atom_site_fract_z
Si Si1 0.785110 0.081935 0.272416
Si Si2 0.722647 0.644393 0.321530
Si Si3 0.323486 0.214673 0.935136
Si Si4 0.000000 0.172199 0.500000
Si Si5 0.737232 0.584091 0.810515
O O1 0.657046 0.135040 0.193143
O O2 0.835667 0.121392 0.487626
O O3 0.716974 0.000000 0.344738
O O4 0.000000 0.079238 0.000000
O O5 0.500000 0.613907 0.500000
O O6 0.698908 0.728122 0.264675
O O7 0.804437 0.627946 0.529503
O O8 0.811472 0.609337 0.020926
O O9 0.500000 0.232147 0.000000
O O10 0.119274 0.216222 0.220873
O O11 0.778558 0.500000 0.742756
O O12 0.500000 0.593214 0.000000
#
# Coordination Sequence:
#
# PCOD9148881 Si02
#       5
#     4   4   4   2   4
#     4   9  20  40  64  91 126 166 217 273 326 387
#     4  10  20  33  56  89 130 171 212 268 324 382
#     4  11  24  39  64  93 132 169 215 269 332 392
#     4  10  23  42  64  92 123 170 222 268 329 392
#     4   9  17  31  53  86 128 171 214 263 321 384
#
# _framework density 25.789874000000001
#
# number of rings (size 3 to 8) (size 9 to 14) (size 15 to 20)
#    0.000    2.222    0.000    3.000    6.222    4.000 
#    0.000    1.111    0.000    0.000    0.000    4.667 
#    0.000    0.000    0.000    0.000    0.000    0.000 
#
# Total GULP energy -100807.136207 kJ/mol
# GULP energy per Si atom -5600.396456 kJ/mol
# Density = 2.573117 g / cm^3
# Si number density = 25.789874 Si / 1000 Ang^3
#
#
#
# Elastic Constant Matrix: (Units=GPa)
#
#
# Indices 1 2 3 4 5 6 
#
# 1 148.3774 55.2045 56.6767 0.0000 17.5514 0.0000
# 2 55.2045 166.4313 73.4107 0.0000 41.1975 0.0000
# 3 56.6767 73.4107 204.4968 0.0000 25.8403 0.0000
# 4 0.0000 0.0000 0.0000 24.8324 0.0000 5.9373
# 5 17.5514 41.1975 25.8403 0.0000 45.4784 0.0000
# 6 0.0000 0.0000 0.0000 5.9373 0.0000 37.1715
#
#
#
# Elastic Compliance Matrix: (Units=1/GPa)
#
#
# Indices 1 2 3 4 5 6 
#
# 1 0.008076 -0.001881 -0.001492 0.000000 -0.000565 0.000000
# 2 -0.001881 0.009063 -0.001925 0.000000 -0.006391 0.000000
# 3 -0.001492 -0.001925 0.006142 0.000000 -0.001171 0.000000
# 4 0.000000 0.000000 0.000000 0.041869 0.000000 -0.006688
# 5 -0.000565 -0.006391 -0.001171 0.000000 0.028661 0.000000
# 6 0.000000 0.000000 0.000000 -0.006688 0.000000 0.027971
#
#
# Mechanical properties :
#
#
# Convention : Reuss Voigt Hill
#
# Bulk Modulus (GPa) = 78.82021 98.87661 88.84841
# Shear Modulus (GPa) = 36.60170 43.76401 40.18286
#
# Velocity S-wave (km/s) = 3.77135 4.12387 3.95154
# Velocity P-wave (km/s) = 7.04222 7.81650 7.43944
#
# Compressibility (1/GPa) = 0.01268710
#
# Stress axis : x y z
#
# Youngs Moduli (GPa) = 123.82343 110.33584 162.80420
#
# Poissons Ratio (x) = 0.20753 0.24285
# Poissons Ratio (y) = 0.23290 0.31335
# Poissons Ratio (z) = 0.18470 0.21237
#
# Static dielectric constant tensor:
#      x y z
#    x 2.066470 0.000000 -0.034730 
#    y 0.000000 1.997890 0.000000 
#    z -0.034730 0.000000 2.029130 
# 
# From -- ./inp_files/4624.got.cif
#   From: 2010.05.17/outbox.cif.g08.bks.cpg/sg10_3_cif.got.tgz:4624.got - 2010.06.03 11:33:40.
