data_PCOD9148239
_publ_section_title
;
Structure prediction by ZEFSAII (Michael W. Deem and Ramdas Pophale) SiO2 
 PCOD9148239
Probable space group: P 2/M
;
_chemical_formula_sum "Si O2"
_cell_formula_units_Z 32
_cell_length_a 19.079812
_cell_length_b 7.551107
_cell_length_c 27.525474
_cell_angle_alpha 90.000000
_cell_angle_beta 155.427859
_cell_angle_gamma 90.000000
_cell_volume 1649.090037
_symmetry_space_group_name_H-M "P 2/M"
_symmetry_group_IT_number 10
_symmetry_cell_setting 'monoclinic'
loop_
_space_group_symop_operation_xyz
x,y,z
-x,y,-z
-x,-y,-z
x,-y,z
loop_
_atom_site_type_symbol
_atom_site_label
_atom_site_fract_x
_atom_site_fract_y
_atom_site_fract_z
Si Si1 0.339599 0.706129 0.834829
Si Si2 0.212108 0.207063 0.494987
Si Si3 0.907362 0.296918 0.888984
Si Si4 0.240622 0.717578 0.051594
Si Si5 0.091752 0.713789 0.762501
Si Si6 0.310993 0.283146 0.987287
Si Si7 0.404298 0.291579 0.254360
Si Si8 0.035870 0.215097 0.577335
O O1 0.368542 0.500000 0.865093
O O2 0.231812 0.780773 0.811866
O O3 0.214225 0.720484 0.710117
O O4 0.519881 0.780015 0.933292
O O5 0.400458 0.276948 0.610160
O O6 0.090645 0.232374 0.372193
O O7 0.106401 0.279404 0.474427
O O8 0.231311 0.000000 0.515767
O O9 0.881747 0.500000 0.856254
O O10 0.725785 0.215817 0.787536
O O11 0.049725 0.221283 0.943219
O O12 0.000000 0.300412 0.000000
O O13 0.239903 0.500000 0.050892
O O14 0.299999 0.775404 0.036014
O O15 0.357577 0.775104 0.170725
O O16 0.094442 0.500000 0.762254
O O17 0.152143 0.767851 0.853845
O O18 0.317352 0.500000 0.992151
O O19 0.363019 0.500000 0.226659
O O20 0.000000 0.271231 0.500000
O O21 0.038785 0.000000 0.580479
#
# Coordination Sequence:
#
# PCOD9148239 Si02
#       8
#     4   4   4   4   4   4   4   4
#     4   9  17  28  44  67  89 113 147 184 222 259
#     4  10  20  32  46  64  87 117 154 188 217 255
#     4   7  11  22  40  64  93 119 139 168 215 266
#     4   8  14  24  42  71  98 115 138 177 223 266
#     4   9  17  31  47  63  88 120 152 184 221 260
#     4   9  16  26  44  69  93 115 143 186 228 260
#     4   9  16  27  47  71  93 116 144 177 217 269
#     4   9  19  33  44  57  86 124 151 177 217 260
#
# _framework density 19.404640000000001
#
# number of rings (size 3 to 8) (size 9 to 14) (size 15 to 20)
#    0.000    3.250    0.000    2.250    1.750    2.250 
#    0.000    0.625    0.000    7.875    0.000    5.250 
#    0.000    0.000    0.000    0.000    0.000    0.000 
#
# Total GULP energy -178274.366508 kJ/mol
# GULP energy per Si atom -5571.073953 kJ/mol
# Density = 1.936047 g / cm^3
# Si number density = 19.404640 Si / 1000 Ang^3
#
#
#
# Elastic Constant Matrix: (Units=GPa)
#
#
# Indices 1 2 3 4 5 6 
#
# 1 51.0586 -0.5368 52.6919 0.0000 4.9433 0.0000
# 2 -0.5368 43.5441 -5.7062 0.0000 1.8267 0.0000
# 3 52.6919 -5.7062 126.4642 0.0000 19.9620 0.0000
# 4 0.0000 0.0000 0.0000 301.6708 0.0000 32.9401
# 5 4.9433 1.8267 19.9620 0.0000 24.0439 0.0000
# 6 0.0000 0.0000 0.0000 32.9401 0.0000 5.6074
#
#
#
# Elastic Compliance Matrix: (Units=1/GPa)
#
#
# Indices 1 2 3 4 5 6 
#
# 1 0.035164 -0.001868 -0.015670 0.000000 0.005922 0.000000
# 2 -0.001868 0.023393 0.002364 0.000000 -0.003355 0.000000
# 3 -0.015670 0.002364 0.016184 0.000000 -0.010394 0.000000
# 4 0.000000 0.000000 0.000000 0.009245 0.000000 -0.054308
# 5 0.005922 -0.003355 -0.010394 0.000000 0.049258 0.000000
# 6 0.000000 0.000000 0.000000 -0.054308 0.000000 0.497366
#
#
# Mechanical properties :
#
#
# Convention : Reuss Voigt Hill
#
# Bulk Modulus (GPa) = 22.52752 34.88496 28.70624
# Shear Modulus (GPa) = 7.39912 77.90561 42.65236
#
# Velocity S-wave (km/s) = 1.95483 6.34311 4.69342
# Velocity P-wave (km/s) = 4.09019 8.46543 6.64805
#
# Compressibility (1/GPa) = 0.04439014
#
# Stress axis : x y z
#
# Youngs Moduli (GPa) = 28.43823 42.74836 61.79006
#
# Poissons Ratio (x) = 0.07987 0.96827
# Poissons Ratio (y) = 0.05314 -0.14605
# Poissons Ratio (z) = 0.44564 -0.10104
#
# Static dielectric constant tensor:
#      x y z
#    x 1.690600 0.000000 0.028380 
#    y 0.000000 1.731020 0.000000 
#    z 0.028380 0.000000 1.670000 
# 
# From -- ./inp_files/54818.got.cif
#   From: 2010.05.17/outbox.cif.g08.bks.cpg/sg10_28_cif.got.tgz:54818.got - 2010.06.03 11:33:40.
