data_PCOD9148463
_publ_section_title
;
Structure prediction by ZEFSAII (Michael W. Deem and Ramdas Pophale) SiO2 
 PCOD9148463
Probable space group: P 2/M
;
_chemical_formula_sum "Si O2"
_cell_formula_units_Z 30
_cell_length_a 5.613299
_cell_length_b 17.458793
_cell_length_c 14.735816
_cell_angle_alpha 90.000000
_cell_angle_beta 112.661882
_cell_angle_gamma 90.000000
_cell_volume 1332.636294
_symmetry_space_group_name_H-M "P 2/M"
_symmetry_group_IT_number 10
_symmetry_cell_setting 'monoclinic'
loop_
_space_group_symop_operation_xyz
x,y,z
-x,y,-z
-x,-y,-z
x,-y,z
loop_
_atom_site_type_symbol
_atom_site_label
_atom_site_fract_x
_atom_site_fract_y
_atom_site_fract_z
Si Si1 0.322002 0.912251 0.814260
Si Si2 0.462424 0.370832 0.205609
Si Si3 0.500000 0.816497 0.500000
Si Si4 0.108911 0.087017 0.116457
Si Si5 0.214356 0.704765 0.596493
Si Si6 0.868976 0.416111 0.113467
Si Si7 0.996853 0.861071 0.391319
Si Si8 0.719838 0.266203 0.971473
O O1 0.606740 0.877056 0.849509
O O2 0.193119 0.909446 0.696605
O O3 0.105376 0.876862 0.848864
O O4 0.360940 0.000000 0.852794
O O5 0.608155 0.350182 0.319416
O O6 0.177817 0.407952 0.177944
O O7 0.394583 0.293519 0.140476
O O8 0.676837 0.410670 0.171961
O O9 0.376717 0.759454 0.554448
O O10 0.701645 0.867600 0.585231
O O11 0.151198 0.000000 0.160343
O O12 0.000000 0.077750 0.000000
O O13 0.072424 0.770809 0.635418
O O14 0.000000 0.666516 0.500000
O O15 0.827037 0.500000 0.064946
O O16 0.788021 0.345997 0.036355
O O17 0.000000 0.876570 0.500000
O O18 0.500000 0.227714 0.000000
O O19 0.000000 0.229238 0.000000
#
# Coordination Sequence:
#
# PCOD9148463 Si02
#       8
#     4   4   2   4   4   4   4   4
#     4  10  20  33  55  85 114 149 183 223 283 339
#     4  10  20  32  55  79 103 136 180 217 261 304
#     4   8  18  36  57  76 101 136 188 232 278 314
#     4   9  18  33  53  77 107 145 190 228 257 310
#     4   9  20  36  57  80  97 137 187 234 266 313
#     4  10  20  33  53  82 113 140 171 210 259 327
#     4   9  20  35  55  81 111 140 181 232 283 337
#     4   8  16  29  46  75 105 135 164 203 247 305
#
# _framework density 22.511769999999999
#
# number of rings (size 3 to 8) (size 9 to 14) (size 15 to 20)
#    0.000    3.067    0.000    0.800    7.467    6.667 
#    0.000    0.333    0.000    9.600    0.000    0.000 
#    0.000    0.000    0.000    0.000    0.000    0.000 
#
# Total GULP energy -167276.367795 kJ/mol
# GULP energy per Si atom -5575.878927 kJ/mol
# Density = 2.246053 g / cm^3
# Si number density = 22.511770 Si / 1000 Ang^3
#
#
#
# Elastic Constant Matrix: (Units=GPa)
#
#
# Indices 1 2 3 4 5 6 
#
# 1 191.2133 16.4908 52.0527 0.0000 24.8514 0.0000
# 2 16.4908 66.0041 6.1720 0.0000 5.0757 0.0000
# 3 52.0527 6.1720 118.1625 0.0000 25.4724 0.0000
# 4 0.0000 0.0000 0.0000 13.8817 0.0000 14.8131
# 5 24.8514 5.0757 25.4724 0.0000 33.0715 0.0000
# 6 0.0000 0.0000 0.0000 14.8131 0.0000 -50.9559
#
#
#
# Elastic Compliance Matrix: (Units=1/GPa)
#
#
# Indices 1 2 3 4 5 6 
#
# 1 0.006275 -0.001148 -0.002069 0.000000 -0.002945 0.000000
# 2 -0.001148 0.015554 0.000026 0.000000 -0.001545 0.000000
# 3 -0.002069 0.000026 0.010838 0.000000 -0.006797 0.000000
# 4 0.000000 0.000000 0.000000 0.054982 0.000000 0.015983
# 5 -0.002945 -0.001545 -0.006797 0.000000 0.037923 0.000000
# 6 0.000000 0.000000 0.000000 0.015983 0.000000 -0.014978
#
#
# Mechanical properties :
#
#
# Convention : Reuss Voigt Hill
#
# Bulk Modulus (GPa) = 38.04432 58.31232 48.17832
# Shear Modulus (GPa) = 39.76569 19.24373 29.50471
#
# Velocity S-wave (km/s) = 4.20746 2.92692 3.62420
# Velocity P-wave (km/s) = 6.36711 6.11406 6.24187
#
# Compressibility (1/GPa) = 0.02628513
#
# Stress axis : x y z
#
# Youngs Moduli (GPa) = 159.36645 64.29344 92.26488
#
# Poissons Ratio (x) = 0.07379 0.19093
# Poissons Ratio (y) = 0.18291 -0.00242
# Poissons Ratio (z) = 0.32978 -0.00168
#
# Static dielectric constant tensor:
#      x y z
#    x 2.018880 0.000000 0.016120 
#    y 0.000000 1.868520 0.000000 
#    z 0.016120 0.000000 1.812130 
# 
# From -- ./inp_files/59718.got.cif
#   From: 2010.05.17/outbox.cif.g08.bks.cpg/sg10_30_cif.got.tgz:59718.got - 2010.06.03 11:33:40.
