data_PCOD9148133
_publ_section_title
;
Structure prediction by ZEFSAII (Michael W. Deem and Ramdas Pophale) SiO2 
 PCOD9148133
Probable space group: P 2/M
;
_chemical_formula_sum "Si O2"
_cell_formula_units_Z 24
_cell_length_a 13.054513
_cell_length_b 20.470974
_cell_length_c 6.438240
_cell_angle_alpha 90.000000
_cell_angle_beta 60.883234
_cell_angle_gamma 90.000000
_cell_volume 1503.120576
_symmetry_space_group_name_H-M "P 2/M"
_symmetry_group_IT_number 10
_symmetry_cell_setting 'monoclinic'
loop_
_space_group_symop_operation_xyz
x,y,z
-x,y,-z
-x,-y,-z
x,-y,z
loop_
_atom_site_type_symbol
_atom_site_label
_atom_site_fract_x
_atom_site_fract_y
_atom_site_fract_z
Si Si1 0.700756 0.667468 0.592739
Si Si2 0.500000 0.872393 0.500000
Si Si3 0.500000 0.621765 0.500000
Si Si4 0.375354 0.928921 0.002360
Si Si5 0.137701 0.575470 0.828905
Si Si6 0.675886 0.572460 0.996549
Si Si7 0.622091 0.196183 0.761614
O O1 0.595632 0.663366 0.529355
O O2 0.808427 0.628844 0.380490
O O3 0.667341 0.626173 0.828553
O O4 0.707757 0.742819 0.650093
O O5 0.423040 0.830274 0.415586
O O6 0.412337 0.914502 0.729478
O O7 0.430558 0.579528 0.737020
O O8 0.323061 0.863987 0.160321
O O9 0.317274 0.000000 0.081697
O O10 0.500000 0.932843 0.000000
O O11 0.158080 0.500000 0.736116
O O12 0.208327 0.581331 0.976030
O O13 0.000000 0.584006 0.000000
O O14 0.676311 0.500000 0.903782
O O15 0.500000 0.216266 0.000000
#
# Coordination Sequence:
#
# PCOD9148133 Si02
#       7
#     4   2   2   4   4   4   4
#     4  11  20  31  47  66  91 123 152 184 229 275
#     4   8  14  24  40  54  80 122 152 176 208 246
#     4  10  20  30  44  66  94 120 152 186 214 264
#     4   8  14  23  36  56  81 112 151 184 208 245
#     4   9  20  37  52  67  86 111 152 200 236 271
#     4  10  20  32  48  67  88 117 149 184 227 272
#     4   9  17  26  38  60  88 116 147 179 213 261
#
# _framework density 15.966784000000001
#
# number of rings (size 3 to 8) (size 9 to 14) (size 15 to 20)
#    0.000    3.000    0.000    3.000    0.000    8.000 
#    0.000    2.500    0.000    0.000    0.000    0.000 
#    0.000    0.667    0.000    4.000    0.000    5.167 
#
# Total GULP energy -133616.614086 kJ/mol
# GULP energy per Si atom -5567.358920 kJ/mol
# Density = 1.593044 g / cm^3
# Si number density = 15.966784 Si / 1000 Ang^3
#
#
#
# Elastic Constant Matrix: (Units=GPa)
#
#
# Indices 1 2 3 4 5 6 
#
# 1 29.0601 21.4581 28.6034 0.0000 -7.6297 0.0000
# 2 21.4581 149.2808 52.8401 0.0000 3.4531 0.0000
# 3 28.6034 52.8401 78.7460 0.0000 11.0749 0.0000
# 4 0.0000 0.0000 0.0000 1.8423 0.0000 1.7553
# 5 -7.6297 3.4531 11.0749 0.0000 19.9883 0.0000
# 6 0.0000 0.0000 0.0000 1.7553 0.0000 -4.3249
#
#
#
# Elastic Compliance Matrix: (Units=1/GPa)
#
#
# Indices 1 2 3 4 5 6 
#
# 1 0.088474 0.000196 -0.040142 0.000000 0.055979 0.000000
# 2 0.000196 0.008853 -0.006298 0.000000 0.002035 0.000000
# 3 -0.040142 -0.006298 0.036340 0.000000 -0.034369 0.000000
# 4 0.000000 0.000000 0.000000 0.391434 0.000000 0.158864
# 5 0.055979 0.002035 -0.034369 0.000000 0.090088 0.000000
# 6 0.000000 0.000000 0.000000 0.158864 0.000000 -0.166745
#
#
# Mechanical properties :
#
#
# Convention : Reuss Voigt Hill
#
# Bulk Modulus (GPa) = 24.28351 51.43223 37.85787
# Shear Modulus (GPa) = 9.01458 13.78018 11.39738
#
# Velocity S-wave (km/s) = 2.37867 2.94096 2.67464
# Velocity P-wave (km/s) = 4.77346 6.61924 5.77062
#
# Compressibility (1/GPa) = 0.04118021
#
# Stress axis : x y z
#
# Youngs Moduli (GPa) = 11.30271 112.95986 27.51822
#
# Poissons Ratio (x) = -0.02217 1.10463
# Poissons Ratio (y) = -0.00222 0.17330
# Poissons Ratio (z) = 0.45371 0.71140
#
# Static dielectric constant tensor:
#      x y z
#    x 1.520990 0.000000 0.018960 
#    y 0.000000 1.592420 0.000000 
#    z 0.018960 0.000000 1.545220 
# 
# From -- ./inp_files/9935.got.cif
#   From: 2010.05.17/outbox.cif.g08.bks.cpg/sg10_5_cif.got.tgz:9935.got - 2010.06.03 11:33:40.
