data_PCOD9148832
_publ_section_title
;
Structure prediction by ZEFSAII (Michael W. Deem and Ramdas Pophale) SiO2 
 PCOD9148832
Probable space group: P 2/M
;
_chemical_formula_sum "Si O2"
_cell_formula_units_Z 28
_cell_length_a 23.702462
_cell_length_b 7.645611
_cell_length_c 20.624316
_cell_angle_alpha 90.000000
_cell_angle_beta 19.944826
_cell_angle_gamma 90.000000
_cell_volume 1274.929424
_symmetry_space_group_name_H-M "P 2/M"
_symmetry_group_IT_number 10
_symmetry_cell_setting 'monoclinic'
loop_
_space_group_symop_operation_xyz
x,y,z
-x,y,-z
-x,-y,-z
x,-y,z
loop_
_atom_site_type_symbol
_atom_site_label
_atom_site_fract_x
_atom_site_fract_y
_atom_site_fract_z
Si Si1 0.747739 0.797259 0.399771
Si Si2 0.883774 0.287413 0.684244
Si Si3 0.540652 0.213947 0.382293
Si Si4 0.166292 0.711126 0.121900
Si Si5 0.899298 0.205597 0.951874
Si Si6 0.545508 0.295664 0.738249
Si Si7 0.510419 0.800288 0.060014
O O1 0.604633 0.721900 0.508370
O O2 0.676554 0.792314 0.549637
O O3 0.931659 0.718499 0.201156
O O4 0.764848 0.000000 0.361663
O O5 0.869868 0.500000 0.697313
O O6 0.929675 0.239500 0.708432
O O7 0.000000 0.232520 0.500000
O O8 0.703995 0.209636 0.866610
O O9 0.500000 0.258455 0.500000
O O10 0.544258 0.000000 0.373247
O O11 0.722460 0.278610 0.165440
O O12 0.166841 0.500000 0.117970
O O13 0.095510 0.779405 0.131496
O O14 0.358845 0.767868 0.922748
O O15 0.897139 0.000000 0.970818
O O16 0.550170 0.500000 0.717952
O O17 0.573808 0.276260 0.784678
O O18 0.452210 0.000000 0.117322
O O19 0.500000 0.715571 0.000000
#
# Coordination Sequence:
#
# PCOD9148832 Si02
#       7
#     4   4   4   4   4   4   4
#     4  10  20  34  55  84 114 143 184 231 274 331
#     4   9  19  35  53  75 105 143 188 231 275 330
#     4   9  18  34  56  82 115 151 183 225 280 329
#     4   9  18  33  53  76 103 140 184 230 276 328
#     4  10  20  33  54  83 110 144 185 225 276 330
#     4  10  20  35  56  78 103 143 189 229 279 336
#     4  10  21  35  52  77 109 143 182 230 282 332
#
# _framework density 21.961998999999999
#
# number of rings (size 3 to 8) (size 9 to 14) (size 15 to 20)
#    0.000    2.429    1.429    1.714    0.000    6.000 
#    0.000    5.714    0.000    1.714    0.000    2.000 
#    0.000    0.000    0.000    0.000    0.000    0.000 
#
# Total GULP energy -156224.551827 kJ/mol
# GULP energy per Si atom -5579.448280 kJ/mol
# Density = 2.191201 g / cm^3
# Si number density = 21.961999 Si / 1000 Ang^3
#
#
#
# Elastic Constant Matrix: (Units=GPa)
#
#
# Indices 1 2 3 4 5 6 
#
# 1 131.7912 0.8156 88.6288 0.0000 2.1319 0.0000
# 2 0.8156 38.7788 7.1046 0.0000 -3.2213 0.0000
# 3 88.6288 7.1046 134.3995 0.0000 -7.2700 0.0000
# 4 0.0000 0.0000 0.0000 -11.1357 0.0000 -33.9493
# 5 2.1319 -3.2213 -7.2700 0.0000 27.6007 0.0000
# 6 0.0000 0.0000 0.0000 -33.9493 0.0000 -37.1046
#
#
#
# Elastic Compliance Matrix: (Units=1/GPa)
#
#
# Indices 1 2 3 4 5 6 
#
# 1 0.014021 0.001158 -0.009494 0.000000 -0.003448 0.000000
# 2 0.001158 0.026337 -0.002023 0.000000 0.002451 0.000000
# 3 -0.009494 -0.002023 0.014035 0.000000 0.004194 0.000000
# 4 0.000000 0.000000 0.000000 0.050184 0.000000 -0.045917
# 5 -0.003448 0.002451 0.004194 0.000000 0.037888 0.000000
# 6 0.000000 0.000000 0.000000 -0.045917 0.000000 0.015061
#
#
# Mechanical properties :
#
#
# Convention : Reuss Voigt Hill
#
# Bulk Modulus (GPa) = 29.69559 55.34082 42.51821
# Shear Modulus (GPa) = 26.38949 9.76678 18.07814
#
# Velocity S-wave (km/s) = 3.47017 2.11111 2.87218
# Velocity P-wave (km/s) = 5.44121 5.58530 5.51372
#
# Compressibility (1/GPa) = 0.03367504
#
# Stress axis : x y z
#
# Youngs Moduli (GPa) = 71.32250 37.96903 71.25117
#
# Poissons Ratio (x) = -0.04397 0.67644
# Poissons Ratio (y) = -0.08259 0.14416
# Poissons Ratio (z) = 0.67711 0.07682
#
# Static dielectric constant tensor:
#      x y z
#    x 1.807240 0.000000 -0.003220 
#    y 0.000000 1.812960 0.000000 
#    z -0.003220 0.000000 1.802320 
# 
# From -- ./inp_files/86439.got.cif
#   From: 2010.05.17/outbox.cif.g08.bks.cpg/sg10_44_cif.got.tgz:86439.got - 2010.06.03 11:33:40.
