data_PCOD9148138
_publ_section_title
;
Structure prediction by ZEFSAII (Michael W. Deem and Ramdas Pophale) SiO2 
 PCOD9148138
Probable space group: P 2/M
;
_chemical_formula_sum "Si O2"
_cell_formula_units_Z 20
_cell_length_a 22.986214
_cell_length_b 7.722695
_cell_length_c 9.232993
_cell_angle_alpha 90.000000
_cell_angle_beta 34.433813
_cell_angle_gamma 90.000000
_cell_volume 926.778598
_symmetry_space_group_name_H-M "P 2/M"
_symmetry_group_IT_number 10
_symmetry_cell_setting 'monoclinic'
loop_
_space_group_symop_operation_xyz
x,y,z
-x,y,-z
-x,-y,-z
x,-y,z
loop_
_atom_site_type_symbol
_atom_site_label
_atom_site_fract_x
_atom_site_fract_y
_atom_site_fract_z
Si Si1 0.602067 0.000000 0.882013
Si Si2 0.084495 0.000000 0.452103
Si Si3 0.611282 0.305719 0.341183
Si Si4 0.746138 0.000000 0.144237
Si Si5 0.164957 0.000000 0.732915
Si Si6 0.894223 0.297092 0.351364
Si Si7 0.338206 0.678970 0.078777
O O1 0.714870 0.000000 0.571509
O O2 0.598724 0.836072 0.992345
O O3 0.500000 0.000000 0.000000
O O4 0.075079 0.830994 0.577424
O O5 0.000000 0.000000 0.500000
O O6 0.191496 0.000000 0.137604
O O7 0.500000 0.259922 0.500000
O O8 0.605497 0.500000 0.414853
O O9 0.669557 0.164243 0.314659
O O10 0.678403 0.314636 0.057447
O O11 0.825643 0.000000 0.113844
O O12 0.107668 0.827856 0.788025
O O13 0.934463 0.500000 0.266516
O O14 0.772455 0.318749 0.623483
O O15 0.392831 0.500000 0.001937
#
# Coordination Sequence:
#
# PCOD9148138 Si02
#       7
#     2   2   4   2   2   4   4
#     4  10  20  30  45  71 106 142 189 231 263 322
#     4  11  23  38  63  94 113 140 192 242 288 345
#     4  10  21  34  53  82 114 151 192 234 286 339
#     4  12  22  37  59  85 121 149 185 248 296 334
#     4   9  22  35  53  85 110 151 190 226 291 342
#     4   9  18  40  62  78 112 154 189 226 278 342
#     4   9  17  32  52  71  99 145 189 224 266 321
#
# _framework density 21.580128999999999
#
# number of rings (size 3 to 8) (size 9 to 14) (size 15 to 20)
#    0.000    2.200    2.000    1.500    2.800    1.600 
#    0.000    2.000    0.000    1.200    0.000    0.000 
#    0.000    0.000    0.000    0.000    0.000    0.000 
#
# Total GULP energy -111368.874744 kJ/mol
# GULP energy per Si atom -5568.443737 kJ/mol
# Density = 2.153101 g / cm^3
# Si number density = 21.580129 Si / 1000 Ang^3
#
#
#
# Elastic Constant Matrix: (Units=GPa)
#
#
# Indices 1 2 3 4 5 6 
#
# 1 127.4133 104.1491 10.8282 0.0000 -1.4320 0.0000
# 2 104.1491 211.0655 18.7030 0.0000 -3.5985 0.0000
# 3 10.8282 18.7030 63.8430 0.0000 -1.3534 0.0000
# 4 0.0000 0.0000 0.0000 -7.1731 0.0000 -2.7989
# 5 -1.4320 -3.5985 -1.3534 0.0000 33.6488 0.0000
# 6 0.0000 0.0000 0.0000 -2.7989 0.0000 -4.7798
#
#
#
# Elastic Compliance Matrix: (Units=1/GPa)
#
#
# Indices 1 2 3 4 5 6 
#
# 1 0.013162 -0.006467 -0.000341 0.000000 -0.000145 0.000000
# 2 -0.006467 0.008049 -0.001250 0.000000 0.000535 0.000000
# 3 -0.000341 -0.001250 0.016098 0.000000 0.000499 0.000000
# 4 0.000000 0.000000 0.000000 -0.180696 0.000000 0.105809
# 5 -0.000145 0.000535 0.000499 0.000000 0.029790 0.000000
# 6 0.000000 0.000000 0.000000 0.105809 0.000000 -0.271170
#
#
# Mechanical properties :
#
#
# Convention : Reuss Voigt Hill
#
# Bulk Modulus (GPa) = 47.18430 74.40916 60.79673
# Shear Modulus (GPa) = -13.82789 22.24861 4.21036
#
# Velocity S-wave (km/s) = -2.53409 3.21437 1.39831
# Velocity P-wave (km/s) = 3.65377 6.95208 5.55344
#
# Compressibility (1/GPa) = 0.02119349
#
# Stress axis : x y z
#
# Youngs Moduli (GPa) = 75.97632 124.24172 62.11974
#
# Poissons Ratio (x) = 0.80347 0.02118
# Poissons Ratio (y) = 0.49134 0.07763
# Poissons Ratio (z) = 0.02590 0.15527
#
# Static dielectric constant tensor:
#      x y z
#    x 1.727460 0.000000 0.030660 
#    y 0.000000 1.847020 0.000000 
#    z 0.030660 0.000000 1.888610 
# 
# From -- ./inp_files/33693.got.cif
#   From: 2010.05.17/outbox.cif.g08.bks.cpg/sg10_17_cif.got.tgz:33693.got - 2010.06.03 11:33:40.
