data_PCOD9148836
_publ_section_title
;
Structure prediction by ZEFSAII (Michael W. Deem and Ramdas Pophale) SiO2 
 PCOD9148836
Probable space group: P 2/M
;
_chemical_formula_sum "Si O2"
_cell_formula_units_Z 28
_cell_length_a 14.425196
_cell_length_b 9.734318
_cell_length_c 12.447941
_cell_angle_alpha 90.000000
_cell_angle_beta 121.558549
_cell_angle_gamma 90.000000
_cell_volume 1489.423806
_symmetry_space_group_name_H-M "P 2/M"
_symmetry_group_IT_number 10
_symmetry_cell_setting 'monoclinic'
loop_
_space_group_symop_operation_xyz
x,y,z
-x,y,-z
-x,-y,-z
x,-y,z
loop_
_atom_site_type_symbol
_atom_site_label
_atom_site_fract_x
_atom_site_fract_y
_atom_site_fract_z
Si Si1 0.802581 0.157800 0.359960
Si Si2 0.803133 0.840746 0.612816
Si Si3 0.979979 0.159639 0.113338
Si Si4 0.412563 0.350509 0.042236
Si Si5 0.554234 0.842545 0.257389
Si Si6 0.163326 0.659488 0.818677
Si Si7 0.393300 0.657204 0.507872
O O1 0.824687 0.191662 0.499177
O O2 0.670619 0.161148 0.266386
O O3 0.852857 0.259818 0.303367
O O4 0.838430 0.000000 0.363247
O O5 0.710304 0.739521 0.599800
O O6 0.908952 0.831796 0.750546
O O7 0.764632 0.000000 0.589471
O O8 0.897683 0.261003 0.123090
O O9 0.942357 0.000000 0.095706
O O10 0.000000 0.192285 0.000000
O O11 0.420120 0.500000 0.104846
O O12 0.452395 0.221099 0.134040
O O13 0.500000 0.356397 0.000000
O O14 0.291592 0.338015 0.924193
O O15 0.575036 0.742461 0.368482
O O16 0.535843 0.000000 0.277488
O O17 0.129800 0.500000 0.790377
O O18 0.500000 0.657231 0.500000
O O19 0.363187 0.500000 0.513705
#
# Coordination Sequence:
#
# PCOD9148836 Si02
#       7
#     4   4   4   4   4   4   4
#     4   9  18  34  56  84 116 147 185 235 292 351
#     4   9  20  39  62  87 115 151 194 243 297 345
#     4  10  23  44  65  84 113 154 199 247 297 349
#     4  10  20  35  54  81 121 160 190 231 288 347
#     4  10  20  33  54  83 115 153 193 238 286 340
#     4  11  23  37  58  87 118 156 199 244 293 349
#     4  10  21  36  56  84 117 153 192 235 290 351
#
# _framework density 18.799216999999999
#
# number of rings (size 3 to 8) (size 9 to 14) (size 15 to 20)
#    0.000    2.143    1.429    2.143    0.000    7.429 
#    0.000    5.714    0.000    0.000    0.000    0.000 
#    0.000    0.000    0.000    0.000    0.000    0.000 
#
# Total GULP energy -156138.701920 kJ/mol
# GULP energy per Si atom -5576.382211 kJ/mol
# Density = 1.875643 g / cm^3
# Si number density = 18.799217 Si / 1000 Ang^3
#
#
#
# Elastic Constant Matrix: (Units=GPa)
#
#
# Indices 1 2 3 4 5 6 
#
# 1 77.2922 74.3565 32.5708 0.0000 -11.8076 0.0000
# 2 74.3565 147.6817 51.7549 0.0000 -13.9520 0.0000
# 3 32.5708 51.7549 75.5527 0.0000 -3.2539 0.0000
# 4 0.0000 0.0000 0.0000 29.0526 0.0000 8.7984
# 5 -11.8076 -13.9520 -3.2539 0.0000 19.9854 0.0000
# 6 0.0000 0.0000 0.0000 8.7984 0.0000 42.6568
#
#
#
# Elastic Compliance Matrix: (Units=1/GPa)
#
#
# Indices 1 2 3 4 5 6 
#
# 1 0.026462 -0.011534 -0.003203 0.000000 0.007061 0.000000
# 2 -0.011534 0.014524 -0.004868 0.000000 0.002532 0.000000
# 3 -0.003203 -0.004868 0.017848 0.000000 -0.002384 0.000000
# 4 0.000000 0.000000 0.000000 0.036714 0.000000 -0.007573
# 5 0.007061 0.002532 -0.002384 0.000000 0.055587 0.000000
# 6 0.000000 0.000000 0.000000 -0.007573 0.000000 0.025005
#
#
# Mechanical properties :
#
#
# Convention : Reuss Voigt Hill
#
# Bulk Modulus (GPa) = 50.95465 68.65455 59.80460
# Shear Modulus (GPa) = 22.53364 27.79525 25.16445
#
# Velocity S-wave (km/s) = 3.46591 3.84934 3.66264
# Velocity P-wave (km/s) = 6.57116 7.50705 7.05464
#
# Compressibility (1/GPa) = 0.01962530
#
# Stress axis : x y z
#
# Youngs Moduli (GPa) = 37.78985 68.85308 56.02809
#
# Poissons Ratio (x) = 0.79415 0.17944
# Poissons Ratio (y) = 0.43587 0.27272
# Poissons Ratio (z) = 0.12103 0.33515
#
# Static dielectric constant tensor:
#      x y z
#    x 1.654930 0.000000 0.006300 
#    y 0.000000 1.661010 0.000000 
#    z 0.006300 0.000000 1.682330 
# 
# From -- ./inp_files/50071.got.cif
#   From: 2010.05.17/outbox.cif.g08.bks.cpg/sg10_26_cif.got.tgz:50071.got - 2010.06.03 11:33:40.
