data_PCOD9148539
_publ_section_title
;
Structure prediction by ZEFSAII (Michael W. Deem and Ramdas Pophale) SiO2 
 PCOD9148539
Probable space group: P 2/M
;
_chemical_formula_sum "Si O2"
_cell_formula_units_Z 30
_cell_length_a 32.755913
_cell_length_b 9.690791
_cell_length_c 13.581026
_cell_angle_alpha 90.000000
_cell_angle_beta 156.370051
_cell_angle_gamma 90.000000
_cell_volume 1727.983275
_symmetry_space_group_name_H-M "P 2/M"
_symmetry_group_IT_number 10
_symmetry_cell_setting 'monoclinic'
loop_
_space_group_symop_operation_xyz
x,y,z
-x,y,-z
-x,-y,-z
x,-y,z
loop_
_atom_site_type_symbol
_atom_site_label
_atom_site_fract_x
_atom_site_fract_y
_atom_site_fract_z
Si Si1 0.357358 0.840255 0.275306
Si Si2 0.236093 0.662149 0.703878
Si Si3 0.859118 0.839244 0.902089
Si Si4 0.000000 0.743783 0.500000
Si Si5 0.589828 0.159015 0.838631
Si Si6 0.085432 0.152424 0.489685
Si Si7 0.880599 0.661100 0.759582
Si Si8 0.201067 0.342008 0.047778
O O1 0.373350 0.826014 0.193495
O O2 0.468654 0.817542 0.569188
O O3 0.277280 0.733471 0.141444
O O4 0.326447 0.000000 0.225782
O O5 0.245462 0.500000 0.743686
O O6 0.161889 0.732670 0.619888
O O7 0.183407 0.681335 0.481357
O O8 0.344017 0.737827 0.950634
O O9 0.847089 0.763548 0.771596
O O10 0.804511 0.751115 0.866505
O O11 0.828088 0.000000 0.832796
O O12 0.979370 0.836395 0.196004
O O13 0.055805 0.830667 0.538257
O O14 0.088295 0.660951 0.750622
O O15 0.607465 0.000000 0.906522
O O16 0.129763 0.000000 0.570928
O O17 0.870450 0.500000 0.768076
O O18 0.000000 0.684041 0.000000
O O19 0.229794 0.500000 0.131031
#
# Coordination Sequence:
#
# PCOD9148539 Si02
#       8
#     4   4   4   2   4   4   4   4
#     4   9  19  37  58  79 107 143 182 220 264 316
#     4  11  22  33  52  80 109 139 175 220 269 319
#     4  10  21  35  53  76 102 138 183 222 258 313
#     4  10  22  34  48  76 108 144 180 216 252 310
#     4   9  19  36  57  80 107 141 179 223 269 313
#     4  10  20  33  49  71 103 141 179 218 260 307
#     4  10  20  36  54  75 108 146 176 216 272 323
#     4  11  22  35  53  77 108 145 178 216 265 319
#
# _framework density 17.361279
#
# number of rings (size 3 to 8) (size 9 to 14) (size 15 to 20)
#    0.000    2.000    1.333    3.200    0.000    8.800 
#    0.000    1.333    0.000    0.800    0.000    5.600 
#    0.000    0.000    0.000    0.000    0.000    0.000 
#
# Total GULP energy -167474.290217 kJ/mol
# GULP energy per Si atom -5582.476341 kJ/mol
# Density = 1.732176 g / cm^3
# Si number density = 17.361279 Si / 1000 Ang^3
#
#
#
# Elastic Constant Matrix: (Units=GPa)
#
#
# Indices 1 2 3 4 5 6 
#
# 1 62.8768 53.5901 16.0485 0.0000 -1.9720 0.0000
# 2 53.5901 134.5399 53.6556 0.0000 -1.5993 0.0000
# 3 16.0485 53.6556 68.7950 0.0000 -5.2881 0.0000
# 4 0.0000 0.0000 0.0000 21.6545 0.0000 -9.9174
# 5 -1.9720 -1.5993 -5.2881 0.0000 21.0648 0.0000
# 6 0.0000 0.0000 0.0000 -9.9174 0.0000 49.3817
#
#
#
# Elastic Compliance Matrix: (Units=1/GPa)
#
#
# Indices 1 2 3 4 5 6 
#
# 1 0.024531 -0.010930 0.002972 0.000000 0.002213 0.000000
# 2 -0.010930 0.015695 -0.009869 0.000000 -0.002309 0.000000
# 3 0.002972 -0.009869 0.021926 0.000000 0.005033 0.000000
# 4 0.000000 0.000000 0.000000 0.050857 0.000000 0.010214
# 5 0.002213 -0.002309 0.005033 0.000000 0.048768 0.000000
# 6 0.000000 0.000000 0.000000 0.010214 0.000000 0.022302
#
#
# Mechanical properties :
#
#
# Convention : Reuss Voigt Hill
#
# Bulk Modulus (GPa) = 37.73724 56.97779 47.35751
# Shear Modulus (GPa) = 21.87567 27.94804 24.91186
#
# Velocity S-wave (km/s) = 3.55354 4.01657 3.79213
# Velocity P-wave (km/s) = 6.21454 7.37568 6.81986
#
# Compressibility (1/GPa) = 0.02649902
#
# Stress axis : x y z
#
# Youngs Moduli (GPa) = 40.76515 63.71581 45.60748
#
# Poissons Ratio (x) = 0.69643 -0.13557
# Poissons Ratio (y) = 0.44557 0.45008
# Poissons Ratio (z) = -0.12117 0.62878
#
# Static dielectric constant tensor:
#      x y z
#    x 1.568970 0.000000 -0.001180 
#    y 0.000000 1.586470 0.000000 
#    z -0.001180 0.000000 1.593710 
# 
# From -- ./inp_files/58038.got.cif
#   From: 2010.05.17/outbox.cif.g08.bks.cpg/sg10_30_cif.got.tgz:58038.got - 2010.06.03 11:33:40.
