data_PCOD9148690
_publ_section_title
;
Structure prediction by ZEFSAII (Michael W. Deem and Ramdas Pophale) SiO2 
 PCOD9148690
Probable space group: P 2/M
;
_chemical_formula_sum "Si O2"
_cell_formula_units_Z 24
_cell_length_a 11.341728
_cell_length_b 8.573677
_cell_length_c 22.191028
_cell_angle_alpha 90.000000
_cell_angle_beta 146.864547
_cell_angle_gamma 90.000000
_cell_volume 1179.531258
_symmetry_space_group_name_H-M "P 2/M"
_symmetry_group_IT_number 10
_symmetry_cell_setting 'monoclinic'
loop_
_space_group_symop_operation_xyz
x,y,z
-x,y,-z
-x,-y,-z
x,-y,z
loop_
_atom_site_type_symbol
_atom_site_label
_atom_site_fract_x
_atom_site_fract_y
_atom_site_fract_z
Si Si1 0.479843 0.824235 0.064163
Si Si2 0.669919 0.189722 0.333098
Si Si3 0.198116 0.813014 0.124384
Si Si4 0.021550 0.685052 0.857335
Si Si5 0.106846 0.811971 0.452224
Si Si6 0.942321 0.685800 0.265764
O O1 0.707680 0.755848 0.182024
O O2 0.451866 0.000000 0.075872
O O3 0.500000 0.830388 0.000000
O O4 0.264057 0.727281 0.983122
O O5 0.437567 0.245241 0.211296
O O6 0.877751 0.237978 0.383770
O O7 0.715161 0.233750 0.422133
O O8 0.670173 0.000000 0.331586
O O9 0.142943 0.771402 0.169443
O O10 0.200468 0.000000 0.118572
O O11 0.000000 0.749943 0.000000
O O12 0.990364 0.500000 0.847313
O O13 0.005381 0.735254 0.780431
O O14 0.111932 0.741117 0.388128
O O15 0.107007 0.000000 0.447717
O O16 0.924491 0.500000 0.257975
#
# Coordination Sequence:
#
# PCOD9148690 Si02
#       6
#     4   4   4   4   4   4
#     4   9  17  30  50  75 103 138 179 219 260 311
#     4   8  17  35  55  80 109 138 177 228 274 315
#     4  10  21  36  56  80 108 141 181 225 269 323
#     4  10  21  36  51  74 112 148 178 218 270 325
#     4   9  17  33  59  81 104 140 181 223 271 324
#     4  10  20  33  51  79 112 142 176 223 274 320
#
# _framework density 20.347065000000001
#
# number of rings (size 3 to 8) (size 9 to 14) (size 15 to 20)
#    0.000    2.667    0.000    2.500    2.333    4.333 
#    0.000    4.167    0.000    5.000    0.000    0.000 
#    0.000    0.000    0.000    0.000    0.000    0.000 
#
# Total GULP energy -133912.889784 kJ/mol
# GULP energy per Si atom -5579.703741 kJ/mol
# Density = 2.030075 g / cm^3
# Si number density = 20.347065 Si / 1000 Ang^3
#
#
#
# Elastic Constant Matrix: (Units=GPa)
#
#
# Indices 1 2 3 4 5 6 
#
# 1 45.0479 -4.8715 24.2554 0.0000 -8.2716 0.0000
# 2 -4.8715 5.3762 12.0796 0.0000 -6.2543 0.0000
# 3 24.2554 12.0796 101.0654 0.0000 -11.4370 0.0000
# 4 0.0000 0.0000 0.0000 15.6854 0.0000 -0.8354
# 5 -8.2716 -6.2543 -11.4370 0.0000 34.6506 0.0000
# 6 0.0000 0.0000 0.0000 -0.8354 0.0000 14.3046
#
#
#
# Elastic Compliance Matrix: (Units=1/GPa)
#
#
# Indices 1 2 3 4 5 6 
#
# 1 0.064847 0.172996 -0.032156 0.000000 0.036091 0.000000
# 2 0.172996 0.772426 -0.117790 0.000000 0.141837 0.000000
# 3 -0.032156 -0.117790 0.029519 0.000000 -0.019194 0.000000
# 4 0.000000 0.000000 0.000000 0.063952 0.000000 0.003735
# 5 0.036091 0.141837 -0.019194 0.000000 0.056741 0.000000
# 6 0.000000 0.000000 0.000000 0.003735 0.000000 0.070126
#
#
# Mechanical properties :
#
#
# Convention : Reuss Voigt Hill
#
# Bulk Modulus (GPa) = 1.09542 23.82407 12.45974
# Shear Modulus (GPa) = 3.79995 20.92986 12.36490
#
# Velocity S-wave (km/s) = 1.36807 3.21073 2.46783
# Velocity P-wave (km/s) = 1.74213 5.04770 3.77586
#
# Compressibility (1/GPa) = 0.91289226
#
# Stress axis : x y z
#
# Youngs Moduli (GPa) = 15.42085 1.29462 33.87704
#
# Poissons Ratio (x) = -0.22396 1.08935
# Poissons Ratio (y) = -2.66775 3.99039
# Poissons Ratio (z) = 0.49587 0.15249
#
# Static dielectric constant tensor:
#      x y z
#    x 1.742600 0.000000 -0.023030 
#    y 0.000000 1.687920 0.000000 
#    z -0.023030 0.000000 1.747550 
# 
# From -- ./inp_files/56683.got.cif
#   From: 2010.05.17/outbox.cif.g08.bks.cpg/sg10_29_cif.got.tgz:56683.got - 2010.06.03 11:33:40.
