data_PCOD9148646
_publ_section_title
;
Structure prediction by ZEFSAII (Michael W. Deem and Ramdas Pophale) SiO2 
 PCOD9148646
Probable space group: P 2/M
;
_chemical_formula_sum "Si O2"
_cell_formula_units_Z 28
_cell_length_a 10.795075
_cell_length_b 10.290701
_cell_length_c 13.962190
_cell_angle_alpha 90.000000
_cell_angle_beta 78.407461
_cell_angle_gamma 90.000000
_cell_volume 1519.405086
_symmetry_space_group_name_H-M "P 2/M"
_symmetry_group_IT_number 10
_symmetry_cell_setting 'monoclinic'
loop_
_space_group_symop_operation_xyz
x,y,z
-x,y,-z
-x,-y,-z
x,-y,z
loop_
_atom_site_type_symbol
_atom_site_label
_atom_site_fract_x
_atom_site_fract_y
_atom_site_fract_z
Si Si1 0.068986 0.258239 0.397100
Si Si2 0.451475 0.153874 0.305635
Si Si3 0.170927 0.354646 0.671341
Si Si4 0.678932 0.647819 0.541917
Si Si5 0.259642 0.849564 0.803793
Si Si6 0.865264 0.156827 0.981233
Si Si7 0.227976 0.150939 0.206861
O O1 0.189291 0.336087 0.419511
O O2 0.124813 0.165784 0.306846
O O3 0.000000 0.194701 0.500000
O O4 0.962006 0.344234 0.363455
O O5 0.414434 0.244399 0.400838
O O6 0.595273 0.165073 0.250068
O O7 0.358424 0.198909 0.233935
O O8 0.426011 0.000000 0.329866
O O9 0.187734 0.500000 0.706834
O O10 0.278848 0.330479 0.574219
O O11 0.179025 0.246486 0.750972
O O12 0.631921 0.500000 0.559742
O O13 0.221516 0.000000 0.793706
O O14 0.236037 0.821292 0.919034
O O15 0.821592 0.209731 0.884978
O O16 0.879722 0.000000 0.968362
O O17 0.000000 0.205688 0.000000
O O18 0.251206 0.000000 0.183746
#
# Coordination Sequence:
#
# PCOD9148646 Si02
#       7
#     4   4   4   4   4   4   4
#     4   9  17  30  50  76 103 130 163 204 250 300
#     4   9  19  34  50  73 102 131 168 210 249 290
#     4  10  20  33  51  75 102 133 169 207 249 299
#     4   9  18  33  53  75 100 133 168 203 248 302
#     4  10  21  35  51  72 100 134 170 209 251 293
#     4   9  17  30  50  75 100 128 165 206 248 297
#     4   9  17  30  50  75 103 134 167 205 247 294
#
# _framework density 18.428265
#
# number of rings (size 3 to 8) (size 9 to 14) (size 15 to 20)
#    0.000    2.714    0.000    1.286    0.000    6.000 
#    0.000    8.571    0.000    7.286    0.000    5.000 
#    0.000    0.000    0.000    0.000    0.000    0.000 
#
# Total GULP energy -155995.781151 kJ/mol
# GULP energy per Si atom -5571.277898 kJ/mol
# Density = 1.838632 g / cm^3
# Si number density = 18.428265 Si / 1000 Ang^3
#
#
#
# Elastic Constant Matrix: (Units=GPa)
#
#
# Indices 1 2 3 4 5 6 
#
# 1 45.0473 14.1083 10.7936 0.0000 -3.5300 0.0000
# 2 14.1083 32.7523 23.4281 0.0000 2.4641 0.0000
# 3 10.7936 23.4281 72.3633 0.0000 9.7633 0.0000
# 4 0.0000 0.0000 0.0000 3.0518 0.0000 8.5585
# 5 -3.5300 2.4641 9.7633 0.0000 24.4973 0.0000
# 6 0.0000 0.0000 0.0000 8.5585 0.0000 -1.1176
#
#
#
# Elastic Compliance Matrix: (Units=1/GPa)
#
#
# Indices 1 2 3 4 5 6 
#
# 1 0.026309 -0.010948 -0.001099 0.000000 0.005330 0.000000
# 2 -0.010948 0.044323 -0.012579 0.000000 -0.001022 0.000000
# 3 -0.001099 -0.012579 0.018924 0.000000 -0.006435 0.000000
# 4 0.000000 0.000000 0.000000 0.014579 0.000000 0.111645
# 5 0.005330 -0.001022 -0.006435 0.000000 0.044256 0.000000
# 6 0.000000 0.000000 0.000000 0.111645 0.000000 -0.039810
#
#
# Mechanical properties :
#
#
# Convention : Reuss Voigt Hill
#
# Bulk Modulus (GPa) = 24.81127 27.42477 26.11802
# Shear Modulus (GPa) = 29.19447 12.07516 20.63482
#
# Velocity S-wave (km/s) = 3.98455 2.56257 3.34988
# Velocity P-wave (km/s) = 5.88742 4.86517 5.40054
#
# Compressibility (1/GPa) = 0.04030427
#
# Stress axis : x y z
#
# Youngs Moduli (GPa) = 38.01047 22.56187 52.84355
#
# Poissons Ratio (x) = 0.24700 0.05807
# Poissons Ratio (y) = 0.41612 0.66471
# Poissons Ratio (z) = 0.04177 0.28380
#
# Static dielectric constant tensor:
#      x y z
#    x 1.668850 0.000000 0.014350 
#    y 0.000000 1.619600 0.000000 
#    z 0.014350 0.000000 1.643200 
# 
# From -- ./inp_files/46012.got.cif
#   From: 2010.05.17/outbox.cif.g08.bks.cpg/sg10_24_cif.got.tgz:46012.got - 2010.06.03 11:33:40.
