data_PCOD9148764
_publ_section_title
;
Structure prediction by ZEFSAII (Michael W. Deem and Ramdas Pophale) SiO2 
 PCOD9148764
Probable space group: P 2/M
;
_chemical_formula_sum "Si O2"
_cell_formula_units_Z 22
_cell_length_a 5.139965
_cell_length_b 19.321355
_cell_length_c 12.672995
_cell_angle_alpha 90.000000
_cell_angle_beta 75.545816
_cell_angle_gamma 90.000000
_cell_volume 1218.732131
_symmetry_space_group_name_H-M "P 2/M"
_symmetry_group_IT_number 10
_symmetry_cell_setting 'monoclinic'
loop_
_space_group_symop_operation_xyz
x,y,z
-x,y,-z
-x,-y,-z
x,-y,z
loop_
_atom_site_type_symbol
_atom_site_label
_atom_site_fract_x
_atom_site_fract_y
_atom_site_fract_z
Si Si1 0.204238 0.500000 0.577571
Si Si2 0.426736 0.834510 0.131577
Si Si3 0.200921 0.421842 0.076769
Si Si4 0.322450 0.650199 0.624160
Si Si5 0.229151 0.307811 0.253265
Si Si6 0.926621 0.921806 0.131831
O O1 0.500000 0.500000 0.500000
O O2 0.197882 0.572431 0.639058
O O3 0.000000 0.500000 0.500000
O O4 0.328283 0.763835 0.193373
O O5 0.682961 0.868017 0.162646
O O6 0.188532 0.890514 0.159562
O O7 0.500000 0.822979 0.000000
O O8 0.154062 0.500000 0.123622
O O9 0.177043 0.362491 0.165184
O O10 0.500000 0.419839 0.000000
O O11 0.000000 0.410453 0.000000
O O12 0.500000 0.657875 0.500000
O O13 0.532835 0.663434 0.696588
O O14 0.057603 0.697939 0.657969
O O15 0.861315 0.000000 0.172597
O O16 0.000000 0.925417 0.000000
#
# Coordination Sequence:
#
# PCOD9148764 Si02
#       6
#     2   4   4   4   4   4
#     4  10  20  38  58  76  98 130 176 238 300 338
#     4  10  20  33  52  82 116 149 183 218 261 326
#     4  10  22  38  54  75 107 145 189 228 261 317
#     4  11  24  39  57  80 107 138 184 245 294 347
#     4  12  23  36  59  80 111 148 186 228 286 339
#     4   9  17  31  52  78 113 151 181 214 261 317
#
# _framework density 18.051549000000001
#
# number of rings (size 3 to 8) (size 9 to 14) (size 15 to 20)
#    0.000    1.636    0.000    6.000    2.545    4.364 
#    0.000    0.000    0.000    0.000    0.000    0.000 
#    0.000   50.909    0.000    0.000    0.000    0.000 
#
# Total GULP energy -122823.359405 kJ/mol
# GULP energy per Si atom -5582.879973 kJ/mol
# Density = 1.801046 g / cm^3
# Si number density = 18.051549 Si / 1000 Ang^3
#
#
#
# Elastic Constant Matrix: (Units=GPa)
#
#
# Indices 1 2 3 4 5 6 
#
# 1 130.9451 32.4702 28.4270 0.0000 -8.1300 0.0000
# 2 32.4702 114.9749 50.8622 0.0000 -9.8248 0.0000
# 3 28.4270 50.8622 48.5457 0.0000 -12.6390 0.0000
# 4 0.0000 0.0000 0.0000 13.5605 0.0000 -8.2395
# 5 -8.1300 -9.8248 -12.6390 0.0000 26.6897 0.0000
# 6 0.0000 0.0000 0.0000 -8.2395 0.0000 24.0327
#
#
#
# Elastic Compliance Matrix: (Units=1/GPa)
#
#
# Indices 1 2 3 4 5 6 
#
# 1 0.008760 -0.000400 -0.004625 0.000000 0.000331 0.000000
# 2 -0.000400 0.016362 -0.017534 0.000000 -0.002402 0.000000
# 3 -0.004625 -0.017534 0.045203 0.000000 0.013543 0.000000
# 4 0.000000 0.000000 0.000000 0.093148 0.000000 0.031935
# 5 0.000331 -0.002402 0.013543 0.000000 0.043098 0.000000
# 6 0.000000 0.000000 0.000000 0.031935 0.000000 0.052559
#
#
# Mechanical properties :
#
#
# Convention : Reuss Voigt Hill
#
# Bulk Modulus (GPa) = 39.66787 57.55382 48.61085
# Shear Modulus (GPa) = 15.99235 25.03699 20.51467
#
# Velocity S-wave (km/s) = 2.97968 3.72825 3.37478
# Velocity P-wave (km/s) = 5.81898 7.10530 6.49407
#
# Compressibility (1/GPa) = 0.02520932
#
# Stress axis : x y z
#
# Youngs Moduli (GPa) = 114.14882 61.11835 22.12223
#
# Poissons Ratio (x) = 0.02444 0.10231
# Poissons Ratio (y) = 0.04565 0.38788
# Poissons Ratio (z) = 0.52789 1.07162
#
# Static dielectric constant tensor:
#      x y z
#    x 1.615900 0.000000 -0.021940 
#    y 0.000000 1.626780 0.000000 
#    z -0.021940 0.000000 1.621520 
# 
# From -- ./inp_files/39349.got.cif
#   From: 2010.05.17/outbox.cif.g08.bks.cpg/sg10_20_cif.got.tgz:39349.got - 2010.06.03 11:33:40.
