data_PCOD9148097
_publ_section_title
;
Structure prediction by ZEFSAII (Michael W. Deem and Ramdas Pophale) SiO2 
 PCOD9148097
Probable space group: P 2/M
;
_chemical_formula_sum "Si O2"
_cell_formula_units_Z 32
_cell_length_a 10.594136
_cell_length_b 18.984964
_cell_length_c 14.063551
_cell_angle_alpha 90.000000
_cell_angle_beta 149.113073
_cell_angle_gamma 90.000000
_cell_volume 1452.044870
_symmetry_space_group_name_H-M "P 2/M"
_symmetry_group_IT_number 10
_symmetry_cell_setting 'monoclinic'
loop_
_space_group_symop_operation_xyz
x,y,z
-x,y,-z
-x,-y,-z
x,-y,z
loop_
_atom_site_type_symbol
_atom_site_label
_atom_site_fract_x
_atom_site_fract_y
_atom_site_fract_z
Si Si1 0.730680 0.920660 0.720913
Si Si2 0.490480 0.832275 0.263267
Si Si3 0.253612 0.419714 0.451149
Si Si4 0.730682 0.420660 0.220913
Si Si5 0.040618 0.419651 0.914009
Si Si6 0.509520 0.332275 0.236731
Si Si7 0.746391 0.919714 0.048853
Si Si8 0.959378 0.080348 0.585988
O O1 0.500000 0.915577 0.500000
O O2 0.701046 0.861575 0.782290
O O3 0.983974 0.915269 0.826821
O O4 0.723595 0.000000 0.759774
O O5 0.499998 0.750000 0.249998
O O6 0.748240 0.863134 0.467152
O O7 0.425723 0.869424 0.122066
O O8 0.344214 0.500000 0.518065
O O9 0.425724 0.369425 0.622069
O O10 0.983975 0.415269 0.326821
O O11 0.195663 0.404183 0.303696
O O12 0.723596 0.500000 0.259776
O O13 0.701050 0.361574 0.282290
O O14 0.500000 0.415577 0.000000
O O15 0.117656 0.500000 0.936908
O O16 0.251765 0.363136 0.032847
O O17 0.000000 0.419452 0.000000
O O18 0.804341 0.904186 0.196306
O O19 0.655788 0.000000 0.981934
O O20 0.000000 0.080544 0.500000
O O21 0.882328 0.000000 0.563084
#
# Coordination Sequence:
#
# PCOD9148097 Si02
#       8
#     4   4   4   4   4   4   4   4
#     4  10  19  39  70  94 117 155 211 269 309 350
#     4  12  25  39  58  94 131 166 194 252 321 386
#     4  10  21  40  69  94 116 158 216 269 307 356
#     4  10  19  39  70  94 117 155 211 269 309 350
#     4  10  22  42  63  86 121 165 213 258 299 360
#     4  12  25  39  58  94 131 166 194 252 321 386
#     4  10  21  40  69  94 116 158 216 269 307 356
#     4  10  22  42  63  86 121 165 213 258 299 360
#
# _framework density 22.037887999999999
#
# number of rings (size 3 to 8) (size 9 to 14) (size 15 to 20)
#    0.000    1.500    2.500    3.000    0.000    6.000 
#    4.500    3.750    0.000    0.000    0.000    0.000 
#    0.000    0.000    0.000    0.000    0.000    0.000 
#
# Total GULP energy -179049.966967 kJ/mol
# GULP energy per Si atom -5595.311468 kJ/mol
# Density = 2.198773 g / cm^3
# Si number density = 22.037888 Si / 1000 Ang^3
#
#
#
# Elastic Constant Matrix: (Units=GPa)
#
#
# Indices 1 2 3 4 5 6 
#
# 1 84.2570 40.3135 4.2562 0.0000 -25.0435 0.0000
# 2 40.3135 144.7668 67.9231 0.0000 -24.2152 0.0000
# 3 4.2562 67.9231 118.9481 0.0000 -31.7550 0.0000
# 4 0.0000 0.0000 0.0000 7.0745 0.0000 0.2863
# 5 -25.0435 -24.2152 -31.7550 0.0000 40.3034 0.0000
# 6 0.0000 0.0000 0.0000 0.2863 0.0000 -2.5263
#
#
#
# Elastic Compliance Matrix: (Units=1/GPa)
#
#
# Indices 1 2 3 4 5 6 
#
# 1 0.017999 -0.005721 0.005940 0.000000 0.012428 0.000000
# 2 -0.005721 0.011359 -0.006849 0.000000 -0.002127 0.000000
# 3 0.005940 -0.006849 0.015187 0.000000 0.011542 0.000000
# 4 0.000000 0.000000 0.000000 0.140708 0.000000 0.015948
# 5 0.012428 -0.002127 0.011542 0.000000 0.040350 0.000000
# 6 0.000000 0.000000 0.000000 0.015948 0.000000 -0.394036
#
#
# Mechanical properties :
#
#
# Convention : Reuss Voigt Hill
#
# Bulk Modulus (GPa) = 31.96343 63.66196 47.81269
# Shear Modulus (GPa) = -34.54337 24.66892 -4.93722
#
# Velocity S-wave (km/s) = -3.96340 3.34935 -1.49840
# Velocity P-wave (km/s) = 2.53168 6.62629 4.33003
#
# Compressibility (1/GPa) = 0.03128575
#
# Stress axis : x y z
#
# Youngs Moduli (GPa) = 55.55766 88.03952 65.84668
#
# Poissons Ratio (x) = 0.50365 -0.39116
# Poissons Ratio (y) = 0.31783 0.45099
# Poissons Ratio (z) = -0.33003 0.60299
#
# Static dielectric constant tensor:
#      x y z
#    x 1.896920 0.000000 0.016020 
#    y 0.000000 1.736840 0.000000 
#    z 0.016020 0.000000 1.821950 
# 
# From -- ./inp_files/65409.got.cif
#   From: 2010.05.17/outbox.cif.g08.bks.cpg/sg10_33_cif.got.tgz:65409.got - 2010.06.03 11:33:40.
