data_PCOD9148708
_publ_section_title
;
Structure prediction by ZEFSAII (Michael W. Deem and Ramdas Pophale) SiO2 
 PCOD9148708
Probable space group: P 2/M
;
_chemical_formula_sum "Si O2"
_cell_formula_units_Z 28
_cell_length_a 26.592348
_cell_length_b 9.889583
_cell_length_c 5.443152
_cell_angle_alpha 90.000000
_cell_angle_beta 106.954194
_cell_angle_gamma 90.000000
_cell_volume 1369.264794
_symmetry_space_group_name_H-M "P 2/M"
_symmetry_group_IT_number 10
_symmetry_cell_setting 'monoclinic'
loop_
_space_group_symop_operation_xyz
x,y,z
-x,y,-z
-x,-y,-z
x,-y,z
loop_
_atom_site_type_symbol
_atom_site_label
_atom_site_fract_x
_atom_site_fract_y
_atom_site_fract_z
Si Si1 0.385021 0.337317 0.888085
Si Si2 0.180100 0.349087 0.586649
Si Si3 0.128325 0.149303 0.198114
Si Si4 0.026714 0.162723 0.785499
Si Si5 0.766068 0.150976 0.950170
Si Si6 0.714039 0.350377 0.559867
Si Si7 0.439748 0.335120 0.463216
O O1 0.391301 0.500000 0.907979
O O2 0.325015 0.314665 0.717934
O O3 0.418990 0.289730 0.700428
O O4 0.404590 0.288329 0.180960
O O5 0.167721 0.500000 0.661945
O O6 0.131454 0.269329 0.397840
O O7 0.226857 0.365144 0.454254
O O8 0.206988 0.249849 0.817962
O O9 0.187281 0.135123 0.182818
O O10 0.112483 0.000000 0.276869
O O11 0.088684 0.183253 0.920562
O O12 0.000000 0.216668 0.500000
O O13 0.019600 0.000000 0.768978
O O14 0.000000 0.211812 0.000000
O O15 0.717586 0.231113 0.761385
O O16 0.753595 0.000000 0.024785
O O17 0.697621 0.500000 0.634826
O O18 0.500000 0.296647 0.500000
O O19 0.438042 0.500000 0.466389
#
# Coordination Sequence:
#
# PCOD9148708 Si02
#       7
#     4   4   4   4   4   4   4
#     4   9  17  27  44  67  97 135 171 210 259 313
#     4  10  20  33  52  75 103 139 177 214 259 316
#     4   9  19  34  53  77 104 135 174 218 265 313
#     4   9  18  31  52  81 108 134 171 221 271 316
#     4  10  20  33  52  76 104 136 172 216 264 312
#     4   9  19  33  49  72 102 138 176 213 260 316
#     4   9  16  26  41  65  98 135 171 209 258 314
#
# _framework density 20.448931000000002
#
# number of rings (size 3 to 8) (size 9 to 14) (size 15 to 20)
#    0.000    2.714    0.000    1.286    4.000    2.857 
#    0.000    0.000    0.000    0.857    0.000    0.000 
#    0.000    3.429    0.000    0.000    0.000    0.000 
#
# Total GULP energy -155936.518038 kJ/mol
# GULP energy per Si atom -5569.161358 kJ/mol
# Density = 2.040239 g / cm^3
# Si number density = 20.448931 Si / 1000 Ang^3
#
#
#
# Elastic Constant Matrix: (Units=GPa)
#
#
# Indices 1 2 3 4 5 6 
#
# 1 45.2761 -3.8977 10.5444 0.0000 11.8180 0.0000
# 2 -3.8977 112.0620 51.1788 0.0000 8.5511 0.0000
# 3 10.5444 51.1788 124.3778 0.0000 18.0254 0.0000
# 4 0.0000 0.0000 0.0000 28.1367 0.0000 5.7736
# 5 11.8180 8.5511 18.0254 0.0000 30.4032 0.0000
# 6 0.0000 0.0000 0.0000 5.7736 0.0000 3.4319
#
#
#
# Elastic Compliance Matrix: (Units=1/GPa)
#
#
# Indices 1 2 3 4 5 6 
#
# 1 0.025158 0.002394 -0.001754 0.000000 -0.009413 0.000000
# 2 0.002394 0.011222 -0.004626 0.000000 -0.001344 0.000000
# 3 -0.001754 -0.004626 0.010726 0.000000 -0.004377 0.000000
# 4 0.000000 0.000000 0.000000 0.054278 0.000000 -0.091313
# 5 -0.009413 -0.001344 -0.004377 0.000000 0.039523 0.000000
# 6 0.000000 0.000000 0.000000 -0.091313 0.000000 0.445005
#
#
# Mechanical properties :
#
#
# Convention : Reuss Voigt Hill
#
# Bulk Modulus (GPa) = 25.55195 44.15186 34.85191
# Shear Modulus (GPa) = 8.23820 27.32039 17.77930
#
# Velocity S-wave (km/s) = 2.00933 3.65914 2.95184
# Velocity P-wave (km/s) = 4.23153 6.28415 5.35707
#
# Compressibility (1/GPa) = 0.03913596
#
# Stress axis : x y z
#
# Youngs Moduli (GPa) = 39.74842 89.10985 93.22784
#
# Poissons Ratio (x) = -0.21336 0.16351
# Poissons Ratio (y) = -0.09517 0.43125
# Poissons Ratio (z) = 0.06971 0.41220
#
# Static dielectric constant tensor:
#      x y z
#    x 1.790930 0.000000 -0.032600 
#    y 0.000000 1.786360 0.000000 
#    z -0.032600 0.000000 1.767710 
# 
# From -- ./inp_files/13543.got.cif
#   From: 2010.05.17/outbox.cif.g08.bks.cpg/sg10_7_cif.got.tgz:13543.got - 2010.06.03 11:33:40.
