data_PCOD9148302
_publ_section_title
;
Structure prediction by ZEFSAII (Michael W. Deem and Ramdas Pophale) SiO2 
 PCOD9148302
Probable space group: P 2/M
;
_chemical_formula_sum "Si O2"
_cell_formula_units_Z 28
_cell_length_a 9.493955
_cell_length_b 19.884687
_cell_length_c 7.025062
_cell_angle_alpha 90.000000
_cell_angle_beta 52.961713
_cell_angle_gamma 90.000000
_cell_volume 1058.634065
_symmetry_space_group_name_H-M "P 2/M"
_symmetry_group_IT_number 10
_symmetry_cell_setting 'monoclinic'
loop_
_space_group_symop_operation_xyz
x,y,z
-x,y,-z
-x,-y,-z
x,-y,z
loop_
_atom_site_type_symbol
_atom_site_label
_atom_site_fract_x
_atom_site_fract_y
_atom_site_fract_z
Si Si1 0.698404 0.352938 0.347667
Si Si2 0.708702 0.361863 0.892403
Si Si3 0.803486 0.927694 0.256748
Si Si4 0.192132 0.216272 0.750498
Si Si5 0.696670 0.215572 0.921141
Si Si6 0.160640 0.500000 0.154039
Si Si7 0.694226 0.928143 0.930788
Si Si8 0.239285 0.500000 0.662199
O O1 0.500000 0.330048 0.500000
O O2 0.752946 0.362469 0.084058
O O3 0.797986 0.289202 0.353654
O O4 0.695738 0.425834 0.447524
O O5 0.500000 0.364720 0.000000
O O6 0.772915 0.286723 0.789360
O O7 0.796719 0.432452 0.765161
O O8 0.776344 0.855252 0.376933
O O9 0.780455 0.000000 0.375106
O O10 0.678596 0.927430 0.172947
O O11 0.000000 0.928066 0.000000
O O12 0.314426 0.219191 0.839641
O O13 0.000000 0.212441 0.000000
O O14 0.784484 0.143184 0.808758
O O15 0.500000 0.213082 0.000000
O O16 0.963725 0.500000 0.234556
O O17 0.272908 0.500000 0.865012
O O18 0.782771 0.000000 0.812928
O O19 0.500000 0.928580 0.000000
#
# Coordination Sequence:
#
# PCOD9148302 Si02
#       8
#     4   4   4   4   4   2   4   2
#     4  10  20  32  48  68  93 120 149 189 233 273
#     4   9  17  29  47  68  90 118 151 183 224 277
#     4   8  13  22  35  56  86 114 141 181 227 261
#     4   9  17  26  44  68  87 115 157 192 219 265
#     4   8  14  23  36  59  84 110 140 177 217 257
#     4   9  17  28  47  73  88 111 150 196 219 263
#     4   8  12  18  29  47  76 109 137 166 207 253
#     4   9  19  30  47  67  93 116 150 190 230 270
#
# _framework density 26.449176000000001
#
# number of rings (size 3 to 8) (size 9 to 14) (size 15 to 20)
#    0.000    3.286    0.000    0.429    6.000    0.000 
#    0.000    0.000    0.000    2.143    0.000    0.000 
#    0.000    0.000    0.000    0.000    0.000  840.857 
#
# Total GULP energy -156011.862639 kJ/mol
# GULP energy per Si atom -5571.852237 kJ/mol
# Density = 2.638898 g / cm^3
# Si number density = 26.449176 Si / 1000 Ang^3
#
#
#
# Elastic Constant Matrix: (Units=GPa)
#
#
# Indices 1 2 3 4 5 6 
#
# 1 89.5508 21.1651 15.0507 0.0000 15.3698 0.0000
# 2 21.1651 371.2662 31.1943 0.0000 -12.3499 0.0000
# 3 15.0507 31.1943 21.8250 0.0000 15.7457 0.0000
# 4 0.0000 0.0000 0.0000 -20.1160 0.0000 -25.6459
# 5 15.3698 -12.3499 15.7457 0.0000 43.1557 0.0000
# 6 0.0000 0.0000 0.0000 -25.6459 0.0000 13.7612
#
#
#
# Elastic Compliance Matrix: (Units=1/GPa)
#
#
# Indices 1 2 3 4 5 6 
#
# 1 0.012746 -0.000203 -0.007034 0.000000 -0.002031 0.000000
# 2 -0.000203 0.003470 -0.007584 0.000000 0.003832 0.000000
# 3 -0.007034 -0.007584 0.083157 0.000000 -0.030006 0.000000
# 4 0.000000 0.000000 0.000000 -0.014725 0.000000 -0.027443
# 5 -0.002031 0.003832 -0.030006 0.000000 0.035940 0.000000
# 6 0.000000 0.000000 0.000000 -0.027443 0.000000 0.021525
#
#
# Mechanical properties :
#
#
# Convention : Reuss Voigt Hill
#
# Bulk Modulus (GPa) = 14.34087 68.60692 41.47390
# Shear Modulus (GPa) = 25.64123 35.04232 30.34177
#
# Velocity S-wave (km/s) = 3.11698 3.64386 3.39067
# Velocity P-wave (km/s) = 4.28811 6.61053 5.57167
#
# Compressibility (1/GPa) = 0.06973078
#
# Stress axis : x y z
#
# Youngs Moduli (GPa) = 78.45830 288.20227 12.02539
#
# Poissons Ratio (x) = 0.05856 0.08458
# Poissons Ratio (y) = 0.01594 0.09120
# Poissons Ratio (z) = 0.55185 2.18577
#
# Static dielectric constant tensor:
#      x y z
#    x 2.076610 0.000000 0.054900 
#    y 0.000000 2.193750 0.000000 
#    z 0.054900 0.000000 2.076780 
# 
# From -- ./inp_files/43513.got.cif
#   From: 2010.05.17/outbox.cif.g08.bks.cpg/sg10_22_cif.got.tgz:43513.got - 2010.06.03 11:33:40.
