data_PCOD9148985
_publ_section_title
;
Structure prediction by ZEFSAII (Michael W. Deem and Ramdas Pophale) SiO2 
 PCOD9148985
Probable space group: P 2/M
;
_chemical_formula_sum "Si O2"
_cell_formula_units_Z 28
_cell_length_a 9.643582
_cell_length_b 7.696041
_cell_length_c 25.669078
_cell_angle_alpha 90.000000
_cell_angle_beta 138.683558
_cell_angle_gamma 90.000000
_cell_volume 1257.774754
_symmetry_space_group_name_H-M "P 2/M"
_symmetry_group_IT_number 10
_symmetry_cell_setting 'monoclinic'
loop_
_space_group_symop_operation_xyz
x,y,z
-x,y,-z
-x,-y,-z
x,-y,z
loop_
_atom_site_type_symbol
_atom_site_label
_atom_site_fract_x
_atom_site_fract_y
_atom_site_fract_z
Si Si1 0.578505 0.209415 0.079145
Si Si2 0.229190 0.210529 0.580236
Si Si3 0.604252 0.293637 0.257611
Si Si4 0.169752 0.202447 0.176304
Si Si5 0.335454 0.792526 0.331909
Si Si6 0.089720 0.296571 0.745603
Si Si7 0.147511 0.212870 0.995165
O O1 0.795418 0.264261 0.166613
O O2 0.586631 0.000000 0.078920
O O3 0.500000 0.268236 0.000000
O O4 0.388762 0.265849 0.063794
O O5 0.290565 0.260925 0.656368
O O6 0.423321 0.269068 0.597897
O O7 0.000000 0.276672 0.500000
O O8 0.221230 0.000000 0.576388
O O9 0.575354 0.500000 0.242466
O O10 0.371887 0.212293 0.195376
O O11 0.757736 0.221671 0.256074
O O12 0.243793 0.281684 0.251548
O O13 0.966972 0.273038 0.089979
O O14 0.123329 0.000000 0.173321
O O15 0.151861 0.762496 0.321485
O O16 0.351777 0.000000 0.331109
O O17 0.082863 0.500000 0.734528
O O18 0.145292 0.000000 0.994691
O O19 0.000000 0.272486 0.000000
#
# Coordination Sequence:
#
# PCOD9148985 Si02
#       7
#     4   4   4   4   4   4   4
#     4  10  20  34  52  72  97 134 180 228 273 313
#     4   9  19  38  63  88 109 130 165 213 261 312
#     4  10  21  35  52  78 110 144 179 212 254 311
#     4   9  17  32  53  75  99 131 176 225 268 312
#     4   9  18  33  55  79 102 133 172 212 257 310
#     4  11  23  36  50  74 110 147 182 217 255 308
#     4   9  16  26  44  70  95 122 163 216 269 312
#
# _framework density 22.261538999999999
#
# number of rings (size 3 to 8) (size 9 to 14) (size 15 to 20)
#    0.000    2.429    0.000    3.429    0.000    8.571 
#    0.000    1.429    0.000    6.857    0.000    0.000 
#    0.000    0.000    0.000    0.000    0.000    0.000 
#
# Total GULP energy -156246.597165 kJ/mol
# GULP energy per Si atom -5580.235613 kJ/mol
# Density = 2.221087 g / cm^3
# Si number density = 22.261539 Si / 1000 Ang^3
#
#
#
# Elastic Constant Matrix: (Units=GPa)
#
#
# Indices 1 2 3 4 5 6 
#
# 1 93.2566 -10.7794 21.5239 0.0000 32.9308 0.0000
# 2 -10.7794 34.3185 -2.6192 0.0000 3.9720 0.0000
# 3 21.5239 -2.6192 101.0409 0.0000 36.9592 0.0000
# 4 0.0000 0.0000 0.0000 -19.8780 0.0000 -6.8195
# 5 32.9308 3.9720 36.9592 0.0000 36.3745 0.0000
# 6 0.0000 0.0000 0.0000 -6.8195 0.0000 22.6416
#
#
#
# Elastic Compliance Matrix: (Units=1/GPa)
#
#
# Indices 1 2 3 4 5 6 
#
# 1 0.018573 0.008745 0.004409 0.000000 -0.022249 0.000000
# 2 0.008745 0.034250 0.005235 0.000000 -0.016976 0.000000
# 3 0.004409 0.005235 0.017129 0.000000 -0.021967 0.000000
# 4 0.000000 0.000000 0.000000 -0.045595 0.000000 -0.013733
# 5 -0.022249 -0.016976 -0.021967 0.000000 0.071809 0.000000
# 6 0.000000 0.000000 0.000000 -0.013733 0.000000 0.040030
#
#
# Mechanical properties :
#
#
# Convention : Reuss Voigt Hill
#
# Bulk Modulus (GPa) = 9.36951 27.20738 18.28844
# Shear Modulus (GPa) = 37.03858 22.52699 29.78278
#
# Velocity S-wave (km/s) = 4.08339 3.18453 3.66164
# Velocity P-wave (km/s) = 5.14296 5.07640 5.10979
#
# Compressibility (1/GPa) = 0.10672921
#
# Stress axis : x y z
#
# Youngs Moduli (GPa) = 53.84132 29.19699 58.38147
#
# Poissons Ratio (x) = -0.25534 -0.25738
# Poissons Ratio (y) = -0.47087 -0.30560
# Poissons Ratio (z) = -0.23737 -0.15283
#
# Static dielectric constant tensor:
#      x y z
#    x 1.907880 0.000000 0.016020 
#    y 0.000000 1.832690 0.000000 
#    z 0.016020 0.000000 1.797830 
# 
# From -- ./inp_files/94536.got.cif
#   From: 2010.05.17/outbox.cif.g08.bks.cpg/sg10_48_cif.got.tgz:94536.got - 2010.06.03 11:33:40.
