data_PCOD9148151
_publ_section_title
;
Structure prediction by ZEFSAII (Michael W. Deem and Ramdas Pophale) SiO2 
 PCOD9148151
Probable space group: P 2/M
;
_chemical_formula_sum "Si O2"
_cell_formula_units_Z 30
_cell_length_a 12.199798
_cell_length_b 14.624016
_cell_length_c 11.867842
_cell_angle_alpha 90.000000
_cell_angle_beta 130.110629
_cell_angle_gamma 90.000000
_cell_volume 1619.347313
_symmetry_space_group_name_H-M "P 2/M"
_symmetry_group_IT_number 10
_symmetry_cell_setting 'monoclinic'
loop_
_space_group_symop_operation_xyz
x,y,z
-x,y,-z
-x,-y,-z
x,-y,z
loop_
_atom_site_type_symbol
_atom_site_label
_atom_site_fract_x
_atom_site_fract_y
_atom_site_fract_z
Si Si1 0.000000 0.291093 0.500000
Si Si2 0.250969 0.398062 0.587824
Si Si3 0.251506 0.212573 0.814945
Si Si4 0.799726 0.108636 0.617619
Si Si5 0.394034 0.213565 0.679649
Si Si6 0.891286 0.107410 0.097731
Si Si7 0.670480 0.402560 0.097984
Si Si8 0.331731 0.890859 0.230654
O O1 0.907129 0.354256 0.523745
O O2 0.889193 0.231900 0.354362
O O3 0.265506 0.500000 0.549547
O O4 0.366182 0.320467 0.631406
O O5 0.268835 0.405887 0.734983
O O6 0.374725 0.203466 0.802051
O O7 0.220434 0.129756 0.876754
O O8 0.278428 0.303539 0.908747
O O9 0.734191 0.159632 0.467701
O O10 0.693391 0.120205 0.653234
O O11 0.954747 0.144654 0.761203
O O12 0.810004 0.000000 0.600335
O O13 0.539412 0.169432 0.731680
O O14 0.915345 0.000000 0.100693
O O15 0.814494 0.136098 0.931552
O O16 0.707459 0.500000 0.065653
O O17 0.500000 0.399875 0.000000
O O18 0.357834 0.000000 0.227256
#
# Coordination Sequence:
#
# PCOD9148151 Si02
#       8
#     2   4   4   4   4   4   4   4
#     4   8  15  30  45  70  98 138 171 198 231 290
#     4   9  17  28  46  71 102 132 162 200 243 294
#     4  10  20  30  49  73 111 130 156 197 254 310
#     4  10  20  37  56  72  94 129 178 223 244 279
#     4  10  20  32  52  79 104 131 163 203 255 304
#     4  10  21  34  51  74 103 136 166 202 255 306
#     4   8  15  27  44  66  94 130 165 193 230 285
#     4  10  21  36  54  74  95 129 177 218 249 284
#
# _framework density 18.525983
#
# number of rings (size 3 to 8) (size 9 to 14) (size 15 to 20)
#    0.000    2.800    0.000    3.000    3.733    4.267 
#    0.000    3.000    0.000    1.600    0.000    0.000 
#    0.000    4.267    0.000    0.000    0.000    0.000 
#
# Total GULP energy -167016.710461 kJ/mol
# GULP energy per Si atom -5567.223682 kJ/mol
# Density = 1.848382 g / cm^3
# Si number density = 18.525983 Si / 1000 Ang^3
#
#
#
# Elastic Constant Matrix: (Units=GPa)
#
#
# Indices 1 2 3 4 5 6 
#
# 1 48.7304 15.2820 -0.0812 0.0000 3.2254 0.0000
# 2 15.2820 35.0136 4.6745 0.0000 0.3100 0.0000
# 3 -0.0812 4.6745 35.9289 0.0000 1.0927 0.0000
# 4 0.0000 0.0000 0.0000 19.5982 0.0000 17.9702
# 5 3.2254 0.3100 1.0927 0.0000 23.3835 0.0000
# 6 0.0000 0.0000 0.0000 17.9702 0.0000 22.4512
#
#
#
# Elastic Compliance Matrix: (Units=1/GPa)
#
#
# Indices 1 2 3 4 5 6 
#
# 1 0.024092 -0.010693 0.001545 0.000000 -0.003254 0.000000
# 2 -0.010693 0.033812 -0.004461 0.000000 0.001235 0.000000
# 3 0.001545 -0.004461 0.028462 0.000000 -0.001484 0.000000
# 4 0.000000 0.000000 0.000000 0.191769 0.000000 -0.153495
# 5 -0.003254 0.001235 -0.001484 0.000000 0.043267 0.000000
# 6 0.000000 0.000000 0.000000 -0.153495 0.000000 0.167401
#
#
# Mechanical properties :
#
#
# Convention : Reuss Voigt Hill
#
# Bulk Modulus (GPa) = 16.90673 17.71371 17.31022
# Shear Modulus (GPa) = 9.33295 19.73976 14.53636
#
# Velocity S-wave (km/s) = 2.24693 3.26777 2.80419
# Velocity P-wave (km/s) = 3.98464 4.88058 4.45519
#
# Compressibility (1/GPa) = 0.05914805
#
# Stress axis : x y z
#
# Youngs Moduli (GPa) = 41.50713 29.57549 35.13492
#
# Poissons Ratio (x) = 0.31624 -0.05427
# Poissons Ratio (y) = 0.44382 0.15673
# Poissons Ratio (z) = -0.06411 0.13193
#
# Static dielectric constant tensor:
#      x y z
#    x 1.674330 0.000000 0.039280 
#    y 0.000000 1.699500 0.000000 
#    z 0.039280 0.000000 1.687900 
# 
# From -- ./inp_files/47654.got.cif
#   From: 2010.05.17/outbox.cif.g08.bks.cpg/sg10_24_cif.got.tgz:47654.got - 2010.06.03 11:33:40.
