data_PCOD9148641
_publ_section_title
;
Structure prediction by ZEFSAII (Michael W. Deem and Ramdas Pophale) SiO2 
 PCOD9148641
Probable space group: P 2/M
;
_chemical_formula_sum "Si O2"
_cell_formula_units_Z 32
_cell_length_a 18.652660
_cell_length_b 9.107076
_cell_length_c 26.350270
_cell_angle_alpha 90.000000
_cell_angle_beta 155.979705
_cell_angle_gamma 90.000000
_cell_volume 1822.063278
_symmetry_space_group_name_H-M "P 2/M"
_symmetry_group_IT_number 10
_symmetry_cell_setting 'monoclinic'
loop_
_space_group_symop_operation_xyz
x,y,z
-x,y,-z
-x,-y,-z
x,-y,z
loop_
_atom_site_type_symbol
_atom_site_label
_atom_site_fract_x
_atom_site_fract_y
_atom_site_fract_z
Si Si1 0.030615 0.669522 0.962695
Si Si2 0.910555 0.168802 0.386207
Si Si3 0.149262 0.173918 0.300340
Si Si4 0.786684 0.824979 0.009829
Si Si5 0.581926 0.674984 0.217965
Si Si6 0.341272 0.331647 0.336226
Si Si7 0.355880 0.826093 0.530379
Si Si8 0.757060 0.674710 0.440831
O O1 0.095510 0.500000 0.007107
O O2 0.841510 0.668656 0.813211
O O3 0.158069 0.764753 0.009927
O O4 0.000000 0.723339 0.000000
O O5 0.726895 0.252292 0.275022
O O6 0.000000 0.167979 0.500000
O O7 0.051248 0.252184 0.442367
O O8 0.886352 0.000000 0.354742
O O9 0.286889 0.264305 0.355156
O O10 0.189825 0.200508 0.385456
O O11 0.178282 0.000000 0.309422
O O12 0.952827 0.208815 0.154036
O O13 0.608944 0.745917 0.911865
O O14 0.762910 0.000000 0.993050
O O15 0.577406 0.500000 0.208085
O O16 0.647841 0.704008 0.318476
O O17 0.402305 0.500000 0.379797
O O18 0.478947 0.234291 0.394478
O O19 0.335029 0.743213 0.569754
O O20 0.372103 0.000000 0.549325
O O21 0.773487 0.500000 0.456531
#
# Coordination Sequence:
#
# PCOD9148641 Si02
#       8
#     4   4   4   4   4   4   4   4
#     4   9  19  34  49  67 100 140 170 206 259 308
#     4   9  17  32  54  79 107 137 170 206 248 302
#     4   9  20  38  54  71 100 138 176 218 264 305
#     4  10  20  34  53  76 100 131 176 217 252 301
#     4  10  20  34  54  79 109 140 169 204 253 310
#     4  10  20  33  51  75 100 133 177 218 258 306
#     4  11  22  35  53  75 103 137 174 217 263 307
#     4  10  21  35  52  78 110 139 168 206 257 309
#
# _framework density 17.562507
#
# number of rings (size 3 to 8) (size 9 to 14) (size 15 to 20)
#    0.000    2.250    0.000    2.625    1.750    6.750 
#    0.000    0.000    0.000    0.750    0.000    5.250 
#    0.000    0.000    0.000    0.000    0.000    0.000 
#
# Total GULP energy -178599.255123 kJ/mol
# GULP energy per Si atom -5581.226723 kJ/mol
# Density = 1.752253 g / cm^3
# Si number density = 17.562507 Si / 1000 Ang^3
#
#
#
# Elastic Constant Matrix: (Units=GPa)
#
#
# Indices 1 2 3 4 5 6 
#
# 1 38.2188 26.9601 14.0629 0.0000 9.1383 0.0000
# 2 26.9601 78.4751 38.7403 0.0000 10.8642 0.0000
# 3 14.0629 38.7403 57.0595 0.0000 24.2152 0.0000
# 4 0.0000 0.0000 0.0000 15.1155 0.0000 17.5086
# 5 9.1383 10.8642 24.2152 0.0000 24.1056 0.0000
# 6 0.0000 0.0000 0.0000 17.5086 0.0000 23.9675
#
#
#
# Elastic Compliance Matrix: (Units=1/GPa)
#
#
# Indices 1 2 3 4 5 6 
#
# 1 0.036998 -0.013851 0.006256 0.000000 -0.014067 0.000000
# 2 -0.013851 0.025216 -0.019370 0.000000 0.013344 0.000000
# 3 0.006256 -0.019370 0.046082 0.000000 -0.039933 0.000000
# 4 0.000000 0.000000 0.000000 0.430079 0.000000 -0.314180
# 5 -0.014067 0.013344 -0.039933 0.000000 0.080918 0.000000
# 6 0.000000 0.000000 0.000000 -0.314180 0.000000 0.271237
#
#
# Mechanical properties :
#
#
# Convention : Reuss Voigt Hill
#
# Bulk Modulus (GPa) = 18.39409 37.03110 27.71259
# Shear Modulus (GPa) = 5.19436 18.90373 12.04905
#
# Velocity S-wave (km/s) = 1.72165 3.28436 2.62213
# Velocity P-wave (km/s) = 3.80110 5.95935 4.99811
#
# Compressibility (1/GPa) = 0.05436528
#
# Stress axis : x y z
#
# Youngs Moduli (GPa) = 27.02869 39.65692 21.70057
#
# Poissons Ratio (x) = 0.54930 -0.13575
# Poissons Ratio (y) = 0.37438 0.42033
# Poissons Ratio (z) = -0.16909 0.76814
#
# Static dielectric constant tensor:
#      x y z
#    x 1.566410 0.000000 -0.013420 
#    y 0.000000 1.590870 0.000000 
#    z -0.013420 0.000000 1.607290 
# 
# From -- ./inp_files/83522.got.cif
#   From: 2010.05.17/outbox.cif.g08.bks.cpg/sg10_42_cif.got.tgz:83522.got - 2010.06.03 11:33:40.
