data_PCOD9148858
_publ_section_title
;
Structure prediction by ZEFSAII (Michael W. Deem and Ramdas Pophale) SiO2 
 PCOD9148858
Probable space group: P 2/M
;
_chemical_formula_sum "Si O2"
_cell_formula_units_Z 32
_cell_length_a 19.216477
_cell_length_b 7.365567
_cell_length_c 10.479462
_cell_angle_alpha 90.000000
_cell_angle_beta 60.754628
_cell_angle_gamma 90.000000
_cell_volume 1294.201902
_symmetry_space_group_name_H-M "P 2/M"
_symmetry_group_IT_number 10
_symmetry_cell_setting 'monoclinic'
loop_
_space_group_symop_operation_xyz
x,y,z
-x,y,-z
-x,-y,-z
x,-y,z
loop_
_atom_site_type_symbol
_atom_site_label
_atom_site_fract_x
_atom_site_fract_y
_atom_site_fract_z
Si Si1 0.331444 0.791627 0.410573
Si Si2 0.071093 0.722944 0.341333
Si Si3 0.415579 0.208760 0.608775
Si Si4 0.176614 0.779588 0.673583
Si Si5 0.002355 0.707154 0.140441
Si Si6 0.757799 0.707610 0.834621
Si Si7 0.741648 0.220490 0.134103
Si Si8 0.587955 0.295653 0.909062
O O1 0.369088 0.795078 0.516828
O O2 0.242755 0.717860 0.512498
O O3 0.388935 0.696695 0.260356
O O4 0.325066 0.000000 0.373135
O O5 0.071786 0.500000 0.338916
O O6 0.160582 0.783782 0.297670
O O7 0.000000 0.777358 0.500000
O O8 0.051332 0.786292 0.214689
O O9 0.500000 0.294924 0.500000
O O10 0.349955 0.284015 0.763888
O O11 0.431982 0.000000 0.636382
O O12 0.088818 0.708655 0.730782
O O13 0.206549 0.726294 0.788972
O O14 0.175683 0.000000 0.671452
O O15 0.030823 0.500000 0.097780
O O16 0.000000 0.790817 0.000000
O O17 0.750380 0.500000 0.795637
O O18 0.669469 0.788843 0.893194
O O19 0.772367 0.710294 0.972872
O O20 0.740893 0.000000 0.133153
O O21 0.580585 0.500000 0.970528
O O22 0.500000 0.210981 0.000000
#
# Coordination Sequence:
#
# PCOD9148858 Si02
#       8
#     4   4   4   4   4   4   4   4
#     4   9  19  35  55  79 105 137 184 227 262 320
#     4   9  19  35  55  79 106 141 188 230 269 324
#     4   8  15  29  51  77 103 132 170 220 269 312
#     4   9  19  35  54  81 115 145 174 220 280 332
#     4  10  20  33  55  85 110 138 189 240 269 321
#     4  10  21  37  57  77 107 146 180 223 271 316
#     4   9  18  33  54  80 108 140 178 218 266 325
#     4  10  23  39  54  78 112 146 179 220 276 334
#
# _framework density 24.725662
#
# number of rings (size 3 to 8) (size 9 to 14) (size 15 to 20)
#    0.000    2.750    0.000    2.250    3.500    3.000 
#    0.000    2.500    0.000    1.500    0.000    0.000 
#    0.000    0.000    0.000    0.000    0.000    0.000 
#
# Total GULP energy -178650.964711 kJ/mol
# GULP energy per Si atom -5582.842647 kJ/mol
# Density = 2.466938 g / cm^3
# Si number density = 24.725662 Si / 1000 Ang^3
#
#
#
# Elastic Constant Matrix: (Units=GPa)
#
#
# Indices 1 2 3 4 5 6 
#
# 1 129.6951 6.0440 59.4238 0.0000 -44.3005 0.0000
# 2 6.0440 92.9254 2.9894 0.0000 -0.6539 0.0000
# 3 59.4238 2.9894 134.1195 0.0000 -29.0099 0.0000
# 4 0.0000 0.0000 0.0000 11.3576 0.0000 1.3889
# 5 -44.3005 -0.6539 -29.0099 0.0000 53.8715 0.0000
# 6 0.0000 0.0000 0.0000 1.3889 0.0000 -0.7865
#
#
#
# Elastic Compliance Matrix: (Units=1/GPa)
#
#
# Indices 1 2 3 4 5 6 
#
# 1 0.012143 -0.000617 -0.003631 0.000000 0.008023 0.000000
# 2 -0.000617 0.010800 -0.000055 0.000000 -0.000406 0.000000
# 3 -0.003631 -0.000055 0.009530 0.000000 0.002145 0.000000
# 4 0.000000 0.000000 0.000000 0.072409 0.000000 0.127873
# 5 0.008023 -0.000406 0.002145 0.000000 0.026311 0.000000
# 6 0.000000 0.000000 0.000000 0.127873 0.000000 -1.045663
#
#
# Mechanical properties :
#
#
# Convention : Reuss Voigt Hill
#
# Bulk Modulus (GPa) = 41.89762 54.85051 48.37406
# Shear Modulus (GPa) = -5.56851 32.10738 13.26944
#
# Velocity S-wave (km/s) = -1.50233 3.60744 2.31912
# Velocity P-wave (km/s) = 3.73797 6.29153 5.17473
#
# Compressibility (1/GPa) = 0.02386771
#
# Stress axis : x y z
#
# Youngs Moduli (GPa) = 82.34980 92.58963 104.93024
#
# Poissons Ratio (x) = 0.05709 0.38102
# Poissons Ratio (y) = 0.05077 0.00580
# Poissons Ratio (z) = 0.29903 0.00512
#
# Static dielectric constant tensor:
#      x y z
#    x 1.978600 0.000000 -0.021140 
#    y 0.000000 1.987540 0.000000 
#    z -0.021140 0.000000 1.949510 
# 
# From -- ./inp_files/55249.got.cif
#   From: 2010.05.17/outbox.cif.g08.bks.cpg/sg10_28_cif.got.tgz:55249.got - 2010.06.03 11:33:40.
