data_PCOD9148734
_publ_section_title
;
Structure prediction by ZEFSAII (Michael W. Deem and Ramdas Pophale) SiO2 
 PCOD9148734
Probable space group: P 2/M
;
_chemical_formula_sum "Si O2"
_cell_formula_units_Z 32
_cell_length_a 22.132271
_cell_length_b 7.496726
_cell_length_c 22.255034
_cell_angle_alpha 90.000000
_cell_angle_beta 19.575005
_cell_angle_gamma 90.000000
_cell_volume 1237.152617
_symmetry_space_group_name_H-M "P 2/M"
_symmetry_group_IT_number 10
_symmetry_cell_setting 'monoclinic'
loop_
_space_group_symop_operation_xyz
x,y,z
-x,y,-z
-x,-y,-z
x,-y,z
loop_
_atom_site_type_symbol
_atom_site_label
_atom_site_fract_x
_atom_site_fract_y
_atom_site_fract_z
Si Si1 0.868680 0.795800 0.672213
Si Si2 0.103355 0.718413 0.783375
Si Si3 0.806970 0.711347 0.555452
Si Si4 0.810698 0.704898 0.423002
Si Si5 0.763753 0.217799 0.968401
Si Si6 0.555823 0.215085 0.043338
Si Si7 0.695417 0.802070 0.157522
Si Si8 0.318451 0.291270 0.693498
O O1 0.000000 0.707565 0.500000
O O2 0.004882 0.798212 0.601332
O O3 0.833856 0.000000 0.684710
O O4 0.678515 0.719666 0.872753
O O5 0.081319 0.500000 0.801823
O O6 0.226729 0.770405 0.610125
O O7 0.164462 0.775111 0.792704
O O8 0.912463 0.806200 0.950868
O O9 0.838423 0.500000 0.520257
O O10 0.746071 0.783981 0.547050
O O11 0.651867 0.738296 0.750599
O O12 0.752053 0.500000 0.476829
O O13 0.030111 0.714277 0.223812
O O14 0.659857 0.273981 0.006152
O O15 0.655615 0.279277 0.129702
O O16 0.769700 0.000000 0.964472
O O17 0.564365 0.000000 0.032122
O O18 0.672656 0.715985 0.243499
O O19 0.618606 0.000000 0.232208
O O20 0.500000 0.205354 0.500000
O O21 0.318277 0.500000 0.678507
#
# Coordination Sequence:
#
# PCOD9148734 Si02
#       8
#     4   4   4   4   4   4   4   4
#     4  10  22  42  67  90 116 157 205 246 282 334
#     4   9  18  34  54  74 100 137 183 227 269 328
#     4  11  23  37  59  92 126 157 191 239 298 350
#     4   9  18  33  54  80 109 143 183 231 284 338
#     4   9  18  34  56  81 108 143 185 232 285 338
#     4  10  21  38  61  87 118 156 197 241 287 342
#     4  10  20  33  52  78 105 134 176 227 281 337
#     4  10  21  35  50  69  98 140 184 226 275 331
#
# _framework density 25.865849000000001
#
# number of rings (size 3 to 8) (size 9 to 14) (size 15 to 20)
#    0.000    2.250    1.250    1.125    0.000    6.000 
#    0.000    3.750    0.000    0.000    0.000    0.000 
#    0.000    0.000    0.000    0.000    0.000    0.000 
#
# Total GULP energy -178614.266723 kJ/mol
# GULP energy per Si atom -5581.695835 kJ/mol
# Density = 2.580698 g / cm^3
# Si number density = 25.865849 Si / 1000 Ang^3
#
#
#
# Elastic Constant Matrix: (Units=GPa)
#
#
# Indices 1 2 3 4 5 6 
#
# 1 100.3824 -0.8337 38.3089 0.0000 18.8945 0.0000
# 2 -0.8337 89.1646 0.7337 0.0000 1.3917 0.0000
# 3 38.3089 0.7337 108.5513 0.0000 19.5790 0.0000
# 4 0.0000 0.0000 0.0000 68.3296 0.0000 -15.7013
# 5 18.8945 1.3917 19.5790 0.0000 48.5080 0.0000
# 6 0.0000 0.0000 0.0000 -15.7013 0.0000 15.8704
#
#
#
# Elastic Compliance Matrix: (Units=1/GPa)
#
#
# Indices 1 2 3 4 5 6 
#
# 1 0.011955 0.000192 -0.003645 0.000000 -0.003191 0.000000
# 2 0.000192 0.011223 -0.000078 0.000000 -0.000365 0.000000
# 3 -0.003645 -0.000078 0.011047 0.000000 -0.003037 0.000000
# 4 0.000000 0.000000 0.000000 0.018941 0.000000 0.018739
# 5 -0.003191 -0.000365 -0.003037 0.000000 0.023094 0.000000
# 6 0.000000 0.000000 0.000000 0.018739 0.000000 0.081550
#
#
# Mechanical properties :
#
#
# Convention : Reuss Voigt Hill
#
# Bulk Modulus (GPa) = 36.81397 41.61290 39.21343
# Shear Modulus (GPa) = 28.74782 43.86758 36.30770
#
# Velocity S-wave (km/s) = 3.33741 4.12268 3.75065
# Velocity P-wave (km/s) = 5.39580 6.22775 5.82664
#
# Compressibility (1/GPa) = 0.02716360
#
# Stress axis : x y z
#
# Youngs Moduli (GPa) = 83.64634 89.10000 90.52402
#
# Poissons Ratio (x) = -0.01707 0.32994
# Poissons Ratio (y) = -0.01602 0.00702
# Poissons Ratio (z) = 0.30488 0.00691
#
# Static dielectric constant tensor:
#      x y z
#    x 2.237750 0.000000 0.062490 
#    y 0.000000 1.984610 0.000000 
#    z 0.062490 0.000000 2.032000 
# 
# From -- ./inp_files/90573.got.cif
#   From: 2010.05.17/outbox.cif.g08.bks.cpg/sg10_46_cif.got.tgz:90573.got - 2010.06.03 11:33:40.
