data_PCOD9148294
_publ_section_title
;
Structure prediction by ZEFSAII (Michael W. Deem and Ramdas Pophale) SiO2 
 PCOD9148294
Probable space group: P 2/M
;
_chemical_formula_sum "Si O2"
_cell_formula_units_Z 32
_cell_length_a 14.447627
_cell_length_b 8.612563
_cell_length_c 21.614143
_cell_angle_alpha 90.000000
_cell_angle_beta 40.929727
_cell_angle_gamma 90.000000
_cell_volume 1761.961257
_symmetry_space_group_name_H-M "P 2/M"
_symmetry_group_IT_number 10
_symmetry_cell_setting 'monoclinic'
loop_
_space_group_symop_operation_xyz
x,y,z
-x,y,-z
-x,-y,-z
x,-y,z
loop_
_atom_site_type_symbol
_atom_site_label
_atom_site_fract_x
_atom_site_fract_y
_atom_site_fract_z
Si Si1 0.336127 0.687851 0.083909
Si Si2 0.162826 0.688585 0.781181
Si Si3 0.171502 0.179174 0.416589
Si Si4 0.828046 0.319592 0.088260
Si Si5 0.156590 0.186640 0.288341
Si Si6 0.161290 0.316351 0.552122
Si Si7 0.834057 0.689639 0.950992
Si Si8 0.662982 0.813948 0.422417
O O1 0.327295 0.500000 0.091678
O O2 0.254220 0.756181 0.183760
O O3 0.260473 0.738581 0.058694
O O4 0.500000 0.731996 0.000000
O O5 0.168351 0.500000 0.778299
O O6 0.212413 0.745631 0.824272
O O7 0.252755 0.752715 0.679632
O O8 0.997718 0.732504 0.857669
O O9 0.213755 0.238189 0.327228
O O10 0.211658 0.272537 0.457422
O O11 0.000000 0.180120 0.500000
O O12 0.215995 0.000000 0.401809
O O13 0.783119 0.500000 0.111358
O O14 0.785322 0.251988 0.043362
O O15 0.000000 0.319655 0.000000
O O16 0.997195 0.248776 0.360313
O O17 0.149744 0.000000 0.293485
O O18 0.153989 0.500000 0.562610
O O19 0.262260 0.247765 0.553526
O O20 0.831314 0.500000 0.955162
O O21 0.500000 0.763719 0.500000
O O22 0.667839 0.000000 0.420681
#
# Coordination Sequence:
#
# PCOD9148294 Si02
#       8
#     4   4   4   4   4   4   4   4
#     4  10  20  32  47  71 105 141 178 219 256 296
#     4   9  16  29  53  78  95 119 164 216 256 298
#     4   8  16  32  53  78 107 137 169 208 258 315
#     4   7  11  22  44  73  98 119 151 199 253 303
#     4  10  20  35  56  79 106 141 177 213 259 319
#     4  11  21  34  57  84 106 130 168 220 268 312
#     4   8  14  27  48  73  99 128 160 199 253 305
#     4  11  24  39  52  69 102 145 179 210 255 311
#
# _framework density 18.161579
#
# number of rings (size 3 to 8) (size 9 to 14) (size 15 to 20)
#    0.000    2.750    0.000    4.875    0.000    5.000 
#    0.000    1.250    0.000    5.625    0.000    0.000 
#    0.000    0.000    0.000    0.000    0.000    0.000 
#
# Total GULP energy -178352.677947 kJ/mol
# GULP energy per Si atom -5573.521186 kJ/mol
# Density = 1.812024 g / cm^3
# Si number density = 18.161579 Si / 1000 Ang^3
#
#
#
# Elastic Constant Matrix: (Units=GPa)
#
#
# Indices 1 2 3 4 5 6 
#
# 1 141.1244 37.5713 128.3511 0.0000 35.6996 0.0000
# 2 37.5713 32.6747 31.1304 0.0000 5.0078 0.0000
# 3 128.3511 31.1304 92.3124 0.0000 27.6655 0.0000
# 4 0.0000 0.0000 0.0000 -61.0281 0.0000 -20.6734
# 5 35.6996 5.0078 27.6655 0.0000 29.0102 0.0000
# 6 0.0000 0.0000 0.0000 -20.6734 0.0000 0.4978
#
#
#
# Elastic Compliance Matrix: (Units=1/GPa)
#
#
# Indices 1 2 3 4 5 6 
#
# 1 -0.025276 -0.007472 0.039142 0.000000 -0.004934 0.000000
# 2 -0.007472 0.044794 -0.007218 0.000000 0.008346 0.000000
# 3 0.039142 -0.007218 -0.037936 0.000000 -0.010744 0.000000
# 4 0.000000 0.000000 0.000000 -0.001087 0.000000 -0.045161
# 5 -0.004934 0.008346 -0.010744 0.000000 0.049347 0.000000
# 6 0.000000 0.000000 0.000000 -0.045161 0.000000 0.133316
#
#
# Mechanical properties :
#
#
# Convention : Reuss Voigt Hill
#
# Bulk Modulus (GPa) = 32.80188 73.35745 53.07966
# Shear Modulus (GPa) = 40.18749 -1.70011 19.24369
#
# Velocity S-wave (km/s) = 4.70912 -0.96857 3.25865
# Velocity P-wave (km/s) = 6.90421 6.26326 6.59153
#
# Compressibility (1/GPa) = 0.03048605
#
# Stress axis : x y z
#
# Youngs Moduli (GPa) = -39.56362 22.32425 -26.36019
#
# Poissons Ratio (x) = 0.16681 1.03179
# Poissons Ratio (y) = -0.29563 -0.19026
# Poissons Ratio (z) = 1.54859 0.16113
#
# Static dielectric constant tensor:
#      x y z
#    x 1.631710 0.000000 0.033250 
#    y 0.000000 1.616450 0.000000 
#    z 0.033250 0.000000 1.613460 
# 
# From -- ./inp_files/84724.got.cif
#   From: 2010.05.17/outbox.cif.g08.bks.cpg/sg10_43_cif.got.tgz:84724.got - 2010.06.03 11:33:40.
