data_PCOD9148917
_publ_section_title
;
Structure prediction by ZEFSAII (Michael W. Deem and Ramdas Pophale) SiO2 
 PCOD9148917
Probable space group: P 2/M
;
_chemical_formula_sum "Si O2"
_cell_formula_units_Z 32
_cell_length_a 23.929831
_cell_length_b 7.889223
_cell_length_c 17.532771
_cell_angle_alpha 90.000000
_cell_angle_beta 148.874924
_cell_angle_gamma 90.000000
_cell_volume 1710.951523
_symmetry_space_group_name_H-M "P 2/M"
_symmetry_group_IT_number 10
_symmetry_cell_setting 'monoclinic'
loop_
_space_group_symop_operation_xyz
x,y,z
-x,y,-z
-x,-y,-z
x,-y,z
loop_
_atom_site_type_symbol
_atom_site_label
_atom_site_fract_x
_atom_site_fract_y
_atom_site_fract_z
Si Si1 0.328163 0.295198 0.825293
Si Si2 0.120608 0.791117 0.970430
Si Si3 0.318673 0.698380 0.642461
Si Si4 0.886588 0.295596 0.334929
Si Si5 0.126318 0.797932 0.309306
Si Si6 0.868777 0.805089 0.849734
Si Si7 0.761137 0.798088 0.041326
Si Si8 0.449619 0.200215 0.116968
O O1 0.339786 0.500000 0.838274
O O2 0.334114 0.230455 0.746053
O O3 0.211067 0.250246 0.722652
O O4 0.413341 0.230956 0.986999
O O5 0.157191 0.732015 0.097416
O O6 0.121545 0.000000 0.972089
O O7 0.196183 0.732748 0.989662
O O8 0.995041 0.738000 0.812272
O O9 0.297628 0.500000 0.626671
O O10 0.216774 0.769135 0.477997
O O11 0.432434 0.723657 0.732923
O O12 0.890899 0.500000 0.336069
O O13 0.852569 0.231898 0.212102
O O14 0.000000 0.232864 0.500000
O O15 0.162042 0.727033 0.267888
O O16 0.115374 0.000000 0.285719
O O17 0.829214 0.000000 0.804881
O O18 0.000000 0.809759 0.000000
O O19 0.747078 0.000000 0.017260
O O20 0.648475 0.730432 0.945071
O O21 0.457522 0.000000 0.138561
#
# Coordination Sequence:
#
# PCOD9148917 Si02
#       8
#     4   4   4   4   4   4   4   4
#     4   9  19  34  48  65  89 122 161 195 232 275
#     4   8  14  27  49  75 100 123 149 185 231 281
#     4  11  22  33  48  68  94 125 157 196 236 276
#     4   9  18  31  46  63  91 128 157 185 224 273
#     4   9  17  29  48  75 100 122 151 187 230 278
#     4   7  11  23  45  71  97 123 149 180 223 277
#     4   9  18  31  48  71  94 119 153 194 233 271
#     4  10  20  34  50  68  91 120 160 202 236 271
#
# _framework density 18.703043000000001
#
# number of rings (size 3 to 8) (size 9 to 14) (size 15 to 20)
#    0.000    3.000    0.000    2.625    1.750    3.250 
#    0.000    0.000    0.000    4.875    0.000    5.250 
#    0.000    0.000    0.000    0.000    0.000    0.000 
#
# Total GULP energy -178279.126080 kJ/mol
# GULP energy per Si atom -5571.222690 kJ/mol
# Density = 1.866047 g / cm^3
# Si number density = 18.703043 Si / 1000 Ang^3
#
#
#
# Elastic Constant Matrix: (Units=GPa)
#
#
# Indices 1 2 3 4 5 6 
#
# 1 133.0439 4.3691 33.0830 0.0000 -20.1686 0.0000
# 2 4.3691 13.3535 2.6637 0.0000 -1.0877 0.0000
# 3 33.0830 2.6637 45.4139 0.0000 1.0649 0.0000
# 4 0.0000 0.0000 0.0000 41.8151 0.0000 -7.1529
# 5 -20.1686 -1.0877 1.0649 0.0000 12.9175 0.0000
# 6 0.0000 0.0000 0.0000 -7.1529 0.0000 9.1964
#
#
#
# Elastic Compliance Matrix: (Units=1/GPa)
#
#
# Indices 1 2 3 4 5 6 
#
# 1 0.013352 -0.000571 -0.010201 0.000000 0.021640 0.000000
# 2 -0.000571 0.076391 -0.004203 0.000000 0.005887 0.000000
# 3 -0.010201 -0.004203 0.030137 0.000000 -0.018765 0.000000
# 4 0.000000 0.000000 0.000000 0.027585 0.000000 0.021455
# 5 0.021640 0.005887 -0.018765 0.000000 0.113244 0.000000
# 6 0.000000 0.000000 0.000000 0.021455 0.000000 0.125426
#
#
# Mechanical properties :
#
#
# Convention : Reuss Voigt Hill
#
# Bulk Modulus (GPa) = 11.11957 30.22698 20.67328
# Shear Modulus (GPa) = 11.20922 22.89883 17.05403
#
# Velocity S-wave (km/s) = 2.45077 3.50285 3.02293
# Velocity P-wave (km/s) = 3.73719 5.70584 4.82303
#
# Compressibility (1/GPa) = 0.08993152
#
# Stress axis : x y z
#
# Youngs Moduli (GPa) = 74.89493 13.09051 33.18168
#
# Poissons Ratio (x) = 0.00748 0.33847
# Poissons Ratio (y) = 0.04278 0.13945
# Poissons Ratio (z) = 0.76397 0.05501
#
# Static dielectric constant tensor:
#      x y z
#    x 1.691770 0.000000 -0.012900 
#    y 0.000000 1.677730 0.000000 
#    z -0.012900 0.000000 1.621280 
# 
# From -- ./inp_files/79968.got.cif
#   From: 2010.05.17/outbox.cif.g08.bks.cpg/sg10_40_cif.got.tgz:79968.got - 2010.06.03 11:33:40.
