data_PCOD9148184
_publ_section_title
;
Structure prediction by ZEFSAII (Michael W. Deem and Ramdas Pophale) SiO2 
 PCOD9148184
Probable space group: P 2/M
;
_chemical_formula_sum "Si O2"
_cell_formula_units_Z 24
_cell_length_a 9.524030
_cell_length_b 8.250114
_cell_length_c 14.671716
_cell_angle_alpha 90.000000
_cell_angle_beta 66.935221
_cell_angle_gamma 90.000000
_cell_volume 1060.666732
_symmetry_space_group_name_H-M "P 2/M"
_symmetry_group_IT_number 10
_symmetry_cell_setting 'monoclinic'
loop_
_space_group_symop_operation_xyz
x,y,z
-x,y,-z
-x,-y,-z
x,-y,z
loop_
_atom_site_type_symbol
_atom_site_label
_atom_site_fract_x
_atom_site_fract_y
_atom_site_fract_z
Si Si1 0.974746 0.190010 0.896291
Si Si2 0.162069 0.500000 0.576060
Si Si3 0.362044 0.184023 0.319220
Si Si4 0.317794 0.825044 0.538502
Si Si5 0.699313 0.192817 0.200358
Si Si6 0.806487 0.500000 0.654587
Si Si7 0.345444 0.692096 0.993705
O O1 0.133520 0.259654 0.816667
O O2 0.959696 0.000000 0.877837
O O3 0.813832 0.271176 0.915312
O O4 0.000000 0.201590 0.000000
O O5 0.238822 0.663627 0.593277
O O6 0.192016 0.500000 0.457733
O O7 0.982129 0.500000 0.637812
O O8 0.287362 0.169131 0.437884
O O9 0.539652 0.233853 0.288535
O O10 0.279016 0.335298 0.292982
O O11 0.357982 0.000000 0.279905
O O12 0.500000 0.815547 0.500000
O O13 0.269085 0.000000 0.590693
O O14 0.668964 0.234471 0.102935
O O15 0.714881 0.000000 0.203252
O O16 0.359574 0.500000 0.980463
O O17 0.500000 0.755733 0.000000
#
# Coordination Sequence:
#
# PCOD9148184 Si02
#       7
#     4   2   4   4   4   2   4
#     4   8  15  29  48  70  91 117 159 200 236 283
#     4   9  17  30  48  72 101 125 165 205 238 292
#     4   9  18  32  50  73  99 127 163 203 242 292
#     4   9  17  30  51  75 100 130 164 203 246 288
#     4   9  18  32  51  71  92 123 163 205 243 285
#     4   9  18  30  48  74  96 130 164 197 247 291
#     4  10  20  31  46  70  99 127 158 198 242 291
#
# _framework density 22.627276999999999
#
# number of rings (size 3 to 8) (size 9 to 14) (size 15 to 20)
#    0.000    3.000    0.000    1.750    1.167    5.000 
#    0.000    3.333    3.667    0.000    0.000    0.000 
#    0.000    0.000    0.000    0.000    0.000    0.000 
#
# Total GULP energy -133834.843335 kJ/mol
# GULP energy per Si atom -5576.451806 kJ/mol
# Density = 2.257578 g / cm^3
# Si number density = 22.627277 Si / 1000 Ang^3
#
#
#
# Elastic Constant Matrix: (Units=GPa)
#
#
# Indices 1 2 3 4 5 6 
#
# 1 106.2099 49.7880 31.8880 0.0000 -30.5659 0.0000
# 2 49.7880 109.8830 33.5356 0.0000 -27.6407 0.0000
# 3 31.8880 33.5356 71.6968 0.0000 -17.0216 0.0000
# 4 0.0000 0.0000 0.0000 17.6887 0.0000 -18.8713
# 5 -30.5659 -27.6407 -17.0216 0.0000 33.4731 0.0000
# 6 0.0000 0.0000 0.0000 -18.8713 0.0000 32.1309
#
#
#
# Elastic Compliance Matrix: (Units=1/GPa)
#
#
# Indices 1 2 3 4 5 6 
#
# 1 0.014415 -0.003468 -0.002666 0.000000 0.008944 0.000000
# 2 -0.003468 0.013174 -0.003172 0.000000 0.006099 0.000000
# 3 -0.002666 -0.003172 0.017534 0.000000 0.003863 0.000000
# 4 0.000000 0.000000 0.000000 0.151398 0.000000 0.088920
# 5 0.008944 0.006099 0.003863 0.000000 0.045042 0.000000
# 6 0.000000 0.000000 0.000000 0.088920 0.000000 0.083348
#
#
# Mechanical properties :
#
#
# Convention : Reuss Voigt Hill
#
# Bulk Modulus (GPa) = 37.71860 57.57920 47.64890
# Shear Modulus (GPa) = 14.19004 28.16374 21.17689
#
# Velocity S-wave (km/s) = 2.50695 3.53183 3.06257
# Velocity P-wave (km/s) = 5.00854 6.49106 5.79738
#
# Compressibility (1/GPa) = 0.02651212
#
# Stress axis : x y z
#
# Youngs Moduli (GPa) = 69.37010 75.90619 57.03238
#
# Poissons Ratio (x) = 0.26326 0.15204
# Poissons Ratio (y) = 0.24059 0.18089
# Poissons Ratio (z) = 0.18493 0.24075
#
# Static dielectric constant tensor:
#      x y z
#    x 1.841460 0.000000 0.007510 
#    y 0.000000 1.832660 0.000000 
#    z 0.007510 0.000000 1.909870 
# 
# From -- ./inp_files/34017.got.cif
#   From: 2010.05.17/outbox.cif.g08.bks.cpg/sg10_18_cif.got.tgz:34017.got - 2010.06.03 11:33:40.
