data_PCOD9148977
_publ_section_title
;
Structure prediction by ZEFSAII (Michael W. Deem and Ramdas Pophale) SiO2 
 PCOD9148977
Probable space group: P 2/M
;
_chemical_formula_sum "Si O2"
_cell_formula_units_Z 32
_cell_length_a 27.244461
_cell_length_b 8.561002
_cell_length_c 21.353482
_cell_angle_alpha 90.000000
_cell_angle_beta 161.415281
_cell_angle_gamma 90.000000
_cell_volume 1587.312647
_symmetry_space_group_name_H-M "P 2/M"
_symmetry_group_IT_number 10
_symmetry_cell_setting 'monoclinic'
loop_
_space_group_symop_operation_xyz
x,y,z
-x,y,-z
-x,-y,-z
x,-y,z
loop_
_atom_site_type_symbol
_atom_site_label
_atom_site_fract_x
_atom_site_fract_y
_atom_site_fract_z
Si Si1 0.321565 0.683273 0.858914
Si Si2 0.006182 0.185260 0.842300
Si Si3 0.854861 0.687104 0.867425
Si Si4 0.700066 0.313020 0.437999
Si Si5 0.306356 0.684042 0.706089
Si Si6 0.757062 0.812057 0.970902
Si Si7 0.485520 0.312739 0.556245
Si Si8 0.643551 0.186557 0.965849
O O1 0.282291 0.500000 0.815555
O O2 0.259969 0.749736 0.718022
O O3 0.507580 0.692218 0.075860
O O4 0.287255 0.760804 0.883774
O O5 0.841228 0.265516 0.652244
O O6 0.984011 0.000000 0.811946
O O7 0.118544 0.227159 0.035085
O O8 0.092729 0.244892 0.884586
O O9 0.853630 0.500000 0.877530
O O10 0.690295 0.726750 0.638707
O O11 0.000000 0.724894 0.000000
O O12 0.685962 0.500000 0.418241
O O13 0.746827 0.250832 0.424835
O O14 0.532637 0.246982 0.251886
O O15 0.266810 0.500000 0.660380
O O16 0.609528 0.766307 0.750776
O O17 0.734630 0.755618 0.014774
O O18 0.766063 0.000000 0.983377
O O19 0.500000 0.271881 0.500000
O O20 0.507147 0.500000 0.587115
O O21 0.639285 0.000000 0.959814
#
# Coordination Sequence:
#
# PCOD9148977 Si02
#       8
#     4   4   4   4   4   4   4   4
#     4   8  13  26  48  74 103 136 173 215 261 309
#     4  11  23  39  56  77 106 143 180 216 260 314
#     4  10  22  39  57  81 109 136 169 214 265 313
#     4  10  20  35  55  79 107 140 176 220 268 313
#     4   7  12  25  47  73 102 135 171 212 262 311
#     4  10  23  39  55  75 107 146 178 213 260 312
#     4  10  20  36  58  81 103 131 174 220 256 304
#     4  10  20  34  51  79 111 140 176 218 261 311
#
# _framework density 20.159859999999998
#
# number of rings (size 3 to 8) (size 9 to 14) (size 15 to 20)
#    0.000    2.500    1.250    2.625    1.750    2.500 
#    0.000    5.625    0.000    0.750    0.000    5.250 
#    0.000    0.000    0.000    0.000    0.000    0.000 
#
# Total GULP energy -178398.762772 kJ/mol
# GULP energy per Si atom -5574.961337 kJ/mol
# Density = 2.011398 g / cm^3
# Si number density = 20.159860 Si / 1000 Ang^3
#
#
#
# Elastic Constant Matrix: (Units=GPa)
#
#
# Indices 1 2 3 4 5 6 
#
# 1 87.1182 21.9795 -13.6111 0.0000 5.2013 0.0000
# 2 21.9795 13.3056 -2.7033 0.0000 5.9116 0.0000
# 3 -13.6111 -2.7033 13.2036 0.0000 8.6893 0.0000
# 4 0.0000 0.0000 0.0000 -1.2009 0.0000 -7.0970
# 5 5.2013 5.9116 8.6893 0.0000 22.7260 0.0000
# 6 0.0000 0.0000 0.0000 -7.0970 0.0000 24.5442
#
#
#
# Elastic Compliance Matrix: (Units=1/GPa)
#
#
# Indices 1 2 3 4 5 6 
#
# 1 0.022904 -0.031587 0.020292 0.000000 -0.004784 0.000000
# 2 -0.031587 0.151383 0.026177 0.000000 -0.042158 0.000000
# 3 0.020292 0.026177 0.146387 0.000000 -0.067424 0.000000
# 4 0.000000 0.000000 0.000000 -0.307411 0.000000 -0.088888
# 5 -0.004784 -0.042158 -0.067424 0.000000 0.081844 0.000000
# 6 0.000000 0.000000 0.000000 -0.088888 0.000000 0.015041
#
#
# Mechanical properties :
#
#
# Convention : Reuss Voigt Hill
#
# Bulk Modulus (GPa) = 2.85356 13.88417 8.36887
# Shear Modulus (GPa) = 25.35552 16.41133 20.88342
#
# Velocity S-wave (km/s) = 3.55029 2.85627 3.22202
# Velocity P-wave (km/s) = 4.26903 4.21660 4.24289
#
# Compressibility (1/GPa) = 0.35043903
#
# Stress axis : x y z
#
# Youngs Moduli (GPa) = 43.66075 6.60575 6.83121
#
# Poissons Ratio (x) = 0.20865 -0.13862
# Poissons Ratio (y) = 1.37909 -0.17882
# Poissons Ratio (z) = -0.88598 -0.17292
#
# Static dielectric constant tensor:
#      x y z
#    x 1.781490 0.000000 -0.015970 
#    y 0.000000 1.686340 0.000000 
#    z -0.015970 0.000000 1.691930 
# 
# From -- ./inp_files/86935.got.cif
#   From: 2010.05.17/outbox.cif.g08.bks.cpg/sg10_44_cif.got.tgz:86935.got - 2010.06.03 11:33:40.
