data_PCOD9148623
_publ_section_title
;
Structure prediction by ZEFSAII (Michael W. Deem and Ramdas Pophale) SiO2 
 PCOD9148623
Probable space group: P 2/M
;
_chemical_formula_sum "Si O2"
_cell_formula_units_Z 28
_cell_length_a 14.603721
_cell_length_b 12.304595
_cell_length_c 7.618919
_cell_angle_alpha 90.000000
_cell_angle_beta 115.861761
_cell_angle_gamma 90.000000
_cell_volume 1231.952302
_symmetry_space_group_name_H-M "P 2/M"
_symmetry_group_IT_number 10
_symmetry_cell_setting 'monoclinic'
loop_
_space_group_symop_operation_xyz
x,y,z
-x,y,-z
-x,-y,-z
x,-y,z
loop_
_atom_site_type_symbol
_atom_site_label
_atom_site_fract_x
_atom_site_fract_y
_atom_site_fract_z
Si Si1 0.248343 0.829740 0.137169
Si Si2 0.313959 0.125220 0.569251
Si Si3 0.964851 0.656722 0.661879
Si Si4 0.750280 0.626485 0.364336
Si Si5 0.966072 0.116324 0.174883
Si Si6 0.463659 0.126837 0.157714
Si Si7 0.174613 0.614337 0.977610
O O1 0.256880 0.880857 0.335608
O O2 0.358834 0.827623 0.141663
O O3 0.157004 0.874564 0.938488
O O4 0.214002 0.707365 0.132435
O O5 0.290757 0.247009 0.633689
O O6 0.435840 0.132561 0.639670
O O7 0.299329 0.000000 0.639192
O O8 0.978521 0.786501 0.682094
O O9 0.052514 0.617739 0.865155
O O10 0.000000 0.619525 0.500000
O O11 0.849443 0.622500 0.571261
O O12 0.703048 0.500000 0.341146
O O13 0.785506 0.631997 0.188916
O O14 0.995820 0.000000 0.272158
O O15 0.000000 0.122695 0.000000
O O16 0.440410 0.000000 0.111937
O O17 0.500000 0.172630 0.000000
O O18 0.212849 0.500000 0.071241
#
# Coordination Sequence:
#
# PCOD9148623 Si02
#       7
#     4   4   4   4   4   4   4
#     4  11  21  36  58  83 116 154 194 239 293 347
#     4  11  23  38  59  87 118 152 191 239 293 349
#     4   9  18  32  52  79 109 146 193 242 288 339
#     4  10  20  37  60  85 116 155 198 245 295 347
#     4  10  20  33  50  77 116 157 191 228 282 346
#     4  10  21  38  60  85 113 148 195 246 293 345
#     4   9  19  36  57  82 114 154 199 244 292 347
#
# _framework density 22.728152999999999
#
# number of rings (size 3 to 8) (size 9 to 14) (size 15 to 20)
#    0.000    2.000    0.000    3.857    0.000    5.429 
#    0.000    8.571    0.000    9.000    0.000    0.000 
#    0.000    0.000    0.000    0.000    0.000    0.000 
#
# Total GULP energy -155912.577330 kJ/mol
# GULP energy per Si atom -5568.306333 kJ/mol
# Density = 2.267642 g / cm^3
# Si number density = 22.728153 Si / 1000 Ang^3
#
#
#
# Elastic Constant Matrix: (Units=GPa)
#
#
# Indices 1 2 3 4 5 6 
#
# 1 62.2577 20.5413 21.2530 0.0000 1.5314 0.0000
# 2 20.5413 194.6526 28.9756 0.0000 -0.1856 0.0000
# 3 21.2530 28.9756 52.7537 0.0000 5.6582 0.0000
# 4 0.0000 0.0000 0.0000 25.4255 0.0000 4.6548
# 5 1.5314 -0.1856 5.6582 0.0000 31.4739 0.0000
# 6 0.0000 0.0000 0.0000 4.6548 0.0000 18.5328
#
#
#
# Elastic Compliance Matrix: (Units=1/GPa)
#
#
# Indices 1 2 3 4 5 6 
#
# 1 0.018781 -0.000925 -0.007096 0.000000 0.000356 0.000000
# 2 -0.000925 0.005651 -0.002794 0.000000 0.000581 0.000000
# 3 -0.007096 -0.002794 0.023773 0.000000 -0.003945 0.000000
# 4 0.000000 0.000000 0.000000 0.041226 0.000000 -0.010355
# 5 0.000356 0.000581 -0.003945 0.000000 0.032468 0.000000
# 6 0.000000 0.000000 0.000000 -0.010355 0.000000 0.056559
#
#
# Mechanical properties :
#
#
# Convention : Reuss Voigt Hill
#
# Bulk Modulus (GPa) = 37.62999 50.13376 43.88187
# Shear Modulus (GPa) = 23.92948 31.01271 27.47109
#
# Velocity S-wave (km/s) = 3.24830 3.69793 3.48038
# Velocity P-wave (km/s) = 5.53724 6.35128 5.95818
#
# Compressibility (1/GPa) = 0.02657455
#
# Stress axis : x y z
#
# Youngs Moduli (GPa) = 53.24445 176.94722 42.06534
#
# Poissons Ratio (x) = 0.16372 0.29852
# Poissons Ratio (y) = 0.04926 0.11751
# Poissons Ratio (z) = 0.37785 0.49432
#
# Static dielectric constant tensor:
#      x y z
#    x 1.893340 0.000000 -0.027040 
#    y 0.000000 1.925220 0.000000 
#    z -0.027040 0.000000 1.844440 
# 
# From -- ./inp_files/28213.got.cif
#   From: 2010.05.17/outbox.cif.g08.bks.cpg/sg10_15_cif.got.tgz:28213.got - 2010.06.03 11:33:40.
