data_PCOD9148724
_publ_section_title
;
Structure prediction by ZEFSAII (Michael W. Deem and Ramdas Pophale) SiO2 
 PCOD9148724
Probable space group: P 2/M
;
_chemical_formula_sum "Si O2"
_cell_formula_units_Z 28
_cell_length_a 13.414215
_cell_length_b 10.910607
_cell_length_c 10.587566
_cell_angle_alpha 90.000000
_cell_angle_beta 80.101179
_cell_angle_gamma 90.000000
_cell_volume 1526.498200
_symmetry_space_group_name_H-M "P 2/M"
_symmetry_group_IT_number 10
_symmetry_cell_setting 'monoclinic'
loop_
_space_group_symop_operation_xyz
x,y,z
-x,y,-z
-x,-y,-z
x,-y,z
loop_
_atom_site_type_symbol
_atom_site_label
_atom_site_fract_x
_atom_site_fract_y
_atom_site_fract_z
Si Si1 0.966097 0.364866 0.326604
Si Si2 0.716536 0.140075 0.230223
Si Si3 0.709823 0.858896 0.732397
Si Si4 0.813395 0.633460 0.826593
Si Si5 0.893963 0.287180 0.069843
Si Si6 0.846807 0.136309 0.454135
Si Si7 0.503304 0.148588 0.354019
O O1 0.940188 0.500000 0.383805
O O2 0.921254 0.355801 0.193770
O O3 0.920559 0.249654 0.410939
O O4 0.086582 0.355452 0.282728
O O5 0.801521 0.200393 0.126020
O O6 0.761699 0.142297 0.362722
O O7 0.604366 0.195764 0.262734
O O8 0.706658 0.000000 0.191775
O O9 0.744494 0.751885 0.818524
O O10 0.789718 0.857116 0.599241
O O11 0.600196 0.828714 0.697464
O O12 0.708211 0.000000 0.781868
O O13 0.765939 0.500000 0.811527
O O14 0.855918 0.635415 0.959743
O O15 0.000000 0.226789 0.000000
O O16 0.895008 0.000000 0.431530
O O17 0.500000 0.192355 0.500000
O O18 0.513374 0.000000 0.358671
#
# Coordination Sequence:
#
# PCOD9148724 Si02
#       7
#     4   4   4   4   4   4   4
#     4   9  18  33  54  76  97 131 179 220 254 304
#     4   9  16  28  51  81 106 130 168 217 264 305
#     4  10  20  33  52  77 105 137 172 210 258 311
#     4  10  21  36  52  71 102 142 177 212 257 307
#     4   9  18  33  53  75  99 133 178 219 254 300
#     4   9  17  30  49  77 107 132 163 211 266 312
#     4   9  15  29  54  79 102 133 173 214 255 305
#
# _framework density 18.342635999999999
#
# number of rings (size 3 to 8) (size 9 to 14) (size 15 to 20)
#    0.000    2.714    1.429    0.429    0.000    4.286 
#    0.000    6.429    0.000    8.143    0.000    0.000 
#    0.000    0.000    0.000    0.000    0.000    0.000 
#
# Total GULP energy -155980.237477 kJ/mol
# GULP energy per Si atom -5570.722767 kJ/mol
# Density = 1.830089 g / cm^3
# Si number density = 18.342636 Si / 1000 Ang^3
#
#
#
# Elastic Constant Matrix: (Units=GPa)
#
#
# Indices 1 2 3 4 5 6 
#
# 1 96.7259 62.9886 30.2439 0.0000 -5.7403 0.0000
# 2 62.9886 110.8814 31.4190 0.0000 -0.8239 0.0000
# 3 30.2439 31.4190 53.6250 0.0000 -3.6407 0.0000
# 4 0.0000 0.0000 0.0000 33.8844 0.0000 -6.0309
# 5 -5.7403 -0.8239 -3.6407 0.0000 26.2594 0.0000
# 6 0.0000 0.0000 0.0000 -6.0309 0.0000 7.7996
#
#
#
# Elastic Compliance Matrix: (Units=1/GPa)
#
#
# Indices 1 2 3 4 5 6 
#
# 1 0.017610 -0.008662 -0.004657 0.000000 0.002932 0.000000
# 2 -0.008662 0.015082 -0.004086 0.000000 -0.001987 0.000000
# 3 -0.004657 -0.004086 0.023815 0.000000 0.002156 0.000000
# 4 0.000000 0.000000 0.000000 0.034222 0.000000 0.026462
# 5 0.002932 -0.001987 0.002156 0.000000 0.038959 0.000000
# 6 0.000000 0.000000 0.000000 0.026462 0.000000 0.148672
#
#
# Mechanical properties :
#
#
# Convention : Reuss Voigt Hill
#
# Bulk Modulus (GPa) = 46.09240 56.72615 51.40927
# Shear Modulus (GPa) = 15.60529 22.69407 19.14968
#
# Velocity S-wave (km/s) = 2.91995 3.52125 3.23460
# Velocity P-wave (km/s) = 6.04577 6.89385 6.48369
#
# Compressibility (1/GPa) = 0.02169555
#
# Stress axis : x y z
#
# Youngs Moduli (GPa) = 56.78748 66.30235 41.98971
#
# Poissons Ratio (x) = 0.57431 0.19557
# Poissons Ratio (y) = 0.49189 0.17159
# Poissons Ratio (z) = 0.26449 0.27094
#
# Static dielectric constant tensor:
#      x y z
#    x 1.636480 0.000000 0.000230 
#    y 0.000000 1.637930 0.000000 
#    z 0.000230 0.000000 1.651920 
# 
# From -- ./inp_files/45996.got.cif
#   From: 2010.05.17/outbox.cif.g08.bks.cpg/sg10_23_cif.got.tgz:45996.got - 2010.06.03 11:33:40.
