data_PCOD9148965
_publ_section_title
;
Structure prediction by ZEFSAII (Michael W. Deem and Ramdas Pophale) SiO2 
 PCOD9148965
Probable space group: P 2/M
;
_chemical_formula_sum "Si O2"
_cell_formula_units_Z 22
_cell_length_a 15.535707
_cell_length_b 15.172580
_cell_length_c 5.068837
_cell_angle_alpha 90.000000
_cell_angle_beta 88.074394
_cell_angle_gamma 90.000000
_cell_volume 1194.135110
_symmetry_space_group_name_H-M "P 2/M"
_symmetry_group_IT_number 10
_symmetry_cell_setting 'monoclinic'
loop_
_space_group_symop_operation_xyz
x,y,z
-x,y,-z
-x,-y,-z
x,-y,z
loop_
_atom_site_type_symbol
_atom_site_label
_atom_site_fract_x
_atom_site_fract_y
_atom_site_fract_z
Si Si1 0.228133 0.787399 0.119549
Si Si2 0.333416 0.171801 0.615859
Si Si3 0.061346 0.100920 0.246708
Si Si4 0.438000 0.000000 0.752984
Si Si5 0.700455 0.403296 0.855157
Si Si6 0.592028 0.638988 0.366515
O O1 0.298765 0.826325 0.319749
O O2 0.138086 0.829913 0.208246
O O3 0.237707 0.681318 0.126794
O O4 0.253265 0.812452 0.819455
O O5 0.397029 0.255170 0.637935
O O6 0.379366 0.085665 0.720244
O O7 0.000000 0.118742 0.500000
O O8 0.095939 0.000000 0.269014
O O9 0.000000 0.103425 0.000000
O O10 0.500000 0.000000 0.500000
O O11 0.500000 0.000000 0.000000
O O12 0.738951 0.500000 0.895121
O O13 0.661471 0.397017 0.567015
O O14 0.621766 0.391677 0.073721
O O15 0.500000 0.615012 0.500000
#
# Coordination Sequence:
#
# PCOD9148965 Si02
#       6
#     4   4   4   2   4   4
#     4  10  21  38  57  79 110 143 178 219 271 327
#     4  10  22  35  53  77 104 149 186 223 266 321
#     4  10  21  36  58  87 112 138 170 216 270 325
#     4  12  24  36  52  76 108 146 192 232 264 306
#     4  10  21  35  53  78 104 140 185 225 274 321
#     4  10  20  34  51  74 106 140 182 233 279 316
#
# _framework density 18.423376999999999
#
# number of rings (size 3 to 8) (size 9 to 14) (size 15 to 20)
#    0.000    1.818    0.000    3.818    2.545    5.091 
#    0.000    0.000    0.000    1.091    0.000    0.000 
#    0.000    0.000    0.000    0.000    0.000    0.000 
#
# Total GULP energy -122765.626974 kJ/mol
# GULP energy per Si atom -5580.255772 kJ/mol
# Density = 1.838144 g / cm^3
# Si number density = 18.423377 Si / 1000 Ang^3
#
#
#
# Elastic Constant Matrix: (Units=GPa)
#
#
# Indices 1 2 3 4 5 6 
#
# 1 57.0432 54.6154 4.4361 0.0000 -17.4468 0.0000
# 2 54.6154 147.3873 14.8795 0.0000 -15.1757 0.0000
# 3 4.4361 14.8795 94.6299 0.0000 -6.9023 0.0000
# 4 0.0000 0.0000 0.0000 7.7088 0.0000 -2.7015
# 5 -17.4468 -15.1757 -6.9023 0.0000 25.8322 0.0000
# 6 0.0000 0.0000 0.0000 -2.7015 0.0000 -3.3578
#
#
#
# Elastic Compliance Matrix: (Units=1/GPa)
#
#
# Indices 1 2 3 4 5 6 
#
# 1 0.032366 -0.010472 0.001300 0.000000 0.016055 0.000000
# 2 -0.010472 0.010676 -0.001271 0.000000 -0.001140 0.000000
# 3 0.001300 -0.001271 0.010929 0.000000 0.003052 0.000000
# 4 0.000000 0.000000 0.000000 0.101192 0.000000 -0.081413
# 5 0.016055 -0.001140 0.003052 0.000000 0.049701 0.000000
# 6 0.000000 0.000000 0.000000 -0.081413 0.000000 -0.232318
#
#
# Mechanical properties :
#
#
# Convention : Reuss Voigt Hill
#
# Bulk Modulus (GPa) = 30.22372 49.65805 39.94088
# Shear Modulus (GPa) = 1121.34591 21.04528 571.19560
#
# Velocity S-wave (km/s) = 24.69768 3.38348 17.62701
# Velocity P-wave (km/s) = 28.80522 6.50202 20.88082
#
# Compressibility (1/GPa) = 0.03308660
#
# Stress axis : x y z
#
# Youngs Moduli (GPa) = 30.89674 93.66743 91.49995
#
# Poissons Ratio (x) = 0.98084 -0.11898
# Poissons Ratio (y) = 0.32354 0.11629
# Poissons Ratio (z) = -0.04018 0.11905
#
# Static dielectric constant tensor:
#      x y z
#    x 1.591670 0.000000 0.000280 
#    y 0.000000 1.660360 0.000000 
#    z 0.000280 0.000000 1.618810 
# 
# From -- ./inp_files/9060.got.cif
#   From: 2010.05.17/outbox.cif.g08.bks.cpg/sg10_5_cif.got.tgz:9060.got - 2010.06.03 11:33:40.
