data_PCOD9148751
_publ_section_title
;
Structure prediction by ZEFSAII (Michael W. Deem and Ramdas Pophale) SiO2 
 PCOD9148751
Probable space group: P 2/M
;
_chemical_formula_sum "Si O2"
_cell_formula_units_Z 28
_cell_length_a 19.510743
_cell_length_b 8.944159
_cell_length_c 14.649552
_cell_angle_alpha 90.000000
_cell_angle_beta 140.657765
_cell_angle_gamma 90.000000
_cell_volume 1620.665707
_symmetry_space_group_name_H-M "P 2/M"
_symmetry_group_IT_number 10
_symmetry_cell_setting 'monoclinic'
loop_
_space_group_symop_operation_xyz
x,y,z
-x,y,-z
-x,-y,-z
x,-y,z
loop_
_atom_site_type_symbol
_atom_site_label
_atom_site_fract_x
_atom_site_fract_y
_atom_site_fract_z
Si Si1 0.130028 0.168191 0.140188
Si Si2 0.509227 0.680123 0.402914
Si Si3 0.483952 0.821897 0.088519
Si Si4 0.325839 0.322113 0.066217
Si Si5 0.670202 0.822917 0.425756
Si Si6 0.116150 0.323735 0.311750
Si Si7 0.880812 0.820695 0.074130
O O1 0.149460 0.280346 0.242161
O O2 0.171710 0.000000 0.202369
O O3 0.161221 0.219076 0.071537
O O4 0.000000 0.155829 0.000000
O O5 0.500000 0.724313 0.500000
O O6 0.523790 0.500000 0.414941
O O7 0.402475 0.716332 0.232663
O O8 0.607466 0.756652 0.449326
O O9 0.390632 0.732712 0.044420
O O10 0.591893 0.796388 0.259097
O O11 0.460182 0.000000 0.068120
O O12 0.500000 0.779698 0.000000
O O13 0.311682 0.500000 0.051320
O O14 0.210816 0.241565 0.954561
O O15 0.785713 0.746017 0.530596
O O16 0.684265 0.000000 0.451921
O O17 0.108335 0.500000 0.314434
O O18 0.999437 0.249334 0.209448
O O19 0.889879 0.000000 0.086620
#
# Coordination Sequence:
#
# PCOD9148751 Si02
#       7
#     4   4   4   4   4   4   4
#     4   8  16  30  45  65  94 134 181 220 251 290
#     4   9  19  34  49  71 104 141 176 214 258 305
#     4   9  19  38  62  83 103 132 172 217 266 321
#     4  10  20  33  52  80 110 138 174 215 264 317
#     4  10  20  34  53  78 105 135 175 217 261 314
#     4  11  21  32  49  73 105 142 180 219 262 309
#     4  10  20  34  51  72 104 142 182 222 259 304
#
# _framework density 17.276852000000002
#
# number of rings (size 3 to 8) (size 9 to 14) (size 15 to 20)
#    0.000    2.429    0.000    3.429    2.000    4.857 
#    0.000    0.000    0.000    0.857    0.000    6.000 
#    0.000    0.000    0.000    0.000    0.000    0.000 
#
# Total GULP energy -156157.897470 kJ/mol
# GULP energy per Si atom -5577.067767 kJ/mol
# Density = 1.723753 g / cm^3
# Si number density = 17.276852 Si / 1000 Ang^3
#
#
#
# Elastic Constant Matrix: (Units=GPa)
#
#
# Indices 1 2 3 4 5 6 
#
# 1 102.8535 46.3851 60.8125 0.0000 3.8780 0.0000
# 2 46.3851 68.9114 47.5551 0.0000 14.1888 0.0000
# 3 60.8125 47.5551 77.9645 0.0000 14.4616 0.0000
# 4 0.0000 0.0000 0.0000 21.0621 0.0000 2.1047
# 5 3.8780 14.1888 14.4616 0.0000 32.1880 0.0000
# 6 0.0000 0.0000 0.0000 2.1047 0.0000 17.5747
#
#
#
# Elastic Compliance Matrix: (Units=1/GPa)
#
#
# Indices 1 2 3 4 5 6 
#
# 1 0.019741 -0.005395 -0.013208 0.000000 0.005934 0.000000
# 2 -0.005395 0.027163 -0.011192 0.000000 -0.006295 0.000000
# 3 -0.013208 -0.011192 0.031359 0.000000 -0.007564 0.000000
# 4 0.000000 0.000000 0.000000 0.048054 0.000000 -0.005755
# 5 0.005934 -0.006295 -0.007564 0.000000 0.036526 0.000000
# 6 0.000000 0.000000 0.000000 -0.005755 0.000000 0.057589
#
#
# Mechanical properties :
#
#
# Convention : Reuss Voigt Hill
#
# Bulk Modulus (GPa) = 53.55740 62.13719 57.84730
# Shear Modulus (GPa) = 17.46747 20.49675 18.98211
#
# Velocity S-wave (km/s) = 3.18312 3.44811 3.31826
# Velocity P-wave (km/s) = 6.67656 7.20391 6.94524
#
# Compressibility (1/GPa) = 0.01867156
#
# Stress axis : x y z
#
# Youngs Moduli (GPa) = 50.65530 36.81514 31.88913
#
# Poissons Ratio (x) = 0.19862 0.42120
# Poissons Ratio (y) = 0.27329 0.35691
# Poissons Ratio (z) = 0.66906 0.41205
#
# Static dielectric constant tensor:
#      x y z
#    x 1.579150 0.000000 0.000220 
#    y 0.000000 1.574610 0.000000 
#    z 0.000220 0.000000 1.603940 
# 
# From -- ./inp_files/68683.got.cif
#   From: 2010.05.17/outbox.cif.g08.bks.cpg/sg10_35_cif.got.tgz:68683.got - 2010.06.03 11:33:40.
