data_PCOD9148479
_publ_section_title
;
Structure prediction by ZEFSAII (Michael W. Deem and Ramdas Pophale) SiO2 
 PCOD9148479
Probable space group: P 2/M
;
_chemical_formula_sum "Si O2"
_cell_formula_units_Z 30
_cell_length_a 17.771365
_cell_length_b 26.949281
_cell_length_c 16.983490
_cell_angle_alpha 90.000000
_cell_angle_beta 162.979037
_cell_angle_gamma 90.000000
_cell_volume 2380.946504
_symmetry_space_group_name_H-M "P 2/M"
_symmetry_group_IT_number 10
_symmetry_cell_setting 'monoclinic'
loop_
_space_group_symop_operation_xyz
x,y,z
-x,y,-z
-x,-y,-z
x,-y,z
loop_
_atom_site_type_symbol
_atom_site_label
_atom_site_fract_x
_atom_site_fract_y
_atom_site_fract_z
Si Si1 0.793307 0.439670 0.062698
Si Si2 0.755163 0.678394 0.700523
Si Si3 0.026843 0.056552 0.931345
Si Si4 0.711943 0.409612 0.537113
Si Si5 0.530740 0.110866 0.435025
Si Si6 0.250007 0.500000 0.304049
Si Si7 0.250785 0.439691 0.798088
Si Si8 0.751850 0.790981 0.698394
O O1 0.799844 0.500000 0.062333
O O2 0.754841 0.426512 0.115798
O O3 0.058058 0.417806 0.294415
O O4 0.557716 0.419180 0.775724
O O5 0.500000 0.675208 0.500000
O O6 0.726514 0.641935 0.598338
O O7 0.802506 0.735279 0.719596
O O8 0.000000 0.664669 0.000000
O O9 0.247923 0.094643 0.124967
O O10 0.095633 0.000000 0.980346
O O11 0.000000 0.058969 0.000000
O O12 0.743715 0.071766 0.620431
O O13 0.746517 0.452040 0.637402
O O14 0.500000 0.108820 0.500000
O O15 0.659680 0.164730 0.549225
O O16 0.500000 0.500000 0.500000
O O17 0.000000 0.500000 0.000000
O O18 0.252390 0.500000 0.798059
O O19 0.000000 0.423063 0.500000
O O20 0.500000 0.422523 0.000000
O O21 0.500000 0.784632 0.500000
O O22 0.000000 0.806230 0.000000
#
# Coordination Sequence:
#
# PCOD9148479 Si02
#       8
#     4   4   4   4   4   2   4   4
#     4  11  20  33  46  63  83 100 117 139 173 213
#     4  10  20  33  44  55  70  91 123 160 191 219
#     4   9  15  20  27  41  61  80  96 118 153 203
#     4  12  21  33  45  60  78  99 120 151 184 220
#     4   9  14  21  31  43  57  76 101 128 162 203
#     4  12  22  32  44  56  72  98 126 150 180 220
#     4   9  17  29  46  65  82 100 118 135 156 195
#     4   9  16  26  39  49  59  78 108 146 180 207
#
# _framework density 12.600031
#
# number of rings (size 3 to 8) (size 9 to 14) (size 15 to 20)
#    0.000    2.000    1.333    5.600    0.000    3.733 
#    0.000    0.000    0.000    0.000    0.000    0.000 
#    0.000    0.000    0.000    0.000    0.000    0.000 
#
# Total GULP energy -167072.519474 kJ/mol
# GULP energy per Si atom -5569.083982 kJ/mol
# Density = 1.257135 g / cm^3
# Si number density = 12.600031 Si / 1000 Ang^3
#
#
#
# Elastic Constant Matrix: (Units=GPa)
#
#
# Indices 1 2 3 4 5 6 
#
# 1 41.8593 12.7798 8.7005 0.0000 7.7207 0.0000
# 2 12.7798 63.8334 8.8769 0.0000 0.2637 0.0000
# 3 8.7005 8.8769 62.4660 0.0000 12.4609 0.0000
# 4 0.0000 0.0000 0.0000 15.5630 0.0000 3.8884
# 5 7.7207 0.2637 12.4609 0.0000 19.3585 0.0000
# 6 0.0000 0.0000 0.0000 3.8884 0.0000 -1.2851
#
#
#
# Elastic Compliance Matrix: (Units=1/GPa)
#
#
# Indices 1 2 3 4 5 6 
#
# 1 0.027633 -0.005345 -0.001039 0.000000 -0.010280 0.000000
# 2 -0.005345 0.017050 -0.002360 0.000000 0.003419 0.000000
# 3 -0.001039 -0.002360 0.018816 0.000000 -0.011665 0.000000
# 4 0.000000 0.000000 0.000000 0.036592 0.000000 0.110718
# 5 -0.010280 0.003419 -0.011665 0.000000 0.063219 0.000000
# 6 0.000000 0.000000 0.000000 0.110718 0.000000 -0.443145
#
#
# Mechanical properties :
#
#
# Convention : Reuss Voigt Hill
#
# Bulk Modulus (GPa) = 21.73429 25.43036 23.58233
# Shear Modulus (GPa) = -20.24225 15.91405 -2.16410
#
# Velocity S-wave (km/s) = -4.01249 3.55775 -1.31197
# Velocity P-wave (km/s) = 2.04450 6.09125 4.05730
#
# Compressibility (1/GPa) = 0.04601023
#
# Stress axis : x y z
#
# Youngs Moduli (GPa) = 36.18802 58.65066 53.14675
#
# Poissons Ratio (x) = 0.31352 0.05520
# Poissons Ratio (y) = 0.19344 0.12545
# Poissons Ratio (z) = 0.03759 0.13844
#
# Static dielectric constant tensor:
#      x y z
#    x 1.373120 0.000000 0.010390 
#    y 0.000000 1.444020 0.000000 
#    z 0.010390 0.000000 1.417970 
# 
# From -- ./inp_files/68037.got.cif
#   From: 2010.05.17/outbox.cif.g08.bks.cpg/sg10_35_cif.got.tgz:68037.got - 2010.06.03 11:33:40.
