data_PCOD9148845
_publ_section_title
;
Structure prediction by ZEFSAII (Michael W. Deem and Ramdas Pophale) SiO2 
 PCOD9148845
Probable space group: P 2/M
;
_chemical_formula_sum "Si O2"
_cell_formula_units_Z 32
_cell_length_a 12.792620
_cell_length_b 10.511475
_cell_length_c 23.533761
_cell_angle_alpha 90.000000
_cell_angle_beta 33.279942
_cell_angle_gamma 90.000000
_cell_volume 1736.494259
_symmetry_space_group_name_H-M "P 2/M"
_symmetry_group_IT_number 10
_symmetry_cell_setting 'monoclinic'
loop_
_space_group_symop_operation_xyz
x,y,z
-x,y,-z
-x,-y,-z
x,-y,z
loop_
_atom_site_type_symbol
_atom_site_label
_atom_site_fract_x
_atom_site_fract_y
_atom_site_fract_z
Si Si1 0.704460 0.347258 0.279296
Si Si2 0.911433 0.346159 0.833227
Si Si3 0.227773 0.863297 0.402394
Si Si4 0.093381 0.650821 0.295304
Si Si5 0.715172 0.346753 0.532781
Si Si6 0.371203 0.860595 0.001863
Si Si7 0.780648 0.346145 0.114962
Si Si8 0.558065 0.777815 0.803300
O O1 0.713016 0.500000 0.271630
O O2 0.493367 0.318190 0.397770
O O3 0.736630 0.302748 0.199734
O O4 0.877810 0.312016 0.241037
O O5 0.882187 0.500000 0.852480
O O6 0.886535 0.307189 0.778901
O O7 0.765105 0.261752 0.935317
O O8 0.280033 0.736202 0.412504
O O9 0.334627 0.856946 0.293916
O O10 0.000000 0.860640 0.500000
O O11 0.277632 0.000000 0.407595
O O12 0.074515 0.500000 0.300868
O O13 0.277943 0.683555 0.248180
O O14 0.896542 0.695530 0.413436
O O15 0.727440 0.500000 0.537455
O O16 0.274443 0.000000 0.047720
O O17 0.500000 0.852063 0.000000
O O18 0.491123 0.852256 0.889563
O O19 0.764330 0.500000 0.119849
O O20 0.624986 0.287419 0.143099
O O21 0.000000 0.313953 0.000000
#
# Coordination Sequence:
#
# PCOD9148845 Si02
#       8
#     4   4   4   4   4   4   4   4
#     4   9  18  34  58  84 117 159 194 232 287 348
#     4  10  21  40  62  87 119 153 198 245 289 344
#     4  11  23  38  58  87 120 156 195 239 295 351
#     4  10  21  34  57  94 120 147 192 247 296 340
#     4  10  20  37  59  88 122 154 193 238 293 351
#     4  11  24  41  60  85 117 155 195 239 297 354
#     4  10  20  33  54  86 120 155 194 238 293 349
#     4  12  21  37  60  85 116 156 193 244 289 355
#
# _framework density 18.427934
#
# number of rings (size 3 to 8) (size 9 to 14) (size 15 to 20)
#    0.000    1.625    3.750    1.500    0.000    3.500 
#    0.000    3.750    0.000    1.500    0.000    1.750 
#    0.000    0.000    0.000    0.000    0.000    0.000 
#
# Total GULP energy -178325.998890 kJ/mol
# GULP energy per Si atom -5572.687465 kJ/mol
# Density = 1.838599 g / cm^3
# Si number density = 18.427934 Si / 1000 Ang^3
#
#
#
# Elastic Constant Matrix: (Units=GPa)
#
#
# Indices 1 2 3 4 5 6 
#
# 1 65.5979 18.8966 37.9759 0.0000 -12.4052 0.0000
# 2 18.8966 46.3526 32.8707 0.0000 2.4424 0.0000
# 3 37.9759 32.8707 120.6399 0.0000 -6.8880 0.0000
# 4 0.0000 0.0000 0.0000 -2.8461 0.0000 3.2114
# 5 -12.4052 2.4424 -6.8880 0.0000 32.1937 0.0000
# 6 0.0000 0.0000 0.0000 3.2114 0.0000 4.0756
#
#
#
# Elastic Compliance Matrix: (Units=1/GPa)
#
#
# Indices 1 2 3 4 5 6 
#
# 1 0.020980 -0.005665 -0.004631 0.000000 0.007523 0.000000
# 2 -0.005665 0.028697 -0.006362 0.000000 -0.005721 0.000000
# 3 -0.004631 -0.006362 0.011547 0.000000 0.001169 0.000000
# 4 0.000000 0.000000 0.000000 -0.185992 0.000000 0.146556
# 5 0.007523 -0.005721 0.001169 0.000000 0.034645 0.000000
# 6 0.000000 0.000000 0.000000 0.146556 0.000000 0.129884
#
#
# Mechanical properties :
#
#
# Convention : Reuss Voigt Hill
#
# Bulk Modulus (GPa) = 35.83381 45.78634 40.81008
# Shear Modulus (GPa) = 60.69448 16.20778 38.45113
#
# Velocity S-wave (km/s) = 5.74523 2.96889 4.57285
# Velocity P-wave (km/s) = 7.96855 6.05413 7.07638
#
# Compressibility (1/GPa) = 0.02790660
#
# Stress axis : x y z
#
# Youngs Moduli (GPa) = 47.66417 34.84744 86.60107
#
# Poissons Ratio (x) = 0.19742 0.40106
# Poissons Ratio (y) = 0.27003 0.55098
# Poissons Ratio (z) = 0.22074 0.22171
#
# Static dielectric constant tensor:
#      x y z
#    x 1.635750 0.000000 0.008560 
#    y 0.000000 1.630590 0.000000 
#    z 0.008560 0.000000 1.668880 
# 
# From -- ./inp_files/88915.got.cif
#   From: 2010.05.17/outbox.cif.g08.bks.cpg/sg10_45_cif.got.tgz:88915.got - 2010.06.03 11:33:40.
