data_PCOD9148322
_publ_section_title
;
Structure prediction by ZEFSAII (Michael W. Deem and Ramdas Pophale) SiO2 
 PCOD9148322
Probable space group: P 2/M
;
_chemical_formula_sum "Si O2"
_cell_formula_units_Z 32
_cell_length_a 21.176572
_cell_length_b 8.940566
_cell_length_c 15.835588
_cell_angle_alpha 90.000000
_cell_angle_beta 136.961935
_cell_angle_gamma 90.000000
_cell_volume 2046.196791
_symmetry_space_group_name_H-M "P 2/M"
_symmetry_group_IT_number 10
_symmetry_cell_setting 'monoclinic'
loop_
_space_group_symop_operation_xyz
x,y,z
-x,y,-z
-x,-y,-z
x,-y,z
loop_
_atom_site_type_symbol
_atom_site_label
_atom_site_fract_x
_atom_site_fract_y
_atom_site_fract_z
Si Si1 0.883072 0.819806 0.708993
Si Si2 0.784215 0.678255 0.453940
Si Si3 0.889916 0.177023 0.400540
Si Si4 0.085992 0.677659 0.902661
Si Si5 0.207064 0.321900 0.856649
Si Si6 0.392674 0.821736 0.994044
Si Si7 0.395630 0.178620 0.795893
Si Si8 0.111742 0.828113 0.098263
O O1 0.818982 0.749993 0.574950
O O2 0.853095 0.778373 0.775433
O O3 0.987504 0.760286 0.797483
O O4 0.883946 0.000000 0.704985
O O5 0.789955 0.500000 0.462972
O O6 0.849561 0.740097 0.442749
O O7 0.681186 0.732126 0.330007
O O8 0.840793 0.240400 0.269224
O O9 0.000000 0.198058 0.500000
O O10 0.870539 0.000000 0.389472
O O11 0.069558 0.500000 0.888255
O O12 0.151095 0.713525 0.887095
O O13 0.130653 0.729483 0.034854
O O14 0.203648 0.500000 0.839909
O O15 0.312565 0.266654 0.962801
O O16 0.383043 0.793094 0.883914
O O17 0.380874 0.000000 0.994351
O O18 0.498038 0.783235 0.121159
O O19 0.383419 0.000000 0.771503
O O20 0.139718 0.000000 0.110164
O O21 0.000000 0.827876 0.000000
#
# Coordination Sequence:
#
# PCOD9148322 Si02
#       8
#     4   4   4   4   4   4   4   4
#     4  10  20  34  51  71  98 132 169 207 241 284
#     4  12  23  33  49  74 100 129 162 200 247 296
#     4  11  23  36  49  65  92 134 174 203 235 279
#     4  10  20  32  48  73 104 133 162 202 247 290
#     4  11  22  33  47  72 102 130 162 201 243 290
#     4   9  18  33  54  73  93 125 164 205 245 287
#     4   9  18  34  53  73  95 123 163 206 245 288
#     4   8  16  31  50  71  94 125 166 206 243 284
#
# _framework density 15.638769999999999
#
# number of rings (size 3 to 8) (size 9 to 14) (size 15 to 20)
#    0.000    2.000    1.250    4.875    0.000    8.250 
#    0.000    1.250    0.000    0.000    0.000    0.875 
#    0.000    7.000    0.000    0.000    0.000    0.000 
#
# Total GULP energy -178580.927413 kJ/mol
# GULP energy per Si atom -5580.653982 kJ/mol
# Density = 1.560318 g / cm^3
# Si number density = 15.638770 Si / 1000 Ang^3
#
#
#
# Elastic Constant Matrix: (Units=GPa)
#
#
# Indices 1 2 3 4 5 6 
#
# 1 35.2158 30.2896 53.4474 0.0000 -0.9773 0.0000
# 2 30.2896 62.3541 57.2188 0.0000 -2.1980 0.0000
# 3 53.4474 57.2188 117.1808 0.0000 -10.7819 0.0000
# 4 0.0000 0.0000 0.0000 7.6042 0.0000 -6.2828
# 5 -0.9773 -2.1980 -10.7819 0.0000 24.1627 0.0000
# 6 0.0000 0.0000 0.0000 -6.2828 0.0000 24.0176
#
#
#
# Elastic Compliance Matrix: (Units=1/GPa)
#
#
# Indices 1 2 3 4 5 6 
#
# 1 0.102336 -0.011043 -0.042751 0.000000 -0.015942 0.000000
# 2 -0.011043 0.030596 -0.010103 0.000000 -0.002172 0.000000
# 3 -0.042751 -0.010103 0.034123 0.000000 0.012578 0.000000
# 4 0.000000 0.000000 0.000000 0.167767 0.000000 0.043886
# 5 -0.015942 -0.002172 0.012578 0.000000 0.046157 0.000000
# 6 0.000000 0.000000 0.000000 0.043886 0.000000 0.053116
#
#
# Mechanical properties :
#
#
# Convention : Reuss Voigt Hill
#
# Bulk Modulus (GPa) = 25.47028 55.18470 40.32749
# Shear Modulus (GPa) = 8.69601 16.07656 12.38628
#
# Velocity S-wave (km/s) = 2.36064 3.20971 2.81735
# Velocity P-wave (km/s) = 4.87362 7.00714 6.03540
#
# Compressibility (1/GPa) = 0.03926144
#
# Stress axis : x y z
#
# Youngs Moduli (GPa) = 9.77173 32.68392 29.30534
#
# Poissons Ratio (x) = 0.36094 1.25283
# Poissons Ratio (y) = 0.10791 0.29606
# Poissons Ratio (z) = 0.41775 0.33020
#
# Static dielectric constant tensor:
#      x y z
#    x 1.508730 0.000000 -0.003230 
#    y 0.000000 1.520870 0.000000 
#    z -0.003230 0.000000 1.519110 
# 
# From -- ./inp_files/70031.got.cif
#   From: 2010.05.17/outbox.cif.g08.bks.cpg/sg10_36_cif.got.tgz:70031.got - 2010.06.03 11:33:40.
