data_PCOD9148604
_publ_section_title
;
Structure prediction by ZEFSAII (Michael W. Deem and Ramdas Pophale) SiO2 
 PCOD9148604
Probable space group: P 2/M
;
_chemical_formula_sum "Si O2"
_cell_formula_units_Z 28
_cell_length_a 17.823222
_cell_length_b 11.327783
_cell_length_c 7.138435
_cell_angle_alpha 90.000000
_cell_angle_beta 48.979622
_cell_angle_gamma 90.000000
_cell_volume 1087.375865
_symmetry_space_group_name_H-M "P 2/M"
_symmetry_group_IT_number 10
_symmetry_cell_setting 'monoclinic'
loop_
_space_group_symop_operation_xyz
x,y,z
-x,y,-z
-x,-y,-z
x,-y,z
loop_
_atom_site_type_symbol
_atom_site_label
_atom_site_fract_x
_atom_site_fract_y
_atom_site_fract_z
Si Si1 0.627014 0.131363 0.357794
Si Si2 0.314765 0.374277 0.115976
Si Si3 0.930030 0.140709 0.338119
Si Si4 0.856564 0.864060 0.870703
Si Si5 0.155482 0.628725 0.662348
Si Si6 0.653083 0.626298 0.383029
Si Si7 0.405180 0.873575 0.022589
O O1 0.595473 0.251783 0.512266
O O2 0.579878 0.123840 0.227686
O O3 0.619232 0.000000 0.456237
O O4 0.745628 0.155974 0.127299
O O5 0.360983 0.500000 0.103794
O O6 0.203295 0.378533 0.376467
O O7 0.323773 0.372750 0.877509
O O8 0.355871 0.253187 0.132467
O O9 0.862820 0.145974 0.635974
O O10 0.892280 0.241176 0.258339
O O11 0.039899 0.186052 0.221129
O O12 0.928212 0.000000 0.283223
O O13 0.873009 0.000000 0.887213
O O14 0.104614 0.500000 0.774998
O O15 0.247001 0.627886 0.658399
O O16 0.601438 0.500000 0.504986
O O17 0.349581 0.000000 0.148745
O O18 0.500000 0.877940 0.000000
#
# Coordination Sequence:
#
# PCOD9148604 Si02
#       7
#     4   4   4   4   4   4   4
#     4   9  16  29  49  69  93 128 165 198 238 291
#     4   9  18  33  53  74  98 134 171 198 236 292
#     4   9  16  28  47  70  97 129 166 205 243 286
#     4   8  15  28  47  71  97 127 165 206 242 281
#     4  10  20  33  50  75 103 128 162 207 247 285
#     4   9  18  32  49  71 100 129 159 202 247 285
#     4   9  17  29  49  79 107 127 155 201 250 290
#
# _framework density 25.750064999999999
#
# number of rings (size 3 to 8) (size 9 to 14) (size 15 to 20)
#    0.000    3.000    0.000    2.571    0.000    2.571 
#    0.000    2.857    0.000    7.714    0.000   22.000 
#    0.000    0.000    0.000    0.000    0.000    0.000 
#
# Total GULP energy -156114.520558 kJ/mol
# GULP energy per Si atom -5575.518591 kJ/mol
# Density = 2.569146 g / cm^3
# Si number density = 25.750065 Si / 1000 Ang^3
#
#
#
# Elastic Constant Matrix: (Units=GPa)
#
#
# Indices 1 2 3 4 5 6 
#
# 1 89.0783 68.2552 8.0116 0.0000 -5.9244 0.0000
# 2 68.2552 305.8657 16.3658 0.0000 -9.7902 0.0000
# 3 8.0116 16.3658 71.4329 0.0000 10.2299 0.0000
# 4 0.0000 0.0000 0.0000 57.5093 0.0000 -41.5009
# 5 -5.9244 -9.7902 10.2299 0.0000 33.0777 0.0000
# 6 0.0000 0.0000 0.0000 -41.5009 0.0000 24.8207
#
#
#
# Elastic Compliance Matrix: (Units=1/GPa)
#
#
# Indices 1 2 3 4 5 6 
#
# 1 0.013707 -0.002936 -0.001143 0.000000 0.001940 0.000000
# 2 -0.002936 0.003991 -0.000710 0.000000 0.000875 0.000000
# 3 -0.001143 -0.000710 0.015014 0.000000 -0.005058 0.000000
# 4 0.000000 0.000000 0.000000 -0.084165 0.000000 -0.140726
# 5 0.001940 0.000875 -0.005058 0.000000 0.032403 0.000000
# 6 0.000000 0.000000 0.000000 -0.140726 0.000000 -0.195009
#
#
# Mechanical properties :
#
#
# Convention : Reuss Voigt Hill
#
# Bulk Modulus (GPa) = 43.22407 72.40467 57.81437
# Shear Modulus (GPa) = -25.41038 47.99782 11.29372
#
# Velocity S-wave (km/s) = -3.14476 4.32208 2.09653
# Velocity P-wave (km/s) = 1.90694 7.28604 5.32554
#
# Compressibility (1/GPa) = 0.02313526
#
# Stress axis : x y z
#
# Youngs Moduli (GPa) = 72.95428 250.59415 66.60258
#
# Poissons Ratio (x) = 0.73565 0.07610
# Poissons Ratio (y) = 0.21417 0.04731
# Poissons Ratio (z) = 0.08335 0.17800
#
# Static dielectric constant tensor:
#      x y z
#    x 2.020220 0.000000 -0.044600 
#    y 0.000000 2.105110 0.000000 
#    z -0.044600 0.000000 2.079280 
# 
# From -- ./inp_files/28490.got.cif
#   From: 2010.05.17/outbox.cif.g08.bks.cpg/sg10_15_cif.got.tgz:28490.got - 2010.06.03 11:33:40.
