data_PCOD9148952
_publ_section_title
;
Structure prediction by ZEFSAII (Michael W. Deem and Ramdas Pophale) SiO2 
 PCOD9148952
Probable space group: P 2/M
;
_chemical_formula_sum "Si O2"
_cell_formula_units_Z 32
_cell_length_a 15.771672
_cell_length_b 8.806872
_cell_length_c 16.599349
_cell_angle_alpha 90.000000
_cell_angle_beta 53.177810
_cell_angle_gamma 90.000000
_cell_volume 1845.658903
_symmetry_space_group_name_H-M "P 2/M"
_symmetry_group_IT_number 10
_symmetry_cell_setting 'monoclinic'
loop_
_space_group_symop_operation_xyz
x,y,z
-x,y,-z
-x,-y,-z
x,-y,z
loop_
_atom_site_type_symbol
_atom_site_label
_atom_site_fract_x
_atom_site_fract_y
_atom_site_fract_z
Si Si1 0.041285 0.682863 0.063388
Si Si2 0.209170 0.181778 0.190067
Si Si3 0.709170 0.318222 0.690067
Si Si4 0.224044 0.816770 0.513037
Si Si5 0.474422 0.317208 0.765899
Si Si6 0.541286 0.817137 0.563387
Si Si7 0.275956 0.316771 0.986963
Si Si8 0.974423 0.817208 0.265899
O O1 0.034013 0.500000 0.070121
O O2 0.976251 0.749297 0.175379
O O3 0.164283 0.724020 0.008444
O O4 0.000000 0.734579 0.000000
O O5 0.250001 0.250000 0.250000
O O6 0.086362 0.224912 0.243368
O O7 0.215726 0.000000 0.188607
O O8 0.273757 0.244623 0.076730
O O9 0.715728 0.500000 0.688606
O O10 0.773757 0.255376 0.576730
O O11 0.586362 0.275091 0.743368
O O12 0.335717 0.775978 0.491556
O O13 0.124814 0.768293 0.623640
O O14 0.220782 0.000000 0.506887
O O15 0.471482 0.500000 0.761441
O O16 0.476250 0.249295 0.675379
O O17 0.375185 0.268293 0.876360
O O18 0.500000 0.765421 0.500000
O O19 0.534015 0.000000 0.570120
O O20 0.279219 0.500000 0.993113
O O21 0.971484 0.000000 0.261441
#
# Coordination Sequence:
#
# PCOD9148952 Si02
#       8
#     4   4   4   4   4   4   4   4
#     4   9  18  32  50  73 100 128 159 197 239 281
#     4  10  20  34  51  72  97 125 160 199 240 285
#     4  10  20  34  51  72  97 125 160 199 240 285
#     4   9  18  34  52  70  97 130 161 195 237 283
#     4   9  19  34  51  71  96 128 163 197 235 284
#     4   9  18  32  50  73 100 128 159 197 239 281
#     4   9  18  34  52  70  97 130 161 195 237 283
#     4   9  19  34  51  71  96 128 163 197 235 284
#
# _framework density 17.337980999999999
#
# number of rings (size 3 to 8) (size 9 to 14) (size 15 to 20)
#    0.000    2.750    0.000    0.750    0.000    4.500 
#    0.000    5.000    0.000    0.000    0.000    0.000 
#    0.000    0.000    0.000    0.000    0.000    0.000 
#
# Total GULP energy -178467.447777 kJ/mol
# GULP energy per Si atom -5577.107743 kJ/mol
# Density = 1.729852 g / cm^3
# Si number density = 17.337981 Si / 1000 Ang^3
#
#
#
# Elastic Constant Matrix: (Units=GPa)
#
#
# Indices 1 2 3 4 5 6 
#
# 1 95.5369 30.7054 107.9343 0.0000 29.7714 0.0000
# 2 30.7054 13.7367 42.1877 0.0000 5.7732 0.0000
# 3 107.9343 42.1877 213.4976 0.0000 6.6813 0.0000
# 4 0.0000 0.0000 0.0000 34.3354 0.0000 6.0752
# 5 29.7714 5.7732 6.6813 0.0000 37.0903 0.0000
# 6 0.0000 0.0000 0.0000 6.0752 0.0000 20.5560
#
#
#
# Elastic Compliance Matrix: (Units=1/GPa)
#
#
# Indices 1 2 3 4 5 6 
#
# 1 0.070418 -0.089648 -0.016647 0.000000 -0.039570 0.000000
# 2 -0.089648 0.319777 -0.018666 0.000000 0.025547 0.000000
# 3 -0.016647 -0.018666 0.016372 0.000000 0.013318 0.000000
# 4 0.000000 0.000000 0.000000 0.030732 0.000000 -0.009082
# 5 -0.039570 0.025547 0.013318 0.000000 0.052347 0.000000
# 6 0.000000 0.000000 0.000000 -0.009082 0.000000 0.051332
#
#
# Mechanical properties :
#
#
# Convention : Reuss Voigt Hill
#
# Bulk Modulus (GPa) = 6.38392 76.04733 41.21563
# Shear Modulus (GPa) = 5.93039 27.85925 16.89482
#
# Velocity S-wave (km/s) = 1.85146 4.01288 3.12499
# Velocity P-wave (km/s) = 2.87412 8.08875 6.06994
#
# Compressibility (1/GPa) = 0.15664345
#
# Stress axis : x y z
#
# Youngs Moduli (GPa) = 14.20093 3.12718 61.08160
#
# Poissons Ratio (x) = 0.28035 1.01682
# Poissons Ratio (y) = 1.27309 1.14017
# Poissons Ratio (z) = 0.23640 0.05837
#
# Static dielectric constant tensor:
#      x y z
#    x 1.582590 0.000000 -0.013280 
#    y 0.000000 1.582800 0.000000 
#    z -0.013280 0.000000 1.560380 
# 
# From -- ./inp_files/66521.got.cif
#   From: 2010.05.17/outbox.cif.g08.bks.cpg/sg10_34_cif.got.tgz:66521.got - 2010.06.03 11:33:40.
