data_PCOD9148739
_publ_section_title
;
Structure prediction by ZEFSAII (Michael W. Deem and Ramdas Pophale) SiO2 
 PCOD9148739
Probable space group: P 2/M
;
_chemical_formula_sum "Si O2"
_cell_formula_units_Z 32
_cell_length_a 5.374804
_cell_length_b 9.844769
_cell_length_c 30.192337
_cell_angle_alpha 90.000000
_cell_angle_beta 78.004625
_cell_angle_gamma 90.000000
_cell_volume 1562.704045
_symmetry_space_group_name_H-M "P 2/M"
_symmetry_group_IT_number 10
_symmetry_cell_setting 'monoclinic'
loop_
_space_group_symop_operation_xyz
x,y,z
-x,y,-z
-x,-y,-z
x,-y,z
loop_
_atom_site_type_symbol
_atom_site_label
_atom_site_fract_x
_atom_site_fract_y
_atom_site_fract_z
Si Si1 0.000786 0.836847 0.171131
Si Si2 0.566980 0.164988 0.119292
Si Si3 0.831498 0.150890 0.345938
Si Si4 0.283719 0.659244 0.970591
Si Si5 0.498891 0.651106 0.298562
Si Si6 0.280845 0.663597 0.476044
Si Si7 0.227867 0.151100 0.253753
Si Si8 0.099315 0.649721 0.390032
O O1 0.273216 0.797600 0.139814
O O2 0.036712 0.805680 0.221816
O O3 0.756587 0.791446 0.152256
O O4 0.988061 0.000000 0.169851
O O5 0.660400 0.240560 0.071954
O O6 0.579095 0.000000 0.114332
O O7 0.664758 0.250942 0.322712
O O8 0.077691 0.134221 0.305184
O O9 0.904984 0.229358 0.387953
O O10 0.722501 0.000000 0.356586
O O11 0.296685 0.500000 0.956372
O O12 0.500000 0.679475 0.000000
O O13 0.000000 0.682916 0.000000
O O14 0.606088 0.500000 0.287554
O O15 0.428577 0.731868 0.256742
O O16 0.249538 0.634414 0.338646
O O17 0.500000 0.718013 0.500000
O O18 0.282843 0.500000 0.481367
O O19 0.290171 0.684933 0.422868
O O20 0.000000 0.712039 0.500000
O O21 0.336235 0.000000 0.238272
O O22 0.982098 0.500000 0.404555
#
# Coordination Sequence:
#
# PCOD9148739 Si02
#       8
#     4   4   4   4   4   4   4   4
#     4   9  19  34  56  81 110 144 182 225 271 322
#     4  10  20  35  56  84 111 141 181 227 275 322
#     4  10  20  33  54  79 104 140 185 225 269 327
#     4  10  21  37  57  80 109 146 183 223 273 328
#     4  10  20  33  52  78 108 138 176 225 278 324
#     4   9  18  31  52  81 108 136 177 223 272 333
#     4   9  19  35  54  76 103 143 187 224 267 324
#     4   9  19  34  53  77 106 138 173 225 280 321
#
# _framework density 20.477323999999999
#
# number of rings (size 3 to 8) (size 9 to 14) (size 15 to 20)
#    0.000    2.500    0.000    1.500    3.500    1.500 
#    0.000    1.250    0.000    0.750    0.000    0.000 
#    0.000    0.000    0.000    0.000    0.000    0.000 
#
# Total GULP energy -178307.685547 kJ/mol
# GULP energy per Si atom -5572.115173 kJ/mol
# Density = 2.043072 g / cm^3
# Si number density = 20.477324 Si / 1000 Ang^3
#
#
#
# Elastic Constant Matrix: (Units=GPa)
#
#
# Indices 1 2 3 4 5 6 
#
# 1 84.8179 30.1231 21.3107 0.0000 22.2894 0.0000
# 2 30.1231 105.6219 24.7708 0.0000 22.5237 0.0000
# 3 21.3107 24.7708 84.8864 0.0000 18.5053 0.0000
# 4 0.0000 0.0000 0.0000 20.9961 0.0000 11.1165
# 5 22.2894 22.5237 18.5053 0.0000 34.6958 0.0000
# 6 0.0000 0.0000 0.0000 11.1165 0.0000 15.2467
#
#
#
# Elastic Compliance Matrix: (Units=1/GPa)
#
#
# Indices 1 2 3 4 5 6 
#
# 1 0.014905 -0.002358 -0.001471 0.000000 -0.007260 0.000000
# 2 -0.002358 0.011630 -0.001682 0.000000 -0.005139 0.000000
# 3 -0.001471 -0.001682 0.013801 0.000000 -0.005324 0.000000
# 4 0.000000 0.000000 0.000000 0.077574 0.000000 -0.056560
# 5 -0.007260 -0.005139 -0.005324 0.000000 0.039661 0.000000
# 6 0.000000 0.000000 0.000000 -0.056560 0.000000 0.106827
#
#
# Mechanical properties :
#
#
# Convention : Reuss Voigt Hill
#
# Bulk Modulus (GPa) = 34.11199 47.52615 40.81907
# Shear Modulus (GPa) = 17.53211 27.46249 22.49730
#
# Velocity S-wave (km/s) = 2.92922 3.66610 3.31818
# Velocity P-wave (km/s) = 5.30424 6.41716 5.88706
#
# Compressibility (1/GPa) = 0.02931521
#
# Stress axis : x y z
#
# Youngs Moduli (GPa) = 67.09264 85.98217 72.45742
#
# Poissons Ratio (x) = 0.20271 0.10660
# Poissons Ratio (y) = 0.15818 0.12186
# Poissons Ratio (z) = 0.09871 0.14460
#
# Static dielectric constant tensor:
#      x y z
#    x 1.799770 0.000000 -0.025250 
#    y 0.000000 1.797930 0.000000 
#    z -0.025250 0.000000 1.744310 
# 
# From -- ./inp_files/13634.got.cif
#   From: 2010.05.17/outbox.cif.g08.bks.cpg/sg10_7_cif.got.tgz:13634.got - 2010.06.03 11:33:40.
