data_PCOD9148491
_publ_section_title
;
Structure prediction by ZEFSAII (Michael W. Deem and Ramdas Pophale) SiO2 
 PCOD9148491
Probable space group: P 2/M
;
_chemical_formula_sum "Si O2"
_cell_formula_units_Z 32
_cell_length_a 17.220318
_cell_length_b 15.112820
_cell_length_c 20.189192
_cell_angle_alpha 90.000000
_cell_angle_beta 20.208654
_cell_angle_gamma 90.000000
_cell_volume 1815.006447
_symmetry_space_group_name_H-M "P 2/M"
_symmetry_group_IT_number 10
_symmetry_cell_setting 'monoclinic'
loop_
_space_group_symop_operation_xyz
x,y,z
-x,y,-z
-x,-y,-z
x,-y,z
loop_
_atom_site_type_symbol
_atom_site_label
_atom_site_fract_x
_atom_site_fract_y
_atom_site_fract_z
Si Si1 0.378230 0.154278 0.394030
Si Si2 0.525413 0.893550 0.127785
Si Si3 0.183260 0.897005 0.294065
Si Si4 0.378738 0.397973 0.026307
Si Si5 0.004124 0.259216 0.345424
Si Si6 0.124860 0.892345 0.967392
Si Si7 0.997190 0.899274 0.211480
Si Si8 0.815101 0.595318 0.590915
O O1 0.403902 0.126938 0.295675
O O2 0.630773 0.151833 0.218840
O O3 0.210412 0.237761 0.528633
O O4 0.224066 0.097473 0.567088
O O5 0.402091 0.862834 0.159382
O O6 0.514747 0.000000 0.129386
O O7 0.780818 0.858769 0.931281
O O8 0.102826 0.828873 0.302358
O O9 0.000000 0.899835 0.500000
O O10 0.208778 0.000000 0.249562
O O11 0.293534 0.500000 0.095490
O O12 0.571909 0.392459 0.817167
O O13 0.500000 0.383304 0.000000
O O14 0.193297 0.323361 0.164804
O O15 0.890655 0.319642 0.491846
O O16 0.157703 0.000000 0.938529
O O17 0.982506 0.867513 0.147377
O O18 0.000000 0.867159 0.000000
O O19 0.071142 0.000000 0.143886
O O20 0.816933 0.500000 0.553246
O O21 0.000000 0.588009 0.500000
#
# Coordination Sequence:
#
# PCOD9148491 Si02
#       8
#     4   4   4   4   4   4   4   4
#     4  11  21  30  48  74 100 131 164 213 265 321
#     4   9  18  33  46  59  90 132 180 227 260 288
#     4  10  20  33  47  65  97 146 195 233 256 288
#     4  10  21  35  53  77 102 126 170 232 280 324
#     4  12  23  33  53  76 104 144 186 223 271 320
#     4   9  19  36  56  75  97 130 176 227 272 316
#     4   9  18  32  49  69  94 128 169 217 268 312
#     4  10  20  37  58  77  99 133 179 232 285 324
#
# _framework density 17.630790999999999
#
# number of rings (size 3 to 8) (size 9 to 14) (size 15 to 20)
#    0.000    2.000    2.500    2.625    0.000    4.500 
#    0.000    1.875    0.000    3.375    0.000    0.000 
#    0.000    2.000    0.000    8.500    0.000    1.000 
#
# Total GULP energy -178270.882432 kJ/mol
# GULP energy per Si atom -5570.965076 kJ/mol
# Density = 1.759066 g / cm^3
# Si number density = 17.630791 Si / 1000 Ang^3
#
#
#
# Elastic Constant Matrix: (Units=GPa)
#
#
# Indices 1 2 3 4 5 6 
#
# 1 88.2600 31.9801 36.6037 0.0000 -8.9534 0.0000
# 2 31.9801 73.8496 24.7525 0.0000 -6.2319 0.0000
# 3 36.6037 24.7525 102.5722 0.0000 3.3489 0.0000
# 4 0.0000 0.0000 0.0000 31.3189 0.0000 -5.4024
# 5 -8.9534 -6.2319 3.3489 0.0000 23.9713 0.0000
# 6 0.0000 0.0000 0.0000 -5.4024 0.0000 8.2601
#
#
#
# Elastic Compliance Matrix: (Units=1/GPa)
#
#
# Indices 1 2 3 4 5 6 
#
# 1 0.015454 -0.004733 -0.004542 0.000000 0.005176 0.000000
# 2 -0.004733 0.016647 -0.002423 0.000000 0.002899 0.000000
# 3 -0.004542 -0.002423 0.012086 0.000000 -0.004015 0.000000
# 4 0.000000 0.000000 0.000000 0.035990 0.000000 0.023539
# 5 0.005176 0.002899 -0.004015 0.000000 0.044964 0.000000
# 6 0.000000 0.000000 0.000000 0.023539 0.000000 0.136459
#
#
# Mechanical properties :
#
#
# Convention : Reuss Voigt Hill
#
# Bulk Modulus (GPa) = 48.09639 50.15050 49.12345
# Shear Modulus (GPa) = 17.12766 24.13310 20.63038
#
# Velocity S-wave (km/s) = 3.12021 3.70375 3.42443
# Velocity P-wave (km/s) = 6.34980 6.84083 6.59988
#
# Compressibility (1/GPa) = 0.02079158
#
# Stress axis : x y z
#
# Youngs Moduli (GPa) = 64.70917 60.06948 82.74238
#
# Poissons Ratio (x) = 0.28432 0.37578
# Poissons Ratio (y) = 0.30628 0.20048
# Poissons Ratio (z) = 0.29388 0.14554
#
# Static dielectric constant tensor:
#      x y z
#    x 1.617640 0.000000 0.016970 
#    y 0.000000 1.773120 0.000000 
#    z 0.016970 0.000000 1.670660 
# 
# From -- ./inp_files/79756.got.cif
#   From: 2010.05.17/outbox.cif.g08.bks.cpg/sg10_40_cif.got.tgz:79756.got - 2010.06.03 11:33:40.
