data_PCOD9148870
_publ_section_title
;
Structure prediction by ZEFSAII (Michael W. Deem and Ramdas Pophale) SiO2 
 PCOD9148870
Probable space group: P 2/M
;
_chemical_formula_sum "Si O2"
_cell_formula_units_Z 20
_cell_length_a 13.340837
_cell_length_b 11.273622
_cell_length_c 9.887801
_cell_angle_alpha 90.000000
_cell_angle_beta 146.926702
_cell_angle_gamma 90.000000
_cell_volume 811.538943
_symmetry_space_group_name_H-M "P 2/M"
_symmetry_group_IT_number 10
_symmetry_cell_setting 'monoclinic'
loop_
_space_group_symop_operation_xyz
x,y,z
-x,y,-z
-x,-y,-z
x,-y,z
loop_
_atom_site_type_symbol
_atom_site_label
_atom_site_fract_x
_atom_site_fract_y
_atom_site_fract_z
Si Si1 0.513899 0.500000 0.678455
Si Si2 0.079963 0.500000 0.250120
Si Si3 0.427348 0.863077 0.557403
Si Si4 0.327433 0.867824 0.903665
Si Si5 0.052154 0.130182 0.213827
Si Si6 0.174507 0.687976 0.890688
O O1 0.500000 0.500000 0.500000
O O2 0.302375 0.500000 0.491795
O O3 0.639968 0.612869 0.867267
O O4 0.990246 0.605268 0.238696
O O5 0.000000 0.500000 0.000000
O O6 0.500000 0.809140 0.500000
O O7 0.575483 0.871261 0.840617
O O8 0.249277 0.806755 0.426066
O O9 0.371543 0.000000 0.459929
O O10 0.246474 0.000000 0.786594
O O11 0.500000 0.852705 0.000000
O O12 0.202313 0.749843 0.774329
O O13 0.887995 0.197675 0.095538
O O14 0.072614 0.000000 0.300439
O O15 0.000000 0.119311 0.000000
#
# Coordination Sequence:
#
# PCOD9148870 Si02
#       6
#     2   2   4   4   4   4
#     4  11  25  44  65  94 132 175 226 284 344 401
#     4  11  23  44  63  98 131 172 228 285 349 395
#     4   9  18  33  56  91 132 175 219 262 320 390
#     4  10  22  42  67  99 141 184 222 268 336 413
#     4  10  20  33  55  95 137 169 209 268 333 404
#     4  11  23  38  66  92 124 176 221 276 330 399
#
# _framework density 24.644535000000001
#
# number of rings (size 3 to 8) (size 9 to 14) (size 15 to 20)
#    0.000    1.800    2.000    2.400    2.800    4.000 
#    0.000    3.000    0.000    6.600    0.000    0.000 
#    0.000    0.000    0.000    0.000    0.000    0.000 
#
# Total GULP energy -111410.292520 kJ/mol
# GULP energy per Si atom -5570.514626 kJ/mol
# Density = 2.458844 g / cm^3
# Si number density = 24.644535 Si / 1000 Ang^3
#
#
#
# Elastic Constant Matrix: (Units=GPa)
#
#
# Indices 1 2 3 4 5 6 
#
# 1 168.0427 84.3547 53.8570 0.0000 55.5344 0.0000
# 2 84.3547 120.1350 35.4481 0.0000 34.7258 0.0000
# 3 53.8570 35.4481 128.7357 0.0000 52.2135 0.0000
# 4 0.0000 0.0000 0.0000 21.4910 0.0000 19.8975
# 5 55.5344 34.7258 52.2135 0.0000 58.0748 0.0000
# 6 0.0000 0.0000 0.0000 19.8975 0.0000 36.1889
#
#
#
# Elastic Compliance Matrix: (Units=1/GPa)
#
#
# Indices 1 2 3 4 5 6 
#
# 1 0.011290 -0.005801 -0.000242 0.000000 -0.007110 0.000000
# 2 -0.005801 0.013066 -0.000397 0.000000 -0.001909 0.000000
# 3 -0.000242 -0.000397 0.012258 0.000000 -0.010552 0.000000
# 4 0.000000 0.000000 0.000000 0.094779 0.000000 -0.052112
# 5 -0.007110 -0.001909 -0.010552 0.000000 0.034646 0.000000
# 6 0.000000 0.000000 0.000000 -0.052112 0.000000 0.056285
#
#
# Mechanical properties :
#
#
# Convention : Reuss Voigt Hill
#
# Bulk Modulus (GPa) = 42.13277 84.91477 63.52377
# Shear Modulus (GPa) = 20.56628 39.36785 29.96707
#
# Velocity S-wave (km/s) = 2.89193 4.00112 3.49086
# Velocity P-wave (km/s) = 5.31830 7.47502 6.48692
#
# Compressibility (1/GPa) = 0.02373449
#
# Stress axis : x y z
#
# Youngs Moduli (GPa) = 88.57323 76.53430 81.57761
#
# Poissons Ratio (x) = 0.44397 0.01977
# Poissons Ratio (y) = 0.51380 0.03236
# Poissons Ratio (z) = 0.02147 0.03036
#
# Static dielectric constant tensor:
#      x y z
#    x 2.023360 0.000000 0.057660 
#    y 0.000000 2.251800 0.000000 
#    z 0.057660 0.000000 2.033160 
# 
# From -- ./inp_files/46870.got.cif
#   From: 2010.05.17/outbox.cif.g08.bks.cpg/sg10_24_cif.got.tgz:46870.got - 2010.06.03 11:33:40.
