data_PCOD9148682
_publ_section_title
;
Structure prediction by ZEFSAII (Michael W. Deem and Ramdas Pophale) SiO2 
 PCOD9148682
Probable space group: P 2/M
;
_chemical_formula_sum "Si O2"
_cell_formula_units_Z 32
_cell_length_a 12.550125
_cell_length_b 8.625949
_cell_length_c 24.565420
_cell_angle_alpha 90.000000
_cell_angle_beta 140.251649
_cell_angle_gamma 90.000000
_cell_volume 1700.447486
_symmetry_space_group_name_H-M "P 2/M"
_symmetry_group_IT_number 10
_symmetry_cell_setting 'monoclinic'
loop_
_space_group_symop_operation_xyz
x,y,z
-x,y,-z
-x,-y,-z
x,-y,z
loop_
_atom_site_type_symbol
_atom_site_label
_atom_site_fract_x
_atom_site_fract_y
_atom_site_fract_z
Si Si1 0.785314 0.812546 0.962850
Si Si2 0.025927 0.685305 0.250172
Si Si3 0.529545 0.187570 0.232068
Si Si4 0.438137 0.315586 0.307521
Si Si5 0.441770 0.176272 0.031574
Si Si6 0.953895 0.685075 0.863869
Si Si7 0.603124 0.814304 0.593506
Si Si8 0.230825 0.824946 0.765965
O O1 0.650913 0.762001 0.864483
O O2 0.695640 0.754151 0.983395
O O3 0.787170 0.000000 0.961522
O O4 0.970806 0.758545 0.051257
O O5 0.033383 0.500000 0.250586
O O6 0.978649 0.738708 0.169691
O O7 0.902148 0.736160 0.249481
O O8 0.209484 0.749464 0.334446
O O9 0.538817 0.244386 0.297087
O O10 0.686346 0.241332 0.256748
O O11 0.530652 0.000000 0.229596
O O12 0.457022 0.500000 0.316580
O O13 0.476140 0.245673 0.381386
O O14 0.242925 0.281479 0.218468
O O15 0.605243 0.162576 0.132236
O O16 0.384002 0.000000 0.994786
O O17 0.500000 0.259294 0.000000
O O18 0.976645 0.500000 0.876818
O O19 0.500000 0.764776 0.500000
O O20 0.609786 0.000000 0.597329
O O21 0.167546 0.000000 0.730782
#
# Coordination Sequence:
#
# PCOD9148682 Si02
#       8
#     4   4   4   4   4   4   4   4
#     4   9  17  28  44  66  92 130 180 225 260 295
#     4  10  20  33  51  78 110 139 168 206 256 311
#     4   9  19  34  50  72 102 138 183 225 258 297
#     4  10  21  36  54  76 104 138 171 206 255 312
#     4   8  13  22  38  61  88 121 167 219 262 295
#     4   9  19  32  44  66 100 135 173 217 264 309
#     4  10  21  38  62  88 108 128 158 199 250 306
#     4   9  17  30  49  71  98 135 176 217 256 297
#
# _framework density 18.818576
#
# number of rings (size 3 to 8) (size 9 to 14) (size 15 to 20)
#    0.000    2.750    0.000    4.125    0.000    6.500 
#    0.000    4.375    0.000    7.500    0.000    5.250 
#    0.000    0.000    0.000    0.000    0.000    0.000 
#
# Total GULP energy -178183.737375 kJ/mol
# GULP energy per Si atom -5568.241793 kJ/mol
# Density = 1.877574 g / cm^3
# Si number density = 18.818576 Si / 1000 Ang^3
#
#
#
# Elastic Constant Matrix: (Units=GPa)
#
#
# Indices 1 2 3 4 5 6 
#
# 1 100.7885 25.1835 40.1338 0.0000 -31.1991 0.0000
# 2 25.1835 21.5938 20.1725 0.0000 -7.9814 0.0000
# 3 40.1338 20.1725 89.8959 0.0000 -23.4748 0.0000
# 4 0.0000 0.0000 0.0000 26.8020 0.0000 -9.0358
# 5 -31.1991 -7.9814 -23.4748 0.0000 26.5075 0.0000
# 6 0.0000 0.0000 0.0000 -9.0358 0.0000 16.0993
#
#
#
# Elastic Compliance Matrix: (Units=1/GPa)
#
#
# Indices 1 2 3 4 5 6 
#
# 1 0.019597 -0.015741 -0.000561 0.000000 0.017830 0.000000
# 2 -0.015741 0.072503 -0.010900 0.000000 -0.006350 0.000000
# 3 -0.000561 -0.010900 0.016639 0.000000 0.010793 0.000000
# 4 0.000000 0.000000 0.000000 0.046018 0.000000 0.025828
# 5 0.017830 -0.006350 0.010793 0.000000 0.066357 0.000000
# 6 0.000000 0.000000 0.000000 0.025828 0.000000 0.076611
#
#
# Mechanical properties :
#
#
# Convention : Reuss Voigt Hill
#
# Bulk Modulus (GPa) = 18.40435 42.58417 30.49426
# Shear Modulus (GPa) = 13.50471 22.33431 17.91951
#
# Velocity S-wave (km/s) = 2.68176 3.44877 3.08916
# Velocity P-wave (km/s) = 4.40344 6.20778 5.38177
#
# Compressibility (1/GPa) = 0.05433497
#
# Stress axis : x y z
#
# Youngs Moduli (GPa) = 51.02694 13.79249 60.10051
#
# Poissons Ratio (x) = 0.21711 0.03372
# Poissons Ratio (y) = 0.80322 0.65510
# Poissons Ratio (z) = 0.02863 0.15034
#
# Static dielectric constant tensor:
#      x y z
#    x 1.736160 0.000000 -0.009010 
#    y 0.000000 1.648910 0.000000 
#    z -0.009010 0.000000 1.662760 
# 
# From -- ./inp_files/88546.got.cif
#   From: 2010.05.17/outbox.cif.g08.bks.cpg/sg10_45_cif.got.tgz:88546.got - 2010.06.03 11:33:40.
