data_PCOD9148873
_publ_section_title
;
Structure prediction by ZEFSAII (Michael W. Deem and Ramdas Pophale) SiO2 
 PCOD9148873
Probable space group: P 2/M
;
_chemical_formula_sum "Si O2"
_cell_formula_units_Z 30
_cell_length_a 5.370240
_cell_length_b 29.786504
_cell_length_c 12.742349
_cell_angle_alpha 90.000000
_cell_angle_beta 134.749923
_cell_angle_gamma 90.000000
_cell_volume 1447.554848
_symmetry_space_group_name_H-M "P 2/M"
_symmetry_group_IT_number 10
_symmetry_cell_setting 'monoclinic'
loop_
_space_group_symop_operation_xyz
x,y,z
-x,y,-z
-x,-y,-z
x,-y,z
loop_
_atom_site_type_symbol
_atom_site_label
_atom_site_fract_x
_atom_site_fract_y
_atom_site_fract_z
Si Si1 0.577073 0.000000 0.896189
Si Si2 0.580618 0.548495 0.900058
Si Si3 0.364338 0.213903 0.636175
Si Si4 0.398756 0.355295 0.151820
Si Si5 0.669685 0.261170 0.152385
Si Si6 0.221799 0.865085 0.324117
Si Si7 0.711846 0.085012 0.318313
Si Si8 0.425166 0.304197 0.368725
O O1 0.395585 0.957876 0.782642
O O2 0.500000 0.000000 0.000000
O O3 0.000000 0.000000 0.000000
O O4 0.445434 0.500000 0.818965
O O5 0.428752 0.596253 0.816046
O O6 0.500000 0.548937 0.000000
O O7 0.000000 0.547883 0.000000
O O8 0.379744 0.229973 0.760758
O O9 0.694950 0.184569 0.696453
O O10 0.331241 0.260326 0.562171
O O11 0.000000 0.188531 0.500000
O O12 0.492858 0.309776 0.118844
O O13 0.461594 0.339588 0.288376
O O14 0.000000 0.362231 0.000000
O O15 0.059205 0.278626 0.248516
O O16 0.500000 0.239511 0.000000
O O17 0.500000 0.870104 0.500000
O O18 0.362559 0.897017 0.273008
O O19 0.867209 0.879637 0.277858
O O20 0.000000 0.077175 0.500000
O O21 0.500000 0.327319 0.500000
#
# Coordination Sequence:
#
# PCOD9148873 Si02
#       8
#     2   4   4   4   4   4   4   4
#     4  12  25  44  73 102 142 180 208 264 333 384
#     4   9  18  32  54  85 116 150 198 253 313 378
#     4  11  22  36  61  90 120 163 211 262 312 369
#     4  10  20  33  56  83 116 157 198 258 317 375
#     4  11  22  37  57  84 120 161 208 258 312 368
#     4  10  21  38  66  97 126 164 212 268 311 359
#     4  10  22  42  70 102 129 165 222 265 307 370
#     4  11  22  36  57  84 119 160 208 258 311 367
#
# _framework density 20.724602000000001
#
# number of rings (size 3 to 8) (size 9 to 14) (size 15 to 20)
#    0.000    1.600    2.667    3.000    3.733    0.000 
#    0.000    3.333    5.867    0.400    0.000    0.933 
#    0.000    0.000    0.000    0.000    0.000    0.000 
#
# Total GULP energy -167099.170926 kJ/mol
# GULP energy per Si atom -5569.972364 kJ/mol
# Density = 2.067743 g / cm^3
# Si number density = 20.724602 Si / 1000 Ang^3
#
#
#
# Elastic Constant Matrix: (Units=GPa)
#
#
# Indices 1 2 3 4 5 6 
#
# 1 109.4045 35.3121 31.0582 0.0000 -23.6386 0.0000
# 2 35.3121 148.7968 37.7404 0.0000 -26.1914 0.0000
# 3 31.0582 37.7404 78.7420 0.0000 -32.1297 0.0000
# 4 0.0000 0.0000 0.0000 24.8989 0.0000 -7.0780
# 5 -23.6386 -26.1914 -32.1297 0.0000 42.1973 0.0000
# 6 0.0000 0.0000 0.0000 -7.0780 0.0000 31.3340
#
#
#
# Elastic Compliance Matrix: (Units=1/GPa)
#
#
# Indices 1 2 3 4 5 6 
#
# 1 0.011000 -0.001420 -0.002181 0.000000 0.003620 0.000000
# 2 -0.001420 0.008076 -0.002306 0.000000 0.002461 0.000000
# 3 -0.002181 -0.002306 0.019705 0.000000 0.012350 0.000000
# 4 0.000000 0.000000 0.000000 0.042918 0.000000 0.009695
# 5 0.003620 0.002461 0.012350 0.000000 0.036657 0.000000
# 6 0.000000 0.000000 0.000000 0.009695 0.000000 0.034104
#
#
# Mechanical properties :
#
#
# Convention : Reuss Voigt Hill
#
# Bulk Modulus (GPa) = 37.08434 60.57384 48.82909
# Shear Modulus (GPa) = 28.85775 35.20822 32.03299
#
# Velocity S-wave (km/s) = 3.73559 4.12620 3.93574
# Velocity P-wave (km/s) = 6.04474 7.21055 6.65323
#
# Compressibility (1/GPa) = 0.02696556
#
# Stress axis : x y z
#
# Youngs Moduli (GPa) = 90.90846 123.82762 50.74935
#
# Poissons Ratio (x) = 0.17585 0.11068
# Poissons Ratio (y) = 0.12910 0.11705
# Poissons Ratio (z) = 0.19827 0.28559
#
# Static dielectric constant tensor:
#      x y z
#    x 1.664360 0.000000 -0.024350 
#    y 0.000000 1.841660 0.000000 
#    z -0.024350 0.000000 1.696390 
# 
# From -- ./inp_files/40097.got.cif
#   From: 2010.05.17/outbox.cif.g08.bks.cpg/sg10_21_cif.got.tgz:40097.got - 2010.06.03 11:33:40.
