data_PCOD9148726
_publ_section_title
;
Structure prediction by ZEFSAII (Michael W. Deem and Ramdas Pophale) SiO2 
 PCOD9148726
Probable space group: P 2/M
;
_chemical_formula_sum "Si O2"
_cell_formula_units_Z 30
_cell_length_a 12.810059
_cell_length_b 12.705926
_cell_length_c 11.869304
_cell_angle_alpha 90.000000
_cell_angle_beta 116.300566
_cell_angle_gamma 90.000000
_cell_volume 1731.905952
_symmetry_space_group_name_H-M "P 2/M"
_symmetry_group_IT_number 10
_symmetry_cell_setting 'monoclinic'
loop_
_space_group_symop_operation_xyz
x,y,z
-x,y,-z
-x,-y,-z
x,-y,z
loop_
_atom_site_type_symbol
_atom_site_label
_atom_site_fract_x
_atom_site_fract_y
_atom_site_fract_z
Si Si1 0.941792 0.742462 0.357277
Si Si2 0.000000 0.734808 0.000000
Si Si3 0.459723 0.384818 0.203574
Si Si4 0.706721 0.622951 0.250552
Si Si5 0.884431 0.373298 0.728509
Si Si6 0.862246 0.878368 0.110551
Si Si7 0.375445 0.380374 0.410930
Si Si8 0.380156 0.779813 0.986594
O O1 0.828358 0.675539 0.339688
O O2 0.905702 0.832995 0.251620
O O3 0.000000 0.781143 0.500000
O O4 0.026613 0.668309 0.323556
O O5 0.072812 0.667995 0.127963
O O6 0.917456 0.807718 0.037826
O O7 0.448367 0.500000 0.139960
O O8 0.599138 0.370637 0.286862
O O9 0.388280 0.389639 0.282994
O O10 0.411956 0.288894 0.109838
O O11 0.723896 0.500000 0.231751
O O12 0.661627 0.691551 0.123449
O O13 0.882619 0.500000 0.730342
O O14 0.753528 0.335852 0.632624
O O15 0.723914 0.859354 0.043398
O O16 0.892444 0.000000 0.111409
O O17 0.500000 0.327792 0.500000
O O18 0.377852 0.500000 0.461073
O O19 0.500000 0.829345 0.000000
#
# Coordination Sequence:
#
# PCOD9148726 Si02
#       8
#     4   2   4   4   4   4   4   4
#     4  10  22  35  49  73 102 135 178 212 249 301
#     4  10  20  36  56  80 104 126 172 214 260 318
#     4   9  16  27  46  69  99 136 165 196 238 291
#     4   9  17  28  45  70 101 135 163 197 240 291
#     4  10  20  33  52  77 109 142 167 203 249 299
#     4  10  21  37  56  75  97 127 168 224 275 309
#     4   9  18  29  41  64  96 135 175 197 223 276
#     4   9  17  30  48  74 101 124 161 202 249 308
#
# _framework density 17.321956
#
# number of rings (size 3 to 8) (size 9 to 14) (size 15 to 20)
#    0.000    2.533    0.000    2.000    1.867    3.200 
#    0.000    4.000    0.000    0.000    0.000    0.000 
#    0.000    4.800    0.000    0.000    0.000    0.000 
#
# Total GULP energy -167049.560416 kJ/mol
# GULP energy per Si atom -5568.318681 kJ/mol
# Density = 1.728253 g / cm^3
# Si number density = 17.321956 Si / 1000 Ang^3
#
#
#
# Elastic Constant Matrix: (Units=GPa)
#
#
# Indices 1 2 3 4 5 6 
#
# 1 88.6265 20.1183 27.7776 0.0000 17.0753 0.0000
# 2 20.1183 52.3647 13.7884 0.0000 3.8878 0.0000
# 3 27.7776 13.7884 71.7502 0.0000 8.5530 0.0000
# 4 0.0000 0.0000 0.0000 6.9295 0.0000 2.7621
# 5 17.0753 3.8878 8.5530 0.0000 29.3873 0.0000
# 6 0.0000 0.0000 0.0000 2.7621 0.0000 13.1427
#
#
#
# Elastic Compliance Matrix: (Units=1/GPa)
#
#
# Indices 1 2 3 4 5 6 
#
# 1 0.014835 -0.004100 -0.004136 0.000000 -0.006873 0.000000
# 2 -0.004100 0.021320 -0.002546 0.000000 0.000303 0.000000
# 3 -0.004136 -0.002546 0.016265 0.000000 -0.001994 0.000000
# 4 0.000000 0.000000 0.000000 0.157505 0.000000 -0.033102
# 5 -0.006873 0.000303 -0.001994 0.000000 0.038562 0.000000
# 6 0.000000 0.000000 0.000000 -0.033102 0.000000 0.083045
#
#
# Mechanical properties :
#
#
# Convention : Reuss Voigt Hill
#
# Bulk Modulus (GPa) = 32.40828 37.34558 34.87693
# Shear Modulus (GPa) = 13.75967 19.96237 16.86102
#
# Velocity S-wave (km/s) = 2.82148 3.39843 3.12330
# Velocity P-wave (km/s) = 5.41888 6.08322 5.76064
#
# Compressibility (1/GPa) = 0.03085631
#
# Stress axis : x y z
#
# Youngs Moduli (GPa) = 67.41012 46.90443 61.48036
#
# Poissons Ratio (x) = 0.19231 0.25427
# Poissons Ratio (y) = 0.27638 0.15652
# Poissons Ratio (z) = 0.27880 0.11941
#
# Static dielectric constant tensor:
#      x y z
#    x 1.620450 0.000000 0.020290 
#    y 0.000000 1.547630 0.000000 
#    z 0.020290 0.000000 1.612850 
# 
# From -- ./inp_files/46750.got.cif
#   From: 2010.05.17/outbox.cif.g08.bks.cpg/sg10_24_cif.got.tgz:46750.got - 2010.06.03 11:33:40.
