data_PCOD9148095
_publ_section_title
;
Structure prediction by ZEFSAII (Michael W. Deem and Ramdas Pophale) SiO2 
 PCOD9148095
Probable space group: P 2/M
;
_chemical_formula_sum "Si O2"
_cell_formula_units_Z 32
_cell_length_a 20.509675
_cell_length_b 7.754801
_cell_length_c 9.730091
_cell_angle_alpha 90.000000
_cell_angle_beta 57.488153
_cell_angle_gamma 90.000000
_cell_volume 1305.023430
_symmetry_space_group_name_H-M "P 2/M"
_symmetry_group_IT_number 10
_symmetry_cell_setting 'monoclinic'
loop_
_space_group_symop_operation_xyz
x,y,z
-x,y,-z
-x,-y,-z
x,-y,z
loop_
_atom_site_type_symbol
_atom_site_label
_atom_site_fract_x
_atom_site_fract_y
_atom_site_fract_z
Si Si1 0.617584 0.288393 0.684257
Si Si2 0.294126 0.809705 0.890175
Si Si3 0.050824 0.208120 0.246046
Si Si4 0.085169 0.297274 0.916859
Si Si5 0.726817 0.700742 0.789198
Si Si6 0.888068 0.207583 0.520653
Si Si7 0.244484 0.302922 0.661851
Si Si8 0.469814 0.708589 0.687701
O O1 0.616242 0.500000 0.684464
O O2 0.651138 0.235230 0.793756
O O3 0.683034 0.228022 0.501944
O O4 0.534016 0.234329 0.725350
O O5 0.267760 0.690888 0.795730
O O6 0.385762 0.785532 0.805225
O O7 0.275363 0.000000 0.860653
O O8 0.258890 0.787381 0.080947
O O9 0.960365 0.265241 0.345426
O O10 0.097825 0.282511 0.066343
O O11 0.084694 0.256117 0.355586
O O12 0.052253 0.000000 0.237126
O O13 0.080525 0.500000 0.887228
O O14 0.159060 0.220747 0.755027
O O15 0.000000 0.216340 0.000000
O O16 0.715487 0.500000 0.831302
O O17 0.801593 0.722808 0.606803
O O18 0.884549 0.000000 0.517310
O O19 0.236812 0.500000 0.621845
O O20 0.500000 0.750050 0.500000
O O21 0.462849 0.500000 0.702896
#
# Coordination Sequence:
#
# PCOD9148095 Si02
#       8
#     4   4   4   4   4   4   4   4
#     4   9  20  38  63  92 118 153 198 247 297 355
#     4  12  25  40  61  91 126 159 196 244 295 352
#     4   9  19  36  56  77 109 153 196 238 290 354
#     4  10  22  35  54  84 118 150 190 249 298 336
#     4  11  23  38  60  90 121 156 197 244 297 353
#     4   9  19  37  58  80 111 151 194 243 294 347
#     4  10  20  40  64  87 118 158 205 248 297 356
#     4  10  19  39  69  92 116 154 200 244 293 352
#
# _framework density 24.520634000000001
#
# number of rings (size 3 to 8) (size 9 to 14) (size 15 to 20)
#    0.000    2.000    1.250    3.000    1.750    4.500 
#    0.000    6.250    0.000    0.000    0.000    0.000 
#    0.000    0.000    0.000    0.000    0.000    0.000 
#
# Total GULP energy -178941.362417 kJ/mol
# GULP energy per Si atom -5591.917576 kJ/mol
# Density = 2.446482 g / cm^3
# Si number density = 24.520634 Si / 1000 Ang^3
#
#
#
# Elastic Constant Matrix: (Units=GPa)
#
#
# Indices 1 2 3 4 5 6 
#
# 1 95.4922 -0.4775 -5.5743 0.0000 -11.9787 0.0000
# 2 -0.4775 50.4374 -2.5360 0.0000 3.8015 0.0000
# 3 -5.5743 -2.5360 75.5323 0.0000 -9.5619 0.0000
# 4 0.0000 0.0000 0.0000 263.8622 0.0000 219.2422
# 5 -11.9787 3.8015 -9.5619 0.0000 42.1398 0.0000
# 6 0.0000 0.0000 0.0000 219.2422 0.0000 214.9529
#
#
#
# Elastic Compliance Matrix: (Units=1/GPa)
#
#
# Indices 1 2 3 4 5 6 
#
# 1 0.010971 -0.000091 0.001238 0.000000 0.003408 0.000000
# 2 -0.000091 0.019978 0.000445 0.000000 -0.001727 0.000000
# 3 0.001238 0.000445 0.013781 0.000000 0.003439 0.000000
# 4 0.000000 0.000000 0.000000 0.024848 0.000000 -0.025344
# 5 0.003408 -0.001727 0.003439 0.000000 0.025635 0.000000
# 6 0.000000 0.000000 0.000000 -0.025344 0.000000 0.030501
#
#
# Mechanical properties :
#
#
# Convention : Reuss Voigt Hill
#
# Bulk Modulus (GPa) = 20.86976 22.69846 21.78411
# Shear Modulus (GPa) = 36.10067 119.52763 77.81415
#
# Velocity S-wave (km/s) = 3.84116 6.98939 5.63942
# Velocity P-wave (km/s) = 5.31058 8.62626 7.16291
#
# Compressibility (1/GPa) = 0.04791621
#
# Stress axis : x y z
#
# Youngs Moduli (GPa) = 91.14636 50.05439 72.56352
#
# Poissons Ratio (x) = 0.00454 -0.08984
# Poissons Ratio (y) = 0.00827 -0.03232
# Poissons Ratio (z) = -0.11284 -0.02230
#
# Static dielectric constant tensor:
#      x y z
#    x 1.991010 0.000000 0.000770 
#    y 0.000000 1.891680 0.000000 
#    z 0.000770 0.000000 1.939570 
# 
# From -- ./inp_files/55222.got.cif
#   From: 2010.05.17/outbox.cif.g08.bks.cpg/sg10_28_cif.got.tgz:55222.got - 2010.06.03 11:33:40.
