data_PCOD9148368
_publ_section_title
;
Structure prediction by ZEFSAII (Michael W. Deem and Ramdas Pophale) SiO2 
 PCOD9148368
Probable space group: P 2/M
;
_chemical_formula_sum "Si O2"
_cell_formula_units_Z 28
_cell_length_a 14.105040
_cell_length_b 8.423341
_cell_length_c 16.523858
_cell_angle_alpha 90.000000
_cell_angle_beta 50.027275
_cell_angle_gamma 90.000000
_cell_volume 1504.518449
_symmetry_space_group_name_H-M "P 2/M"
_symmetry_group_IT_number 10
_symmetry_cell_setting 'monoclinic'
loop_
_space_group_symop_operation_xyz
x,y,z
-x,y,-z
-x,-y,-z
x,-y,z
loop_
_atom_site_type_symbol
_atom_site_label
_atom_site_fract_x
_atom_site_fract_y
_atom_site_fract_z
Si Si1 0.935552 0.806919 0.616685
Si Si2 0.491102 0.693544 0.374845
Si Si3 0.452444 0.691928 0.836407
Si Si4 0.971852 0.189326 0.258988
Si Si5 0.699788 0.308666 0.388502
Si Si6 0.672802 0.190175 0.824168
Si Si7 0.226758 0.689399 0.060533
O O1 0.791162 0.765491 0.703725
O O2 0.000000 0.747688 0.500000
O O3 0.000517 0.752699 0.664152
O O4 0.942085 0.000000 0.612397
O O5 0.489110 0.500000 0.374571
O O6 0.506412 0.749571 0.274762
O O7 0.368401 0.744312 0.490990
O O8 0.608693 0.739728 0.365453
O O9 0.453816 0.500000 0.834559
O O10 0.549235 0.748445 0.850596
O O11 0.314839 0.742459 0.938733
O O12 0.838370 0.248144 0.305014
O O13 0.088656 0.242926 0.141524
O O14 0.971914 0.000000 0.260986
O O15 0.702324 0.500000 0.387706
O O16 0.703228 0.259756 0.895445
O O17 0.668559 0.000000 0.833747
O O18 0.217822 0.500000 0.063674
#
# Coordination Sequence:
#
# PCOD9148368 Si02
#       7
#     4   4   4   4   4   4   4
#     4   8  16  30  45  66  99 133 164 197 239 297
#     4   8  17  34  55  79 104 132 170 213 255 303
#     4  10  20  34  53  76 103 135 175 217 252 296
#     4  10  20  33  53  76 103 136 168 211 261 306
#     4   9  17  34  58  78 102 135 168 208 259 312
#     4  10  20  32  50  75 105 140 171 207 256 304
#     4  10  20  35  53  73 101 139 178 213 249 298
#
# _framework density 18.610606000000001
#
# number of rings (size 3 to 8) (size 9 to 14) (size 15 to 20)
#    0.000    2.714    0.000    3.429    2.000    2.857 
#    0.000    2.857    0.000    6.857    0.000    0.000 
#    0.000    0.000    0.000    0.000    0.000    0.000 
#
# Total GULP energy -156149.941498 kJ/mol
# GULP energy per Si atom -5576.783625 kJ/mol
# Density = 1.856825 g / cm^3
# Si number density = 18.610606 Si / 1000 Ang^3
#
#
#
# Elastic Constant Matrix: (Units=GPa)
#
#
# Indices 1 2 3 4 5 6 
#
# 1 81.0786 11.7907 34.9305 0.0000 -29.8479 0.0000
# 2 11.7907 15.2249 11.2317 0.0000 -4.9146 0.0000
# 3 34.9305 11.2317 64.6843 0.0000 -14.5985 0.0000
# 4 0.0000 0.0000 0.0000 13.5029 0.0000 0.2894
# 5 -29.8479 -4.9146 -14.5985 0.0000 22.7318 0.0000
# 6 0.0000 0.0000 0.0000 0.2894 0.0000 4.7225
#
#
#
# Elastic Compliance Matrix: (Units=1/GPa)
#
#
# Indices 1 2 3 4 5 6 
#
# 1 0.027259 -0.006375 -0.006838 0.000000 0.030023 0.000000
# 2 -0.006375 0.078513 -0.009647 0.000000 0.002409 0.000000
# 3 -0.006838 -0.009647 0.021437 0.000000 0.002703 0.000000
# 4 0.000000 0.000000 0.000000 0.074155 0.000000 -0.004544
# 5 0.030023 0.002409 0.002703 0.000000 0.085670 0.000000
# 6 0.000000 0.000000 0.000000 -0.004544 0.000000 0.212030
#
#
# Mechanical properties :
#
#
# Convention : Reuss Voigt Hill
#
# Bulk Modulus (GPa) = 12.27120 30.76596 21.51858
# Shear Modulus (GPa) = 8.74207 15.06043 11.90125
#
# Velocity S-wave (km/s) = 2.16969 2.84780 2.53155
# Velocity P-wave (km/s) = 3.58953 5.23265 4.48694
#
# Compressibility (1/GPa) = 0.08149165
#
# Stress axis : x y z
#
# Youngs Moduli (GPa) = 36.68492 12.73672 46.64769
#
# Poissons Ratio (x) = 0.08119 0.31896
# Poissons Ratio (y) = 0.23385 0.45000
# Poissons Ratio (z) = 0.25084 0.12287
#
# Static dielectric constant tensor:
#      x y z
#    x 1.617700 0.000000 -0.005130 
#    y 0.000000 1.633960 0.000000 
#    z -0.005130 0.000000 1.667980 
# 
# From -- ./inp_files/63659.got.cif
#   From: 2010.05.17/outbox.cif.g08.bks.cpg/sg10_32_cif.got.tgz:63659.got - 2010.06.03 11:33:40.
