data_PCOD9148799
_publ_section_title
;
Structure prediction by ZEFSAII (Michael W. Deem and Ramdas Pophale) SiO2 
 PCOD9148799
Probable space group: P 2/M
;
_chemical_formula_sum "Si O2"
_cell_formula_units_Z 28
_cell_length_a 13.309102
_cell_length_b 12.918859
_cell_length_c 10.076409
_cell_angle_alpha 90.000000
_cell_angle_beta 57.944553
_cell_angle_gamma 90.000000
_cell_volume 1468.372623
_symmetry_space_group_name_H-M "P 2/M"
_symmetry_group_IT_number 10
_symmetry_cell_setting 'monoclinic'
loop_
_space_group_symop_operation_xyz
x,y,z
-x,y,-z
-x,-y,-z
x,-y,z
loop_
_atom_site_type_symbol
_atom_site_label
_atom_site_fract_x
_atom_site_fract_y
_atom_site_fract_z
Si Si1 0.463699 0.119273 0.372253
Si Si2 0.972748 0.000000 0.363204
Si Si3 0.857407 0.780676 0.094795
Si Si4 0.242249 0.379938 0.350331
Si Si5 0.761612 0.615843 0.957382
Si Si6 0.804228 0.804517 0.429507
Si Si7 0.120832 0.000000 0.004780
Si Si8 0.506917 0.298836 0.147023
O O1 0.500000 0.134029 0.500000
O O2 0.323631 0.143272 0.457625
O O3 0.523695 0.203850 0.235634
O O4 0.512053 0.000000 0.680791
O O5 0.899409 0.896058 0.380370
O O6 0.000000 0.000000 0.500000
O O7 0.083597 0.000000 0.184611
O O8 0.818843 0.698048 0.014259
O O9 0.810304 0.762713 0.275367
O O10 0.000000 0.781498 0.000000
O O11 0.815117 0.894844 0.079870
O O12 0.217888 0.500000 0.402562
O O13 0.180526 0.292142 0.482147
O O14 0.383706 0.357246 0.263779
O O15 0.211658 0.365005 0.216557
O O16 0.799825 0.500000 0.963797
O O17 0.619850 0.626852 0.072790
O O18 0.000000 0.000000 0.000000
O O19 0.500000 0.259683 0.000000
#
# Coordination Sequence:
#
# PCOD9148799 Si02
#       8
#     4   2   4   4   4   4   2   4
#     4  10  20  33  53  81 117 150 181 223 282 339
#     4  12  24  38  63  86 113 153 191 237 283 334
#     4  11  22  38  61  82 113 148 192 237 280 333
#     4   9  20  37  60  86 115 148 186 234 286 337
#     4  10  21  38  59  84 113 149 193 234 282 336
#     4  11  21  38  59  84 117 149 190 233 283 337
#     4  10  20  42  60  82 110 146 193 238 278 333
#     4   9  18  36  57  81 111 148 187 229 276 337
#
# _framework density 19.068731
#
# number of rings (size 3 to 8) (size 9 to 14) (size 15 to 20)
#    0.000    1.857    3.571    1.286    2.000    2.857 
#    1.286    0.000    0.000    6.857    0.000    0.000 
#    0.000    0.000    0.000    0.000    0.000    0.000 
#
# Total GULP energy -156333.109607 kJ/mol
# GULP energy per Si atom -5583.325343 kJ/mol
# Density = 1.902533 g / cm^3
# Si number density = 19.068731 Si / 1000 Ang^3
#
#
#
# Elastic Constant Matrix: (Units=GPa)
#
#
# Indices 1 2 3 4 5 6 
#
# 1 34.6716 32.1971 2.4442 0.0000 19.2724 0.0000
# 2 32.1971 169.4663 62.8296 0.0000 33.3904 0.0000
# 3 2.4442 62.8296 77.7370 0.0000 15.9069 0.0000
# 4 0.0000 0.0000 0.0000 12.8627 0.0000 8.4382
# 5 19.2724 33.3904 15.9069 0.0000 26.1059 0.0000
# 6 0.0000 0.0000 0.0000 8.4382 0.0000 10.5397
#
#
#
# Elastic Compliance Matrix: (Units=1/GPa)
#
#
# Indices 1 2 3 4 5 6 
#
# 1 0.057490 -0.007659 0.012638 0.000000 -0.040346 0.000000
# 2 -0.007659 0.010997 -0.007913 0.000000 -0.003590 0.000000
# 3 0.012638 -0.007913 0.021364 0.000000 -0.012227 0.000000
# 4 0.000000 0.000000 0.000000 0.163747 0.000000 -0.131097
# 5 -0.040346 -0.003590 -0.012227 0.000000 0.080133 0.000000
# 6 0.000000 0.000000 0.000000 -0.131097 0.000000 0.199837
#
#
# Mechanical properties :
#
#
# Convention : Reuss Voigt Hill
#
# Bulk Modulus (GPa) = 11.90697 52.97964 32.44330
# Shear Modulus (GPa) = 8.81168 22.19525 15.50346
#
# Velocity S-wave (km/s) = 2.15199 3.41539 2.85446
# Velocity P-wave (km/s) = 3.52598 6.58764 5.28344
#
# Compressibility (1/GPa) = 0.08398442
#
# Stress axis : x y z
#
# Youngs Moduli (GPa) = 17.39435 90.93410 46.80843
#
# Poissons Ratio (x) = 0.69643 -0.59158
# Poissons Ratio (y) = 0.13322 0.37038
# Poissons Ratio (z) = -0.21983 0.71953
#
# Static dielectric constant tensor:
#      x y z
#    x 1.672190 0.000000 -0.019070 
#    y 0.000000 1.643300 0.000000 
#    z -0.019070 0.000000 1.652210 
# 
# From -- ./inp_files/28517.got.cif
#   From: 2010.05.17/outbox.cif.g08.bks.cpg/sg10_15_cif.got.tgz:28517.got - 2010.06.03 11:33:40.
