data_PCOD9148354
_publ_section_title
;
Structure prediction by ZEFSAII (Michael W. Deem and Ramdas Pophale) SiO2 
 PCOD9148354
Probable space group: P 2/M
;
_chemical_formula_sum "Si O2"
_cell_formula_units_Z 32
_cell_length_a 16.692533
_cell_length_b 8.037361
_cell_length_c 25.438323
_cell_angle_alpha 90.000000
_cell_angle_beta 153.246614
_cell_angle_gamma 90.000000
_cell_volume 1536.323311
_symmetry_space_group_name_H-M "P 2/M"
_symmetry_group_IT_number 10
_symmetry_cell_setting 'monoclinic'
loop_
_space_group_symop_operation_xyz
x,y,z
-x,y,-z
-x,-y,-z
x,-y,z
loop_
_atom_site_type_symbol
_atom_site_label
_atom_site_fract_x
_atom_site_fract_y
_atom_site_fract_z
Si Si1 0.096725 0.197045 0.109652
Si Si2 0.445251 0.298064 0.262725
Si Si3 0.428041 0.302064 0.135545
Si Si4 0.928428 0.697960 0.119861
Si Si5 0.840264 0.700369 0.524756
Si Si6 0.946093 0.688330 0.700847
Si Si7 0.303032 0.191965 0.872537
Si Si8 0.203180 0.187827 0.691780
O O1 0.304460 0.232826 0.222149
O O2 0.020399 0.276602 0.117609
O O3 0.065706 0.000000 0.094867
O O4 0.000000 0.261783 0.000000
O O5 0.440380 0.500000 0.260470
O O6 0.391880 0.238081 0.173159
O O7 0.647726 0.246096 0.392167
O O8 0.402120 0.500000 0.121325
O O9 0.635277 0.273680 0.244131
O O10 0.275290 0.236023 0.006349
O O11 0.918582 0.500000 0.124734
O O12 0.049475 0.768101 0.238533
O O13 0.843359 0.500000 0.530118
O O14 0.870198 0.766022 0.602247
O O15 0.002536 0.745129 0.580768
O O16 0.873808 0.500000 0.661558
O O17 0.156601 0.691315 0.811972
O O18 0.271405 0.190301 0.791900
O O19 0.281383 0.000000 0.878504
O O20 0.500000 0.248582 0.000000
O O21 0.192208 0.000000 0.665760
#
# Coordination Sequence:
#
# PCOD9148354 Si02
#       8
#     4   4   4   4   4   4   4   4
#     4  11  23  38  58  85 112 137 169 215 272 326
#     4  10  21  38  60  80 103 142 182 221 267 317
#     4  10  20  33  52  79 107 138 180 224 268 317
#     4  10  20  35  57  83 111 140 174 220 271 321
#     4   9  19  37  57  77 106 144 186 223 259 308
#     4   9  18  32  52  78 104 135 176 221 263 305
#     4   9  17  29  45  68 101 141 180 216 261 316
#     4  10  20  32  49  75 108 146 182 220 268 315
#
# _framework density 20.828949000000001
#
# number of rings (size 3 to 8) (size 9 to 14) (size 15 to 20)
#    0.000    2.250    1.250    1.500    0.000    3.750 
#    0.000    3.125    0.000    3.750    0.000    0.000 
#    0.000    0.000    0.000    0.000    0.000    0.000 
#
# Total GULP energy -178392.621067 kJ/mol
# GULP energy per Si atom -5574.769408 kJ/mol
# Density = 2.078154 g / cm^3
# Si number density = 20.828949 Si / 1000 Ang^3
#
#
#
# Elastic Constant Matrix: (Units=GPa)
#
#
# Indices 1 2 3 4 5 6 
#
# 1 73.7396 -3.5210 4.6248 0.0000 2.3538 0.0000
# 2 -3.5210 15.7847 2.0235 0.0000 -5.6924 0.0000
# 3 4.6248 2.0235 57.7331 0.0000 14.1380 0.0000
# 4 0.0000 0.0000 0.0000 32.6359 0.0000 35.4169
# 5 2.3538 -5.6924 14.1380 0.0000 29.2386 0.0000
# 6 0.0000 0.0000 0.0000 35.4169 0.0000 67.2804
#
#
#
# Elastic Compliance Matrix: (Units=1/GPa)
#
#
# Indices 1 2 3 4 5 6 
#
# 1 0.013792 0.003286 -0.001253 0.000000 0.000135 0.000000
# 2 0.003286 0.071066 -0.006894 0.000000 0.016905 0.000000
# 3 -0.001253 -0.006894 0.020380 0.000000 -0.011096 0.000000
# 4 0.000000 0.000000 0.000000 0.071469 0.000000 -0.037622
# 5 0.000135 0.016905 -0.011096 0.000000 0.042847 0.000000
# 6 0.000000 0.000000 0.000000 -0.037622 0.000000 0.034668
#
#
# Mechanical properties :
#
#
# Convention : Reuss Voigt Hill
#
# Bulk Modulus (GPa) = 10.46937 17.05688 13.76313
# Shear Modulus (GPa) = 16.90433 35.43965 26.17199
#
# Velocity S-wave (km/s) = 2.85191 4.12935 3.54859
# Velocity P-wave (km/s) = 3.98520 5.56257 4.83860
#
# Compressibility (1/GPa) = 0.09551669
#
# Stress axis : x y z
#
# Youngs Moduli (GPa) = 72.50360 14.07150 49.06684
#
# Poissons Ratio (x) = -0.04624 0.06149
# Poissons Ratio (y) = -0.23825 0.33825
# Poissons Ratio (z) = 0.09086 0.09701
#
# Static dielectric constant tensor:
#      x y z
#    x 1.763830 0.000000 -0.043620 
#    y 0.000000 1.761940 0.000000 
#    z -0.043620 0.000000 1.783400 
# 
# From -- ./inp_files/71416.got.cif
#   From: 2010.05.17/outbox.cif.g08.bks.cpg/sg10_36_cif.got.tgz:71416.got - 2010.06.03 11:33:40.
