data_PCOD9148803
_publ_section_title
;
Structure prediction by ZEFSAII (Michael W. Deem and Ramdas Pophale) SiO2 
 PCOD9148803
Probable space group: P 2/M
;
_chemical_formula_sum "Si O2"
_cell_formula_units_Z 32
_cell_length_a 21.884370
_cell_length_b 9.504392
_cell_length_c 15.251303
_cell_angle_alpha 90.000000
_cell_angle_beta 30.613724
_cell_angle_gamma 90.000000
_cell_volume 1615.452924
_symmetry_space_group_name_H-M "P 2/M"
_symmetry_group_IT_number 10
_symmetry_cell_setting 'monoclinic'
loop_
_space_group_symop_operation_xyz
x,y,z
-x,y,-z
-x,-y,-z
x,-y,z
loop_
_atom_site_type_symbol
_atom_site_label
_atom_site_fract_x
_atom_site_fract_y
_atom_site_fract_z
Si Si1 0.974404 0.668252 0.630482
Si Si2 0.383026 0.657906 0.319143
Si Si3 0.799942 0.668852 0.997259
Si Si4 0.577315 0.840417 0.995831
Si Si5 0.440757 0.164015 0.664158
Si Si6 0.121456 0.333498 0.905521
Si Si7 0.761616 0.343588 0.681524
Si Si8 0.303658 0.162550 0.565640
O O1 0.953980 0.500000 0.647999
O O2 0.000000 0.721920 0.500000
O O3 0.104258 0.688089 0.514125
O O4 0.870527 0.720416 0.823236
O O5 0.402595 0.500000 0.328909
O O6 0.505600 0.741494 0.150703
O O7 0.322353 0.648856 0.299072
O O8 0.294549 0.745849 0.489525
O O9 0.781772 0.500000 0.012844
O O10 0.673067 0.745927 0.166556
O O11 0.878377 0.691276 0.989655
O O12 0.586411 0.000000 0.016318
O O13 0.500000 0.843846 0.000000
O O14 0.704023 0.770394 0.816539
O O15 0.500000 0.214840 0.500000
O O16 0.554842 0.167675 0.587158
O O17 0.404398 0.000000 0.696871
O O18 0.148568 0.500000 0.859528
O O19 0.225681 0.236989 0.736474
O O20 0.000000 0.304850 0.000000
O O21 0.761603 0.500000 0.723351
O O22 0.269040 0.000000 0.598001
#
# Coordination Sequence:
#
# PCOD9148803 Si02
#       8
#     4   4   4   4   4   4   4   4
#     4   9  19  36  57  84 115 147 191 245 294 343
#     4  10  20  33  53  82 115 150 193 239 294 356
#     4  10  21  37  62  91 118 155 202 247 296 353
#     4   9  17  31  51  76 110 146 184 230 282 341
#     4  10  21  40  61  82 116 156 193 241 303 363
#     4  10  22  38  59  87 122 157 193 241 295 351
#     4   9  18  33  56  79 109 152 193 237 294 354
#     4  11  23  38  58  85 118 154 195 240 295 358
#
# _framework density 19.808686999999999
#
# number of rings (size 3 to 8) (size 9 to 14) (size 15 to 20)
#    0.000    2.250    1.250    1.125    1.750    4.500 
#    0.000    1.875    0.000    0.750    0.000    0.000 
#    0.000    0.000    0.000    0.000    0.000    0.000 
#
# Total GULP energy -178414.421446 kJ/mol
# GULP energy per Si atom -5575.450670 kJ/mol
# Density = 1.976360 g / cm^3
# Si number density = 19.808687 Si / 1000 Ang^3
#
#
#
# Elastic Constant Matrix: (Units=GPa)
#
#
# Indices 1 2 3 4 5 6 
#
# 1 35.7403 27.7631 35.5119 0.0000 -0.5366 0.0000
# 2 27.7631 90.2455 63.3865 0.0000 2.9194 0.0000
# 3 35.5119 63.3865 154.3013 0.0000 7.0380 0.0000
# 4 0.0000 0.0000 0.0000 -19.5890 0.0000 -5.6287
# 5 -0.5366 2.9194 7.0380 0.0000 27.9757 0.0000
# 6 0.0000 0.0000 0.0000 -5.6287 0.0000 11.6862
#
#
#
# Elastic Compliance Matrix: (Units=1/GPa)
#
#
# Indices 1 2 3 4 5 6 
#
# 1 0.040494 -0.008311 -0.006050 0.000000 0.003166 0.000000
# 2 -0.008311 0.017280 -0.005156 0.000000 -0.000666 0.000000
# 3 -0.006050 -0.005156 0.010088 0.000000 -0.002116 0.000000
# 4 0.000000 0.000000 0.000000 -0.044843 0.000000 -0.021599
# 5 0.003166 -0.000666 -0.002116 0.000000 0.036408 0.000000
# 6 0.000000 0.000000 0.000000 -0.021599 0.000000 0.075168
#
#
# Mechanical properties :
#
#
# Convention : Reuss Voigt Hill
#
# Bulk Modulus (GPa) = 34.68665 59.29001 46.98833
# Shear Modulus (GPa) = 27.28701 14.25630 20.77165
#
# Velocity S-wave (km/s) = 3.71553 2.68563 3.24174
# Velocity P-wave (km/s) = 5.99631 6.29390 6.14690
#
# Compressibility (1/GPa) = 0.02882954
#
# Stress axis : x y z
#
# Youngs Moduli (GPa) = 24.69489 57.86932 99.13097
#
# Poissons Ratio (x) = 0.48093 0.59975
# Poissons Ratio (y) = 0.20523 0.51109
# Poissons Ratio (z) = 0.14941 0.29836
#
# Static dielectric constant tensor:
#      x y z
#    x 1.771700 0.000000 0.022750 
#    y 0.000000 1.684260 0.000000 
#    z 0.022750 0.000000 1.683650 
# 
# From -- ./inp_files/71418.got.cif
#   From: 2010.05.17/outbox.cif.g08.bks.cpg/sg10_36_cif.got.tgz:71418.got - 2010.06.03 11:33:40.
