data_PCOD9148305
_publ_section_title
;
Structure prediction by ZEFSAII (Michael W. Deem and Ramdas Pophale) SiO2 
 PCOD9148305
Probable space group: P 2/M
;
_chemical_formula_sum "Si O2"
_cell_formula_units_Z 32
_cell_length_a 9.363236
_cell_length_b 14.387484
_cell_length_c 22.760543
_cell_angle_alpha 90.000000
_cell_angle_beta 140.774980
_cell_angle_gamma 90.000000
_cell_volume 1938.934260
_symmetry_space_group_name_H-M "P 2/M"
_symmetry_group_IT_number 10
_symmetry_cell_setting 'monoclinic'
loop_
_space_group_symop_operation_xyz
x,y,z
-x,y,-z
-x,-y,-z
x,-y,z
loop_
_atom_site_type_symbol
_atom_site_label
_atom_site_fract_x
_atom_site_fract_y
_atom_site_fract_z
Si Si1 0.057257 0.612017 0.114869
Si Si2 0.240839 0.391293 0.600040
Si Si3 0.901271 0.890787 0.561300
Si Si4 0.257037 0.737370 0.399502
Si Si5 0.361755 0.109059 0.646150
Si Si6 0.170367 0.609012 0.716624
Si Si7 0.335703 0.733085 0.289767
Si Si8 0.643568 0.388085 0.905981
O O1 0.065405 0.500000 0.129244
O O2 0.143715 0.673961 0.195842
O O3 0.226867 0.630478 0.114084
O O4 0.809208 0.638344 0.011810
O O5 0.262302 0.500000 0.590778
O O6 0.238468 0.384881 0.669688
O O7 0.445127 0.333713 0.639002
O O8 0.000000 0.356617 0.500000
O O9 0.805323 0.826988 0.581633
O O10 0.750761 0.879916 0.454443
O O11 0.158948 0.865243 0.626030
O O12 0.897988 0.000000 0.575188
O O13 0.500000 0.702793 0.500000
O O14 0.271765 0.759024 0.335362
O O15 0.058739 0.663502 0.346002
O O16 0.575303 0.176527 0.716750
O O17 0.413790 0.000000 0.670504
O O18 0.137334 0.500000 0.719602
O O19 0.387284 0.646490 0.821615
O O20 0.629135 0.500000 0.903966
#
# Coordination Sequence:
#
# PCOD9148305 Si02
#       8
#     4   4   4   4   4   4   4   4
#     4   9  17  31  54  83 104 128 172 227 274 303
#     4  10  20  32  48  69  97 140 184 212 243 297
#     4   9  19  37  56  73  98 135 178 221 259 300
#     4  12  24  34  46  75 113 148 174 205 255 315
#     4   9  19  35  57  78  97 130 178 224 259 302
#     4  10  20  35  51  70 102 145 184 215 250 301
#     4  12  21  30  51  77 109 137 167 214 265 314
#     4   8  15  32  56  77  98 129 179 231 268 300
#
# _framework density 16.503912
#
# number of rings (size 3 to 8) (size 9 to 14) (size 15 to 20)
#    0.000    2.125    2.500    3.375    1.750    2.000 
#    0.000    0.625    0.000    2.250    0.000    2.625 
#    0.000    2.000    0.000    0.000    0.000    0.000 
#
# Total GULP energy -178530.253138 kJ/mol
# GULP energy per Si atom -5579.070411 kJ/mol
# Density = 1.646635 g / cm^3
# Si number density = 16.503912 Si / 1000 Ang^3
#
#
#
# Elastic Constant Matrix: (Units=GPa)
#
#
# Indices 1 2 3 4 5 6 
#
# 1 72.9633 33.6812 34.9850 0.0000 9.8346 0.0000
# 2 33.6812 54.4901 31.3254 0.0000 10.5192 0.0000
# 3 34.9850 31.3254 108.1977 0.0000 14.6185 0.0000
# 4 0.0000 0.0000 0.0000 13.3223 0.0000 0.6591
# 5 9.8346 10.5192 14.6185 0.0000 18.3419 0.0000
# 6 0.0000 0.0000 0.0000 0.6591 0.0000 -29.3830
#
#
#
# Elastic Compliance Matrix: (Units=1/GPa)
#
#
# Indices 1 2 3 4 5 6 
#
# 1 0.020318 -0.010200 -0.003289 0.000000 -0.002423 0.000000
# 2 -0.010200 0.028374 -0.003874 0.000000 -0.007716 0.000000
# 3 -0.003289 -0.003874 0.012203 0.000000 -0.005740 0.000000
# 4 0.000000 0.000000 0.000000 0.074979 0.000000 0.001682
# 5 -0.002423 -0.007716 -0.005740 0.000000 0.064819 0.000000
# 6 0.000000 0.000000 0.000000 0.001682 0.000000 -0.033996
#
#
# Mechanical properties :
#
#
# Convention : Reuss Voigt Hill
#
# Bulk Modulus (GPa) = 38.21526 48.40382 43.30954
# Shear Modulus (GPa) = 23.79296 9.50019 16.64658
#
# Velocity S-wave (km/s) = 3.80103 2.40184 3.17936
# Velocity P-wave (km/s) = 6.51685 6.08967 6.30688
#
# Compressibility (1/GPa) = 0.02616755
#
# Stress axis : x y z
#
# Youngs Moduli (GPa) = 49.21801 35.24410 81.94660
#
# Poissons Ratio (x) = 0.35950 0.26953
# Poissons Ratio (y) = 0.50203 0.31747
# Poissons Ratio (z) = 0.16188 0.13654
#
# Static dielectric constant tensor:
#      x y z
#    x 1.562950 0.000000 0.007300 
#    y 0.000000 1.557580 0.000000 
#    z 0.007300 0.000000 1.575700 
# 
# From -- ./inp_files/29105.got.cif
#   From: 2010.05.17/outbox.cif.g08.bks.cpg/sg10_15_cif.got.tgz:29105.got - 2010.06.03 11:33:40.
