data_PCOD9148963
_publ_section_title
;
Structure prediction by ZEFSAII (Michael W. Deem and Ramdas Pophale) SiO2 
 PCOD9148963
Probable space group: P 2/M
;
_chemical_formula_sum "Si O2"
_cell_formula_units_Z 32
_cell_length_a 22.859517
_cell_length_b 8.437073
_cell_length_c 29.177189
_cell_angle_alpha 90.000000
_cell_angle_beta 18.643527
_cell_angle_gamma 90.000000
_cell_volume 1798.940178
_symmetry_space_group_name_H-M "P 2/M"
_symmetry_group_IT_number 10
_symmetry_cell_setting 'monoclinic'
loop_
_space_group_symop_operation_xyz
x,y,z
-x,y,-z
-x,-y,-z
x,-y,z
loop_
_atom_site_type_symbol
_atom_site_label
_atom_site_fract_x
_atom_site_fract_y
_atom_site_fract_z
Si Si1 0.498083 0.689899 0.302591
Si Si2 0.511858 0.691512 0.938898
Si Si3 0.210194 0.809968 0.841493
Si Si4 0.510931 0.189616 0.189829
Si Si5 0.791470 0.808569 0.658759
Si Si6 0.209125 0.691619 0.090584
Si Si7 0.793042 0.306999 0.407414
Si Si8 0.488730 0.691789 0.560871
O O1 0.499583 0.500000 0.301025
O O2 0.670800 0.747235 0.204202
O O3 0.501200 0.751456 0.248792
O O4 0.317846 0.742569 0.464849
O O5 0.514658 0.500000 0.936984
O O6 0.690314 0.750648 0.779587
O O7 0.500000 0.746731 0.000000
O O8 0.337405 0.742461 0.037874
O O9 0.313755 0.752645 0.718833
O O10 0.212878 0.000000 0.840519
O O11 0.000000 0.755788 0.000000
O O12 0.336430 0.243535 0.288856
O O13 0.513323 0.000000 0.187776
O O14 0.689456 0.250967 0.030455
O O15 0.000000 0.752749 0.500000
O O16 0.792498 0.000000 0.658239
O O17 0.207187 0.500000 0.091532
O O18 0.001159 0.748722 0.249716
O O19 0.797533 0.500000 0.404311
O O20 0.667207 0.259440 0.457723
O O21 0.500000 0.745100 0.500000
O O22 0.482110 0.500000 0.566176
#
# Coordination Sequence:
#
# PCOD9148963 Si02
#       8
#     4   4   4   4   4   4   4   4
#     4  10  20  35  55  77 101 132 170 208 251 302
#     4   9  18  31  48  72  99 127 162 206 252 295
#     4  10  21  36  53  76 106 136 168 208 252 297
#     4  10  20  34  51  74 104 133 167 211 252 295
#     4   9  19  35  52  71  99 136 173 207 247 298
#     4   9  17  32  51  70  97 131 165 202 247 298
#     4   8  16  31  50  72  96 124 162 205 243 287
#     4   9  18  33  52  74 100 131 169 208 246 293
#
# _framework density 17.788250999999999
#
# number of rings (size 3 to 8) (size 9 to 14) (size 15 to 20)
#    0.000    2.750    0.000    1.875    0.000    4.250 
#    0.000    5.625    0.000    0.000    0.000    0.000 
#    0.000    0.000    0.000    0.000    0.000    0.000 
#
# Total GULP energy -178453.234591 kJ/mol
# GULP energy per Si atom -5576.663581 kJ/mol
# Density = 1.774776 g / cm^3
# Si number density = 17.788251 Si / 1000 Ang^3
#
#
#
# Elastic Constant Matrix: (Units=GPa)
#
#
# Indices 1 2 3 4 5 6 
#
# 1 154.8359 20.8937 114.5415 0.0000 33.0947 0.0000
# 2 20.8937 13.9606 23.9933 0.0000 1.4212 0.0000
# 3 114.5415 23.9933 206.0330 0.0000 -1.2993 0.0000
# 4 0.0000 0.0000 0.0000 37.5043 0.0000 -1.2853
# 5 33.0947 1.4212 -1.2993 0.0000 21.2510 0.0000
# 6 0.0000 0.0000 0.0000 -1.2853 0.0000 11.5057
#
#
#
# Elastic Compliance Matrix: (Units=1/GPa)
#
#
# Indices 1 2 3 4 5 6 
#
# 1 0.028560 -0.013056 -0.014638 0.000000 -0.044499 0.000000
# 2 -0.013056 0.096466 -0.003889 0.000000 0.013643 0.000000
# 3 -0.014638 -0.003889 0.013595 0.000000 0.023887 0.000000
# 4 0.000000 0.000000 0.000000 0.026766 0.000000 0.002990
# 5 -0.044499 0.013643 0.023887 0.000000 0.116903 0.000000
# 6 0.000000 0.000000 0.000000 0.002990 0.000000 0.087247
#
#
# Mechanical properties :
#
#
# Convention : Reuss Voigt Hill
#
# Bulk Modulus (GPa) = 13.25310 77.07627 45.16468
# Shear Modulus (GPa) = 10.92050 28.41228 19.66639
#
# Velocity S-wave (km/s) = 2.48042 4.00090 3.32864
# Velocity P-wave (km/s) = 3.95853 8.04778 6.34180
#
# Compressibility (1/GPa) = 0.07545404
#
# Stress axis : x y z
#
# Youngs Moduli (GPa) = 35.01427 10.36638 73.55755
#
# Poissons Ratio (x) = 0.13534 1.07671
# Poissons Ratio (y) = 0.45715 0.28609
# Poissons Ratio (z) = 0.51253 0.04032
#
# Static dielectric constant tensor:
#      x y z
#    x 1.591950 0.000000 -0.011790 
#    y 0.000000 1.604970 0.000000 
#    z -0.011790 0.000000 1.593270 
# 
# From -- ./inp_files/93569.got.cif
#   From: 2010.05.17/outbox.cif.g08.bks.cpg/sg10_47_cif.got.tgz:93569.got - 2010.06.03 11:33:40.
