data_PCOD9148292
_publ_section_title
;
Structure prediction by ZEFSAII (Michael W. Deem and Ramdas Pophale) SiO2 
 PCOD9148292
Probable space group: P 2/M
;
_chemical_formula_sum "Si O2"
_cell_formula_units_Z 32
_cell_length_a 22.383076
_cell_length_b 9.397523
_cell_length_c 12.546972
_cell_angle_alpha 90.000000
_cell_angle_beta 137.997028
_cell_angle_gamma 90.000000
_cell_volume 1766.070387
_symmetry_space_group_name_H-M "P 2/M"
_symmetry_group_IT_number 10
_symmetry_cell_setting 'monoclinic'
loop_
_space_group_symop_operation_xyz
x,y,z
-x,y,-z
-x,-y,-z
x,-y,z
loop_
_atom_site_type_symbol
_atom_site_label
_atom_site_fract_x
_atom_site_fract_y
_atom_site_fract_z
Si Si1 0.766241 0.656610 0.816156
Si Si2 0.899266 0.844107 0.901813
Si Si3 0.127341 0.669094 0.754426
Si Si4 0.706961 0.167598 0.928345
Si Si5 0.503258 0.830021 0.631242
Si Si6 0.350023 0.338302 0.551233
Si Si7 0.065960 0.330482 0.428965
Si Si8 0.201919 0.837338 0.457833
O O1 0.763828 0.500000 0.862249
O O2 0.865098 0.714415 0.926752
O O3 0.720152 0.774961 0.826342
O O4 0.716017 0.648919 0.637740
O O5 0.841101 0.846112 0.717109
O O6 0.888599 0.000000 0.940402
O O7 0.000000 0.827392 0.000000
O O8 0.138458 0.500000 0.784570
O O9 0.102923 0.689609 0.598034
O O10 0.038696 0.712873 0.703865
O O11 0.217258 0.750375 0.905113
O O12 0.602381 0.194950 0.809708
O O13 0.722136 0.000000 0.956012
O O14 0.500000 0.788555 0.500000
O O15 0.433466 0.745814 0.611930
O O16 0.484568 0.000000 0.609178
O O17 0.371985 0.500000 0.614511
O O18 0.293747 0.250856 0.564650
O O19 0.069746 0.500000 0.409646
O O20 0.129298 0.243029 0.434145
O O21 0.217094 0.000000 0.514393
#
# Coordination Sequence:
#
# PCOD9148292 Si02
#       8
#     4   4   4   4   4   4   4   4
#     4  10  20  32  47  71 103 139 179 218 258 307
#     4   9  19  33  46  67 102 140 176 215 257 309
#     4   9  20  38  58  81 109 141 177 223 272 321
#     4  11  22  34  53  79 108 143 178 220 270 318
#     4  10  20  35  54  76 108 148 182 217 267 320
#     4  10  20  34  53  77 106 141 183 224 260 310
#     4   9  19  38  60  80 107 142 179 220 272 324
#     4  10  20  33  53  78 106 141 179 220 267 317
#
# _framework density 18.119323999999999
#
# number of rings (size 3 to 8) (size 9 to 14) (size 15 to 20)
#    0.000    2.250    1.250    2.250    1.750    4.000 
#    0.000    1.250    0.000    0.750    0.000    5.250 
#    0.000    0.000    0.000    0.000    0.000    0.000 
#
# Total GULP energy -178339.969868 kJ/mol
# GULP energy per Si atom -5573.124058 kJ/mol
# Density = 1.807808 g / cm^3
# Si number density = 18.119324 Si / 1000 Ang^3
#
#
#
# Elastic Constant Matrix: (Units=GPa)
#
#
# Indices 1 2 3 4 5 6 
#
# 1 64.4408 53.7308 26.1207 0.0000 29.5305 0.0000
# 2 53.7308 91.7715 53.4616 0.0000 34.8619 0.0000
# 3 26.1207 53.4616 74.1435 0.0000 23.5423 0.0000
# 4 0.0000 0.0000 0.0000 21.5066 0.0000 6.8175
# 5 29.5305 34.8619 23.5423 0.0000 31.2318 0.0000
# 6 0.0000 0.0000 0.0000 6.8175 0.0000 18.8525
#
#
#
# Elastic Compliance Matrix: (Units=1/GPa)
#
#
# Indices 1 2 3 4 5 6 
#
# 1 0.036680 -0.017444 0.005897 0.000000 -0.019655 0.000000
# 2 -0.017444 0.033450 -0.014928 0.000000 -0.009591 0.000000
# 3 0.005897 -0.014928 0.024523 0.000000 -0.007398 0.000000
# 4 0.000000 0.000000 0.000000 0.052518 0.000000 -0.018992
# 5 -0.019655 -0.009591 -0.007398 0.000000 0.066885 0.000000
# 6 0.000000 0.000000 0.000000 -0.018992 0.000000 0.059911
#
#
# Mechanical properties :
#
#
# Convention : Reuss Voigt Hill
#
# Bulk Modulus (GPa) = 23.97992 55.22021 39.60006
# Shear Modulus (GPa) = 14.67056 20.78767 17.72912
#
# Velocity S-wave (km/s) = 2.84855 3.39081 3.13144
# Velocity P-wave (km/s) = 4.90735 6.77289 5.91415
#
# Compressibility (1/GPa) = 0.04170156
#
# Stress axis : x y z
#
# Youngs Moduli (GPa) = 27.26271 29.89550 40.77830
#
# Poissons Ratio (x) = 0.52151 -0.24047
# Poissons Ratio (y) = 0.47558 0.60875
# Poissons Ratio (z) = -0.16077 0.44629
#
# Static dielectric constant tensor:
#      x y z
#    x 1.624010 0.000000 0.002980 
#    y 0.000000 1.636200 0.000000 
#    z 0.002980 0.000000 1.629810 
# 
# From -- ./inp_files/70032.got.cif
#   From: 2010.05.17/outbox.cif.g08.bks.cpg/sg10_36_cif.got.tgz:70032.got - 2010.06.03 11:33:40.
