data_PCOD9148923
_publ_section_title
;
Structure prediction by ZEFSAII (Michael W. Deem and Ramdas Pophale) SiO2 
 PCOD9148923
Probable space group: P 2/M
;
_chemical_formula_sum "Si O2"
_cell_formula_units_Z 32
_cell_length_a 15.841189
_cell_length_b 8.765249
_cell_length_c 21.205708
_cell_angle_alpha 90.000000
_cell_angle_beta 136.212773
_cell_angle_gamma 90.000000
_cell_volume 2037.510087
_symmetry_space_group_name_H-M "P 2/M"
_symmetry_group_IT_number 10
_symmetry_cell_setting 'monoclinic'
loop_
_space_group_symop_operation_xyz
x,y,z
-x,y,-z
-x,-y,-z
x,-y,z
loop_
_atom_site_type_symbol
_atom_site_label
_atom_site_fract_x
_atom_site_fract_y
_atom_site_fract_z
Si Si1 0.457304 0.683214 0.282683
Si Si2 0.194238 0.315061 0.097019
Si Si3 0.863022 0.182361 0.706100
Si Si4 0.093768 0.175524 0.609809
Si Si5 0.896753 0.680641 0.586118
Si Si6 0.713457 0.816441 0.383583
Si Si7 0.006919 0.315482 0.107044
Si Si8 0.591141 0.816577 0.606281
O O1 0.464441 0.500000 0.283857
O O2 0.332709 0.735311 0.180952
O O3 0.577789 0.754868 0.317723
O O4 0.445911 0.735127 0.349188
O O5 0.194590 0.500000 0.096717
O O6 0.112859 0.271834 0.113936
O O7 0.119616 0.268046 0.994615
O O8 0.881909 0.255325 0.648092
O O9 0.728732 0.223837 0.660279
O O10 0.961088 0.241346 0.809453
O O11 0.867877 0.000000 0.703270
O O12 0.219121 0.229580 0.645263
O O13 0.000000 0.174820 0.500000
O O14 0.027809 0.273306 0.627446
O O15 0.105972 0.000000 0.637806
O O16 0.882041 0.500000 0.577447
O O17 0.794703 0.754109 0.485335
O O18 0.716098 0.000000 0.387633
O O19 0.008267 0.500000 0.113514
O O20 0.500000 0.778052 0.500000
O O21 0.585029 0.000000 0.612602
#
# Coordination Sequence:
#
# PCOD9148923 Si02
#       8
#     4   4   4   4   4   4   4   4
#     4  11  20  31  49  73  96 124 165 204 239 283
#     4   8  16  30  50  71  93 124 159 203 250 288
#     4  11  21  32  47  70  99 130 164 201 242 288
#     4   8  16  32  51  69  94 128 160 194 240 288
#     4  11  21  32  50  74  98 127 164 204 240 281
#     4  10  20  34  50  70 100 134 162 194 241 290
#     4   9  16  32  52  68  92 126 163 201 246 291
#     4  10  21  34  45  60  91 134 168 195 234 282
#
# _framework density 15.705444
#
# number of rings (size 3 to 8) (size 9 to 14) (size 15 to 20)
#    0.000    2.250    1.250    4.500    0.000    4.500 
#    0.000    2.500    0.000    0.000    0.000    0.875 
#    0.000    7.000    0.000    0.000    0.000    0.000 
#
# Total GULP energy -178475.361743 kJ/mol
# GULP energy per Si atom -5577.355054 kJ/mol
# Density = 1.566970 g / cm^3
# Si number density = 15.705444 Si / 1000 Ang^3
#
#
#
# Elastic Constant Matrix: (Units=GPa)
#
#
# Indices 1 2 3 4 5 6 
#
# 1 87.0632 29.4163 40.9747 0.0000 28.3064 0.0000
# 2 29.4163 41.3860 21.9131 0.0000 9.0312 0.0000
# 3 40.9747 21.9131 95.7658 0.0000 20.1873 0.0000
# 4 0.0000 0.0000 0.0000 44.2187 0.0000 14.2252
# 5 28.3064 9.0312 20.1873 0.0000 15.3210 0.0000
# 6 0.0000 0.0000 0.0000 14.2252 0.0000 33.1281
#
#
#
# Elastic Compliance Matrix: (Units=1/GPa)
#
#
# Indices 1 2 3 4 5 6 
#
# 1 0.033035 -0.011642 -0.000071 0.000000 -0.054077 0.000000
# 2 -0.011642 0.032994 -0.004158 0.000000 0.007539 0.000000
# 3 -0.000071 -0.004158 0.015064 0.000000 -0.017266 0.000000
# 4 0.000000 0.000000 0.000000 0.026240 0.000000 -0.011267
# 5 -0.054077 0.007539 -0.017266 0.000000 0.183487 0.000000
# 6 0.000000 0.000000 0.000000 -0.011267 0.000000 0.035024
#
#
# Mechanical properties :
#
#
# Convention : Reuss Voigt Hill
#
# Bulk Modulus (GPa) = 20.26304 45.42479 32.84392
# Shear Modulus (GPa) = 13.36777 27.32764 20.34770
#
# Velocity S-wave (km/s) = 2.92062 4.17587 3.60333
# Velocity P-wave (km/s) = 4.92984 7.22747 6.18626
#
# Compressibility (1/GPa) = 0.04935094
#
# Stress axis : x y z
#
# Youngs Moduli (GPa) = 30.27115 30.30857 66.38559
#
# Poissons Ratio (x) = 0.35285 0.00471
# Poissons Ratio (y) = 0.35242 0.27600
# Poissons Ratio (z) = 0.00215 0.12601
#
# Static dielectric constant tensor:
#      x y z
#    x 1.519340 0.000000 0.019420 
#    y 0.000000 1.526460 0.000000 
#    z 0.019420 0.000000 1.518230 
# 
# From -- ./inp_files/66105.got.cif
#   From: 2010.05.17/outbox.cif.g08.bks.cpg/sg10_34_cif.got.tgz:66105.got - 2010.06.03 11:33:40.
