data_PCOD9148809
_publ_section_title
;
Structure prediction by ZEFSAII (Michael W. Deem and Ramdas Pophale) SiO2 
 PCOD9148809
Probable space group: P 2/M
;
_chemical_formula_sum "Si O2"
_cell_formula_units_Z 32
_cell_length_a 24.957194
_cell_length_b 7.675700
_cell_length_c 14.318529
_cell_angle_alpha 90.000000
_cell_angle_beta 149.172965
_cell_angle_gamma 90.000000
_cell_volume 1405.600958
_symmetry_space_group_name_H-M "P 2/M"
_symmetry_group_IT_number 10
_symmetry_cell_setting 'monoclinic'
loop_
_space_group_symop_operation_xyz
x,y,z
-x,y,-z
-x,-y,-z
x,-y,z
loop_
_atom_site_type_symbol
_atom_site_label
_atom_site_fract_x
_atom_site_fract_y
_atom_site_fract_z
Si Si1 0.112738 0.299348 0.183746
Si Si2 0.797558 0.794066 0.334966
Si Si3 0.401957 0.208439 0.411780
Si Si4 0.613352 0.289800 0.204176
Si Si5 0.047047 0.211698 0.277759
Si Si6 0.107923 0.700715 0.706336
Si Si7 0.822948 0.797021 0.986031
Si Si8 0.662507 0.289281 0.487808
O O1 0.106520 0.500000 0.143479
O O2 0.118140 0.292923 0.304083
O O3 0.221009 0.221408 0.311535
O O4 0.000000 0.211863 0.000000
O O5 0.700740 0.758377 0.258631
O O6 0.901069 0.738552 0.546968
O O7 0.805079 0.709942 0.244853
O O8 0.802637 0.000000 0.327618
O O9 0.500000 0.277678 0.500000
O O10 0.410838 0.241234 0.535773
O O11 0.399427 0.000000 0.393342
O O12 0.289591 0.280054 0.208197
O O13 0.611774 0.500000 0.206006
O O14 0.633989 0.227232 0.341232
O O15 0.500000 0.229155 0.000000
O O16 0.927421 0.274175 0.092202
O O17 0.050885 0.000000 0.276741
O O18 0.086998 0.500000 0.698745
O O19 0.149811 0.786481 0.863379
O O20 0.000000 0.775148 0.500000
O O21 0.819860 0.000000 0.955764
O O22 0.668866 0.500000 0.493516
#
# Coordination Sequence:
#
# PCOD9148809 Si02
#       8
#     4   4   4   4   4   4   4   4
#     4  10  20  33  53  83 116 149 187 233 287 348
#     4  11  22  37  59  86 118 156 197 243 295 353
#     4  10  23  42  63  87 116 154 200 248 294 344
#     4  10  22  41  63  88 121 159 200 245 293 350
#     4  10  20  33  54  83 114 151 190 234 292 352
#     4  11  23  37  58  88 121 159 201 247 301 362
#     4  10  21  39  60  85 120 157 197 247 301 357
#     4  10  21  38  60  86 116 152 192 238 293 345
#
# _framework density 22.766064
#
# number of rings (size 3 to 8) (size 9 to 14) (size 15 to 20)
#    0.000    1.750    2.500    1.500    0.000    4.750 
#    0.000    2.500    0.000    0.000    0.000    0.000 
#    0.000    0.000    0.000    0.000    0.000    0.000 
#
# Total GULP energy -178769.402543 kJ/mol
# GULP energy per Si atom -5586.543829 kJ/mol
# Density = 2.271425 g / cm^3
# Si number density = 22.766064 Si / 1000 Ang^3
#
#
#
# Elastic Constant Matrix: (Units=GPa)
#
#
# Indices 1 2 3 4 5 6 
#
# 1 158.3081 -0.1728 46.1717 0.0000 16.5139 0.0000
# 2 -0.1728 51.5277 10.1075 0.0000 3.6419 0.0000
# 3 46.1717 10.1075 104.8052 0.0000 16.8733 0.0000
# 4 0.0000 0.0000 0.0000 11.2004 0.0000 -4.4139
# 5 16.5139 3.6419 16.8733 0.0000 36.1477 0.0000
# 6 0.0000 0.0000 0.0000 -4.4139 0.0000 27.7718
#
#
#
# Elastic Compliance Matrix: (Units=1/GPa)
#
#
# Indices 1 2 3 4 5 6 
#
# 1 0.007409 0.000760 -0.003006 0.000000 -0.002058 0.000000
# 2 0.000760 0.019907 -0.002028 0.000000 -0.001406 0.000000
# 3 -0.003006 -0.002028 0.011686 0.000000 -0.003877 0.000000
# 4 0.000000 0.000000 0.000000 0.095248 0.000000 0.015138
# 5 -0.002058 -0.001406 -0.003877 0.000000 0.030556 0.000000
# 6 0.000000 0.000000 0.000000 0.015138 0.000000 0.038414
#
#
# Mechanical properties :
#
#
# Convention : Reuss Voigt Hill
#
# Bulk Modulus (GPa) = 32.83756 47.42819 40.13288
# Shear Modulus (GPa) = 22.53077 32.25963 27.39520
#
# Velocity S-wave (km/s) = 3.14931 3.76840 3.47268
# Velocity P-wave (km/s) = 5.26112 6.30971 5.80913
#
# Compressibility (1/GPa) = 0.03045293
#
# Stress axis : x y z
#
# Youngs Moduli (GPa) = 134.97029 50.23404 85.57551
#
# Poissons Ratio (x) = -0.03818 0.25724
# Poissons Ratio (y) = -0.10257 0.17357
# Poissons Ratio (z) = 0.40572 0.10189
#
# Static dielectric constant tensor:
#      x y z
#    x 1.870450 0.000000 -0.010050 
#    y 0.000000 1.826400 0.000000 
#    z -0.010050 0.000000 1.887180 
# 
# From -- ./inp_files/71576.got.cif
#   From: 2010.05.17/outbox.cif.g08.bks.cpg/sg10_36_cif.got.tgz:71576.got - 2010.06.03 11:33:40.
