data_PCOD9148590
_publ_section_title
;
Structure prediction by ZEFSAII (Michael W. Deem and Ramdas Pophale) SiO2 
 PCOD9148590
Probable space group: P 2/M
;
_chemical_formula_sum "Si O2"
_cell_formula_units_Z 32
_cell_length_a 14.426472
_cell_length_b 7.718595
_cell_length_c 13.207610
_cell_angle_alpha 90.000000
_cell_angle_beta 85.575490
_cell_angle_gamma 90.000000
_cell_volume 1466.312135
_symmetry_space_group_name_H-M "P 2/M"
_symmetry_group_IT_number 10
_symmetry_cell_setting 'monoclinic'
loop_
_space_group_symop_operation_xyz
x,y,z
-x,y,-z
-x,-y,-z
x,-y,z
loop_
_atom_site_type_symbol
_atom_site_label
_atom_site_fract_x
_atom_site_fract_y
_atom_site_fract_z
Si Si1 0.700827 0.702067 0.483622
Si Si2 0.948063 0.198214 0.598901
Si Si3 0.749777 0.292367 0.148491
Si Si4 0.809371 0.789066 0.769045
Si Si5 0.378574 0.799193 0.295880
Si Si6 0.584447 0.796526 0.295616
Si Si7 0.131204 0.708136 0.662301
Si Si8 0.102751 0.707156 0.024867
O O1 0.709249 0.500000 0.507499
O O2 0.659515 0.792256 0.585597
O O3 0.634671 0.717290 0.390213
O O4 0.801649 0.765228 0.435677
O O5 0.032582 0.201393 0.671348
O O6 0.000000 0.285890 0.500000
O O7 0.861192 0.276627 0.663379
O O8 0.925900 0.000000 0.573089
O O9 0.739316 0.500000 0.139831
O O10 0.649634 0.223442 0.191531
O O11 0.813917 0.255511 0.240249
O O12 0.810132 0.225519 0.049296
O O13 0.702941 0.727533 0.769280
O O14 0.867917 0.737282 0.861951
O O15 0.809794 0.000000 0.764635
O O16 0.481652 0.721726 0.286660
O O17 0.389387 0.000000 0.265362
O O18 0.576327 0.000000 0.320143
O O19 0.119388 0.500000 0.657275
O O20 0.099534 0.500000 0.007434
O O21 0.000000 0.772814 0.000000
#
# Coordination Sequence:
#
# PCOD9148590 Si02
#       8
#     4   4   4   4   4   4   4   4
#     4  10  20  33  52  80 112 146 183 223 267 316
#     4  10  20  33  50  73 103 140 175 209 256 310
#     4   9  19  36  56  79 106 134 170 219 269 316
#     4  10  22  38  55  79 110 141 179 226 271 320
#     4  10  21  37  54  75 108 147 184 224 269 317
#     4  10  20  34  55  81 108 143 184 223 267 318
#     4   9  18  32  50  74 103 134 170 213 261 313
#     4  10  21  39  62  84 108 139 175 219 271 326
#
# _framework density 21.823457999999999
#
# number of rings (size 3 to 8) (size 9 to 14) (size 15 to 20)
#    0.000    2.250    0.000    3.375    0.000    9.000 
#    0.000    0.625    0.000    3.750    0.000    0.000 
#    0.000    0.000    0.000    0.000    0.000    0.000 
#
# Total GULP energy -178584.204802 kJ/mol
# GULP energy per Si atom -5580.756400 kJ/mol
# Density = 2.177379 g / cm^3
# Si number density = 21.823458 Si / 1000 Ang^3
#
#
#
# Elastic Constant Matrix: (Units=GPa)
#
#
# Indices 1 2 3 4 5 6 
#
# 1 145.4095 4.8556 33.1577 0.0000 4.4902 0.0000
# 2 4.8556 36.0655 -3.6038 0.0000 0.4316 0.0000
# 3 33.1577 -3.6038 86.6264 0.0000 -7.5556 0.0000
# 4 0.0000 0.0000 0.0000 18.8471 0.0000 2.2754
# 5 4.4902 0.4316 -7.5556 0.0000 26.9602 0.0000
# 6 0.0000 0.0000 0.0000 2.2754 0.0000 20.4246
#
#
#
# Elastic Compliance Matrix: (Units=1/GPa)
#
#
# Indices 1 2 3 4 5 6 
#
# 1 0.007718 -0.001333 -0.003198 0.000000 -0.002160 0.000000
# 2 -0.001333 0.028074 0.001700 0.000000 0.000249 0.000000
# 3 -0.003198 0.001700 0.013205 0.000000 0.004206 0.000000
# 4 0.000000 0.000000 0.000000 0.053782 0.000000 -0.005992
# 5 -0.002160 0.000249 0.004206 0.000000 0.038626 0.000000
# 6 0.000000 0.000000 0.000000 -0.005992 0.000000 0.049628
#
#
# Mechanical properties :
#
#
# Convention : Reuss Voigt Hill
#
# Bulk Modulus (GPa) = 23.07608 37.43559 30.25583
# Shear Modulus (GPa) = 23.68101 28.82584 26.25343
#
# Velocity S-wave (km/s) = 3.29769 3.63831 3.47218
# Velocity P-wave (km/s) = 5.00965 5.90261 5.47437
#
# Compressibility (1/GPa) = 0.04333491
#
# Stress axis : x y z
#
# Youngs Moduli (GPa) = 129.57475 35.62060 75.72635
#
# Poissons Ratio (x) = 0.04747 0.24216
# Poissons Ratio (y) = 0.17269 -0.12872
# Poissons Ratio (z) = 0.41436 -0.06055
#
# Static dielectric constant tensor:
#      x y z
#    x 1.839050 0.000000 0.000880 
#    y 0.000000 1.814340 0.000000 
#    z 0.000880 0.000000 1.810930 
# 
# From -- ./inp_files/49792.got.cif
#   From: 2010.05.17/outbox.cif.g08.bks.cpg/sg10_25_cif.got.tgz:49792.got - 2010.06.03 11:33:40.
