data_PCOD9148729
_publ_section_title
;
Structure prediction by ZEFSAII (Michael W. Deem and Ramdas Pophale) SiO2 
 PCOD9148729
Probable space group: P 2/M
;
_chemical_formula_sum "Si O2"
_cell_formula_units_Z 32
_cell_length_a 26.442802
_cell_length_b 9.317893
_cell_length_c 16.283989
_cell_angle_alpha 90.000000
_cell_angle_beta 151.605759
_cell_angle_gamma 90.000000
_cell_volume 1907.959717
_symmetry_space_group_name_H-M "P 2/M"
_symmetry_group_IT_number 10
_symmetry_cell_setting 'monoclinic'
loop_
_space_group_symop_operation_xyz
x,y,z
-x,y,-z
-x,-y,-z
x,-y,z
loop_
_atom_site_type_symbol
_atom_site_label
_atom_site_fract_x
_atom_site_fract_y
_atom_site_fract_z
Si Si1 0.584189 0.672070 0.239430
Si Si2 0.654276 0.671587 0.157938
Si Si3 0.915810 0.172071 0.260568
Si Si4 0.902061 0.829583 0.918703
Si Si5 0.835883 0.670178 0.984951
Si Si6 0.335883 0.170178 0.484951
Si Si7 0.402061 0.329583 0.418703
Si Si8 0.154276 0.828413 0.657936
O O1 0.593639 0.500000 0.264742
O O2 0.643277 0.709371 0.238549
O O3 0.629530 0.755507 0.381584
O O4 0.459578 0.704462 0.046299
O O5 0.668468 0.500000 0.173604
O O6 0.750001 0.750000 0.250002
O O7 0.856722 0.209372 0.261448
O O8 0.040421 0.204462 0.453700
O O9 0.906360 0.000000 0.235257
O O10 0.870469 0.255506 0.118416
O O11 0.897394 0.741125 0.996170
O O12 0.789520 0.806109 0.712248
O O13 0.910033 0.000000 0.948625
O O14 0.000000 0.790196 0.000000
O O15 0.854611 0.500000 0.014507
O O16 0.710480 0.693892 0.787752
O O17 0.397394 0.241126 0.496170
O O18 0.354611 0.000000 0.514506
O O19 0.500000 0.290195 0.500000
O O20 0.410034 0.500000 0.448625
O O21 0.168466 0.000000 0.673602
#
# Coordination Sequence:
#
# PCOD9148729 Si02
#       8
#     4   4   4   4   4   4   4   4
#     4   9  19  36  53  71 102 139 167 198 250 306
#     4   9  19  35  54  75 100 133 170 206 247 296
#     4   9  19  36  53  71 102 139 167 198 250 306
#     4   9  19  36  54  72 100 136 168 202 250 303
#     4  10  20  33  52  78 102 128 168 212 249 290
#     4  10  20  33  52  78 102 128 168 212 249 290
#     4   9  19  36  54  72 100 136 168 202 250 303
#     4   9  19  35  54  75 100 133 170 206 247 296
#
# _framework density 16.771843000000001
#
# number of rings (size 3 to 8) (size 9 to 14) (size 15 to 20)
#    0.000    2.750    0.000    2.250    0.000    5.500 
#    0.000   10.000    0.000    0.000    0.000    0.000 
#    0.000    0.000    0.000    0.000    0.000    0.000 
#
# Total GULP energy -178487.447457 kJ/mol
# GULP energy per Si atom -5577.732733 kJ/mol
# Density = 1.673367 g / cm^3
# Si number density = 16.771843 Si / 1000 Ang^3
#
#
#
# Elastic Constant Matrix: (Units=GPa)
#
#
# Indices 1 2 3 4 5 6 
#
# 1 183.3819 89.2861 107.3576 0.0000 3.4700 0.0000
# 2 89.2861 63.6808 68.5016 0.0000 -10.9226 0.0000
# 3 107.3576 68.5016 87.4872 0.0000 -18.7026 0.0000
# 4 0.0000 0.0000 0.0000 33.1052 0.0000 -2.1649
# 5 3.4700 -10.9226 -18.7026 0.0000 37.9032 0.0000
# 6 0.0000 0.0000 0.0000 -2.1649 0.0000 36.5939
#
#
#
# Elastic Compliance Matrix: (Units=1/GPa)
#
#
# Indices 1 2 3 4 5 6 
#
# 1 0.032796 -0.007917 -0.039324 0.000000 -0.024688 0.000000
# 2 -0.007917 0.105686 -0.074196 0.000000 -0.005430 0.000000
# 3 -0.039324 -0.074196 0.127419 0.000000 0.045092 0.000000
# 4 0.000000 0.000000 0.000000 0.030324 0.000000 0.001794
# 5 -0.024688 -0.005430 0.045092 0.000000 0.049328 0.000000
# 6 0.000000 0.000000 0.000000 0.001794 0.000000 0.027433
#
#
# Mechanical properties :
#
#
# Convention : Reuss Voigt Hill
#
# Bulk Modulus (GPa) = 43.42650 96.09336 69.75993
# Shear Modulus (GPa) = 8.01878 26.14745 17.08311
#
# Velocity S-wave (km/s) = 2.18894 3.95271 3.19495
# Velocity P-wave (km/s) = 5.68659 8.84595 7.43600
#
# Compressibility (1/GPa) = 0.02302741
#
# Stress axis : x y z
#
# Youngs Moduli (GPa) = 30.49115 9.46202 7.84810
#
# Poissons Ratio (x) = 0.07491 0.30862
# Poissons Ratio (y) = 0.24141 0.58230
# Poissons Ratio (z) = 1.19902 0.70204
#
# Static dielectric constant tensor:
#      x y z
#    x 1.540150 0.000000 0.005060 
#    y 0.000000 1.552070 0.000000 
#    z 0.005060 0.000000 1.547430 
# 
# From -- ./inp_files/66541.got.cif
#   From: 2010.05.17/outbox.cif.g08.bks.cpg/sg10_34_cif.got.tgz:66541.got - 2010.06.03 11:33:40.
