data_PCOD9148547
_publ_section_title
;
Structure prediction by ZEFSAII (Michael W. Deem and Ramdas Pophale) SiO2 
 PCOD9148547
Probable space group: P 2/M
;
_chemical_formula_sum "Si O2"
_cell_formula_units_Z 32
_cell_length_a 13.555896
_cell_length_b 14.317313
_cell_length_c 19.450798
_cell_angle_alpha 90.000000
_cell_angle_beta 150.875194
_cell_angle_gamma 90.000000
_cell_volume 1837.387177
_symmetry_space_group_name_H-M "P 2/M"
_symmetry_group_IT_number 10
_symmetry_cell_setting 'monoclinic'
loop_
_space_group_symop_operation_xyz
x,y,z
-x,y,-z
-x,-y,-z
x,-y,z
loop_
_atom_site_type_symbol
_atom_site_label
_atom_site_fract_x
_atom_site_fract_y
_atom_site_fract_z
Si Si1 0.079666 0.739698 0.868802
Si Si2 0.793117 0.785968 0.912152
Si Si3 0.819222 0.890725 0.666811
Si Si4 0.309791 0.390338 0.337413
Si Si5 0.770213 0.387188 0.359773
Si Si6 0.553388 0.389928 0.952589
Si Si7 0.419905 0.109221 0.335940
Si Si8 0.418356 0.606844 0.244912
O O1 0.992037 0.814639 0.761965
O O2 0.887287 0.674961 0.774619
O O3 0.173992 0.803224 0.987735
O O4 0.252518 0.671831 0.946679
O O5 0.627300 0.831972 0.761094
O O6 0.750452 0.675440 0.886708
O O7 0.000000 0.809369 0.000000
O O8 0.728657 0.873561 0.689015
O O9 0.640041 0.875523 0.502996
O O10 0.877123 0.000000 0.699005
O O11 0.500000 0.360090 0.500000
O O12 0.262274 0.500000 0.324178
O O13 0.396016 0.386578 0.312741
O O14 0.785246 0.500000 0.367362
O O15 0.633446 0.361064 0.210694
O O16 0.634252 0.364495 0.344035
O O17 0.000000 0.350404 0.500000
O O18 0.593769 0.500000 0.963590
O O19 0.500000 0.380501 0.000000
O O20 0.398228 0.000000 0.305327
O O21 0.381469 0.500000 0.201708
#
# Coordination Sequence:
#
# PCOD9148547 Si02
#       8
#     4   4   4   4   4   4   4   4
#     4  12  22  33  56  81 111 141 181 226 272 329
#     4  12  21  31  49  81 111 145 177 214 269 322
#     4   9  19  35  55  77 106 147 184 219 266 323
#     4  10  22  34  47  75 114 152 184 217 265 323
#     4   9  18  34  55  73  97 139 186 226 262 308
#     4  10  22  40  57  78 109 143 185 232 276 321
#     4   9  19  35  52  74 111 150 181 216 264 322
#     4  10  20  33  49  72 109 146 182 217 259 320
#
# _framework density 17.416035000000001
#
# number of rings (size 3 to 8) (size 9 to 14) (size 15 to 20)
#    0.000    1.875    3.750    1.125    3.500    2.500 
#    0.000    3.750    0.000    0.375    0.000    0.000 
#    0.000    3.000    0.000    0.000    0.000    0.000 
#
# Total GULP energy -178331.420553 kJ/mol
# GULP energy per Si atom -5572.856892 kJ/mol
# Density = 1.737640 g / cm^3
# Si number density = 17.416035 Si / 1000 Ang^3
#
#
#
# Elastic Constant Matrix: (Units=GPa)
#
#
# Indices 1 2 3 4 5 6 
#
# 1 62.9411 27.8639 43.8813 0.0000 4.4393 0.0000
# 2 27.8639 67.1214 54.1447 0.0000 -0.9977 0.0000
# 3 43.8813 54.1447 108.4442 0.0000 -0.5009 0.0000
# 4 0.0000 0.0000 0.0000 17.2642 0.0000 1.3740
# 5 4.4393 -0.9977 -0.5009 0.0000 9.8308 0.0000
# 6 0.0000 0.0000 0.0000 1.3740 0.0000 10.6456
#
#
#
# Elastic Compliance Matrix: (Units=1/GPa)
#
#
# Indices 1 2 3 4 5 6 
#
# 1 0.023810 -0.003752 -0.007815 0.000000 -0.011531 0.000000
# 2 -0.003752 0.025572 -0.011232 0.000000 0.003717 0.000000
# 3 -0.007815 -0.011232 0.018007 0.000000 0.003307 0.000000
# 4 0.000000 0.000000 0.000000 0.058524 0.000000 -0.007554
# 5 -0.011531 0.003717 0.003307 0.000000 0.107474 0.000000
# 6 0.000000 0.000000 0.000000 -0.007554 0.000000 0.094911
#
#
# Mechanical properties :
#
#
# Convention : Reuss Voigt Hill
#
# Bulk Modulus (GPa) = 45.88977 54.47627 50.18302
# Shear Modulus (GPa) = 13.11786 15.05591 14.08689
#
# Velocity S-wave (km/s) = 2.74744 2.94340 2.84711
# Velocity P-wave (km/s) = 6.03911 6.54972 6.29959
#
# Compressibility (1/GPa) = 0.02179135
#
# Stress axis : x y z
#
# Youngs Moduli (GPa) = 41.99846 39.10547 55.53414
#
# Poissons Ratio (x) = 0.14672 0.43399
# Poissons Ratio (y) = 0.15757 0.62378
# Poissons Ratio (z) = 0.32821 0.43925
#
# Static dielectric constant tensor:
#      x y z
#    x 1.596310 0.000000 -0.023500 
#    y 0.000000 1.618600 0.000000 
#    z -0.023500 0.000000 1.632990 
# 
# From -- ./inp_files/76969.got.cif
#   From: 2010.05.17/outbox.cif.g08.bks.cpg/sg10_39_cif.got.tgz:76969.got - 2010.06.03 11:33:40.
