data_PCOD9148014
_publ_section_title
;
Structure prediction by ZEFSAII (Michael W. Deem and Ramdas Pophale) SiO2 
 PCOD9148014
Probable space group: P 2/M
;
_chemical_formula_sum "Si O2"
_cell_formula_units_Z 32
_cell_length_a 10.945092
_cell_length_b 19.285710
_cell_length_c 14.409228
_cell_angle_alpha 90.000000
_cell_angle_beta 29.441680
_cell_angle_gamma 90.000000
_cell_volume 1495.038311
_symmetry_space_group_name_H-M "P 2/M"
_symmetry_group_IT_number 10
_symmetry_cell_setting 'monoclinic'
loop_
_space_group_symop_operation_xyz
x,y,z
-x,y,-z
-x,-y,-z
x,-y,z
loop_
_atom_site_type_symbol
_atom_site_label
_atom_site_fract_x
_atom_site_fract_y
_atom_site_fract_z
Si Si1 0.045581 0.186071 0.278271
Si Si2 0.463481 0.581499 0.868780
Si Si3 0.634710 0.184833 0.109873
Si Si4 0.317172 0.289227 0.207531
Si Si5 0.491816 0.794109 0.395548
Si Si6 0.262057 0.080363 0.271277
Si Si7 0.910142 0.580727 0.236327
Si Si8 0.472665 0.630501 0.652131
O O1 0.074919 0.252366 0.327773
O O2 0.214848 0.126833 0.211551
O O3 0.759522 0.167676 0.468878
O O4 0.136965 0.197196 0.112088
O O5 0.501788 0.500000 0.859843
O O6 0.671888 0.630197 0.776309
O O7 0.455800 0.600729 0.765811
O O8 0.184895 0.603592 0.086087
O O9 0.440238 0.246293 0.210268
O O10 0.686288 0.186385 0.185534
O O11 0.487274 0.115535 0.178191
O O12 0.500000 0.277199 0.000000
O O13 0.500000 0.807901 0.500000
O O14 0.467313 0.711195 0.400500
O O15 0.000000 0.086186 0.500000
O O16 0.307620 0.000000 0.221882
O O17 0.936662 0.500000 0.194328
O O18 0.698552 0.590282 0.453168
O O19 0.787530 0.618397 0.229417
#
# Coordination Sequence:
#
# PCOD9148014 Si02
#       8
#     4   4   4   4   4   4   4   4
#     4  10  23  41  63  91 129 163 202 257 312 358
#     4  11  22  37  57  81 114 154 199 256 318 382
#     4  10  21  40  61  93 126 160 199 256 303 360
#     4   9  20  36  59  82 113 154 197 245 307 372
#     4  12  24  39  61  91 120 163 211 254 310 372
#     4  10  19  37  70 105 133 166 207 251 299 354
#     4  10  21  37  56  79 111 149 200 265 319 360
#     4  11  21  35  56  81 110 153 205 256 306 368
#
# _framework density 21.404135
#
# number of rings (size 3 to 8) (size 9 to 14) (size 15 to 20)
#    0.000    1.625    3.750    3.000    3.500    2.750 
#    2.250    0.000    0.000    2.250    0.000    1.750 
#    0.000    0.000    0.000    0.000    0.000    0.000 
#
# Total GULP energy -178629.478923 kJ/mol
# GULP energy per Si atom -5582.171216 kJ/mol
# Density = 2.135542 g / cm^3
# Si number density = 21.404135 Si / 1000 Ang^3
#
#
#
# Elastic Constant Matrix: (Units=GPa)
#
#
# Indices 1 2 3 4 5 6 
#
# 1 77.1449 32.4509 20.7043 0.0000 20.9289 0.0000
# 2 32.4509 101.1674 6.1558 0.0000 -4.0486 0.0000
# 3 20.7043 6.1558 69.3531 0.0000 15.1799 0.0000
# 4 0.0000 0.0000 0.0000 12.9696 0.0000 0.7221
# 5 20.9289 -4.0486 15.1799 0.0000 26.6120 0.0000
# 6 0.0000 0.0000 0.0000 0.7221 0.0000 9.9237
#
#
#
# Elastic Compliance Matrix: (Units=1/GPa)
#
#
# Indices 1 2 3 4 5 6 
#
# 1 0.021052 -0.007290 -0.002024 0.000000 -0.016511 0.000000
# 2 -0.007290 0.012588 -0.000703 0.000000 0.008049 0.000000
# 3 -0.002024 -0.000703 0.016866 0.000000 -0.008136 0.000000
# 4 0.000000 0.000000 0.000000 0.077417 0.000000 -0.005633
# 5 -0.016511 0.008049 -0.008136 0.000000 0.056427 0.000000
# 6 0.000000 0.000000 0.000000 -0.005633 0.000000 0.101179
#
#
# Mechanical properties :
#
#
# Convention : Reuss Voigt Hill
#
# Bulk Modulus (GPa) = 32.81640 40.69859 36.75750
# Shear Modulus (GPa) = 15.83684 22.45804 19.14744
#
# Velocity S-wave (km/s) = 2.72305 3.24271 2.99418
# Velocity P-wave (km/s) = 5.02512 5.75116 5.40035
#
# Compressibility (1/GPa) = 0.03047256
#
# Stress axis : x y z
#
# Youngs Moduli (GPa) = 47.50236 79.44127 59.28971
#
# Poissons Ratio (x) = 0.57914 0.11998
# Poissons Ratio (y) = 0.34630 0.04167
# Poissons Ratio (z) = 0.09613 0.05583
#
# Static dielectric constant tensor:
#      x y z
#    x 1.812680 0.000000 0.009050 
#    y 0.000000 1.755710 0.000000 
#    z 0.009050 0.000000 1.828460 
# 
# From -- ./inp_files/65380.got.cif
#   From: 2010.05.17/outbox.cif.g08.bks.cpg/sg10_33_cif.got.tgz:65380.got - 2010.06.03 11:33:40.
