data_PCOD9148362
_publ_section_title
;
Structure prediction by ZEFSAII (Michael W. Deem and Ramdas Pophale) SiO2 
 PCOD9148362
Probable space group: P 2/M
;
_chemical_formula_sum "Si O2"
_cell_formula_units_Z 32
_cell_length_a 12.032377
_cell_length_b 15.044380
_cell_length_c 18.766177
_cell_angle_alpha 90.000000
_cell_angle_beta 27.507678
_cell_angle_gamma 90.000000
_cell_volume 1568.985438
_symmetry_space_group_name_H-M "P 2/M"
_symmetry_group_IT_number 10
_symmetry_cell_setting 'monoclinic'
loop_
_space_group_symop_operation_xyz
x,y,z
-x,y,-z
-x,-y,-z
x,-y,z
loop_
_atom_site_type_symbol
_atom_site_label
_atom_site_fract_x
_atom_site_fract_y
_atom_site_fract_z
Si Si1 0.978168 0.293404 0.288481
Si Si2 0.260298 0.686016 0.850567
Si Si3 0.534508 0.096965 0.864522
Si Si4 0.519069 0.602681 0.575258
Si Si5 0.695427 0.399027 0.794467
Si Si6 0.907992 0.096786 0.783313
Si Si7 0.276672 0.743007 0.335436
Si Si8 0.149359 0.598302 0.063425
O O1 0.757964 0.340713 0.452652
O O2 0.205290 0.329295 0.204377
O O3 0.947691 0.187768 0.305186
O O4 0.009986 0.329819 0.190194
O O5 0.310536 0.638249 0.746448
O O6 0.516235 0.732488 0.722343
O O7 0.212903 0.621051 0.945473
O O8 0.000000 0.736606 0.000000
O O9 0.723658 0.095424 0.821886
O O10 0.597282 0.183582 0.785404
O O11 0.555677 0.000000 0.815788
O O12 0.267943 0.103883 0.048651
O O13 0.500000 0.609190 0.500000
O O14 0.557289 0.500000 0.571259
O O15 0.789446 0.500000 0.750862
O O16 0.753030 0.352328 0.686447
O O17 0.408131 0.405413 0.955705
O O18 0.032261 0.000000 0.714358
O O19 0.000000 0.774338 0.500000
O O20 0.035498 0.500000 0.134295
#
# Coordination Sequence:
#
# PCOD9148362 Si02
#       8
#     4   4   4   4   4   4   4   4
#     4  12  20  33  59  86 120 157 197 254 310 355
#     4  11  24  41  61  84 120 169 212 250 299 364
#     4   9  18  34  56  87 121 156 199 248 304 366
#     4  11  25  42  60  85 116 155 209 262 302 352
#     4  10  20  32  49  81 121 159 195 235 294 363
#     4   9  18  32  56  86 119 156 198 247 303 366
#     4  11  22  37  59  88 124 160 199 254 310 366
#     4  10  21  34  54  85 118 158 203 245 292 356
#
# _framework density 20.395346
#
# number of rings (size 3 to 8) (size 9 to 14) (size 15 to 20)
#    0.000    1.625    1.250    5.625    1.750    4.000 
#    0.000    0.000    0.000    0.750    0.000    1.750 
#    0.000    0.000    0.000    0.000    0.000    0.000 
#
# Total GULP energy -178272.607395 kJ/mol
# GULP energy per Si atom -5571.018981 kJ/mol
# Density = 2.034892 g / cm^3
# Si number density = 20.395346 Si / 1000 Ang^3
#
#
#
# Elastic Constant Matrix: (Units=GPa)
#
#
# Indices 1 2 3 4 5 6 
#
# 1 71.2956 29.9302 29.8855 0.0000 0.7776 0.0000
# 2 29.9302 95.3137 22.6215 0.0000 0.2644 0.0000
# 3 29.8855 22.6215 85.0756 0.0000 0.4637 0.0000
# 4 0.0000 0.0000 0.0000 13.8221 0.0000 -1.8378
# 5 0.7776 0.2644 0.4637 0.0000 23.4712 0.0000
# 6 0.0000 0.0000 0.0000 -1.8378 0.0000 16.2154
#
#
#
# Elastic Compliance Matrix: (Units=1/GPa)
#
#
# Indices 1 2 3 4 5 6 
#
# 1 0.018060 -0.004445 -0.005160 0.000000 -0.000446 0.000000
# 2 -0.004445 0.012293 -0.001707 0.000000 0.000043 0.000000
# 3 -0.005160 -0.001707 0.014021 0.000000 -0.000087 0.000000
# 4 0.000000 0.000000 0.000000 0.073455 0.000000 0.008325
# 5 -0.000446 0.000043 -0.000087 0.000000 0.042621 0.000000
# 6 0.000000 0.000000 0.000000 0.008325 0.000000 0.062613
#
#
# Mechanical properties :
#
#
# Convention : Reuss Voigt Hill
#
# Bulk Modulus (GPa) = 45.97862 46.28435 46.13149
# Shear Modulus (GPa) = 19.76773 21.98492 20.87633
#
# Velocity S-wave (km/s) = 3.11662 3.28676 3.20282
# Velocity P-wave (km/s) = 5.96185 6.09480 6.02869
#
# Compressibility (1/GPa) = 0.02174924
#
# Stress axis : x y z
#
# Youngs Moduli (GPa) = 55.37103 81.34929 71.32054
#
# Poissons Ratio (x) = 0.36162 0.36799
# Poissons Ratio (y) = 0.24614 0.12176
# Poissons Ratio (z) = 0.28570 0.13889
#
# Static dielectric constant tensor:
#      x y z
#    x 1.821190 0.000000 -0.035390 
#    y 0.000000 1.725710 0.000000 
#    z -0.035390 0.000000 1.770200 
# 
# From -- ./inp_files/77000.got.cif
#   From: 2010.05.17/outbox.cif.g08.bks.cpg/sg10_39_cif.got.tgz:77000.got - 2010.06.03 11:33:40.
