data_PCOD9148486
_publ_section_title
;
Structure prediction by ZEFSAII (Michael W. Deem and Ramdas Pophale) SiO2 
 PCOD9148486
Probable space group: P 2/M
;
_chemical_formula_sum "Si O2"
_cell_formula_units_Z 32
_cell_length_a 21.308335
_cell_length_b 8.724586
_cell_length_c 15.466478
_cell_angle_alpha 90.000000
_cell_angle_beta 137.555223
_cell_angle_gamma 90.000000
_cell_volume 1940.492071
_symmetry_space_group_name_H-M "P 2/M"
_symmetry_group_IT_number 10
_symmetry_cell_setting 'monoclinic'
loop_
_space_group_symop_operation_xyz
x,y,z
-x,y,-z
-x,-y,-z
x,-y,z
loop_
_atom_site_type_symbol
_atom_site_label
_atom_site_fract_x
_atom_site_fract_y
_atom_site_fract_z
Si Si1 0.174739 0.175649 0.470430
Si Si2 0.332116 0.813932 0.508827
Si Si3 0.808712 0.814040 0.786058
Si Si4 0.879056 0.317599 0.128317
Si Si5 0.970101 0.823582 0.837964
Si Si6 0.017201 0.684352 0.420260
Si Si7 0.714854 0.816294 0.869017
Si Si8 0.483834 0.316140 0.382716
O O1 0.273844 0.233314 0.534927
O O2 0.107510 0.172596 0.317500
O O3 0.116520 0.265869 0.482494
O O4 0.186141 0.000000 0.510516
O O5 0.267832 0.766945 0.362139
O O6 0.432127 0.744723 0.591069
O O7 0.337212 0.000000 0.514958
O O8 0.910566 0.763545 0.858532
O O9 0.771914 0.767455 0.841274
O O10 0.812492 0.000000 0.787461
O O11 0.869331 0.500000 0.121623
O O12 0.945811 0.271053 0.116042
O O13 0.936379 0.264106 0.271405
O O14 0.778691 0.242164 0.012269
O O15 0.001126 0.000000 0.884851
O O16 0.014463 0.500000 0.417899
O O17 0.000000 0.740175 0.500000
O O18 0.612806 0.747688 0.752676
O O19 0.708981 0.000000 0.864732
O O20 0.500000 0.266098 0.500000
O O21 0.482315 0.500000 0.380824
#
# Coordination Sequence:
#
# PCOD9148486 Si02
#       8
#     4   4   4   4   4   4   4   4
#     4   8  15  27  47  74  99 122 155 200 239 277
#     4   9  16  30  49  68  93 127 167 204 241 283
#     4   8  15  27  45  65  85 119 165 203 228 267
#     4  10  20  33  46  66  97 124 153 198 242 281
#     4   8  14  28  46  63  87 121 161 194 227 275
#     4   9  18  33  53  75 100 131 160 186 231 299
#     4  11  21  33  49  65  88 127 170 203 239 285
#     4  11  22  33  46  69  97 126 165 213 253 279
#
# _framework density 16.490663000000001
#
# number of rings (size 3 to 8) (size 9 to 14) (size 15 to 20)
#    0.000    2.750    1.250    2.625    0.000    2.250 
#    0.000    5.625    0.000    0.000    0.000    0.875 
#    0.000    7.000    0.000    0.000    0.000    0.000 
#
# Total GULP energy -178308.835753 kJ/mol
# GULP energy per Si atom -5572.151117 kJ/mol
# Density = 1.645313 g / cm^3
# Si number density = 16.490663 Si / 1000 Ang^3
#
#
#
# Elastic Constant Matrix: (Units=GPa)
#
#
# Indices 1 2 3 4 5 6 
#
# 1 122.4117 28.9692 70.3537 0.0000 12.0023 0.0000
# 2 28.9692 28.7024 27.0789 0.0000 6.2027 0.0000
# 3 70.3537 27.0789 90.9360 0.0000 20.2213 0.0000
# 4 0.0000 0.0000 0.0000 18.7403 0.0000 7.4803
# 5 12.0023 6.2027 20.2213 0.0000 21.5122 0.0000
# 6 0.0000 0.0000 0.0000 7.4803 0.0000 41.5409
#
#
#
# Elastic Compliance Matrix: (Units=1/GPa)
#
#
# Indices 1 2 3 4 5 6 
#
# 1 0.015611 -0.006096 -0.011020 0.000000 0.003406 0.000000
# 2 -0.006096 0.050837 -0.010012 0.000000 -0.001846 0.000000
# 3 -0.011020 -0.010012 0.025911 0.000000 -0.015321 0.000000
# 4 0.000000 0.000000 0.000000 0.057493 0.000000 -0.010353
# 5 0.003406 -0.001846 -0.015321 0.000000 0.059518 0.000000
# 6 0.000000 0.000000 0.000000 -0.010353 0.000000 0.025937
#
#
# Mechanical properties :
#
#
# Convention : Reuss Voigt Hill
#
# Bulk Modulus (GPa) = 26.24398 54.98374 40.61386
# Shear Modulus (GPa) = 16.54182 24.06857 20.30520
#
# Velocity S-wave (km/s) = 3.17061 3.82452 3.51282
# Velocity P-wave (km/s) = 5.41782 7.27443 6.41366
#
# Compressibility (1/GPa) = 0.03810398
#
# Stress axis : x y z
#
# Youngs Moduli (GPa) = 64.05573 19.67068 38.59398
#
# Poissons Ratio (x) = 0.11991 0.42532
# Poissons Ratio (y) = 0.39047 0.38639
# Poissons Ratio (z) = 0.70591 0.19694
#
# Static dielectric constant tensor:
#      x y z
#    x 1.566470 0.000000 -0.000230 
#    y 0.000000 1.556740 0.000000 
#    z -0.000230 0.000000 1.572480 
# 
# From -- ./inp_files/70023.got.cif
#   From: 2010.05.17/outbox.cif.g08.bks.cpg/sg10_36_cif.got.tgz:70023.got - 2010.06.03 11:33:40.
