data_PCOD9148214
_publ_section_title
;
Structure prediction by ZEFSAII (Michael W. Deem and Ramdas Pophale) SiO2 
 PCOD9148214
Probable space group: P 2/M
;
_chemical_formula_sum "Si O2"
_cell_formula_units_Z 32
_cell_length_a 14.884930
_cell_length_b 7.435930
_cell_length_c 24.293655
_cell_angle_alpha 90.000000
_cell_angle_beta 30.583488
_cell_angle_gamma 90.000000
_cell_volume 1368.095346
_symmetry_space_group_name_H-M "P 2/M"
_symmetry_group_IT_number 10
_symmetry_cell_setting 'monoclinic'
loop_
_space_group_symop_operation_xyz
x,y,z
-x,y,-z
-x,-y,-z
x,-y,z
loop_
_atom_site_type_symbol
_atom_site_label
_atom_site_fract_x
_atom_site_fract_y
_atom_site_fract_z
Si Si1 0.367804 0.219518 0.688402
Si Si2 0.392723 0.281255 0.141805
Si Si3 0.141672 0.792143 0.706140
Si Si4 0.774143 0.220045 0.458565
Si Si5 0.125998 0.792569 0.479352
Si Si6 0.444270 0.288112 0.237599
Si Si7 0.797370 0.216623 0.109719
Si Si8 0.758622 0.716798 0.890257
O O1 0.255029 0.284906 0.695887
O O2 0.570481 0.269257 0.574613
O O3 0.286472 0.280900 0.788708
O O4 0.360445 0.000000 0.693169
O O5 0.385937 0.500000 0.146948
O O6 0.383245 0.218412 0.209750
O O7 0.257254 0.222350 0.165361
O O8 0.583332 0.231171 0.015806
O O9 0.167339 0.713417 0.631852
O O10 0.934164 0.784165 0.826486
O O11 0.198480 0.000000 0.671836
O O12 0.877778 0.286287 0.457628
O O13 0.784628 0.000000 0.453654
O O14 0.323627 0.791218 0.349897
O O15 0.000000 0.708083 0.500000
O O16 0.069973 0.000000 0.514921
O O17 0.410668 0.500000 0.256414
O O18 0.652638 0.262082 0.139337
O O19 0.804681 0.000000 0.106665
O O20 0.000000 0.280673 0.000000
O O21 0.762791 0.500000 0.887634
#
# Coordination Sequence:
#
# PCOD9148214 Si02
#       8
#     4   4   4   4   4   4   4   4
#     4   9  17  33  54  76 105 140 176 217 268 325
#     4   8  18  36  56  74 103 145 181 209 260 329
#     4  10  20  31  53  85 106 128 176 231 272 308
#     4   9  17  33  54  76 105 140 176 217 268 325
#     4  10  21  37  58  82 111 148 187 226 276 337
#     4  11  22  37  58  85 113 144 184 233 278 322
#     4  10  21  37  58  82 111 148 187 226 276 337
#     4   9  18  37  57  74 102 144 179 210 261 328
#
# _framework density 23.390183
#
# number of rings (size 3 to 8) (size 9 to 14) (size 15 to 20)
#    0.000    2.500    1.250    1.500    3.500    2.000 
#    0.000    3.750    0.000    0.750    0.000    0.000 
#    0.000    0.000    0.000    0.000    0.000    0.000 
#
# Total GULP energy -178784.023223 kJ/mol
# GULP energy per Si atom -5587.000726 kJ/mol
# Density = 2.333695 g / cm^3
# Si number density = 23.390183 Si / 1000 Ang^3
#
#
#
# Elastic Constant Matrix: (Units=GPa)
#
#
# Indices 1 2 3 4 5 6 
#
# 1 128.0170 4.5802 -11.3375 0.0000 -2.3676 0.0000
# 2 4.5802 76.9007 -5.9044 0.0000 4.7644 0.0000
# 3 -11.3375 -5.9044 26.3234 0.0000 -5.4137 0.0000
# 4 0.0000 0.0000 0.0000 16.8862 0.0000 -13.8137
# 5 -2.3676 4.7644 -5.4137 0.0000 39.3200 0.0000
# 6 0.0000 0.0000 0.0000 -13.8137 0.0000 4.2253
#
#
#
# Elastic Compliance Matrix: (Units=1/GPa)
#
#
# Indices 1 2 3 4 5 6 
#
# 1 0.008165 -0.000268 0.003668 0.000000 0.001029 0.000000
# 2 -0.000268 0.013298 0.002606 0.000000 -0.001269 0.000000
# 3 0.003668 0.002606 0.041303 0.000000 0.005592 0.000000
# 4 0.000000 0.000000 0.000000 -0.035368 0.000000 -0.115627
# 5 0.001029 -0.001269 0.005592 0.000000 0.026418 0.000000
# 6 0.000000 0.000000 0.000000 -0.115627 0.000000 -0.141346
#
#
# Mechanical properties :
#
#
# Convention : Reuss Voigt Hill
#
# Bulk Modulus (GPa) = 13.37276 22.87975 18.12626
# Shear Modulus (GPa) = -67.01055 28.34651 -19.33202
#
# Velocity S-wave (km/s) = -5.35828 3.48501 -2.87801
# Velocity P-wave (km/s) = 5.70543 5.09870 1.81042
#
# Compressibility (1/GPa) = 0.07477887
#
# Stress axis : x y z
#
# Youngs Moduli (GPa) = 122.47461 75.19656 24.21107
#
# Poissons Ratio (x) = 0.02019 -0.08881
# Poissons Ratio (y) = 0.03288 -0.06310
# Poissons Ratio (z) = -0.44925 -0.19599
#
# Static dielectric constant tensor:
#      x y z
#    x 1.881380 0.000000 0.006030 
#    y 0.000000 1.903250 0.000000 
#    z 0.006030 0.000000 1.845110 
# 
# From -- ./inp_files/89564.got.cif
#   From: 2010.05.17/outbox.cif.g08.bks.cpg/sg10_45_cif.got.tgz:89564.got - 2010.06.03 11:33:40.
