data_PCOD9148404
_publ_section_title
;
Structure prediction by ZEFSAII (Michael W. Deem and Ramdas Pophale) SiO2 
 PCOD9148404
Probable space group: P 2/M
;
_chemical_formula_sum "Si O2"
_cell_formula_units_Z 32
_cell_length_a 23.535147
_cell_length_b 7.734845
_cell_length_c 15.691876
_cell_angle_alpha 90.000000
_cell_angle_beta 150.223993
_cell_angle_gamma 90.000000
_cell_volume 1418.597944
_symmetry_space_group_name_H-M "P 2/M"
_symmetry_group_IT_number 10
_symmetry_cell_setting 'monoclinic'
loop_
_space_group_symop_operation_xyz
x,y,z
-x,y,-z
-x,-y,-z
x,-y,z
loop_
_atom_site_type_symbol
_atom_site_label
_atom_site_fract_x
_atom_site_fract_y
_atom_site_fract_z
Si Si1 0.172003 0.289657 0.180060
Si Si2 0.154020 0.800688 0.632388
Si Si3 0.567872 0.292770 0.507262
Si Si4 0.096391 0.698406 0.738830
Si Si5 0.038258 0.295327 0.842307
Si Si6 0.595422 0.211446 0.056196
Si Si7 0.455622 0.208060 0.714459
Si Si8 0.198608 0.799549 0.406965
O O1 0.164372 0.500000 0.176239
O O2 0.300349 0.236633 0.321865
O O3 0.154725 0.221428 0.252609
O O4 0.088854 0.228552 0.997052
O O5 0.155881 0.794894 0.738238
O O6 0.275256 0.731713 0.757679
O O7 0.040001 0.701122 0.458131
O O8 0.138865 0.000000 0.585731
O O9 0.500000 0.222850 0.500000
O O10 0.569957 0.500000 0.517019
O O11 0.519292 0.251562 0.350684
O O12 0.136621 0.500000 0.790117
O O13 0.100865 0.774736 0.839714
O O14 0.061237 0.500000 0.870973
O O15 0.901445 0.273804 0.664437
O O16 0.600278 0.000000 0.063374
O O17 0.500000 0.263709 0.000000
O O18 0.549219 0.267681 0.903891
O O19 0.327862 0.274170 0.573529
O O20 0.449783 0.000000 0.712441
O O21 0.208365 0.000000 0.442066
#
# Coordination Sequence:
#
# PCOD9148404 Si02
#       8
#     4   4   4   4   4   4   4   4
#     4   9  18  34  51  70 102 139 174 209 254 312
#     4  10  20  36  59  81 105 138 180 221 264 321
#     4   9  18  33  54  77 102 136 176 216 257 309
#     4  10  21  37  56  78 109 143 175 219 274 319
#     4  10  21  34  51  74 100 139 179 209 254 317
#     4   9  19  35  57  82 109 142 180 221 270 325
#     4   9  19  35  53  77 106 138 174 214 268 320
#     4  10  20  32  51  77 106 135 169 216 264 307
#
# _framework density 22.557485
#
# number of rings (size 3 to 8) (size 9 to 14) (size 15 to 20)
#    0.000    2.500    0.000    2.250    1.750    4.750 
#    0.000    2.500    0.000    1.875    0.000    0.000 
#    0.000    0.000    0.000    0.000    0.000    0.000 
#
# Total GULP energy -178674.474890 kJ/mol
# GULP energy per Si atom -5583.577340 kJ/mol
# Density = 2.250614 g / cm^3
# Si number density = 22.557485 Si / 1000 Ang^3
#
#
#
# Elastic Constant Matrix: (Units=GPa)
#
#
# Indices 1 2 3 4 5 6 
#
# 1 76.1643 -3.9409 2.0612 0.0000 16.4784 0.0000
# 2 -3.9409 33.7794 -7.0851 0.0000 2.6584 0.0000
# 3 2.0612 -7.0851 45.3656 0.0000 3.8803 0.0000
# 4 0.0000 0.0000 0.0000 11.4812 0.0000 -2.9078
# 5 16.4784 2.6584 3.8803 0.0000 16.0213 0.0000
# 6 0.0000 0.0000 0.0000 -2.9078 0.0000 15.0055
#
#
#
# Elastic Compliance Matrix: (Units=1/GPa)
#
#
# Indices 1 2 3 4 5 6 
#
# 1 0.017362 0.003805 0.001416 0.000000 -0.018832 0.000000
# 2 0.003805 0.032090 0.005748 0.000000 -0.010630 0.000000
# 3 0.001416 0.005748 0.023571 0.000000 -0.008119 0.000000
# 4 0.000000 0.000000 0.000000 0.091594 0.000000 0.017749
# 5 -0.018832 -0.010630 -0.008119 0.000000 0.085517 0.000000
# 6 0.000000 0.000000 0.000000 0.017749 0.000000 0.070081
#
#
# Mechanical properties :
#
#
# Convention : Reuss Voigt Hill
#
# Bulk Modulus (GPa) = 10.53061 15.26441 12.89751
# Shear Modulus (GPa) = 15.15468 19.45322 17.30395
#
# Velocity S-wave (km/s) = 2.59477 2.93982 2.77267
# Velocity P-wave (km/s) = 3.69535 4.27843 3.99754
#
# Compressibility (1/GPa) = 0.09496127
#
# Stress axis : x y z
#
# Youngs Moduli (GPa) = 57.59555 31.16244 42.42505
#
# Poissons Ratio (x) = -0.11856 -0.06008
# Poissons Ratio (y) = -0.21913 -0.24386
# Poissons Ratio (z) = -0.08156 -0.17913
#
# Static dielectric constant tensor:
#      x y z
#    x 1.846920 0.000000 -0.014060 
#    y 0.000000 1.814080 0.000000 
#    z -0.014060 0.000000 1.849850 
# 
# From -- ./inp_files/71594.got.cif
#   From: 2010.05.17/outbox.cif.g08.bks.cpg/sg10_36_cif.got.tgz:71594.got - 2010.06.03 11:33:40.
