data_PCOD9148983
_publ_section_title
;
Structure prediction by ZEFSAII (Michael W. Deem and Ramdas Pophale) SiO2 
 PCOD9148983
Probable space group: P 2/M
;
_chemical_formula_sum "Si O2"
_cell_formula_units_Z 32
_cell_length_a 21.446779
_cell_length_b 8.769497
_cell_length_c 14.697898
_cell_angle_alpha 90.000000
_cell_angle_beta 47.759398
_cell_angle_gamma 90.000000
_cell_volume 2046.521923
_symmetry_space_group_name_H-M "P 2/M"
_symmetry_group_IT_number 10
_symmetry_cell_setting 'monoclinic'
loop_
_space_group_symop_operation_xyz
x,y,z
-x,y,-z
-x,-y,-z
x,-y,z
loop_
_atom_site_type_symbol
_atom_site_label
_atom_site_fract_x
_atom_site_fract_y
_atom_site_fract_z
Si Si1 0.500431 0.675351 0.610017
Si Si2 0.171698 0.316916 0.041983
Si Si3 0.314225 0.316471 0.590914
Si Si4 0.987814 0.816693 0.905957
Si Si5 0.902985 0.684829 0.695728
Si Si6 0.159513 0.817657 0.630848
Si Si7 0.674647 0.819371 0.217629
Si Si8 0.099798 0.315511 0.505486
O O1 0.500000 0.674966 0.500000
O O2 0.489074 0.500000 0.650856
O O3 0.594708 0.729079 0.540379
O O4 0.420130 0.772590 0.717533
O O5 0.177114 0.500000 0.035342
O O6 0.151431 0.264619 0.164983
O O7 0.092730 0.264635 0.058147
O O8 0.256231 0.247111 0.918234
O O9 0.314042 0.500000 0.597017
O O10 0.237241 0.257419 0.606957
O O11 0.308948 0.250625 0.698164
O O12 0.072334 0.776440 0.767834
O O13 0.975689 0.000000 0.911654
O O14 0.000000 0.777993 0.000000
O O15 0.902209 0.500000 0.696031
O O16 0.875680 0.731842 0.621201
O O17 0.001000 0.727629 0.613249
O O18 0.151424 0.759415 0.535791
O O19 0.167668 0.000000 0.625804
O O20 0.682320 0.000000 0.215983
O O21 0.105209 0.500000 0.506693
#
# Coordination Sequence:
#
# PCOD9148983 Si02
#       8
#     4   4   4   4   4   4   4   4
#     4   8  16  32  51  71  94 122 161 204 239 276
#     4  11  20  32  50  71  93 125 168 204 238 283
#     4  10  20  34  52  72  96 129 167 204 237 277
#     4  10  21  34  44  60  94 134 165 196 235 279
#     4   8  16  30  51  72  90 120 163 210 246 280
#     4  11  21  31  46  72 102 130 161 198 244 292
#     4  11  21  32  48  72 102 132 159 195 244 292
#     4   9  16  32  52  69  92 123 163 205 246 287
#
# _framework density 15.636286
#
# number of rings (size 3 to 8) (size 9 to 14) (size 15 to 20)
#    0.000    2.250    1.250    4.500    0.000    4.500 
#    0.000    2.500    0.000    0.000    0.000    0.875 
#    0.000    7.000    0.000    0.000    0.000    0.000 
#
# Total GULP energy -178473.677350 kJ/mol
# GULP energy per Si atom -5577.302417 kJ/mol
# Density = 1.560070 g / cm^3
# Si number density = 15.636286 Si / 1000 Ang^3
#
#
#
# Elastic Constant Matrix: (Units=GPa)
#
#
# Indices 1 2 3 4 5 6 
#
# 1 54.7986 29.8178 72.0181 0.0000 3.7255 0.0000
# 2 29.8178 50.5978 48.6603 0.0000 -4.3682 0.0000
# 3 72.0181 48.6603 131.4233 0.0000 -2.4630 0.0000
# 4 0.0000 0.0000 0.0000 15.7142 0.0000 -6.0129
# 5 3.7255 -4.3682 -2.4630 0.0000 25.2255 0.0000
# 6 0.0000 0.0000 0.0000 -6.0129 0.0000 8.9386
#
#
#
# Elastic Compliance Matrix: (Units=1/GPa)
#
#
# Indices 1 2 3 4 5 6 
#
# 1 0.072206 -0.008657 -0.036658 0.000000 -0.015742 0.000000
# 2 -0.008657 0.032184 -0.007057 0.000000 0.006163 0.000000
# 3 -0.036658 -0.007057 0.030444 0.000000 0.007164 0.000000
# 4 0.000000 0.000000 0.000000 0.085694 0.000000 0.057646
# 5 -0.015742 0.006163 0.007164 0.000000 0.043734 0.000000
# 6 0.000000 0.000000 0.000000 0.057646 0.000000 0.150652
#
#
# Mechanical properties :
#
#
# Convention : Reuss Voigt Hill
#
# Bulk Modulus (GPa) = 33.23245 59.75690 46.49468
# Shear Modulus (GPa) = 9.43953 15.73057 12.58505
#
# Velocity S-wave (km/s) = 2.45968 3.17524 2.84009
# Velocity P-wave (km/s) = 5.41907 7.19323 6.36824
#
# Compressibility (1/GPa) = 0.03009107
#
# Stress axis : x y z
#
# Youngs Moduli (GPa) = 13.84928 31.07123 32.84725
#
# Poissons Ratio (x) = 0.26898 1.20410
# Poissons Ratio (y) = 0.11989 0.23180
# Poissons Ratio (z) = 0.50768 0.21927
#
# Static dielectric constant tensor:
#      x y z
#    x 1.505180 0.000000 -0.001670 
#    y 0.000000 1.523010 0.000000 
#    z -0.001670 0.000000 1.524000 
# 
# From -- ./inp_files/66060.got.cif
#   From: 2010.05.17/outbox.cif.g08.bks.cpg/sg10_34_cif.got.tgz:66060.got - 2010.06.03 11:33:40.
