data_PCOD9148570
_publ_section_title
;
Structure prediction by ZEFSAII (Michael W. Deem and Ramdas Pophale) SiO2 
 PCOD9148570
Probable space group: P 2/M
;
_chemical_formula_sum "Si O2"
_cell_formula_units_Z 32
_cell_length_a 22.256931
_cell_length_b 7.577813
_cell_length_c 16.223669
_cell_angle_alpha 90.000000
_cell_angle_beta 31.784245
_cell_angle_gamma 90.000000
_cell_volume 1441.251461
_symmetry_space_group_name_H-M "P 2/M"
_symmetry_group_IT_number 10
_symmetry_cell_setting 'monoclinic'
loop_
_space_group_symop_operation_xyz
x,y,z
-x,y,-z
-x,-y,-z
x,-y,z
loop_
_atom_site_type_symbol
_atom_site_label
_atom_site_fract_x
_atom_site_fract_y
_atom_site_fract_z
Si Si1 0.561590 0.703273 0.143309
Si Si2 0.658729 0.798128 0.858006
Si Si3 0.912776 0.700044 0.347607
Si Si4 0.918733 0.715179 0.520287
Si Si5 0.901729 0.283585 0.178945
Si Si6 0.407413 0.714063 0.718090
Si Si7 0.666582 0.714972 0.370443
Si Si8 0.338406 0.796792 0.322650
O O1 0.533766 0.500000 0.191521
O O2 0.623912 0.770462 0.152788
O O3 0.440061 0.791018 0.268390
O O4 0.629906 0.712998 0.978548
O O5 0.793777 0.785603 0.686320
O O6 0.615082 0.728161 0.820162
O O7 0.619165 0.000000 0.912562
O O8 0.957664 0.500000 0.291832
O O9 0.953770 0.775893 0.387453
O O10 0.931572 0.781388 0.236083
O O11 0.774775 0.697255 0.518361
O O12 0.912277 0.500000 0.525019
O O13 0.000000 0.765959 0.500000
O O14 0.898278 0.500000 0.186795
O O15 0.776799 0.225129 0.292947
O O16 0.000000 0.235294 0.000000
O O17 0.400656 0.500000 0.721354
O O18 0.540920 0.763119 0.550371
O O19 0.335501 0.774846 0.722927
O O20 0.670132 0.500000 0.367854
O O21 0.304560 0.000000 0.349113
#
# Coordination Sequence:
#
# PCOD9148570 Si02
#       8
#     4   4   4   4   4   4   4   4
#     4  11  20  30  47  75 104 129 160 199 249 298
#     4  10  21  35  49  69  99 133 168 203 242 294
#     4   9  17  31  51  75 100 128 165 206 249 296
#     4   9  18  34  53  74 100 130 165 209 254 294
#     4   9  16  26  43  72 103 128 157 202 257 299
#     4   8  15  26  42  66  93 127 162 195 241 293
#     4   8  13  25  42  62  95 128 158 197 240 294
#     4  10  20  33  50  71  97 131 168 204 242 291
#
# _framework density 22.202926999999999
#
# number of rings (size 3 to 8) (size 9 to 14) (size 15 to 20)
#    0.000    2.750    0.000    3.000    0.000    5.250 
#    2.250    0.000    0.000    0.375    0.000   16.625 
#    0.000    0.000    0.000    0.000    0.000    0.000 
#
# Total GULP energy -178470.188079 kJ/mol
# GULP energy per Si atom -5577.193377 kJ/mol
# Density = 2.215239 g / cm^3
# Si number density = 22.202927 Si / 1000 Ang^3
#
#
#
# Elastic Constant Matrix: (Units=GPa)
#
#
# Indices 1 2 3 4 5 6 
#
# 1 166.3479 4.9655 44.2112 0.0000 38.3990 0.0000
# 2 4.9655 52.5617 -1.5008 0.0000 3.4940 0.0000
# 3 44.2112 -1.5008 59.8670 0.0000 33.7651 0.0000
# 4 0.0000 0.0000 0.0000 -48.1025 0.0000 7.7709
# 5 38.3990 3.4940 33.7651 0.0000 40.4023 0.0000
# 6 0.0000 0.0000 0.0000 7.7709 0.0000 27.0666
#
#
#
# Elastic Compliance Matrix: (Units=1/GPa)
#
#
# Indices 1 2 3 4 5 6 
#
# 1 0.008000 -0.000517 -0.003136 0.000000 -0.004938 0.000000
# 2 -0.000517 0.019397 0.002908 0.000000 -0.003616 0.000000
# 3 -0.003136 0.002908 0.033204 0.000000 -0.025020 0.000000
# 4 0.000000 0.000000 0.000000 -0.019867 0.000000 0.005704
# 5 -0.004938 -0.003616 -0.025020 0.000000 0.050667 0.000000
# 6 0.000000 0.000000 0.000000 0.005704 0.000000 0.035308
#
#
# Mechanical properties :
#
#
# Convention : Reuss Voigt Hill
#
# Bulk Modulus (GPa) = 16.91752 41.56984 29.24368
# Shear Modulus (GPa) = 33.80575 19.28000 26.54288
#
# Velocity S-wave (km/s) = 3.90626 2.94998 3.46130
# Velocity P-wave (km/s) = 5.28973 5.51058 5.40128
#
# Compressibility (1/GPa) = 0.05911033
#
# Stress axis : x y z
#
# Youngs Moduli (GPa) = 124.99551 51.55308 30.11698
#
# Poissons Ratio (x) = 0.02666 0.09445
# Poissons Ratio (y) = 0.06463 -0.08757
# Poissons Ratio (z) = 0.39199 -0.14989
#
# Static dielectric constant tensor:
#      x y z
#    x 1.856330 0.000000 0.061770 
#    y 0.000000 1.831110 0.000000 
#    z 0.061770 0.000000 1.801160 
# 
# From -- ./inp_files/69954.got.cif
#   From: 2010.05.17/outbox.cif.g08.bks.cpg/sg10_35_cif.got.tgz:69954.got - 2010.06.03 11:33:40.
