data_PCOD9148622
_publ_section_title
;
Structure prediction by ZEFSAII (Michael W. Deem and Ramdas Pophale) SiO2 
 PCOD9148622
Probable space group: P 2/M
;
_chemical_formula_sum "Si O2"
_cell_formula_units_Z 28
_cell_length_a 15.525866
_cell_length_b 7.839986
_cell_length_c 12.202705
_cell_angle_alpha 90.000000
_cell_angle_beta 119.539861
_cell_angle_gamma 90.000000
_cell_volume 1292.269002
_symmetry_space_group_name_H-M "P 2/M"
_symmetry_group_IT_number 10
_symmetry_cell_setting 'monoclinic'
loop_
_space_group_symop_operation_xyz
x,y,z
-x,y,-z
-x,-y,-z
x,-y,z
loop_
_atom_site_type_symbol
_atom_site_label
_atom_site_fract_x
_atom_site_fract_y
_atom_site_fract_z
Si Si1 0.207872 0.206122 0.474785
Si Si2 0.194286 0.799450 0.890040
Si Si3 0.517010 0.300279 0.891165
Si Si4 0.993149 0.300296 0.369952
Si Si5 0.306830 0.794531 0.753053
Si Si6 0.613373 0.801525 0.562822
Si Si7 0.687228 0.298659 0.841645
O O1 0.099949 0.275796 0.379974
O O2 0.224550 0.248831 0.612766
O O3 0.304265 0.270348 0.469384
O O4 0.204805 0.000000 0.461425
O O5 0.274993 0.729628 0.852584
O O6 0.091022 0.775046 0.762050
O O7 0.210671 0.000000 0.912012
O O8 0.214482 0.723231 0.022726
O O9 0.540498 0.500000 0.920329
O O10 0.408825 0.280303 0.773292
O O11 0.600619 0.227443 0.866486
O O12 0.500000 0.219547 0.000000
O O13 0.970513 0.500000 0.365829
O O14 0.000000 0.229038 0.500000
O O15 0.315041 0.000000 0.762159
O O16 0.500000 0.730103 0.500000
O O17 0.669041 0.788896 0.714437
O O18 0.599941 0.000000 0.522502
O O19 0.672259 0.500000 0.813182
#
# Coordination Sequence:
#
# PCOD9148622 Si02
#       7
#     4   4   4   4   4   4   4
#     4  10  21  39  62  89 120 157 203 253 302 353
#     4  11  22  37  60  88 120 157 199 248 302 361
#     4  10  20  33  50  77 116 156 191 235 295 359
#     4  11  23  38  60  91 126 163 200 247 306 366
#     4  10  20  33  55  86 116 151 195 245 297 354
#     4  10  22  42  67  91 122 162 207 255 299 355
#     4  11  23  39  59  85 123 163 202 251 306 364
#
# _framework density 21.667314999999999
#
# number of rings (size 3 to 8) (size 9 to 14) (size 15 to 20)
#    0.000    1.571    2.857    2.143    0.000    5.143 
#    0.000    0.714    0.000    4.286    0.000    0.000 
#    0.000    0.000    0.000    0.000    0.000    0.000 
#
# Total GULP energy -156216.391724 kJ/mol
# GULP energy per Si atom -5579.156847 kJ/mol
# Density = 2.161800 g / cm^3
# Si number density = 21.667315 Si / 1000 Ang^3
#
#
#
# Elastic Constant Matrix: (Units=GPa)
#
#
# Indices 1 2 3 4 5 6 
#
# 1 86.2601 -2.4114 29.4641 0.0000 11.0318 0.0000
# 2 -2.4114 34.1260 -5.1579 0.0000 0.1945 0.0000
# 3 29.4641 -5.1579 104.1969 0.0000 7.5983 0.0000
# 4 0.0000 0.0000 0.0000 28.2571 0.0000 10.4144
# 5 11.0318 0.1945 7.5983 0.0000 36.9748 0.0000
# 6 0.0000 0.0000 0.0000 10.4144 0.0000 20.8887
#
#
#
# Elastic Compliance Matrix: (Units=1/GPa)
#
#
# Indices 1 2 3 4 5 6 
#
# 1 0.013205 0.000426 -0.003478 0.000000 -0.003228 0.000000
# 2 0.000426 0.029546 0.001383 0.000000 -0.000567 0.000000
# 3 -0.003478 0.001383 0.010735 0.000000 -0.001176 0.000000
# 4 0.000000 0.000000 0.000000 0.043356 0.000000 -0.021616
# 5 -0.003228 -0.000567 -0.001176 0.000000 0.028253 0.000000
# 6 0.000000 0.000000 0.000000 -0.021616 0.000000 0.058650
#
#
# Mechanical properties :
#
#
# Convention : Reuss Voigt Hill
#
# Bulk Modulus (GPa) = 19.94054 29.81917 24.87985
# Shear Modulus (GPa) = 24.53416 30.73668 27.63542
#
# Velocity S-wave (km/s) = 3.36863 3.77048 3.57521
# Velocity P-wave (km/s) = 4.93491 5.72255 5.34326
#
# Compressibility (1/GPa) = 0.05014910
#
# Stress axis : x y z
#
# Youngs Moduli (GPa) = 75.72658 33.84603 93.15475
#
# Poissons Ratio (x) = -0.01441 0.32396
# Poissons Ratio (y) = -0.03225 -0.12887
# Poissons Ratio (z) = 0.26335 -0.04682
#
# Static dielectric constant tensor:
#      x y z
#    x 1.816200 0.000000 0.019510 
#    y 0.000000 1.779970 0.000000 
#    z 0.019510 0.000000 1.862890 
# 
# From -- ./inp_files/50027.got.cif
#   From: 2010.05.17/outbox.cif.g08.bks.cpg/sg10_26_cif.got.tgz:50027.got - 2010.06.03 11:33:40.
