data_PCOD9148996
_publ_section_title
;
Structure prediction by ZEFSAII (Michael W. Deem and Ramdas Pophale) SiO2 
 PCOD9148996
Probable space group: P 2/M
;
_chemical_formula_sum "Si O2"
_cell_formula_units_Z 28
_cell_length_a 9.697105
_cell_length_b 9.185551
_cell_length_c 24.231666
_cell_angle_alpha 90.000000
_cell_angle_beta 43.671886
_cell_angle_gamma 90.000000
_cell_volume 1490.430108
_symmetry_space_group_name_H-M "P 2/M"
_symmetry_group_IT_number 10
_symmetry_cell_setting 'monoclinic'
loop_
_space_group_symop_operation_xyz
x,y,z
-x,y,-z
-x,-y,-z
x,-y,z
loop_
_atom_site_type_symbol
_atom_site_label
_atom_site_fract_x
_atom_site_fract_y
_atom_site_fract_z
Si Si1 0.950041 0.666136 0.079976
Si Si2 0.304555 0.171676 0.330977
Si Si3 0.706486 0.165744 0.404925
Si Si4 0.561255 0.172859 0.157876
Si Si5 0.350934 0.824243 0.993017
Si Si6 0.092079 0.667344 0.559032
Si Si7 0.501569 0.331049 0.369994
O O1 0.931930 0.500000 0.104978
O O2 0.740465 0.749730 0.138964
O O3 0.000000 0.662155 0.000000
O O4 0.133115 0.748437 0.056836
O O5 0.360882 0.199189 0.250780
O O6 0.459255 0.258212 0.324039
O O7 0.086829 0.231181 0.408414
O O8 0.317559 0.000000 0.337947
O O9 0.500000 0.160044 0.500000
O O10 0.845838 0.272683 0.399193
O O11 0.653418 0.235703 0.361886
O O12 0.782466 0.000000 0.379472
O O13 0.560051 0.214581 0.093587
O O14 0.600725 0.000000 0.147722
O O15 0.326104 0.000000 0.002136
O O16 0.500000 0.783502 0.000000
O O17 0.025032 0.500000 0.579399
O O18 0.289533 0.674710 0.464262
O O19 0.559958 0.500000 0.349655
#
# Coordination Sequence:
#
# PCOD9148996 Si02
#       7
#     4   4   4   4   4   4   4
#     4   9  17  30  51  77 102 130 163 199 241 292
#     4  11  22  34  50  73 102 136 174 218 263 307
#     4   9  17  31  52  75  97 124 163 211 258 305
#     4   9  19  35  52  73 102 135 170 207 251 302
#     4   9  17  32  56  81 103 131 167 205 246 296
#     4  10  20  34  52  74 101 135 174 216 263 312
#     4  10  20  34  52  74 100 132 173 218 263 313
#
# _framework density 18.786522999999999
#
# number of rings (size 3 to 8) (size 9 to 14) (size 15 to 20)
#    0.000    2.429    0.000    2.571    0.000    8.286 
#    0.000    1.429    0.000    6.857    0.000    0.000 
#    0.000    0.000    0.000    0.000    0.000    0.000 
#
# Total GULP energy -156105.494392 kJ/mol
# GULP energy per Si atom -5575.196228 kJ/mol
# Density = 1.874376 g / cm^3
# Si number density = 18.786523 Si / 1000 Ang^3
#
#
#
# Elastic Constant Matrix: (Units=GPa)
#
#
# Indices 1 2 3 4 5 6 
#
# 1 102.6569 21.7804 12.1941 0.0000 9.1446 0.0000
# 2 21.7804 64.2188 24.2940 0.0000 9.9332 0.0000
# 3 12.1941 24.2940 34.2364 0.0000 5.5634 0.0000
# 4 0.0000 0.0000 0.0000 -58.5951 0.0000 -43.5200
# 5 9.1446 9.9332 5.5634 0.0000 17.0065 0.0000
# 6 0.0000 0.0000 0.0000 -43.5200 0.0000 -6.9473
#
#
#
# Elastic Compliance Matrix: (Units=1/GPa)
#
#
# Indices 1 2 3 4 5 6 
#
# 1 0.010790 -0.002523 -0.001425 0.000000 -0.003862 0.000000
# 2 -0.002523 0.022934 -0.014172 0.000000 -0.007402 0.000000
# 3 -0.001425 -0.014172 0.040454 0.000000 -0.004190 0.000000
# 4 0.000000 0.000000 0.000000 0.004672 0.000000 -0.029269
# 5 -0.003862 -0.007402 -0.004190 0.000000 0.066572 0.000000
# 6 0.000000 0.000000 0.000000 -0.029269 0.000000 0.039407
#
#
# Mechanical properties :
#
#
# Convention : Reuss Voigt Hill
#
# Bulk Modulus (GPa) = 26.35983 35.29435 30.82709
# Shear Modulus (GPa) = 21.39360 -0.18427 10.60467
#
# Velocity S-wave (km/s) = 3.37823 -0.31352 2.37846
# Velocity P-wave (km/s) = 5.41094 4.32398 4.89771
#
# Compressibility (1/GPa) = 0.03793651
#
# Stress axis : x y z
#
# Youngs Moduli (GPa) = 92.68022 43.60386 24.71965
#
# Poissons Ratio (x) = 0.11001 0.03523
# Poissons Ratio (y) = 0.23383 0.35033
# Poissons Ratio (z) = 0.13209 0.61796
#
# Static dielectric constant tensor:
#      x y z
#    x 1.661720 0.000000 0.008210 
#    y 0.000000 1.628410 0.000000 
#    z 0.008210 0.000000 1.685140 
# 
# From -- ./inp_files/37048.got.cif
#   From: 2010.05.17/outbox.cif.g08.bks.cpg/sg10_19_cif.got.tgz:37048.got - 2010.06.03 11:33:40.
