data_PCOD9148385
_publ_section_title
;
Structure prediction by ZEFSAII (Michael W. Deem and Ramdas Pophale) SiO2 
 PCOD9148385
Probable space group: P 2/M
;
_chemical_formula_sum "Si O2"
_cell_formula_units_Z 32
_cell_length_a 29.040630
_cell_length_b 9.716464
_cell_length_c 12.356135
_cell_angle_alpha 90.000000
_cell_angle_beta 27.251270
_cell_angle_gamma 90.000000
_cell_volume 1596.472776
_symmetry_space_group_name_H-M "P 2/M"
_symmetry_group_IT_number 10
_symmetry_cell_setting 'monoclinic'
loop_
_space_group_symop_operation_xyz
x,y,z
-x,y,-z
-x,-y,-z
x,-y,z
loop_
_atom_site_type_symbol
_atom_site_label
_atom_site_fract_x
_atom_site_fract_y
_atom_site_fract_z
Si Si1 0.700081 0.167427 0.832223
Si Si2 0.867833 0.841175 0.172420
Si Si3 0.330546 0.162740 0.861666
Si Si4 0.889564 0.837834 0.780234
Si Si5 0.910918 0.158390 0.335739
Si Si6 0.414971 0.652829 0.502888
Si Si7 0.804665 0.346691 0.141512
Si Si8 0.448339 0.664465 0.992415
O O1 0.816439 0.215889 0.596607
O O2 0.698980 0.000000 0.820670
O O3 0.652149 0.199989 0.049055
O O4 0.646423 0.242834 0.844630
O O5 0.874953 0.842139 0.286202
O O6 0.790108 0.738356 0.282012
O O7 0.852275 0.000000 0.171383
O O8 0.976649 0.786676 0.903294
O O9 0.401670 0.243419 0.630105
O O10 0.347627 0.000000 0.813607
O O11 0.211115 0.185293 0.082533
O O12 0.000000 0.810363 0.500000
O O13 0.887986 0.000000 0.812411
O O14 0.873046 0.742802 0.918516
O O15 0.922923 0.000000 0.346968
O O16 0.447744 0.500000 0.470556
O O17 0.301683 0.643427 0.694713
O O18 0.478492 0.689584 0.263450
O O19 0.843510 0.500000 0.080065
O O20 0.425128 0.500000 0.043794
O O21 0.500000 0.698545 0.000000
#
# Coordination Sequence:
#
# PCOD9148385 Si02
#       8
#     4   4   4   4   4   4   4   4
#     4  10  21  37  58  86 117 144 177 232 289 328
#     4   9  17  32  54  77 104 146 189 221 262 326
#     4   9  19  35  56  84 114 144 183 230 277 326
#     4   9  18  32  53  79 106 146 191 224 262 320
#     4   8  17  33  53  78 109 143 181 224 271 322
#     4   9  20  39  58  77 108 148 186 228 276 330
#     4  10  20  32  50  78 109 143 179 225 279 320
#     4  10  23  42  62  83 108 144 188 229 277 339
#
# _framework density 20.044187999999998
#
# number of rings (size 3 to 8) (size 9 to 14) (size 15 to 20)
#    0.000    2.750    0.000    1.125    3.500    2.500 
#    0.000    4.375    0.000    0.000    0.000    0.000 
#    0.000    0.000    0.000    0.000    0.000    0.000 
#
# Total GULP energy -178263.979285 kJ/mol
# GULP energy per Si atom -5570.749353 kJ/mol
# Density = 1.999857 g / cm^3
# Si number density = 20.044188 Si / 1000 Ang^3
#
#
#
# Elastic Constant Matrix: (Units=GPa)
#
#
# Indices 1 2 3 4 5 6 
#
# 1 83.9474 33.2460 2.9698 0.0000 16.2814 0.0000
# 2 33.2460 43.8605 12.7159 0.0000 7.7779 0.0000
# 3 2.9698 12.7159 73.0446 0.0000 7.6553 0.0000
# 4 0.0000 0.0000 0.0000 12.2607 0.0000 3.1307
# 5 16.2814 7.7779 7.6553 0.0000 14.3661 0.0000
# 6 0.0000 0.0000 0.0000 3.1307 0.0000 22.2586
#
#
#
# Elastic Compliance Matrix: (Units=1/GPa)
#
#
# Indices 1 2 3 4 5 6 
#
# 1 0.020558 -0.013395 0.003366 0.000000 -0.017840 0.000000
# 2 -0.013395 0.034645 -0.005414 0.000000 -0.000691 0.000000
# 3 0.003366 -0.005414 0.015451 0.000000 -0.009117 0.000000
# 4 0.000000 0.000000 0.000000 0.084600 0.000000 -0.011899
# 5 -0.017840 -0.000691 -0.009117 0.000000 0.095060 0.000000
# 6 0.000000 0.000000 0.000000 -0.011899 0.000000 0.046600
#
#
# Mechanical properties :
#
#
# Convention : Reuss Voigt Hill
#
# Bulk Modulus (GPa) = 25.14593 33.19064 29.16829
# Shear Modulus (GPa) = 14.66030 19.90513 17.28272
#
# Velocity S-wave (km/s) = 2.70737 3.15471 2.93956
# Velocity P-wave (km/s) = 4.72712 5.46482 5.10930
#
# Compressibility (1/GPa) = 0.03976787
#
# Stress axis : x y z
#
# Youngs Moduli (GPa) = 48.64247 28.86410 64.71888
#
# Poissons Ratio (x) = 0.38664 -0.21783
# Poissons Ratio (y) = 0.65157 0.35040
# Poissons Ratio (z) = -0.16372 0.15627
#
# Static dielectric constant tensor:
#      x y z
#    x 1.730590 0.000000 -0.008490 
#    y 0.000000 1.697770 0.000000 
#    z -0.008490 0.000000 1.749960 
# 
# From -- ./inp_files/58094.got.cif
#   From: 2010.05.17/outbox.cif.g08.bks.cpg/sg10_30_cif.got.tgz:58094.got - 2010.06.03 11:33:40.
