data_PCOD9148075
_publ_section_title
;
Structure prediction by ZEFSAII (Michael W. Deem and Ramdas Pophale) SiO2 
 PCOD9148075
Probable space group: P 2/M
;
_chemical_formula_sum "Si O2"
_cell_formula_units_Z 24
_cell_length_a 15.406731
_cell_length_b 8.481409
_cell_length_c 15.032904
_cell_angle_alpha 90.000000
_cell_angle_beta 140.006028
_cell_angle_gamma 90.000000
_cell_volume 1262.508843
_symmetry_space_group_name_H-M "P 2/M"
_symmetry_group_IT_number 10
_symmetry_cell_setting 'monoclinic'
loop_
_space_group_symop_operation_xyz
x,y,z
-x,y,-z
-x,-y,-z
x,-y,z
loop_
_atom_site_type_symbol
_atom_site_label
_atom_site_fract_x
_atom_site_fract_y
_atom_site_fract_z
Si Si1 0.352400 0.187873 0.638488
Si Si2 0.112298 0.685099 0.330349
Si Si3 0.344139 0.808060 0.161010
Si Si4 0.359499 0.687387 0.842235
Si Si5 0.144272 0.190165 0.158825
Si Si6 0.819407 0.187598 0.143438
O O1 0.233264 0.269375 0.490896
O O2 0.500515 0.241624 0.721524
O O3 0.344135 0.226878 0.736320
O O4 0.342689 0.000000 0.617786
O O5 0.085052 0.500000 0.313444
O O6 0.150888 0.733256 0.260397
O O7 0.975545 0.775308 0.249522
O O8 0.261668 0.758086 0.183338
O O9 0.342077 0.000000 0.159091
O O10 0.265006 0.758234 0.009747
O O11 0.364258 0.500000 0.830595
O O12 0.240446 0.729668 0.816748
O O13 0.500000 0.735639 0.000000
O O14 0.151596 0.000000 0.174977
O O15 0.000000 0.225402 0.000000
O O16 0.800425 0.000000 0.137677
#
# Coordination Sequence:
#
# PCOD9148075 Si02
#       6
#     4   4   4   4   4   4
#     4  11  23  42  65  91 123 166 213 258 303 361
#     4  12  26  42  59  91 132 166 201 256 322 374
#     4   9  19  36  64  95 120 153 208 263 301 349
#     4  11  23  39  62  96 132 164 197 249 315 374
#     4  10  19  38  66  93 121 160 209 258 303 364
#     4  11  21  40  67  94 120 161 214 257 300 364
#
# _framework density 19.009768000000001
#
# number of rings (size 3 to 8) (size 9 to 14) (size 15 to 20)
#    0.000    1.333    3.333    3.000    0.000    2.333 
#    0.000    8.333    0.000    0.000    0.000    0.000 
#    0.000    0.000    0.000    0.000    0.000    0.000 
#
# Total GULP energy -134179.282675 kJ/mol
# GULP energy per Si atom -5590.803445 kJ/mol
# Density = 1.896650 g / cm^3
# Si number density = 19.009768 Si / 1000 Ang^3
#
#
#
# Elastic Constant Matrix: (Units=GPa)
#
#
# Indices 1 2 3 4 5 6 
#
# 1 99.0881 -20.0474 4.8228 0.0000 1.2484 0.0000
# 2 -20.0474 17.4506 -9.5171 0.0000 -5.7933 0.0000
# 3 4.8228 -9.5171 75.4355 0.0000 0.0394 0.0000
# 4 0.0000 0.0000 0.0000 55.2199 0.0000 -130.8535
# 5 1.2484 -5.7933 0.0394 0.0000 30.8139 0.0000
# 6 0.0000 0.0000 0.0000 -130.8535 0.0000 482.2902
#
#
#
# Elastic Compliance Matrix: (Units=1/GPa)
#
#
# Indices 1 2 3 4 5 6 
#
# 1 0.013440 0.017023 0.001287 0.000000 0.002654 0.000000
# 2 0.017023 0.087514 0.009944 0.000000 0.015751 0.000000
# 3 0.001287 0.009944 0.014428 0.000000 0.001799 0.000000
# 4 0.000000 0.000000 0.000000 0.050717 0.000000 0.013760
# 5 0.002654 0.015751 0.001799 0.000000 0.035304 0.000000
# 6 0.000000 0.000000 0.000000 0.013760 0.000000 0.005807
#
#
# Mechanical properties :
#
#
# Convention : Reuss Voigt Hill
#
# Bulk Modulus (GPa) = 5.81766 15.83231 10.82498
# Shear Modulus (GPa) = 24.03874 128.11253 76.07564
#
# Velocity S-wave (km/s) = 3.55990 8.21823 6.33294
# Velocity P-wave (km/s) = 4.46813 9.91963 7.69296
#
# Compressibility (1/GPa) = 0.17189048
#
# Stress axis : x y z
#
# Youngs Moduli (GPa) = 74.40443 11.42680 69.31099
#
# Poissons Ratio (x) = -0.19452 -0.08921
# Poissons Ratio (y) = -1.26660 -0.68925
# Poissons Ratio (z) = -0.09576 -0.11363
#
# Static dielectric constant tensor:
#      x y z
#    x 1.637910 0.000000 0.010410 
#    y 0.000000 1.643430 0.000000 
#    z 0.010410 0.000000 1.625490 
# 
# From -- ./inp_files/66694.got.cif
#   From: 2010.05.17/outbox.cif.g08.bks.cpg/sg10_34_cif.got.tgz:66694.got - 2010.06.03 11:33:40.
