data_PCOD9148831
_publ_section_title
;
Structure prediction by ZEFSAII (Michael W. Deem and Ramdas Pophale) SiO2 
 PCOD9148831
Probable space group: P 2/M
;
_chemical_formula_sum "Si O2"
_cell_formula_units_Z 28
_cell_length_a 9.626961
_cell_length_b 10.871523
_cell_length_c 20.778234
_cell_angle_alpha 90.000000
_cell_angle_beta 48.667493
_cell_angle_gamma 90.000000
_cell_volume 1632.917710
_symmetry_space_group_name_H-M "P 2/M"
_symmetry_group_IT_number 10
_symmetry_cell_setting 'monoclinic'
loop_
_space_group_symop_operation_xyz
x,y,z
-x,y,-z
-x,-y,-z
x,-y,z
loop_
_atom_site_type_symbol
_atom_site_label
_atom_site_fract_x
_atom_site_fract_y
_atom_site_fract_z
Si Si1 0.358106 0.648936 0.097285
Si Si2 0.004495 0.000000 0.604030
Si Si3 0.014350 0.729857 0.639260
Si Si4 0.932254 0.646179 0.233008
Si Si5 0.566098 0.756176 0.302637
Si Si6 0.392202 0.645339 0.234145
Si Si7 0.375708 0.357143 0.478892
Si Si8 0.673750 0.000000 0.599767
O O1 0.368721 0.500000 0.095102
O O2 0.405081 0.687622 0.155894
O O3 0.143356 0.676415 0.149132
O O4 0.500000 0.694462 0.000000
O O5 0.993438 0.876334 0.649057
O O6 0.196324 0.000000 0.503875
O O7 0.828764 0.000000 0.609053
O O8 0.075273 0.669145 0.687862
O O9 0.176378 0.705357 0.539169
O O10 0.820158 0.669429 0.680533
O O11 0.897154 0.500000 0.231158
O O12 0.783876 0.736791 0.246743
O O13 0.516934 0.719117 0.245398
O O14 0.478644 0.660630 0.380508
O O15 0.461968 0.882631 0.352555
O O16 0.431868 0.500000 0.225285
O O17 0.500000 0.306001 0.500000
O O18 0.345622 0.500000 0.501447
#
# Coordination Sequence:
#
# PCOD9148831 Si02
#       8
#     4   2   4   4   4   4   4   2
#     4   8  16  34  59  85 114 142 166 208 274 343
#     4  11  22  39  51  69 104 151 204 246 260 304
#     4  11  20  35  53  74 103 149 192 226 272 306
#     4  10  20  35  56  85 116 138 175 228 275 332
#     4  12  22  36  52  77 109 150 183 230 278 311
#     4  10  20  33  54  83 110 138 182 226 272 335
#     4  11  21  33  50  75 110 145 183 226 278 328
#     4  11  24  39  49  69 110 150 194 242 266 311
#
# _framework density 17.147220000000001
#
# number of rings (size 3 to 8) (size 9 to 14) (size 15 to 20)
#    0.000    1.571    4.286    3.429    0.000    1.143 
#    0.000    3.571    0.000    3.429    0.000   19.000 
#    0.000    0.000    0.000    0.000    0.000    0.000 
#
# Total GULP energy -156132.427018 kJ/mol
# GULP energy per Si atom -5576.158108 kJ/mol
# Density = 1.710819 g / cm^3
# Si number density = 17.147220 Si / 1000 Ang^3
#
#
#
# Elastic Constant Matrix: (Units=GPa)
#
#
# Indices 1 2 3 4 5 6 
#
# 1 90.2383 14.9355 31.7669 0.0000 -9.1146 0.0000
# 2 14.9355 60.4182 3.8751 0.0000 -6.3670 0.0000
# 3 31.7669 3.8751 90.6865 0.0000 -11.5540 0.0000
# 4 0.0000 0.0000 0.0000 6.7746 0.0000 -0.9836
# 5 -9.1146 -6.3670 -11.5540 0.0000 14.7610 0.0000
# 6 0.0000 0.0000 0.0000 -0.9836 0.0000 15.7046
#
#
#
# Elastic Compliance Matrix: (Units=1/GPa)
#
#
# Indices 1 2 3 4 5 6 
#
# 1 0.013342 -0.002624 -0.004061 0.000000 0.003928 0.000000
# 2 -0.002624 0.017860 0.001034 0.000000 0.006893 0.000000
# 3 -0.004061 0.001034 0.013488 0.000000 0.008496 0.000000
# 4 0.000000 0.000000 0.000000 0.148965 0.000000 0.009330
# 5 0.003928 0.006893 0.008496 0.000000 0.079795 0.000000
# 6 0.000000 0.000000 0.000000 0.009330 0.000000 0.064260
#
#
# Mechanical properties :
#
#
# Convention : Reuss Voigt Hill
#
# Bulk Modulus (GPa) = 29.95039 38.05534 34.00286
# Shear Modulus (GPa) = 13.88340 20.16571 17.02455
#
# Velocity S-wave (km/s) = 2.84854 3.43306 3.15436
# Velocity P-wave (km/s) = 5.32198 6.16084 5.75671
#
# Compressibility (1/GPa) = 0.03338854
#
# Stress axis : x y z
#
# Youngs Moduli (GPa) = 74.94854 55.99094 74.14082
#
# Poissons Ratio (x) = 0.14691 0.30110
# Poissons Ratio (y) = 0.19666 -0.07667
# Poissons Ratio (z) = 0.30438 -0.05790
#
# Static dielectric constant tensor:
#      x y z
#    x 1.605250 0.000000 -0.013770 
#    y 0.000000 1.574340 0.000000 
#    z -0.013770 0.000000 1.571910 
# 
# From -- ./inp_files/82475.got.cif
#   From: 2010.05.17/outbox.cif.g08.bks.cpg/sg10_42_cif.got.tgz:82475.got - 2010.06.03 11:33:40.
