data_PCOD9148290
_publ_section_title
;
Structure prediction by ZEFSAII (Michael W. Deem and Ramdas Pophale) SiO2 
 PCOD9148290
Probable space group: P 2/M
;
_chemical_formula_sum "Si O2"
_cell_formula_units_Z 28
_cell_length_a 16.886412
_cell_length_b 7.697788
_cell_length_c 14.884114
_cell_angle_alpha 90.000000
_cell_angle_beta 39.800535
_cell_angle_gamma 90.000000
_cell_volume 1238.470283
_symmetry_space_group_name_H-M "P 2/M"
_symmetry_group_IT_number 10
_symmetry_cell_setting 'monoclinic'
loop_
_space_group_symop_operation_xyz
x,y,z
-x,y,-z
-x,-y,-z
x,-y,z
loop_
_atom_site_type_symbol
_atom_site_label
_atom_site_fract_x
_atom_site_fract_y
_atom_site_fract_z
Si Si1 0.135072 0.703820 0.911438
Si Si2 0.615918 0.704661 0.829007
Si Si3 0.499043 0.698846 0.403066
Si Si4 0.783403 0.290420 0.833854
Si Si5 0.434940 0.285904 0.842462
Si Si6 0.766242 0.798477 0.355739
Si Si7 0.035657 0.795039 0.180375
O O1 0.140960 0.500000 0.887070
O O2 0.226666 0.786384 0.759579
O O3 0.131153 0.723665 0.021897
O O4 0.000000 0.773484 0.000000
O O5 0.638941 0.500000 0.793768
O O6 0.734426 0.774925 0.779873
O O7 0.559266 0.774258 0.786011
O O8 0.500000 0.715268 0.000000
O O9 0.500000 0.784674 0.500000
O O10 0.545136 0.500000 0.373659
O O11 0.568516 0.774932 0.256924
O O12 0.353651 0.698808 0.505906
O O13 0.778485 0.500000 0.834928
O O14 0.913140 0.241331 0.765107
O O15 0.679915 0.231644 0.996225
O O16 0.435779 0.500000 0.840260
O O17 0.897374 0.728756 0.279197
O O18 0.754048 0.000000 0.391537
O O19 0.031710 0.000000 0.169538
#
# Coordination Sequence:
#
# PCOD9148290 Si02
#       7
#     4   4   4   4   4   4   4
#     4   9  17  30  49  70  91 121 162 204 243 284
#     4   7  11  23  45  72  98 124 157 198 247 297
#     4  10  21  34  50  73  99 130 168 207 243 286
#     4   9  16  27  50  79 100 124 161 202 247 300
#     4   8  15  29  48  72 102 130 158 202 252 292
#     4  10  21  36  50  66  96 135 170 202 241 292
#     4  10  20  32  47  71 102 132 160 198 251 298
#
# _framework density 22.608533999999999
#
# number of rings (size 3 to 8) (size 9 to 14) (size 15 to 20)
#    0.000    3.000    0.000    3.000    2.000    3.714 
#    0.000    0.714    0.000    5.571    0.000    6.000 
#    0.000    0.000    0.000    0.000    0.000    0.000 
#
# Total GULP energy -156088.706641 kJ/mol
# GULP energy per Si atom -5574.596666 kJ/mol
# Density = 2.255708 g / cm^3
# Si number density = 22.608534 Si / 1000 Ang^3
#
#
#
# Elastic Constant Matrix: (Units=GPa)
#
#
# Indices 1 2 3 4 5 6 
#
# 1 131.2605 -4.8719 -0.3603 0.0000 6.8374 0.0000
# 2 -4.8719 48.6292 -2.6515 0.0000 1.3324 0.0000
# 3 -0.3603 -2.6515 33.7114 0.0000 -4.8282 0.0000
# 4 0.0000 0.0000 0.0000 111.3582 0.0000 -226.6803
# 5 6.8374 1.3324 -4.8282 0.0000 31.7918 0.0000
# 6 0.0000 0.0000 0.0000 -226.6803 0.0000 475.2603
#
#
#
# Elastic Compliance Matrix: (Units=1/GPa)
#
#
# Indices 1 2 3 4 5 6 
#
# 1 0.007738 0.000817 -0.000098 0.000000 -0.001713 0.000000
# 2 0.000817 0.020751 0.001524 0.000000 -0.000814 0.000000
# 3 -0.000098 0.001524 0.030438 0.000000 0.004580 0.000000
# 4 0.000000 0.000000 0.000000 0.308569 0.000000 0.147175
# 5 -0.001713 -0.000814 0.004580 0.000000 0.032553 0.000000
# 6 0.000000 0.000000 0.000000 0.147175 0.000000 0.072301
#
#
# Mechanical properties :
#
#
# Convention : Reuss Voigt Hill
#
# Bulk Modulus (GPa) = 15.76979 21.98152 18.87566
# Shear Modulus (GPa) = 10.22492 138.44773 74.33632
#
# Velocity S-wave (km/s) = 2.12895 7.83389 5.74031
# Velocity P-wave (km/s) = 3.61019 9.56924 7.23200
#
# Compressibility (1/GPa) = 0.06341237
#
# Stress axis : x y z
#
# Youngs Moduli (GPa) = 129.23692 48.19037 32.85328
#
# Poissons Ratio (x) = -0.03936 0.00323
# Poissons Ratio (y) = -0.10556 -0.05008
# Poissons Ratio (z) = 0.01272 -0.07346
#
# Static dielectric constant tensor:
#      x y z
#    x 1.937570 0.000000 -0.010040 
#    y 0.000000 1.835840 0.000000 
#    z -0.010040 0.000000 1.828690 
# 
# From -- ./inp_files/68598.got.cif
#   From: 2010.05.17/outbox.cif.g08.bks.cpg/sg10_35_cif.got.tgz:68598.got - 2010.06.03 11:33:40.
