data_PCOD9148458
_publ_section_title
;
Structure prediction by ZEFSAII (Michael W. Deem and Ramdas Pophale) SiO2 
 PCOD9148458
Probable space group: P 2/M
;
_chemical_formula_sum "Si O2"
_cell_formula_units_Z 24
_cell_length_a 5.125043
_cell_length_b 10.955555
_cell_length_c 27.675268
_cell_angle_alpha 90.000000
_cell_angle_beta 41.190880
_cell_angle_gamma 90.000000
_cell_volume 1023.353005
_symmetry_space_group_name_H-M "P 2/M"
_symmetry_group_IT_number 10
_symmetry_cell_setting 'monoclinic'
loop_
_space_group_symop_operation_xyz
x,y,z
-x,y,-z
-x,-y,-z
x,-y,z
loop_
_atom_site_type_symbol
_atom_site_label
_atom_site_fract_x
_atom_site_fract_y
_atom_site_fract_z
Si Si1 0.532452 0.000000 0.552444
Si Si2 0.531448 0.500000 0.053574
Si Si3 0.579774 0.750362 0.586103
Si Si4 0.536563 0.141745 0.800647
Si Si5 0.532452 0.000000 0.052444
Si Si6 0.579774 0.750362 0.086103
Si Si7 0.468552 0.500000 0.446426
Si Si8 0.536566 0.141745 0.300647
O O1 0.500000 0.000000 0.500000
O O2 0.368955 0.874539 0.597306
O O3 0.000000 0.000000 0.500000
O O4 0.373086 0.624614 0.099715
O O5 0.500000 0.500000 0.000000
O O6 0.000000 0.500000 0.000000
O O7 0.373087 0.624614 0.599715
O O8 0.652837 0.770830 0.632589
O O9 0.000000 0.748983 0.500000
O O10 0.347163 0.229170 0.867411
O O11 0.499997 0.177406 0.750000
O O12 0.999999 0.143670 0.750000
O O13 0.401587 0.000000 0.825411
O O14 0.368956 0.125461 0.097306
O O15 0.500000 0.000000 0.000000
O O16 0.000000 0.000000 0.000000
O O17 0.000000 0.748983 0.000000
O O18 0.500000 0.500000 0.500000
O O19 0.000000 0.500000 0.500000
O O20 0.401590 0.000000 0.325411
#
# Coordination Sequence:
#
# PCOD9148458 Si02
#       8
#     2   2   4   4   2   4   2   4
#     4  10  20  32  54  86 112 140 191 242 281 334
#     4  10  22  38  58  88 124 154 191 248 303 342
#     4  10  21  40  62  90 117 158 200 246 292 353
#     4  10  22  39  58  86 122 156 191 244 303 350
#     4  10  20  32  54  86 112 140 191 242 281 334
#     4  10  21  40  62  90 117 158 200 246 292 353
#     4  10  22  38  58  88 124 154 191 248 303 342
#     4  10  22  39  58  86 122 156 191 244 303 350
#
# _framework density 23.45232
#
# number of rings (size 3 to 8) (size 9 to 14) (size 15 to 20)
#    0.000    2.000    1.667    1.000    0.000   10.667 
#    0.000    1.667    0.000    0.000    0.000    0.000 
#    0.000    0.000    0.000    0.000    0.000    0.000 
#
# Total GULP energy -134279.893019 kJ/mol
# GULP energy per Si atom -5594.995542 kJ/mol
# Density = 2.339894 g / cm^3
# Si number density = 23.452320 Si / 1000 Ang^3
#
#
#
# Elastic Constant Matrix: (Units=GPa)
#
#
# Indices 1 2 3 4 5 6 
#
# 1 137.1162 41.6775 57.4703 0.0000 54.5939 0.0000
# 2 41.6775 225.9380 61.7721 0.0000 46.9300 0.0000
# 3 57.4703 61.7721 173.9549 0.0000 58.2594 0.0000
# 4 0.0000 0.0000 0.0000 -1.4174 0.0000 8.5590
# 5 54.5939 46.9300 58.2594 0.0000 67.9469 0.0000
# 6 0.0000 0.0000 0.0000 8.5590 0.0000 23.5056
#
#
#
# Elastic Compliance Matrix: (Units=1/GPa)
#
#
# Indices 1 2 3 4 5 6 
#
# 1 0.010833 -0.000121 -0.000910 0.000000 -0.007840 0.000000
# 2 -0.000121 0.005270 -0.000905 0.000000 -0.002767 0.000000
# 3 -0.000910 -0.000905 0.008300 0.000000 -0.005760 0.000000
# 4 0.000000 0.000000 0.000000 -0.220557 0.000000 0.080311
# 5 -0.007840 -0.002767 -0.005760 0.000000 0.027867 0.000000
# 6 0.000000 0.000000 0.000000 0.080311 0.000000 0.013300
#
#
# Mechanical properties :
#
#
# Convention : Reuss Voigt Hill
#
# Bulk Modulus (GPa) = 48.70666 95.42766 72.06716
# Shear Modulus (GPa) = -34.65688 43.07963 4.21137
#
# Velocity S-wave (km/s) = -3.84833 4.29056 1.34150
# Velocity P-wave (km/s) = 1.03307 8.08230 5.76155
#
# Compressibility (1/GPa) = 0.02053107
#
# Stress axis : x y z
#
# Youngs Moduli (GPa) = 92.31109 189.73614 120.48518
#
# Poissons Ratio (x) = 0.02295 0.10967
# Poissons Ratio (y) = 0.01117 0.10902
# Poissons Ratio (z) = 0.08403 0.17168
#
# Static dielectric constant tensor:
#      x y z
#    x 1.776840 0.000000 0.046710 
#    y 0.000000 1.996360 0.000000 
#    z 0.046710 0.000000 1.833600 
# 
# From -- ./inp_files/12203.got.cif
#   From: 2010.05.17/outbox.cif.g08.bks.cpg/sg10_7_cif.got.tgz:12203.got - 2010.06.03 11:33:40.
