data_PCOD9148565
_publ_section_title
;
Structure prediction by ZEFSAII (Michael W. Deem and Ramdas Pophale) SiO2 
 PCOD9148565
Probable space group: P 2/M
;
_chemical_formula_sum "Si O2"
_cell_formula_units_Z 28
_cell_length_a 14.339238
_cell_length_b 7.657280
_cell_length_c 16.811499
_cell_angle_alpha 90.000000
_cell_angle_beta 130.921647
_cell_angle_gamma 90.000000
_cell_volume 1394.769574
_symmetry_space_group_name_H-M "P 2/M"
_symmetry_group_IT_number 10
_symmetry_cell_setting 'monoclinic'
loop_
_space_group_symop_operation_xyz
x,y,z
-x,y,-z
-x,-y,-z
x,-y,z
loop_
_atom_site_type_symbol
_atom_site_label
_atom_site_fract_x
_atom_site_fract_y
_atom_site_fract_z
Si Si1 0.052570 0.285710 0.338181
Si Si2 0.167886 0.705627 0.675489
Si Si3 0.468426 0.205612 0.229538
Si Si4 0.728660 0.289617 0.434717
Si Si5 0.429248 0.788047 0.881679
Si Si6 0.002032 0.286197 0.131496
Si Si7 0.190229 0.293300 0.102848
O O1 0.049058 0.500000 0.335566
O O2 0.187622 0.233210 0.444725
O O3 0.018144 0.225900 0.230654
O O4 0.951740 0.224839 0.346442
O O5 0.144720 0.500000 0.650045
O O6 0.207640 0.777734 0.611570
O O7 0.287910 0.728154 0.797814
O O8 0.585214 0.241427 0.351252
O O9 0.505087 0.277063 0.162587
O O10 0.335647 0.266193 0.184392
O O11 0.458231 0.000000 0.214412
O O12 0.732639 0.500000 0.434210
O O13 0.428745 0.000000 0.880642
O O14 0.500000 0.730006 0.000000
O O15 0.001691 0.500000 0.134803
O O16 0.115079 0.228621 0.137786
O O17 0.878322 0.228703 0.015629
O O18 0.169144 0.500000 0.091138
#
# Coordination Sequence:
#
# PCOD9148565 Si02
#       7
#     4   4   4   4   4   4   4
#     4   9  16  28  49  74  99 124 156 198 240 279
#     4   9  17  28  46  73  98 122 155 195 236 274
#     4  10  20  33  50  69  94 129 162 194 237 281
#     4   9  17  31  49  71  98 128 160 193 232 282
#     4   9  19  33  45  63  96 131 160 190 227 279
#     4   8  16  30  49  75  99 121 153 197 241 284
#     4   9  17  32  53  73  96 123 156 196 240 286
#
# _framework density 20.074999999999999
#
# number of rings (size 3 to 8) (size 9 to 14) (size 15 to 20)
#    0.000    3.000    0.000    1.714    2.000    2.571 
#    0.000    2.857    0.000   10.286    0.000    0.000 
#    0.000    0.000    0.000    0.000    0.000    0.000 
#
# Total GULP energy -156130.251752 kJ/mol
# GULP energy per Si atom -5576.080420 kJ/mol
# Density = 2.002931 g / cm^3
# Si number density = 20.075000 Si / 1000 Ang^3
#
#
#
# Elastic Constant Matrix: (Units=GPa)
#
#
# Indices 1 2 3 4 5 6 
#
# 1 80.3660 -1.5617 56.8386 0.0000 25.0107 0.0000
# 2 -1.5617 30.1603 -10.0138 0.0000 -4.2949 0.0000
# 3 56.8386 -10.0138 104.2781 0.0000 9.7313 0.0000
# 4 0.0000 0.0000 0.0000 292.1624 0.0000 239.7538
# 5 25.0107 -4.2949 9.7313 0.0000 27.0962 0.0000
# 6 0.0000 0.0000 0.0000 239.7538 0.0000 206.9819
#
#
#
# Elastic Compliance Matrix: (Units=1/GPa)
#
#
# Indices 1 2 3 4 5 6 
#
# 1 0.030192 -0.006743 -0.014903 0.000000 -0.023585 0.000000
# 2 -0.006743 0.036268 0.006251 0.000000 0.009728 0.000000
# 3 -0.014903 0.006251 0.017524 0.000000 0.008453 0.000000
# 4 0.000000 0.000000 0.000000 0.069215 0.000000 -0.080174
# 5 -0.023585 0.009728 0.008453 0.000000 0.057181 0.000000
# 6 0.000000 0.000000 0.000000 -0.080174 0.000000 0.097699
#
#
# Mechanical properties :
#
#
# Convention : Reuss Voigt Hill
#
# Bulk Modulus (GPa) = 18.79990 33.92563 26.36277
# Shear Modulus (GPa) = 14.02120 116.55084 65.28602
#
# Velocity S-wave (km/s) = 2.64567 7.62783 5.70891
# Velocity P-wave (km/s) = 4.32642 9.72185 7.52437
#
# Compressibility (1/GPa) = 0.05319176
#
# Stress axis : x y z
#
# Youngs Moduli (GPa) = 33.12098 27.57277 57.06299
#
# Poissons Ratio (x) = 0.18594 0.85044
# Poissons Ratio (y) = 0.22335 -0.35668
# Poissons Ratio (z) = 0.49362 -0.17235
#
# Static dielectric constant tensor:
#      x y z
#    x 1.713730 0.000000 0.003060 
#    y 0.000000 1.738450 0.000000 
#    z 0.003060 0.000000 1.708780 
# 
# From -- ./inp_files/46049.got.cif
#   From: 2010.05.17/outbox.cif.g08.bks.cpg/sg10_24_cif.got.tgz:46049.got - 2010.06.03 11:33:40.
