data_PCOD9148730
_publ_section_title
;
Structure prediction by ZEFSAII (Michael W. Deem and Ramdas Pophale) SiO2 
 PCOD9148730
Probable space group: P 2/M
;
_chemical_formula_sum "Si O2"
_cell_formula_units_Z 30
_cell_length_a 28.426804
_cell_length_b 10.283151
_cell_length_c 11.093163
_cell_angle_alpha 90.000000
_cell_angle_beta 32.518540
_cell_angle_gamma 90.000000
_cell_volume 1743.197832
_symmetry_space_group_name_H-M "P 2/M"
_symmetry_group_IT_number 10
_symmetry_cell_setting 'monoclinic'
loop_
_space_group_symop_operation_xyz
x,y,z
-x,y,-z
-x,-y,-z
x,-y,z
loop_
_atom_site_type_symbol
_atom_site_label
_atom_site_fract_x
_atom_site_fract_y
_atom_site_fract_z
Si Si1 0.000000 0.750189 0.000000
Si Si2 0.762266 0.150776 0.143736
Si Si3 0.416399 0.656566 0.837392
Si Si4 0.898570 0.357686 0.441400
Si Si5 0.909599 0.146838 0.623357
Si Si6 0.182753 0.851208 0.702220
Si Si7 0.721483 0.650602 0.673177
Si Si8 0.380920 0.657073 0.641511
O O1 0.963859 0.666088 0.189088
O O2 0.916049 0.828932 0.132314
O O3 0.809216 0.166784 0.171473
O O4 0.686773 0.256377 0.286272
O O5 0.730511 0.000000 0.207111
O O6 0.832037 0.168193 0.886042
O O7 0.409701 0.500000 0.853244
O O8 0.376923 0.694620 0.792479
O O9 0.519396 0.685993 0.614325
O O10 0.361981 0.700570 0.070994
O O11 0.913567 0.500000 0.462355
O O12 0.908201 0.247717 0.518975
O O13 0.801564 0.353020 0.595047
O O14 0.000000 0.156595 0.500000
O O15 0.902105 0.000000 0.591105
O O16 0.245842 0.747082 0.501163
O O17 0.208196 0.000000 0.619096
O O18 0.707997 0.500000 0.661427
O O19 0.366880 0.500000 0.661702
#
# Coordination Sequence:
#
# PCOD9148730 Si02
#       8
#     2   4   4   4   4   4   4   4
#     4  10  20  36  56  74 100 136 174 212 250 298
#     4  10  21  36  51  73 107 137 165 210 260 300
#     4   8  15  31  55  80 104 130 166 210 251 298
#     4  10  20  33  52  78 103 128 162 208 258 300
#     4  10  21  36  52  71  99 136 172 205 247 300
#     4  10  21  36  54  74  98 135 179 214 249 298
#     4   9  18  33  52  75 103 130 161 209 261 301
#     4   9  17  32  56  80 101 133 172 205 246 305
#
# _framework density 17.209752000000002
#
# number of rings (size 3 to 8) (size 9 to 14) (size 15 to 20)
#    0.000    2.533    0.000    2.800    0.000    6.667 
#    0.000    4.667    0.000    4.000    0.000    0.000 
#    0.000    0.000    0.000    0.000    0.000    0.000 
#
# Total GULP energy -167223.415359 kJ/mol
# GULP energy per Si atom -5574.113845 kJ/mol
# Density = 1.717058 g / cm^3
# Si number density = 17.209752 Si / 1000 Ang^3
#
#
#
# Elastic Constant Matrix: (Units=GPa)
#
#
# Indices 1 2 3 4 5 6 
#
# 1 72.6223 58.2152 30.8368 0.0000 7.9861 0.0000
# 2 58.2152 102.2373 48.8486 0.0000 13.2907 0.0000
# 3 30.8368 48.8486 83.5628 0.0000 10.9768 0.0000
# 4 0.0000 0.0000 0.0000 42.9521 0.0000 24.7933
# 5 7.9861 13.2907 10.9768 0.0000 21.3970 0.0000
# 6 0.0000 0.0000 0.0000 24.7933 0.0000 48.4852
#
#
#
# Elastic Compliance Matrix: (Units=1/GPa)
#
#
# Indices 1 2 3 4 5 6 
#
# 1 0.025432 -0.013849 -0.001257 0.000000 -0.000245 0.000000
# 2 -0.013849 0.021564 -0.006878 0.000000 -0.004697 0.000000
# 3 -0.001257 -0.006878 0.016973 0.000000 -0.003966 0.000000
# 4 0.000000 0.000000 0.000000 0.033032 0.000000 -0.016891
# 5 -0.000245 -0.004697 -0.003966 0.000000 0.051779 0.000000
# 6 0.000000 0.000000 0.000000 -0.016891 0.000000 0.029262
#
#
# Mechanical properties :
#
#
# Convention : Reuss Voigt Hill
#
# Bulk Modulus (GPa) = 49.99932 59.35815 54.67874
# Shear Modulus (GPa) = 21.86498 30.60165 26.23332
#
# Velocity S-wave (km/s) = 3.56827 4.22140 3.90850
# Velocity P-wave (km/s) = 6.78916 7.63715 7.22561
#
# Compressibility (1/GPa) = 0.02000027
#
# Stress axis : x y z
#
# Youngs Moduli (GPa) = 39.32048 46.37417 58.91837
#
# Poissons Ratio (x) = 0.64222 0.07408
# Poissons Ratio (y) = 0.54454 0.40524
# Poissons Ratio (z) = 0.04944 0.31896
#
# Static dielectric constant tensor:
#      x y z
#    x 1.561970 0.000000 0.002870 
#    y 0.000000 1.578780 0.000000 
#    z 0.002870 0.000000 1.600250 
# 
# From -- ./inp_files/57980.got.cif
#   From: 2010.05.17/outbox.cif.g08.bks.cpg/sg10_29_cif.got.tgz:57980.got - 2010.06.03 11:33:40.
