data_PCOD9148347
_publ_section_title
;
Structure prediction by ZEFSAII (Michael W. Deem and Ramdas Pophale) SiO2 
 PCOD9148347
Probable space group: P 2/M
;
_chemical_formula_sum "Si O2"
_cell_formula_units_Z 28
_cell_length_a 9.728455
_cell_length_b 7.362292
_cell_length_c 28.001601
_cell_angle_alpha 90.000000
_cell_angle_beta 37.076299
_cell_angle_gamma 90.000000
_cell_volume 1209.119476
_symmetry_space_group_name_H-M "P 2/M"
_symmetry_group_IT_number 10
_symmetry_cell_setting 'monoclinic'
loop_
_space_group_symop_operation_xyz
x,y,z
-x,y,-z
-x,-y,-z
x,-y,z
loop_
_atom_site_type_symbol
_atom_site_label
_atom_site_fract_x
_atom_site_fract_y
_atom_site_fract_z
Si Si1 0.641231 0.219292 0.303727
Si Si2 0.766310 0.719623 0.424123
Si Si3 0.444919 0.221811 0.872818
Si Si4 0.046337 0.794076 0.253711
Si Si5 0.701163 0.220818 0.980421
Si Si6 0.822105 0.714295 0.512529
Si Si7 0.221618 0.221352 0.835230
O O1 0.430462 0.269614 0.395811
O O2 0.627152 0.276619 0.252439
O O3 0.877706 0.287853 0.261172
O O4 0.649415 0.000000 0.302291
O O5 0.500000 0.765265 0.500000
O O6 0.781880 0.500000 0.415958
O O7 0.856279 0.785588 0.450021
O O8 0.898488 0.796960 0.342760
O O9 0.707613 0.284163 0.802276
O O10 0.315549 0.282610 0.860673
O O11 0.439731 0.000000 0.872196
O O12 0.341472 0.273625 0.952662
O O13 0.094486 0.000000 0.223578
O O14 0.960315 0.276230 0.897393
O O15 0.696163 0.000000 0.980064
O O16 0.500000 0.281671 0.000000
O O17 0.867030 0.500000 0.495708
O O18 0.000000 0.794665 0.500000
O O19 0.222324 0.000000 0.836361
#
# Coordination Sequence:
#
# PCOD9148347 Si02
#       7
#     4   4   4   4   4   4   4
#     4  10  20  33  49  73 103 132 164 205 251 297
#     4  10  20  36  55  73  95 128 169 209 248 295
#     4   9  17  28  43  67  98 131 165 202 244 292
#     4  10  20  32  49  74 103 131 164 206 251 296
#     4   9  15  25  43  65  94 132 168 200 240 291
#     4  10  22  38  54  72  97 129 167 209 251 298
#     4   9  17  28  43  66  98 132 165 202 244 292
#
# _framework density 23.157347999999999
#
# number of rings (size 3 to 8) (size 9 to 14) (size 15 to 20)
#    0.000    2.429    1.429    1.286    2.000    6.286 
#    0.000    0.000    0.000    0.000    0.000    1.000 
#    0.000    5.714    0.000    0.000    0.000    0.000 
#
# Total GULP energy -156396.447713 kJ/mol
# GULP energy per Si atom -5585.587418 kJ/mol
# Density = 2.310464 g / cm^3
# Si number density = 23.157348 Si / 1000 Ang^3
#
#
#
# Elastic Constant Matrix: (Units=GPa)
#
#
# Indices 1 2 3 4 5 6 
#
# 1 141.8677 -2.4188 7.2169 0.0000 18.5609 0.0000
# 2 -2.4188 81.1606 -18.1034 0.0000 0.4137 0.0000
# 3 7.2169 -18.1034 60.0370 0.0000 14.6839 0.0000
# 4 0.0000 0.0000 0.0000 -12.4465 0.0000 -16.4957
# 5 18.5609 0.4137 14.6839 0.0000 44.7485 0.0000
# 6 0.0000 0.0000 0.0000 -16.4957 0.0000 -18.9763
#
#
#
# Elastic Compliance Matrix: (Units=1/GPa)
#
#
# Indices 1 2 3 4 5 6 
#
# 1 0.007458 0.000220 -0.000079 0.000000 -0.003070 0.000000
# 2 0.000220 0.013316 0.004394 0.000000 -0.001656 0.000000
# 3 -0.000079 0.004394 0.019563 0.000000 -0.006427 0.000000
# 4 0.000000 0.000000 0.000000 0.528316 0.000000 -0.459254
# 5 -0.003070 -0.001656 -0.006427 0.000000 0.025745 0.000000
# 6 0.000000 0.000000 0.000000 -0.459254 0.000000 0.346521
#
#
# Mechanical properties :
#
#
# Convention : Reuss Voigt Hill
#
# Bulk Modulus (GPa) = 20.23999 28.49497 24.36748
# Shear Modulus (GPa) = 5.27249 22.42319 13.84784
#
# Velocity S-wave (km/s) = 1.51055 3.11512 2.44803
# Velocity P-wave (km/s) = 3.43533 5.02696 4.30533
#
# Compressibility (1/GPa) = 0.04940713
#
# Stress axis : x y z
#
# Youngs Moduli (GPa) = 134.08047 75.09552 51.11730
#
# Poissons Ratio (x) = -0.01654 0.00406
# Poissons Ratio (y) = -0.02953 -0.22461
# Poissons Ratio (z) = 0.01064 -0.32997
#
# Static dielectric constant tensor:
#      x y z
#    x 1.890760 0.000000 0.007830 
#    y 0.000000 1.893170 0.000000 
#    z 0.007830 0.000000 1.811310 
# 
# From -- ./inp_files/28476.got.cif
#   From: 2010.05.17/outbox.cif.g08.bks.cpg/sg10_15_cif.got.tgz:28476.got - 2010.06.03 11:33:40.
