data_PCOD9148746
_publ_section_title
;
Structure prediction by ZEFSAII (Michael W. Deem and Ramdas Pophale) SiO2 
 PCOD9148746
Probable space group: P 2/M
;
_chemical_formula_sum "Si O2"
_cell_formula_units_Z 32
_cell_length_a 33.761266
_cell_length_b 8.996057
_cell_length_c 12.652141
_cell_angle_alpha 90.000000
_cell_angle_beta 151.123892
_cell_angle_gamma 90.000000
_cell_volume 1855.699664
_symmetry_space_group_name_H-M "P 2/M"
_symmetry_group_IT_number 10
_symmetry_cell_setting 'monoclinic'
loop_
_space_group_symop_operation_xyz
x,y,z
-x,y,-z
-x,-y,-z
x,-y,z
loop_
_atom_site_type_symbol
_atom_site_label
_atom_site_fract_x
_atom_site_fract_y
_atom_site_fract_z
Si Si1 0.540414 0.325704 0.207593
Si Si2 0.730093 0.324168 0.696940
Si Si3 0.976794 0.329810 0.821159
Si Si4 0.811457 0.822348 0.489016
Si Si5 0.667210 0.677754 0.775956
Si Si6 0.325884 0.323082 0.972614
Si Si7 0.143250 0.822625 0.163993
Si Si8 0.496373 0.823987 0.316874
O O1 0.527357 0.500000 0.206705
O O2 0.638333 0.301844 0.436182
O O3 0.502180 0.221160 0.207170
O O4 0.500000 0.301008 0.000000
O O5 0.748801 0.500000 0.733289
O O6 0.721893 0.282877 0.801720
O O7 0.795634 0.234039 0.783096
O O8 0.965884 0.500000 0.760956
O O9 0.892225 0.240057 0.619042
O O10 0.000000 0.331412 0.000000
O O11 0.054077 0.252740 0.946444
O O12 0.732442 0.751226 0.250016
O O13 0.820816 0.783003 0.635355
O O14 0.808539 0.000000 0.474483
O O15 0.651075 0.500000 0.730324
O O16 0.580646 0.761320 0.562525
O O17 0.704006 0.706871 0.977215
O O18 0.328062 0.500000 0.961652
O O19 0.416936 0.257129 0.176900
O O20 0.134445 0.000000 0.140527
O O21 0.490669 0.000000 0.318121
#
# Coordination Sequence:
#
# PCOD9148746 Si02
#       8
#     4   4   4   4   4   4   4   4
#     4   9  19  35  52  72 101 141 179 216 260 308
#     4   9  18  33  53  76 101 132 176 219 256 305
#     4   9  17  32  54  78 104 138 176 209 249 306
#     4  10  21  35  51  79 114 140 166 209 266 315
#     4   9  20  39  57  74  99 137 183 226 264 306
#     4  11  22  36  56  77 102 138 181 223 262 311
#     4  10  20  33  52  79 111 141 169 206 256 314
#     4  11  22  34  51  77 105 136 175 220 269 316
#
# _framework density 17.24417
#
# number of rings (size 3 to 8) (size 9 to 14) (size 15 to 20)
#    0.000    2.250    0.000    3.750    1.750    7.750 
#    0.000    0.000    0.000    0.750    0.000    5.250 
#    0.000    0.000    0.000    0.000    0.000    0.000 
#
# Total GULP energy -178563.200494 kJ/mol
# GULP energy per Si atom -5580.100015 kJ/mol
# Density = 1.720492 g / cm^3
# Si number density = 17.244170 Si / 1000 Ang^3
#
#
#
# Elastic Constant Matrix: (Units=GPa)
#
#
# Indices 1 2 3 4 5 6 
#
# 1 91.4131 44.5107 36.1675 0.0000 19.5659 0.0000
# 2 44.5107 67.9780 26.4566 0.0000 7.8456 0.0000
# 3 36.1675 26.4566 29.2034 0.0000 4.5008 0.0000
# 4 0.0000 0.0000 0.0000 24.8775 0.0000 18.3895
# 5 19.5659 7.8456 4.5008 0.0000 18.0438 0.0000
# 6 0.0000 0.0000 0.0000 18.3895 0.0000 -67.6282
#
#
#
# Elastic Compliance Matrix: (Units=1/GPa)
#
#
# Indices 1 2 3 4 5 6 
#
# 1 0.029777 -0.006002 -0.027940 0.000000 -0.022710 0.000000
# 2 -0.006002 0.024363 -0.014568 0.000000 -0.000450 0.000000
# 3 -0.027940 -0.014568 0.079452 0.000000 0.016813 0.000000
# 4 0.000000 0.000000 0.000000 0.033469 0.000000 0.009101
# 5 -0.022710 -0.000450 0.016813 0.000000 0.076048 0.000000
# 6 0.000000 0.000000 0.000000 0.009101 0.000000 -0.012312
#
#
# Mechanical properties :
#
#
# Convention : Reuss Voigt Hill
#
# Bulk Modulus (GPa) = 27.34420 44.76267 36.05344
# Shear Modulus (GPa) = 14.70544 0.48927 7.59735
#
# Velocity S-wave (km/s) = 2.92340 0.53324 2.10127
# Velocity P-wave (km/s) = 5.22365 5.13747 5.18074
#
# Compressibility (1/GPa) = 0.03657083
#
# Stress axis : x y z
#
# Youngs Moduli (GPa) = 33.58254 41.04638 12.58616
#
# Poissons Ratio (x) = 0.24638 0.35166
# Poissons Ratio (y) = 0.20158 0.18336
# Poissons Ratio (z) = 0.93831 0.59796
#
# Static dielectric constant tensor:
#      x y z
#    x 1.589310 0.000000 -0.012500 
#    y 0.000000 1.576330 0.000000 
#    z -0.012500 0.000000 1.561110 
# 
# From -- ./inp_files/58287.got.cif
#   From: 2010.05.17/outbox.cif.g08.bks.cpg/sg10_30_cif.got.tgz:58287.got - 2010.06.03 11:33:40.
