data_PCOD9148412
_publ_section_title
;
Structure prediction by ZEFSAII (Michael W. Deem and Ramdas Pophale) SiO2 
 PCOD9148412
Probable space group: P 2/M
;
_chemical_formula_sum "Si O2"
_cell_formula_units_Z 32
_cell_length_a 20.488072
_cell_length_b 7.727812
_cell_length_c 12.054794
_cell_angle_alpha 90.000000
_cell_angle_beta 134.205586
_cell_angle_gamma 90.000000
_cell_volume 1368.173771
_symmetry_space_group_name_H-M "P 2/M"
_symmetry_group_IT_number 10
_symmetry_cell_setting 'monoclinic'
loop_
_space_group_symop_operation_xyz
x,y,z
-x,y,-z
-x,-y,-z
x,-y,z
loop_
_atom_site_type_symbol
_atom_site_label
_atom_site_fract_x
_atom_site_fract_y
_atom_site_fract_z
Si Si1 0.960201 0.786884 0.072352
Si Si2 0.270423 0.695758 0.519123
Si Si3 0.790412 0.296544 0.235078
Si Si4 0.395414 0.709289 0.870259
Si Si5 0.401044 0.798134 0.508879
Si Si6 0.209648 0.201676 0.001261
Si Si7 0.902712 0.807203 0.582072
Si Si8 0.405727 0.797851 0.248952
O O1 0.020599 0.725748 0.248888
O O2 0.858227 0.731267 0.985213
O O3 0.962553 0.000000 0.075436
O O4 0.000000 0.732552 0.000000
O O5 0.243417 0.500000 0.516134
O O6 0.352380 0.745923 0.698826
O O7 0.312762 0.705466 0.449010
O O8 0.184052 0.811566 0.438266
O O9 0.782669 0.500000 0.206593
O O10 0.688096 0.230141 0.148244
O O11 0.828592 0.212056 0.168601
O O12 0.859419 0.271660 0.419741
O O13 0.600420 0.500000 0.110910
O O14 0.500000 0.773510 0.000000
O O15 0.404938 0.794409 0.381438
O O16 0.496438 0.722888 0.668463
O O17 0.394235 0.000000 0.532622
O O18 0.224966 0.000000 0.048309
O O19 0.309628 0.283677 0.105221
O O20 0.933065 0.000000 0.588610
O O21 0.408066 0.000000 0.215739
#
# Coordination Sequence:
#
# PCOD9148412 Si02
#       8
#     4   4   4   4   4   4   4   4
#     4   9  20  37  61  91 113 140 188 238 286 337
#     4  10  20  32  51  80 111 146 185 227 280 333
#     4  10  21  37  57  82 116 151 189 231 280 341
#     4   8  16  31  49  70 101 143 183 220 264 316
#     4   9  17  32  52  77 108 148 191 225 275 336
#     4  10  20  36  59  85 115 147 187 239 287 335
#     4  10  20  37  61  84 110 146 190 238 282 332
#     4   8  17  32  52  78 110 146 185 233 279 327
#
# _framework density 23.388840999999999
#
# number of rings (size 3 to 8) (size 9 to 14) (size 15 to 20)
#    0.000    2.750    0.000    2.625    3.500    0.500 
#    0.000    5.625    0.000    4.125    0.000    0.000 
#    0.000    0.000    0.000    0.000    0.000    0.000 
#
# Total GULP energy -178379.954810 kJ/mol
# GULP energy per Si atom -5574.373588 kJ/mol
# Density = 2.333561 g / cm^3
# Si number density = 23.388841 Si / 1000 Ang^3
#
#
#
# Elastic Constant Matrix: (Units=GPa)
#
#
# Indices 1 2 3 4 5 6 
#
# 1 73.8292 -2.1948 18.5706 0.0000 -16.3148 0.0000
# 2 -2.1948 41.8089 4.3518 0.0000 2.3530 0.0000
# 3 18.5706 4.3518 69.5452 0.0000 15.3738 0.0000
# 4 0.0000 0.0000 0.0000 -13.4926 0.0000 11.3995
# 5 -16.3148 2.3530 15.3738 0.0000 19.6723 0.0000
# 6 0.0000 0.0000 0.0000 11.3995 0.0000 -2.2342
#
#
#
# Elastic Compliance Matrix: (Units=1/GPa)
#
#
# Indices 1 2 3 4 5 6 
#
# 1 0.023156 0.000901 -0.012646 0.000000 0.028979 0.000000
# 2 0.000901 0.024179 -0.001547 0.000000 -0.000936 0.000000
# 3 -0.012646 -0.001547 0.024334 0.000000 -0.029320 0.000000
# 4 0.000000 0.000000 0.000000 0.022386 0.000000 0.114219
# 5 0.028979 -0.000936 -0.029320 0.000000 0.097892 0.000000
# 6 0.000000 0.000000 0.000000 0.114219 0.000000 0.135191
#
#
# Mechanical properties :
#
#
# Convention : Reuss Voigt Hill
#
# Bulk Modulus (GPa) = 22.17957 25.18205 23.68081
# Shear Modulus (GPa) = 13.55930 11.75281 12.65605
#
# Velocity S-wave (km/s) = 2.41038 2.24407 2.32871
# Velocity P-wave (km/s) = 4.15333 4.18385 4.16861
#
# Compressibility (1/GPa) = 0.04508654
#
# Stress axis : x y z
#
# Youngs Moduli (GPa) = 43.18480 41.35763 41.09434
#
# Poissons Ratio (x) = -0.03726 0.51968
# Poissons Ratio (y) = -0.03891 0.06356
# Poissons Ratio (z) = 0.54611 0.06397
#
# Static dielectric constant tensor:
#      x y z
#    x 1.904580 0.000000 0.013450 
#    y 0.000000 1.889080 0.000000 
#    z 0.013450 0.000000 1.946800 
# 
# From -- ./inp_files/55387.got.cif
#   From: 2010.05.17/outbox.cif.g08.bks.cpg/sg10_28_cif.got.tgz:55387.got - 2010.06.03 11:33:40.
