data_PCOD9148103
_publ_section_title
;
Structure prediction by ZEFSAII (Michael W. Deem and Ramdas Pophale) SiO2 
 PCOD9148103
Probable space group: P 2/M
;
_chemical_formula_sum "Si O2"
_cell_formula_units_Z 25
_cell_length_a 12.084019
_cell_length_b 19.245597
_cell_length_c 8.225761
_cell_angle_alpha 90.000000
_cell_angle_beta 143.634898
_cell_angle_gamma 90.000000
_cell_volume 1134.282470
_symmetry_space_group_name_H-M "P 2/M"
_symmetry_group_IT_number 10
_symmetry_cell_setting 'monoclinic'
loop_
_space_group_symop_operation_xyz
x,y,z
-x,y,-z
-x,-y,-z
x,-y,z
loop_
_atom_site_type_symbol
_atom_site_label
_atom_site_fract_x
_atom_site_fract_y
_atom_site_fract_z
Si Si1 0.421370 0.787350 0.639023
Si Si2 0.945466 0.361041 0.689500
Si Si3 0.260162 0.136278 0.137027
Si Si4 0.935367 0.794349 0.608397
Si Si5 0.743801 0.577998 0.151825
Si Si6 0.587076 0.624112 0.430300
Si Si7 0.500000 0.000000 0.500000
O O1 0.613347 0.828959 0.855452
O O2 0.303599 0.816244 0.345545
O O3 0.286373 0.799979 0.630843
O O4 0.451257 0.705776 0.648188
O O5 0.990038 0.279565 0.756093
O O6 0.810919 0.369570 0.370822
O O7 0.808926 0.385406 0.671729
O O8 0.127255 0.403262 0.851874
O O9 0.344515 0.061400 0.274266
O O10 0.047757 0.144686 0.831884
O O11 0.000000 0.791612 0.500000
O O12 0.783943 0.500000 0.254823
O O13 0.531860 0.584451 0.845987
O O14 0.500000 0.605326 0.500000
#
# Coordination Sequence:
#
# PCOD9148103 Si02
#       7
#     4   4   4   4   4   4   1
#     4   9  20  35  59  86 116 153 191 240 292 339
#     4  10  22  38  59  84 113 151 199 240 299 352
#     4  10  19  40  61  88 119 153 200 227 281 341
#     4  11  21  34  59  93 120 145 191 248 298 334
#     4  11  23  41  59  78 112 160 202 242 292 362
#     4  11  22  37  58  87 115 149 191 251 304 349
#     4   8  20  40  68  86 118 172 196 226 262 354
#
# _framework density 22.040365000000001
#
# number of rings (size 3 to 8) (size 9 to 14) (size 15 to 20)
#    0.000    1.920    3.200    2.880    0.000    3.520 
#    0.000    7.600    0.000    3.840    0.000    0.000 
#    0.000    0.000    0.000    0.000    0.000    0.000 
#
# Total GULP energy -139442.388831 kJ/mol
# GULP energy per Si atom -5577.695553 kJ/mol
# Density = 2.199020 g / cm^3
# Si number density = 22.040365 Si / 1000 Ang^3
#
#
#
# Elastic Constant Matrix: (Units=GPa)
#
#
# Indices 1 2 3 4 5 6 
#
# 1 122.4325 -6.0481 1.1879 0.0000 7.5282 0.0000
# 2 -6.0481 96.3808 10.3243 0.0000 1.1788 0.0000
# 3 1.1879 10.3243 54.5115 0.0000 7.9851 0.0000
# 4 0.0000 0.0000 0.0000 21.9408 0.0000 3.6587
# 5 7.5282 1.1788 7.9851 0.0000 30.5523 0.0000
# 6 0.0000 0.0000 0.0000 3.6587 0.0000 -0.1580
#
#
#
# Elastic Compliance Matrix: (Units=1/GPa)
#
#
# Indices 1 2 3 4 5 6 
#
# 1 0.008322 0.000546 0.000020 0.000000 -0.002077 0.000000
# 2 0.000546 0.010627 -0.002022 0.000000 -0.000016 0.000000
# 3 0.000020 -0.002022 0.019462 0.000000 -0.005013 0.000000
# 4 0.000000 0.000000 0.000000 0.009376 0.000000 0.217094
# 5 -0.002077 -0.000016 -0.005013 0.000000 0.034553 0.000000
# 6 0.000000 0.000000 0.000000 0.217094 0.000000 -1.301875
#
#
# Mechanical properties :
#
#
# Convention : Reuss Voigt Hill
#
# Bulk Modulus (GPa) = 28.17199 31.58367 29.87783
# Shear Modulus (GPa) = -4.15010 28.32439 12.08714
#
# Velocity S-wave (km/s) = -1.37370 3.58874 2.34435
# Velocity P-wave (km/s) = 3.20838 5.61543 4.57312
#
# Compressibility (1/GPa) = 0.03549625
#
# Stress axis : x y z
#
# Youngs Moduli (GPa) = 120.16020 94.10390 51.38304
#
# Poissons Ratio (x) = -0.05134 -0.00100
# Poissons Ratio (y) = -0.06555 0.10391
# Poissons Ratio (z) = -0.00235 0.19030
#
# Static dielectric constant tensor:
#      x y z
#    x 1.917330 0.000000 0.015780 
#    y 0.000000 1.717580 0.000000 
#    z 0.015780 0.000000 1.821200 
# 
# From -- ./inp_files/25997.got.cif
#   From: 2010.05.17/outbox.cif.g08.bks.cpg/sg10_13_cif.got.tgz:25997.got - 2010.06.03 11:33:40.
