data_PCOD9148032
_publ_section_title
;
Structure prediction by ZEFSAII (Michael W. Deem and Ramdas Pophale) SiO2 
 PCOD9148032
Probable space group: P 2/M
;
_chemical_formula_sum "Si O2"
_cell_formula_units_Z 28
_cell_length_a 15.040754
_cell_length_b 19.593419
_cell_length_c 8.646974
_cell_angle_alpha 90.000000
_cell_angle_beta 147.024013
_cell_angle_gamma 90.000000
_cell_volume 1386.986851
_symmetry_space_group_name_H-M "P 2/M"
_symmetry_group_IT_number 10
_symmetry_cell_setting 'monoclinic'
loop_
_space_group_symop_operation_xyz
x,y,z
-x,y,-z
-x,-y,-z
x,-y,z
loop_
_atom_site_type_symbol
_atom_site_label
_atom_site_fract_x
_atom_site_fract_y
_atom_site_fract_z
Si Si1 0.820132 0.425498 0.308620
Si Si2 0.616286 0.691654 0.544352
Si Si3 0.318034 0.155939 0.680158
Si Si4 0.321154 0.164806 0.312010
Si Si5 0.625659 0.295381 0.062403
Si Si6 0.184549 0.425937 0.327569
Si Si7 0.009616 0.078884 0.825088
O O1 0.745996 0.500000 0.156225
O O2 0.733827 0.354326 0.145411
O O3 0.823166 0.423265 0.498961
O O4 0.000000 0.424607 0.500000
O O5 0.500000 0.657196 0.500000
O O6 0.715137 0.754203 0.762170
O O7 0.720727 0.636793 0.607390
O O8 0.491969 0.729151 0.245302
O O9 0.319361 0.154030 0.495079
O O10 0.299871 0.231502 0.734533
O O11 0.156599 0.112297 0.484021
O O12 0.500000 0.132886 0.000000
O O13 0.500000 0.150240 0.500000
O O14 0.174247 0.120622 0.026531
O O15 0.500000 0.330320 0.000000
O O16 0.255737 0.500000 0.386674
O O17 0.000000 0.423345 0.000000
O O18 0.022325 0.000000 0.797659
O O19 0.000000 0.080858 0.000000
#
# Coordination Sequence:
#
# PCOD9148032 Si02
#       7
#     4   4   4   4   4   4   4
#     4  10  22  38  58  84 116 158 200 247 307 359
#     4  11  23  38  59  86 114 154 205 246 305 363
#     4  10  19  38  61  87 122 156 197 250 299 350
#     4  10  20  37  60  89 122 155 197 249 295 358
#     4  11  20  39  58  84 116 152 199 251 300 357
#     4  10  22  39  56  81 119 157 199 250 303 359
#     4   9  20  38  63  93 121 161 203 233 291 369
#
# _framework density 20.187646000000001
#
# number of rings (size 3 to 8) (size 9 to 14) (size 15 to 20)
#    0.000    1.857    4.286    0.000    2.000    4.571 
#    2.571    0.714    0.000    0.857    0.000    0.000 
#    0.000    0.000    0.000    0.000    0.000    0.000 
#
# Total GULP energy -155944.224463 kJ/mol
# GULP energy per Si atom -5569.436588 kJ/mol
# Density = 2.014170 g / cm^3
# Si number density = 20.187646 Si / 1000 Ang^3
#
#
#
# Elastic Constant Matrix: (Units=GPa)
#
#
# Indices 1 2 3 4 5 6 
#
# 1 78.8262 50.4637 17.3367 0.0000 25.0756 0.0000
# 2 50.4637 162.9760 79.7983 0.0000 37.0174 0.0000
# 3 17.3367 79.7983 94.9589 0.0000 21.0799 0.0000
# 4 0.0000 0.0000 0.0000 26.9217 0.0000 26.6062
# 5 25.0756 37.0174 21.0799 0.0000 27.4383 0.0000
# 6 0.0000 0.0000 0.0000 26.6062 0.0000 35.0731
#
#
#
# Elastic Compliance Matrix: (Units=1/GPa)
#
#
# Indices 1 2 3 4 5 6 
#
# 1 0.019291 -0.004339 0.003301 0.000000 -0.014312 0.000000
# 2 -0.004339 0.013547 -0.008940 0.000000 -0.007443 0.000000
# 3 0.003301 -0.008940 0.018606 0.000000 -0.005251 0.000000
# 4 0.000000 0.000000 0.000000 0.148404 0.000000 -0.112578
# 5 -0.014312 -0.007443 -0.005251 0.000000 0.063601 0.000000
# 6 0.000000 0.000000 0.000000 -0.112578 0.000000 0.113913
#
#
# Mechanical properties :
#
#
# Convention : Reuss Voigt Hill
#
# Bulk Modulus (GPa) = 31.75649 70.21764 50.98706
# Shear Modulus (GPa) = 12.26052 30.49743 21.37897
#
# Velocity S-wave (km/s) = 2.46708 3.89099 3.25778
# Velocity P-wave (km/s) = 4.88673 7.41919 6.28190
#
# Compressibility (1/GPa) = 0.03148962
#
# Stress axis : x y z
#
# Youngs Moduli (GPa) = 51.83873 73.81594 53.74515
#
# Poissons Ratio (x) = 0.32027 -0.17743
# Poissons Ratio (y) = 0.22491 0.48047
# Poissons Ratio (z) = -0.17114 0.65990
#
# Static dielectric constant tensor:
#      x y z
#    x 1.740380 0.000000 -0.024850 
#    y 0.000000 1.741500 0.000000 
#    z -0.024850 0.000000 1.761230 
# 
# From -- ./inp_files/30500.got.cif
#   From: 2010.05.17/outbox.cif.g08.bks.cpg/sg10_16_cif.got.tgz:30500.got - 2010.06.03 11:33:40.
