data_PCOD9148526
_publ_section_title
;
Structure prediction by ZEFSAII (Michael W. Deem and Ramdas Pophale) SiO2 
 PCOD9148526
Probable space group: P 2/M
;
_chemical_formula_sum "Si O2"
_cell_formula_units_Z 32
_cell_length_a 11.716751
_cell_length_b 7.352977
_cell_length_c 28.989007
_cell_angle_alpha 90.000000
_cell_angle_beta 144.852327
_cell_angle_gamma 90.000000
_cell_volume 1437.769481
_symmetry_space_group_name_H-M "P 2/M"
_symmetry_group_IT_number 10
_symmetry_cell_setting 'monoclinic'
loop_
_space_group_symop_operation_xyz
x,y,z
-x,y,-z
-x,-y,-z
x,-y,z
loop_
_atom_site_type_symbol
_atom_site_label
_atom_site_fract_x
_atom_site_fract_y
_atom_site_fract_z
Si Si1 0.638528 0.709945 0.085472
Si Si2 0.496425 0.713406 0.326982
Si Si3 0.969384 0.218542 0.838593
Si Si4 0.580424 0.277963 0.454272
Si Si5 0.050920 0.791526 0.066319
Si Si6 0.489829 0.278700 0.769536
Si Si7 0.807796 0.721111 0.617881
Si Si8 0.250833 0.722625 0.780292
O O1 0.575110 0.500000 0.069191
O O2 0.638279 0.786837 0.136961
O O3 0.864004 0.715614 0.141460
O O4 0.500000 0.792924 0.000000
O O5 0.543477 0.500000 0.342301
O O6 0.255950 0.729199 0.248485
O O7 0.586962 0.788206 0.404071
O O8 0.565958 0.784833 0.300332
O O9 0.017086 0.285291 0.906624
O O10 0.974828 0.000000 0.841206
O O11 0.581408 0.500000 0.453775
O O12 0.370493 0.223307 0.407509
O O13 0.748340 0.223275 0.546283
O O14 0.287968 0.787632 0.148250
O O15 0.977097 0.000000 0.040584
O O16 0.000000 0.706785 0.000000
O O17 0.495571 0.500000 0.770918
O O18 0.352590 0.222304 0.766314
O O19 0.809115 0.500000 0.618673
O O20 0.022688 0.781835 0.704722
O O21 0.251704 0.500000 0.781756
#
# Coordination Sequence:
#
# PCOD9148526 Si02
#       8
#     4   4   4   4   4   4   4   4
#     4  10  21  34  49  69  93 124 158 193 234 279
#     4   9  16  29  48  70  95 121 153 194 233 273
#     4  10  20  33  49  70  94 119 154 194 234 280
#     4   8  13  22  41  68  93 119 156 194 229 273
#     4   9  19  34  50  67  89 119 154 194 237 276
#     4   9  18  30  46  69  93 122 156 191 233 277
#     4   8  13  22  39  65  94 124 154 188 232 277
#     4   9  17  30  45  65  98 129 154 191 237 281
#
# _framework density 22.256696999999999
#
# number of rings (size 3 to 8) (size 9 to 14) (size 15 to 20)
#    0.000    3.000    0.000    1.875    1.750    3.000 
#    0.000    1.250    0.000    3.750    0.000    7.875 
#    0.000    4.000    0.000    0.000    0.000    0.000 
#
# Total GULP energy -178582.386067 kJ/mol
# GULP energy per Si atom -5580.699565 kJ/mol
# Density = 2.220604 g / cm^3
# Si number density = 22.256697 Si / 1000 Ang^3
#
#
#
# Elastic Constant Matrix: (Units=GPa)
#
#
# Indices 1 2 3 4 5 6 
#
# 1 106.1366 3.5934 58.7506 0.0000 -38.8052 0.0000
# 2 3.5934 85.9705 0.8545 0.0000 -9.1136 0.0000
# 3 58.7506 0.8545 99.6583 0.0000 -45.7595 0.0000
# 4 0.0000 0.0000 0.0000 9.3640 0.0000 12.3778
# 5 -38.8052 -9.1136 -45.7595 0.0000 45.2236 0.0000
# 6 0.0000 0.0000 0.0000 12.3778 0.0000 -8.1040
#
#
#
# Elastic Compliance Matrix: (Units=1/GPa)
#
#
# Indices 1 2 3 4 5 6 
#
# 1 0.015219 0.000215 -0.005524 0.000000 0.007513 0.000000
# 2 0.000215 0.012077 0.001815 0.000000 0.004455 0.000000
# 3 -0.005524 0.001815 0.021044 0.000000 0.016919 0.000000
# 4 0.000000 0.000000 0.000000 0.035374 0.000000 0.054029
# 5 0.007513 0.004455 0.016919 0.000000 0.046576 0.000000
# 6 0.000000 0.000000 0.000000 0.054029 0.000000 -0.040874
#
#
# Mechanical properties :
#
#
# Convention : Reuss Voigt Hill
#
# Bulk Modulus (GPa) = 24.18211 46.46249 35.32230
# Shear Modulus (GPa) = 45.37685 24.53453 34.95569
#
# Velocity S-wave (km/s) = 4.52020 3.32376 3.96734
# Velocity P-wave (km/s) = 6.17508 5.97084 6.07382
#
# Compressibility (1/GPa) = 0.04135289
#
# Stress axis : x y z
#
# Youngs Moduli (GPa) = 65.70630 82.80095 47.51955
#
# Poissons Ratio (x) = -0.01782 0.26251
# Poissons Ratio (y) = -0.01414 -0.08626
# Poissons Ratio (z) = 0.36298 -0.15031
#
# Static dielectric constant tensor:
#      x y z
#    x 1.818180 0.000000 -0.053960 
#    y 0.000000 1.832910 0.000000 
#    z -0.053960 0.000000 1.789440 
# 
# From -- ./inp_files/83534.got.cif
#   From: 2010.05.17/outbox.cif.g08.bks.cpg/sg10_42_cif.got.tgz:83534.got - 2010.06.03 11:33:40.
