data_PCOD9148638
_publ_section_title
;
Structure prediction by ZEFSAII (Michael W. Deem and Ramdas Pophale) SiO2 
 PCOD9148638
Probable space group: P 2/M
;
_chemical_formula_sum "Si O2"
_cell_formula_units_Z 28
_cell_length_a 9.580314
_cell_length_b 14.068642
_cell_length_c 19.737419
_cell_angle_alpha 90.000000
_cell_angle_beta 35.043822
_cell_angle_gamma 90.000000
_cell_volume 1527.522370
_symmetry_space_group_name_H-M "P 2/M"
_symmetry_group_IT_number 10
_symmetry_cell_setting 'monoclinic'
loop_
_space_group_symop_operation_xyz
x,y,z
-x,y,-z
-x,-y,-z
x,-y,z
loop_
_atom_site_type_symbol
_atom_site_label
_atom_site_fract_x
_atom_site_fract_y
_atom_site_fract_z
Si Si1 0.982551 0.892950 0.278682
Si Si2 0.442588 0.391025 0.383633
Si Si3 0.254667 0.796371 0.052657
Si Si4 0.479331 0.108125 0.171698
Si Si5 0.992069 0.392254 0.813198
Si Si6 0.781815 0.244843 0.632216
Si Si7 0.881703 0.699893 0.378343
O O1 0.063203 0.859473 0.171601
O O2 0.231014 0.894705 0.224894
O O3 0.829611 0.806436 0.371472
O O4 0.881959 0.000000 0.319252
O O5 0.360018 0.500000 0.410046
O O6 0.732816 0.389224 0.268781
O O7 0.338063 0.325765 0.365804
O O8 0.340970 0.348713 0.494510
O O9 0.162957 0.688338 0.087992
O O10 0.500000 0.798000 0.000000
O O11 0.322093 0.839905 0.953673
O O12 0.408777 0.167745 0.265816
O O13 0.548627 0.000000 0.158627
O O14 0.899644 0.500000 0.855534
O O15 0.017230 0.360130 0.724749
O O16 0.000000 0.201510 0.500000
O O17 0.909593 0.289436 0.647573
#
# Coordination Sequence:
#
# PCOD9148638 Si02
#       7
#     4   4   4   4   4   4   4
#     4   8  14  26  47  76 104 127 157 199 244 288
#     4  10  20  34  50  69  99 137 167 196 245 299
#     4   9  17  30  49  74 100 127 163 204 245 289
#     4   9  16  29  51  74  96 126 163 201 241 288
#     4  10  20  33  51  74  99 129 164 205 250 290
#     4   9  19  33  50  76 103 129 162 199 240 285
#     4   9  17  30  52  78 100 126 166 205 237 282
#
# _framework density 18.330337
#
# number of rings (size 3 to 8) (size 9 to 14) (size 15 to 20)
#    0.000    2.857    0.000    2.143    0.000    6.571 
#    0.000    3.571    0.000   14.571    0.000    0.000 
#    0.000    0.000    0.000    0.000    0.000    0.000 
#
# Total GULP energy -156087.553809 kJ/mol
# GULP energy per Si atom -5574.555493 kJ/mol
# Density = 1.828862 g / cm^3
# Si number density = 18.330337 Si / 1000 Ang^3
#
#
#
# Elastic Constant Matrix: (Units=GPa)
#
#
# Indices 1 2 3 4 5 6 
#
# 1 34.5057 29.4234 27.1752 0.0000 15.5676 0.0000
# 2 29.4234 177.9261 74.6891 0.0000 26.1868 0.0000
# 3 27.1752 74.6891 82.0851 0.0000 25.0749 0.0000
# 4 0.0000 0.0000 0.0000 20.8153 0.0000 23.4937
# 5 15.5676 26.1868 25.0749 0.0000 15.5958 0.0000
# 6 0.0000 0.0000 0.0000 23.4937 0.0000 -167.8787
#
#
#
# Elastic Compliance Matrix: (Units=1/GPa)
#
#
# Indices 1 2 3 4 5 6 
#
# 1 0.053101 -0.000788 -0.002113 0.000000 -0.048285 0.000000
# 2 -0.000788 0.009225 -0.007157 0.000000 -0.003198 0.000000
# 3 -0.002113 -0.007157 0.029633 0.000000 -0.033517 0.000000
# 4 0.000000 0.000000 0.000000 0.041488 0.000000 0.005806
# 5 -0.048285 -0.003198 -0.033517 0.000000 0.171576 0.000000
# 6 0.000000 0.000000 0.000000 0.005806 0.000000 -0.005144
#
#
# Mechanical properties :
#
#
# Convention : Reuss Voigt Hill
#
# Bulk Modulus (GPa) = 13.91905 61.89916 37.90910
# Shear Modulus (GPa) = 14.53735 -15.41158 -0.43712
#
# Velocity S-wave (km/s) = 2.81922 -2.90275 -0.48886
# Velocity P-wave (km/s) = 4.26699 4.75473 4.51745
#
# Compressibility (1/GPa) = 0.07184399
#
# Stress axis : x y z
#
# Youngs Moduli (GPa) = 18.83212 108.39703 33.74672
#
# Poissons Ratio (x) = 0.08539 0.07131
# Poissons Ratio (y) = 0.01484 0.24151
# Poissons Ratio (z) = 0.03979 0.77575
#
# Static dielectric constant tensor:
#      x y z
#    x 1.623010 0.000000 -0.013900 
#    y 0.000000 1.635170 0.000000 
#    z -0.013900 0.000000 1.638840 
# 
# From -- ./inp_files/75286.got.cif
#   From: 2010.05.17/outbox.cif.g08.bks.cpg/sg10_38_cif.got.tgz:75286.got - 2010.06.03 11:33:40.
