data_PCOD9148688
_publ_section_title
;
Structure prediction by ZEFSAII (Michael W. Deem and Ramdas Pophale) SiO2 
 PCOD9148688
Probable space group: P 2/M
;
_chemical_formula_sum "Si O2"
_cell_formula_units_Z 32
_cell_length_a 26.909907
_cell_length_b 7.912799
_cell_length_c 20.582029
_cell_angle_alpha 90.000000
_cell_angle_beta 162.578155
_cell_angle_gamma 90.000000
_cell_volume 1312.166579
_symmetry_space_group_name_H-M "P 2/M"
_symmetry_group_IT_number 10
_symmetry_cell_setting 'monoclinic'
loop_
_space_group_symop_operation_xyz
x,y,z
-x,y,-z
-x,-y,-z
x,-y,z
loop_
_atom_site_type_symbol
_atom_site_label
_atom_site_fract_x
_atom_site_fract_y
_atom_site_fract_z
Si Si1 0.270879 0.693882 0.779736
Si Si2 0.976920 0.203387 0.814866
Si Si3 0.829202 0.796531 0.821119
Si Si4 0.634933 0.298954 0.378911
Si Si5 0.325797 0.699075 0.712579
Si Si6 0.842458 0.800089 0.081406
Si Si7 0.525879 0.302583 0.606002
Si Si8 0.741299 0.197210 0.089903
O O1 0.218300 0.500000 0.710011
O O2 0.239446 0.775194 0.669229
O O3 0.472385 0.700779 0.031510
O O4 0.217520 0.750930 0.784808
O O5 0.802338 0.264435 0.626669
O O6 0.969521 0.000000 0.804273
O O7 0.128539 0.246804 0.051354
O O8 0.026912 0.274696 0.806683
O O9 0.654163 0.716349 0.585230
O O10 0.813429 0.000000 0.794089
O O11 0.000000 0.744783 0.000000
O O12 0.609761 0.500000 0.342094
O O13 0.692752 0.222136 0.381262
O O14 0.454949 0.225882 0.168744
O O15 0.281150 0.500000 0.654644
O O16 0.665154 0.783265 0.824023
O O17 0.833683 0.724375 0.142857
O O18 0.878485 0.000000 0.131716
O O19 0.500000 0.233816 0.500000
O O20 0.569412 0.500000 0.655492
O O21 0.773358 0.000000 0.128497
#
# Coordination Sequence:
#
# PCOD9148688 Si02
#       8
#     4   4   4   4   4   4   4   4
#     4   8  13  26  48  72 101 135 172 214 259 304
#     4  10  21  38  56  76 104 139 179 218 257 308
#     4  10  22  39  60  82 105 139 178 214 260 316
#     4  10  20  34  53  78 109 141 172 213 267 315
#     4   7  12  25  46  71 100 137 173 205 252 315
#     4  10  22  39  58  75 102 146 182 210 255 316
#     4  11  23  38  58  84 109 133 172 222 263 306
#     4  10  20  33  51  79 108 136 176 219 257 306
#
# _framework density 24.387145
#
# number of rings (size 3 to 8) (size 9 to 14) (size 15 to 20)
#    0.000    2.500    1.250    2.625    1.750    2.750 
#    0.000    5.625    0.000    0.750    0.000    5.250 
#    0.000    0.000    0.000    0.000    0.000    0.000 
#
# Total GULP energy -178456.141475 kJ/mol
# GULP energy per Si atom -5576.754421 kJ/mol
# Density = 2.433164 g / cm^3
# Si number density = 24.387145 Si / 1000 Ang^3
#
#
#
# Elastic Constant Matrix: (Units=GPa)
#
#
# Indices 1 2 3 4 5 6 
#
# 1 133.0825 7.0603 -3.1763 0.0000 14.8456 0.0000
# 2 7.0603 29.8197 -15.0061 0.0000 -3.1208 0.0000
# 3 -3.1763 -15.0061 48.6969 0.0000 18.5599 0.0000
# 4 0.0000 0.0000 0.0000 131.2242 0.0000 0.2295
# 5 14.8456 -3.1208 18.5599 0.0000 19.6004 0.0000
# 6 0.0000 0.0000 0.0000 0.2295 0.0000 8.3671
#
#
#
# Elastic Compliance Matrix: (Units=1/GPa)
#
#
# Indices 1 2 3 4 5 6 
#
# 1 0.008930 -0.000996 0.004559 0.000000 -0.011239 0.000000
# 2 -0.000996 0.040668 0.015196 0.000000 -0.007159 0.000000
# 3 0.004559 0.015196 0.040540 0.000000 -0.039421 0.000000
# 4 0.000000 0.000000 0.000000 0.007621 0.000000 -0.000209
# 5 -0.011239 -0.007159 -0.039421 0.000000 0.095720 0.000000
# 6 0.000000 0.000000 0.000000 -0.000209 0.000000 0.119521
#
#
# Mechanical properties :
#
#
# Convention : Reuss Voigt Hill
#
# Bulk Modulus (GPa) = 7.83364 21.03943 14.43654
# Shear Modulus (GPa) = 15.72154 46.68643 31.20398
#
# Velocity S-wave (km/s) = 2.54178 4.38012 3.58093
# Velocity P-wave (km/s) = 3.43997 5.85035 4.79895
#
# Compressibility (1/GPa) = 0.12765460
#
# Stress axis : x y z
#
# Youngs Moduli (GPa) = 111.98832 24.58911 24.66707
#
# Poissons Ratio (x) = 0.02450 -0.11245
# Poissons Ratio (y) = 0.11157 -0.37483
# Poissons Ratio (z) = -0.51054 -0.37365
#
# Static dielectric constant tensor:
#      x y z
#    x 2.102230 0.000000 -0.072410 
#    y 0.000000 1.868350 0.000000 
#    z -0.072410 0.000000 2.060560 
# 
# From -- ./inp_files/86936.got.cif
#   From: 2010.05.17/outbox.cif.g08.bks.cpg/sg10_44_cif.got.tgz:86936.got - 2010.06.03 11:33:40.
