data_PCOD9148162
_publ_section_title
;
Structure prediction by ZEFSAII (Michael W. Deem and Ramdas Pophale) SiO2 
 PCOD9148162
Probable space group: P 2/M
;
_chemical_formula_sum "Si O2"
_cell_formula_units_Z 28
_cell_length_a 12.146795
_cell_length_b 7.589681
_cell_length_c 19.537186
_cell_angle_alpha 90.000000
_cell_angle_beta 127.948727
_cell_angle_gamma 90.000000
_cell_volume 1420.308679
_symmetry_space_group_name_H-M "P 2/M"
_symmetry_group_IT_number 10
_symmetry_cell_setting 'monoclinic'
loop_
_space_group_symop_operation_xyz
x,y,z
-x,y,-z
-x,-y,-z
x,-y,z
loop_
_atom_site_type_symbol
_atom_site_label
_atom_site_fract_x
_atom_site_fract_y
_atom_site_fract_z
Si Si1 0.264068 0.792368 0.010152
Si Si2 0.569604 0.286608 0.281845
Si Si3 0.879907 0.706984 0.249677
Si Si4 0.874643 0.284305 0.403923
Si Si5 0.733703 0.713593 0.827888
Si Si6 0.430830 0.203594 0.878805
Si Si7 0.018377 0.295115 0.171468
O O1 0.253880 0.770803 0.088386
O O2 0.416199 0.722872 0.043126
O O3 0.261785 0.000000 0.993794
O O4 0.127221 0.710273 0.925113
O O5 0.570450 0.500000 0.277907
O O6 0.718973 0.232754 0.369081
O O7 0.421370 0.234476 0.256878
O O8 0.566736 0.218009 0.202966
O O9 0.910380 0.500000 0.267006
O O10 0.888969 0.777085 0.330487
O O11 0.720215 0.719857 0.161501
O O12 0.982601 0.784517 0.231915
O O13 0.877563 0.500000 0.404371
O O14 0.000000 0.224546 0.500000
O O15 0.740454 0.500000 0.832094
O O16 0.858185 0.781184 0.827755
O O17 0.427176 0.000000 0.897749
O O18 0.055363 0.500000 0.196540
#
# Coordination Sequence:
#
# PCOD9148162 Si02
#       7
#     4   4   4   4   4   4   4
#     4  10  20  31  44  64  87 112 147 188 222 250
#     4   8  14  26  45  66  86 111 142 173 209 254
#     4   9  18  31  45  63  87 115 145 174 212 262
#     4   8  13  24  46  71  88 105 135 175 215 256
#     4   9  17  30  46  62  84 116 152 183 209 244
#     4   9  17  29  44  62  86 113 141 178 220 256
#     4  10  20  31  43  60  85 118 151 182 213 248
#
# _framework density 19.714022
#
# number of rings (size 3 to 8) (size 9 to 14) (size 15 to 20)
#    0.000    3.000    0.000    2.143    0.000    5.143 
#    0.000    2.857    0.000    7.714    0.000    6.000 
#    0.000    0.000    0.000   29.714    0.000   30.286 
#
# Total GULP energy -156017.870334 kJ/mol
# GULP energy per Si atom -5572.066798 kJ/mol
# Density = 1.966915 g / cm^3
# Si number density = 19.714022 Si / 1000 Ang^3
#
#
#
# Elastic Constant Matrix: (Units=GPa)
#
#
# Indices 1 2 3 4 5 6 
#
# 1 144.0050 0.1530 54.0313 0.0000 10.2440 0.0000
# 2 0.1530 42.7943 -4.5065 0.0000 0.8929 0.0000
# 3 54.0313 -4.5065 107.7172 0.0000 19.5866 0.0000
# 4 0.0000 0.0000 0.0000 -74.8677 0.0000 12.4306
# 5 10.2440 0.8929 19.5866 0.0000 18.9897 0.0000
# 6 0.0000 0.0000 0.0000 12.4306 0.0000 -13.3866
#
#
#
# Elastic Compliance Matrix: (Units=1/GPa)
#
#
# Indices 1 2 3 4 5 6 
#
# 1 0.008565 -0.000478 -0.004283 0.000000 -0.000180 0.000000
# 2 -0.000478 0.023603 0.001701 0.000000 -0.002607 0.000000
# 3 -0.004283 0.001701 0.013660 0.000000 -0.011858 0.000000
# 4 0.000000 0.000000 0.000000 -0.015792 0.000000 -0.014664
# 5 -0.000180 -0.002607 -0.011858 0.000000 0.065111 0.000000
# 6 0.000000 0.000000 0.000000 -0.014664 0.000000 -0.088318
#
#
# Mechanical properties :
#
#
# Convention : Reuss Voigt Hill
#
# Bulk Modulus (GPa) = 25.18469 43.76357 34.47413
# Shear Modulus (GPa) = 190.95720 2.46965 96.71343
#
# Velocity S-wave (km/s) = 9.85261 1.12047 7.01175
# Velocity P-wave (km/s) = 11.92622 4.89095 9.11471
#
# Compressibility (1/GPa) = 0.03970666
#
# Stress axis : x y z
#
# Youngs Moduli (GPa) = 116.75923 42.36779 73.20910
#
# Poissons Ratio (x) = 0.02025 0.31358
# Poissons Ratio (y) = 0.05580 -0.12454
# Poissons Ratio (z) = 0.50012 -0.07207
#
# Static dielectric constant tensor:
#      x y z
#    x 1.742360 0.000000 0.010550 
#    y 0.000000 1.737560 0.000000 
#    z 0.010550 0.000000 1.686350 
# 
# From -- ./inp_files/54662.got.cif
#   From: 2010.05.17/outbox.cif.g08.bks.cpg/sg10_28_cif.got.tgz:54662.got - 2010.06.03 11:33:40.
