data_PCOD9148050
_publ_section_title
;
Structure prediction by ZEFSAII (Michael W. Deem and Ramdas Pophale) SiO2 
 PCOD9148050
Probable space group: P 2/M
;
_chemical_formula_sum "Si O2"
_cell_formula_units_Z 32
_cell_length_a 6.709453
_cell_length_b 13.641655
_cell_length_c 18.329746
_cell_angle_alpha 90.000000
_cell_angle_beta 92.531338
_cell_angle_gamma 90.000000
_cell_volume 1676.048720
_symmetry_space_group_name_H-M "P 2/M"
_symmetry_group_IT_number 10
_symmetry_cell_setting 'monoclinic'
loop_
_space_group_symop_operation_xyz
x,y,z
-x,y,-z
-x,-y,-z
x,-y,z
loop_
_atom_site_type_symbol
_atom_site_label
_atom_site_fract_x
_atom_site_fract_y
_atom_site_fract_z
Si Si1 0.285059 0.887450 0.305606
Si Si2 0.621835 0.275067 0.326306
Si Si3 0.642554 0.890694 0.073309
Si Si4 0.009249 0.785920 0.418790
Si Si5 0.020550 0.273167 0.920169
Si Si6 0.924390 0.615953 0.228330
Si Si7 0.747609 0.890161 0.858458
Si Si8 0.241020 0.386935 0.362953
O O1 0.473919 0.815284 0.308579
O O2 0.128202 0.854689 0.364320
O O3 0.186772 0.879437 0.223961
O O4 0.345409 0.000000 0.316784
O O5 0.744382 0.321375 0.260831
O O6 0.469731 0.356717 0.354685
O O7 0.790954 0.239758 0.385104
O O8 0.792811 0.801342 0.077576
O O9 0.490907 0.885221 0.138643
O O10 0.735735 0.000000 0.074661
O O11 0.500000 0.885960 0.000000
O O12 0.137834 0.685332 0.418849
O O13 0.000000 0.826110 0.500000
O O14 0.032181 0.346071 0.852252
O O15 0.838535 0.197953 0.905152
O O16 0.000000 0.319528 0.000000
O O17 0.877954 0.500000 0.227821
O O18 0.115394 0.629925 0.285399
O O19 0.801236 0.000000 0.885408
O O20 0.220833 0.500000 0.382147
#
# Coordination Sequence:
#
# PCOD9148050 Si02
#       8
#     4   4   4   4   4   4   4   4
#     4  10  22  38  58  86 116 151 195 236 276 330
#     4  10  19  38  64  83 109 149 192 231 280 337
#     4  10  20  34  52  78 110 144 181 226 282 338
#     4  10  22  38  56  85 123 155 184 227 282 341
#     4  12  22  33  54  78 109 149 186 227 283 342
#     4  10  22  39  58  81 109 145 191 241 290 340
#     4  10  20  35  54  79 110 141 183 234 279 330
#     4   9  19  37  61  86 110 142 190 242 289 336
#
# _framework density 19.092523
#
# number of rings (size 3 to 8) (size 9 to 14) (size 15 to 20)
#    0.000    1.875    1.250    3.750    0.000    4.250 
#    0.000    4.375    0.000    0.375    0.000    0.000 
#    0.000    0.000    0.000    0.000    0.000    0.000 
#
# Total GULP energy -178570.190979 kJ/mol
# GULP energy per Si atom -5580.318468 kJ/mol
# Density = 1.904907 g / cm^3
# Si number density = 19.092523 Si / 1000 Ang^3
#
#
#
# Elastic Constant Matrix: (Units=GPa)
#
#
# Indices 1 2 3 4 5 6 
#
# 1 76.7983 9.2357 13.2009 0.0000 -5.6447 0.0000
# 2 9.2357 64.5084 7.5654 0.0000 -1.1160 0.0000
# 3 13.2009 7.5654 88.9115 0.0000 -19.2991 0.0000
# 4 0.0000 0.0000 0.0000 20.5777 0.0000 3.2499
# 5 -5.6447 -1.1160 -19.2991 0.0000 16.5243 0.0000
# 6 0.0000 0.0000 0.0000 3.2499 0.0000 16.8691
#
#
#
# Elastic Compliance Matrix: (Units=1/GPa)
#
#
# Indices 1 2 3 4 5 6 
#
# 1 0.013670 -0.001762 -0.001195 0.000000 0.003155 0.000000
# 2 -0.001762 0.015891 -0.001324 0.000000 -0.001075 0.000000
# 3 -0.001195 -0.001324 0.015310 0.000000 0.017384 0.000000
# 4 0.000000 0.000000 0.000000 0.050121 0.000000 -0.009656
# 5 0.003155 -0.001075 0.017384 0.000000 0.081825 0.000000
# 6 0.000000 0.000000 0.000000 -0.009656 0.000000 0.061140
#
#
# Mechanical properties :
#
#
# Convention : Reuss Voigt Hill
#
# Bulk Modulus (GPa) = 27.54095 32.24692 29.89393
# Shear Modulus (GPa) = 19.33313 24.14199 21.73756
#
# Velocity S-wave (km/s) = 3.18559 3.55980 3.37788
# Velocity P-wave (km/s) = 5.29027 5.81573 5.55921
#
# Compressibility (1/GPa) = 0.03630957
#
# Stress axis : x y z
#
# Youngs Moduli (GPa) = 73.15092 62.92935 65.31466
#
# Poissons Ratio (x) = 0.11091 0.07804
# Poissons Ratio (y) = 0.12893 0.08646
# Poissons Ratio (z) = 0.08740 0.08330
#
# Static dielectric constant tensor:
#      x y z
#    x 1.668150 0.000000 -0.003960 
#    y 0.000000 1.654290 0.000000 
#    z -0.003960 0.000000 1.688850 
# 
# From -- ./inp_files/11432.got.cif
#   From: 2010.05.17/outbox.cif.g08.bks.cpg/sg10_6_cif.got.tgz:11432.got - 2010.06.03 11:33:40.
