data_PCOD9148123
_publ_section_title
;
Structure prediction by ZEFSAII (Michael W. Deem and Ramdas Pophale) SiO2 
 PCOD9148123
Probable space group: P 2/M
;
_chemical_formula_sum "Si O2"
_cell_formula_units_Z 32
_cell_length_a 27.258991
_cell_length_b 12.966365
_cell_length_c 20.040962
_cell_angle_alpha 90.000000
_cell_angle_beta 17.023215
_cell_angle_gamma 90.000000
_cell_volume 2073.753193
_symmetry_space_group_name_H-M "P 2/M"
_symmetry_group_IT_number 10
_symmetry_cell_setting 'monoclinic'
loop_
_space_group_symop_operation_xyz
x,y,z
-x,y,-z
-x,-y,-z
x,-y,z
loop_
_atom_site_type_symbol
_atom_site_label
_atom_site_fract_x
_atom_site_fract_y
_atom_site_fract_z
Si Si1 0.124645 0.234461 0.391604
Si Si2 0.693609 0.880866 0.726884
Si Si3 0.951902 0.623259 0.170393
Si Si4 0.028505 0.619139 0.303028
Si Si5 0.763459 0.307967 0.542802
Si Si6 0.736286 0.377356 0.315156
Si Si7 0.404555 0.621100 0.960047
Si Si8 0.604642 0.623985 0.186531
O O1 0.200161 0.156538 0.347388
O O2 0.000000 0.185149 0.500000
O O3 0.012895 0.315467 0.578275
O O4 0.272179 0.301162 0.165429
O O5 0.732329 0.804096 0.615423
O O6 0.725966 0.000000 0.668802
O O7 0.500000 0.869330 0.000000
O O8 0.955546 0.500000 0.182966
O O9 0.870856 0.686009 0.335694
O O10 0.834408 0.632206 0.257868
O O11 0.136868 0.659437 0.907183
O O12 0.048305 0.500000 0.295451
O O13 0.874570 0.632352 0.452955
O O14 0.206233 0.655528 0.041406
O O15 0.585091 0.360089 0.759138
O O16 0.722141 0.500000 0.320966
O O17 0.550392 0.333785 0.568622
O O18 0.357415 0.500000 0.029081
O O19 0.419362 0.643337 0.861438
O O20 0.596710 0.500000 0.204397
#
# Coordination Sequence:
#
# PCOD9148123 Si02
#       8
#     4   4   4   4   4   4   4   4
#     4  11  21  33  49  72  95 125 164 196 234 284
#     4  10  22  40  54  67  90 119 157 208 256 287
#     4   9  15  25  43  69  99 125 157 196 224 269
#     4  10  20  29  41  65 102 134 157 192 229 269
#     4  11  20  32  49  70  91 126 165 197 232 284
#     4   8  14  24  41  65  95 132 164 189 222 263
#     4  11  19  28  46  71 102 136 162 185 218 275
#     4   9  16  27  41  62  96 137 164 185 221 263
#
# _framework density 15.430959
#
# number of rings (size 3 to 8) (size 9 to 14) (size 15 to 20)
#    0.000    2.125    3.750    2.250    0.000    0.750 
#    0.000    2.500    0.000    3.000    0.000    1.750 
#    0.000    4.000    0.000    0.000    0.000    0.000 
#
# Total GULP energy -178249.161855 kJ/mol
# GULP energy per Si atom -5570.286308 kJ/mol
# Density = 1.539584 g / cm^3
# Si number density = 15.430959 Si / 1000 Ang^3
#
#
#
# Elastic Constant Matrix: (Units=GPa)
#
#
# Indices 1 2 3 4 5 6 
#
# 1 44.4132 18.3415 17.4559 0.0000 -2.0071 0.0000
# 2 18.3415 56.2174 21.7727 0.0000 8.5302 0.0000
# 3 17.4559 21.7727 108.1022 0.0000 5.1810 0.0000
# 4 0.0000 0.0000 0.0000 4.2145 0.0000 -0.5468
# 5 -2.0071 8.5302 5.1810 0.0000 33.0517 0.0000
# 6 0.0000 0.0000 0.0000 -0.5468 0.0000 6.2530
#
#
#
# Elastic Compliance Matrix: (Units=1/GPa)
#
#
# Indices 1 2 3 4 5 6 
#
# 1 0.027344 -0.008442 -0.002921 0.000000 0.004297 0.000000
# 2 -0.008442 0.022557 -0.002898 0.000000 -0.005880 0.000000
# 3 -0.002921 -0.002898 0.010356 0.000000 -0.001053 0.000000
# 4 0.000000 0.000000 0.000000 0.239997 0.000000 0.020988
# 5 0.004297 -0.005880 -0.001053 0.000000 0.032199 0.000000
# 6 0.000000 0.000000 0.000000 0.020988 0.000000 0.161758
#
#
# Mechanical properties :
#
#
# Convention : Reuss Voigt Hill
#
# Bulk Modulus (GPa) = 31.51084 35.98589 33.74837
# Shear Modulus (GPa) = 9.37536 18.78137 14.07837
#
# Velocity S-wave (km/s) = 2.46756 3.49251 3.02378
# Velocity P-wave (km/s) = 5.34634 6.29561 5.84030
#
# Compressibility (1/GPa) = 0.03173511
#
# Stress axis : x y z
#
# Youngs Moduli (GPa) = 36.57046 44.33199 96.55889
#
# Poissons Ratio (x) = 0.37426 0.28206
# Poissons Ratio (y) = 0.30873 0.27985
# Poissons Ratio (z) = 0.10683 0.12848
#
# Static dielectric constant tensor:
#      x y z
#    x 1.535330 0.000000 -0.014880 
#    y 0.000000 1.470530 0.000000 
#    z -0.014880 0.000000 1.560660 
# 
# From -- ./inp_files/32164.got.cif
#   From: 2010.05.17/outbox.cif.g08.bks.cpg/sg10_17_cif.got.tgz:32164.got - 2010.06.03 11:33:40.
