data_PCOD9148099
_publ_section_title
;
Structure prediction by ZEFSAII (Michael W. Deem and Ramdas Pophale) SiO2 
 PCOD9148099
Probable space group: P 2/M
;
_chemical_formula_sum "Si O2"
_cell_formula_units_Z 26
_cell_length_a 5.346408
_cell_length_b 20.743245
_cell_length_c 13.013148
_cell_angle_alpha 90.000000
_cell_angle_beta 56.874097
_cell_angle_gamma 90.000000
_cell_volume 1208.624312
_symmetry_space_group_name_H-M "P 2/M"
_symmetry_group_IT_number 10
_symmetry_cell_setting 'monoclinic'
loop_
_space_group_symop_operation_xyz
x,y,z
-x,y,-z
-x,-y,-z
x,-y,z
loop_
_atom_site_type_symbol
_atom_site_label
_atom_site_fract_x
_atom_site_fract_y
_atom_site_fract_z
Si Si1 0.977849 0.365362 0.383193
Si Si2 0.843244 0.500000 0.315889
Si Si3 0.350797 0.635615 0.857264
Si Si4 0.500000 0.271659 0.000000
Si Si5 0.210126 0.848199 0.850035
Si Si6 0.292898 0.073559 0.148289
Si Si7 0.452156 0.500000 0.840707
Si Si8 0.908916 0.728408 0.235058
O O1 0.315333 0.366920 0.263482
O O2 0.000000 0.363776 0.500000
O O3 0.816756 0.432149 0.383906
O O4 0.860848 0.297878 0.360208
O O5 0.624727 0.500000 0.265895
O O6 0.197898 0.500000 0.209482
O O7 0.308757 0.565254 0.911452
O O8 0.142523 0.660979 0.813704
O O9 0.339516 0.685967 0.950711
O O10 0.766798 0.242348 0.871822
O O11 0.505497 0.885396 0.819251
O O12 0.294961 0.782631 0.770804
O O13 0.011879 0.892978 0.819872
O O14 0.000000 0.835270 0.000000
O O15 0.245086 0.000000 0.193670
O O16 0.500000 0.071004 0.000000
#
# Coordination Sequence:
#
# PCOD9148099 Si02
#       8
#     4   2   4   2   4   4   2   4
#     4  10  22  38  59  81 109 144 185 243 295 346
#     4  10  19  40  58  83 105 141 189 238 300 352
#     4  10  21  37  55  77 109 141 187 233 282 342
#     4  10  22  35  54  74 107 150 190 232 272 328
#     4  10  20  30  53  77 111 153 188 220 272 328
#     4   9  18  32  50  78 112 148 186 226 265 318
#     4  10  20  37  58  78 106 142 184 235 291 337
#     4  11  22  36  54  79 112 147 194 229 277 339
#
# _framework density 21.512063000000001
#
# number of rings (size 3 to 8) (size 9 to 14) (size 15 to 20)
#    0.000    2.000    1.538    2.077    7.538    2.769 
#    0.000    3.846    0.000    0.000    0.000    0.000 
#    0.000    3.692    0.000    0.000    0.000    0.000 
#
# Total GULP energy -145016.139592 kJ/mol
# GULP energy per Si atom -5577.543830 kJ/mol
# Density = 2.146310 g / cm^3
# Si number density = 21.512063 Si / 1000 Ang^3
#
#
#
# Elastic Constant Matrix: (Units=GPa)
#
#
# Indices 1 2 3 4 5 6 
#
# 1 97.9814 34.4895 15.7687 0.0000 12.7288 0.0000
# 2 34.4895 127.3907 10.9432 0.0000 16.6725 0.0000
# 3 15.7687 10.9432 44.6231 0.0000 5.7575 0.0000
# 4 0.0000 0.0000 0.0000 9.1361 0.0000 10.6520
# 5 12.7288 16.6725 5.7575 0.0000 34.1227 0.0000
# 6 0.0000 0.0000 0.0000 10.6520 0.0000 32.1087
#
#
#
# Elastic Compliance Matrix: (Units=1/GPa)
#
#
# Indices 1 2 3 4 5 6 
#
# 1 0.011996 -0.002622 -0.003255 0.000000 -0.002645 0.000000
# 2 -0.002622 0.009067 -0.000871 0.000000 -0.003305 0.000000
# 3 -0.003255 -0.000871 0.024086 0.000000 -0.002425 0.000000
# 4 0.000000 0.000000 0.000000 0.178495 0.000000 -0.059215
# 5 -0.002645 -0.003305 -0.002425 0.000000 0.032317 0.000000
# 6 0.000000 0.000000 0.000000 -0.059215 0.000000 0.050789
#
#
# Mechanical properties :
#
#
# Convention : Reuss Voigt Hill
#
# Bulk Modulus (GPa) = 31.59085 43.59976 37.59531
# Shear Modulus (GPa) = 15.11500 28.99309 22.05405
#
# Velocity S-wave (km/s) = 2.65359 3.67517 3.20534
# Velocity P-wave (km/s) = 4.90976 6.19037 5.58688
#
# Compressibility (1/GPa) = 0.03165474
#
# Stress axis : x y z
#
# Youngs Moduli (GPa) = 83.35819 110.28833 41.51706
#
# Poissons Ratio (x) = 0.28919 0.13514
# Poissons Ratio (y) = 0.21858 0.03614
# Poissons Ratio (z) = 0.27133 0.09601
#
# Static dielectric constant tensor:
#      x y z
#    x 1.856340 0.000000 0.002870 
#    y 0.000000 1.844970 0.000000 
#    z 0.002870 0.000000 1.808220 
# 
# From -- ./inp_files/39702.got.cif
#   From: 2010.05.17/outbox.cif.g08.bks.cpg/sg10_20_cif.got.tgz:39702.got - 2010.06.03 11:33:40.
