data_PCOD9148738
_publ_section_title
;
Structure prediction by ZEFSAII (Michael W. Deem and Ramdas Pophale) SiO2 
 PCOD9148738
Probable space group: P 2/M
;
_chemical_formula_sum "Si O2"
_cell_formula_units_Z 28
_cell_length_a 14.257644
_cell_length_b 9.225831
_cell_length_c 16.814488
_cell_angle_alpha 90.000000
_cell_angle_beta 46.250902
_cell_angle_gamma 90.000000
_cell_volume 1597.715783
_symmetry_space_group_name_H-M "P 2/M"
_symmetry_group_IT_number 10
_symmetry_cell_setting 'monoclinic'
loop_
_space_group_symop_operation_xyz
x,y,z
-x,y,-z
-x,-y,-z
x,-y,z
loop_
_atom_site_type_symbol
_atom_site_label
_atom_site_fract_x
_atom_site_fract_y
_atom_site_fract_z
Si Si1 0.262550 0.827939 0.058206
Si Si2 0.031338 0.172736 0.729545
Si Si3 0.504152 0.326541 0.628780
Si Si4 0.662666 0.332050 0.828651
Si Si5 0.966634 0.668406 0.608420
Si Si6 0.521366 0.827783 0.188214
Si Si7 0.286117 0.326818 0.626791
O O1 0.333352 0.739224 0.086514
O O2 0.109957 0.791205 0.150298
O O3 0.274220 0.000000 0.069394
O O4 0.335411 0.801387 0.932741
O O5 0.151046 0.243786 0.705086
O O6 0.028839 0.237435 0.641821
O O7 0.044051 0.000000 0.720001
O O8 0.507281 0.500000 0.640418
O O9 0.498398 0.244038 0.714860
O O10 0.378755 0.294504 0.647429
O O11 0.629450 0.289736 0.501357
O O12 0.622073 0.500000 0.855585
O O13 0.811858 0.327100 0.711423
O O14 0.576161 0.242569 0.818222
O O15 0.009056 0.500000 0.591714
O O16 0.000000 0.717496 0.500000
O O17 0.500826 0.000000 0.204568
O O18 0.264499 0.500000 0.638157
#
# Coordination Sequence:
#
# PCOD9148738 Si02
#       7
#     4   4   4   4   4   4   4
#     4   9  20  38  53  73 109 148 179 213 261 314
#     4  10  20  34  55  79 104 138 177 216 260 311
#     4   9  20  38  58  80 105 136 174 217 263 317
#     4  10  20  33  52  78 106 141 183 221 258 305
#     4   9  19  34  50  72 105 143 177 211 256 312
#     4  11  22  35  54  78 108 143 178 218 266 313
#     4   9  19  38  60  79 105 138 171 213 270 322
#
# _framework density 17.525020000000001
#
# number of rings (size 3 to 8) (size 9 to 14) (size 15 to 20)
#    0.000    2.429    0.000    2.571    2.000    5.429 
#    0.000    2.143    0.000    4.286    0.000    0.000 
#    0.000    0.000    0.000    0.000    0.000    0.000 
#
# Total GULP energy -156267.800013 kJ/mol
# GULP energy per Si atom -5580.992858 kJ/mol
# Density = 1.748513 g / cm^3
# Si number density = 17.525020 Si / 1000 Ang^3
#
#
#
# Elastic Constant Matrix: (Units=GPa)
#
#
# Indices 1 2 3 4 5 6 
#
# 1 91.9093 52.1098 38.9629 0.0000 -6.4530 0.0000
# 2 52.1098 56.4001 39.7069 0.0000 0.3572 0.0000
# 3 38.9629 39.7069 68.2118 0.0000 14.6738 0.0000
# 4 0.0000 0.0000 0.0000 47.9377 0.0000 20.0857
# 5 -6.4530 0.3572 14.6738 0.0000 16.2560 0.0000
# 6 0.0000 0.0000 0.0000 20.0857 0.0000 53.8694
#
#
#
# Elastic Compliance Matrix: (Units=1/GPa)
#
#
# Indices 1 2 3 4 5 6 
#
# 1 0.026023 -0.018622 -0.007861 0.000000 0.017836 0.000000
# 2 -0.018622 0.048822 -0.019808 0.000000 0.009415 0.000000
# 3 -0.007861 -0.019808 0.038791 0.000000 -0.037701 0.000000
# 4 0.000000 0.000000 0.000000 0.024723 0.000000 -0.009218
# 5 0.017836 0.009415 -0.037701 0.000000 0.102421 0.000000
# 6 0.000000 0.000000 0.000000 -0.009218 0.000000 0.022001
#
#
# Mechanical properties :
#
#
# Convention : Reuss Voigt Hill
#
# Bulk Modulus (GPa) = 47.49789 53.12005 50.30897
# Shear Modulus (GPa) = 13.79761 29.32871 21.56316
#
# Velocity S-wave (km/s) = 2.80895 4.09532 3.51154
# Velocity P-wave (km/s) = 6.13857 7.26216 6.72388
#
# Compressibility (1/GPa) = 0.02105357
#
# Stress axis : x y z
#
# Youngs Moduli (GPa) = 38.42684 20.48262 25.77898
#
# Poissons Ratio (x) = 0.38144 0.20265
# Poissons Ratio (y) = 0.71560 0.51063
# Poissons Ratio (z) = 0.30208 0.40572
#
# Static dielectric constant tensor:
#      x y z
#    x 1.573690 0.000000 -0.025300 
#    y 0.000000 1.583780 0.000000 
#    z -0.025300 0.000000 1.596740 
# 
# From -- ./inp_files/49481.got.cif
#   From: 2010.05.17/outbox.cif.g08.bks.cpg/sg10_25_cif.got.tgz:49481.got - 2010.06.03 11:33:40.
