data_PCOD9148209
_publ_section_title
;
Structure prediction by ZEFSAII (Michael W. Deem and Ramdas Pophale) SiO2 
 PCOD9148209
Probable space group: P 2/M
;
_chemical_formula_sum "Si O2"
_cell_formula_units_Z 20
_cell_length_a 9.799352
_cell_length_b 12.188800
_cell_length_c 13.195340
_cell_angle_alpha 90.000000
_cell_angle_beta 45.274606
_cell_angle_gamma 90.000000
_cell_volume 1119.787021
_symmetry_space_group_name_H-M "P 2/M"
_symmetry_group_IT_number 10
_symmetry_cell_setting 'monoclinic'
loop_
_space_group_symop_operation_xyz
x,y,z
-x,y,-z
-x,-y,-z
x,-y,z
loop_
_atom_site_type_symbol
_atom_site_label
_atom_site_fract_x
_atom_site_fract_y
_atom_site_fract_z
Si Si1 0.467355 0.630131 0.898794
Si Si2 0.784312 0.809517 0.069671
Si Si3 0.465143 0.872707 0.400269
Si Si4 0.172880 0.000000 0.328407
Si Si5 0.287319 0.000000 0.056049
Si Si6 0.775406 0.235232 0.622660
O O1 0.441969 0.500000 0.904839
O O2 0.292804 0.695933 0.937764
O O3 0.655177 0.671610 0.740356
O O4 0.500000 0.659209 0.000000
O O5 0.647458 0.844684 0.234800
O O6 0.748997 0.896882 0.998005
O O7 0.000000 0.807273 0.000000
O O8 0.500000 0.860147 0.500000
O O9 0.300880 0.790533 0.449248
O O10 0.411001 0.000000 0.410434
O O11 0.269483 0.118376 0.297764
O O12 0.000000 0.000000 0.500000
O O13 0.135579 0.000000 0.228111
O O14 0.500000 0.000000 0.000000
O O15 0.000000 0.255565 0.500000
#
# Coordination Sequence:
#
# PCOD9148209 Si02
#       6
#     4   4   4   2   2   4
#     4  10  22  40  61  83 109 148 196 248 294 337
#     4  11  23  38  57  85 117 155 195 235 289 348
#     4  10  20  34  52  78 118 152 186 227 272 338
#     4  10  20  31  51  84 115 144 175 220 280 341
#     4  12  21  35  57  84 120 154 185 230 286 343
#     4  10  20  36  56  84 114 147 187 229 288 346
#
# _framework density 17.86054
#
# number of rings (size 3 to 8) (size 9 to 14) (size 15 to 20)
#    0.000    1.600    2.000    4.500    0.000    5.600 
#    0.000    0.000    0.000    9.600    0.000    0.000 
#    0.000    0.000    0.000    0.000    0.000    0.000 
#
# Total GULP energy -111564.384504 kJ/mol
# GULP energy per Si atom -5578.219225 kJ/mol
# Density = 1.781989 g / cm^3
# Si number density = 17.860540 Si / 1000 Ang^3
#
#
#
# Elastic Constant Matrix: (Units=GPa)
#
#
# Indices 1 2 3 4 5 6 
#
# 1 154.4335 51.5480 75.3198 0.0000 -6.5902 0.0000
# 2 51.5480 83.5228 33.2765 0.0000 8.8989 0.0000
# 3 75.3198 33.2765 98.4568 0.0000 12.4370 0.0000
# 4 0.0000 0.0000 0.0000 17.6688 0.0000 4.9951
# 5 -6.5902 8.8989 12.4370 0.0000 39.9374 0.0000
# 6 0.0000 0.0000 0.0000 4.9951 0.0000 20.3050
#
#
#
# Elastic Compliance Matrix: (Units=1/GPa)
#
#
# Indices 1 2 3 4 5 6 
#
# 1 0.012647 -0.004950 -0.008749 0.000000 0.005914 0.000000
# 2 -0.004950 0.015884 -0.001074 0.000000 -0.004022 0.000000
# 3 -0.008749 -0.001074 0.018076 0.000000 -0.006834 0.000000
# 4 0.000000 0.000000 0.000000 0.060827 0.000000 -0.014964
# 5 0.005914 -0.004022 -0.006834 0.000000 0.029039 0.000000
# 6 0.000000 0.000000 0.000000 -0.014964 0.000000 0.052930
#
#
# Mechanical properties :
#
#
# Convention : Reuss Voigt Hill
#
# Bulk Modulus (GPa) = 58.61190 72.96686 65.78938
# Shear Modulus (GPa) = 22.25822 27.33349 24.79586
#
# Velocity S-wave (km/s) = 3.53402 3.91626 3.73004
# Velocity P-wave (km/s) = 7.03847 7.83529 7.44754
#
# Compressibility (1/GPa) = 0.01706138
#
# Stress axis : x y z
#
# Youngs Moduli (GPa) = 79.07068 62.95658 55.32197
#
# Poissons Ratio (x) = 0.31162 0.48402
# Poissons Ratio (y) = 0.39138 0.05941
# Poissons Ratio (z) = 0.69180 0.06761
#
# Static dielectric constant tensor:
#      x y z
#    x 1.653760 0.000000 -0.016230 
#    y 0.000000 1.603670 0.000000 
#    z -0.016230 0.000000 1.624880 
# 
# From -- ./inp_files/24266.got.cif
#   From: 2010.05.17/outbox.cif.g08.bks.cpg/sg10_13_cif.got.tgz:24266.got - 2010.06.03 11:33:40.
