data_PCOD9148548
_publ_section_title
;
Structure prediction by ZEFSAII (Michael W. Deem and Ramdas Pophale) SiO2 
 PCOD9148548
Probable space group: P 2/M
;
_chemical_formula_sum "Si O2"
_cell_formula_units_Z 28
_cell_length_a 10.028572
_cell_length_b 7.956461
_cell_length_c 35.034149
_cell_angle_alpha 90.000000
_cell_angle_beta 31.266114
_cell_angle_gamma 90.000000
_cell_volume 1450.873033
_symmetry_space_group_name_H-M "P 2/M"
_symmetry_group_IT_number 10
_symmetry_cell_setting 'monoclinic'
loop_
_space_group_symop_operation_xyz
x,y,z
-x,y,-z
-x,-y,-z
x,-y,z
loop_
_atom_site_type_symbol
_atom_site_label
_atom_site_fract_x
_atom_site_fract_y
_atom_site_fract_z
Si Si1 0.390221 0.705529 0.424634
Si Si2 0.037815 0.301127 0.702156
Si Si3 0.713084 0.198942 0.712349
Si Si4 0.353134 0.798964 0.998494
Si Si5 0.550558 0.298843 0.868736
Si Si6 0.217909 0.202879 0.879351
Si Si7 0.876221 0.702865 0.588921
O O1 0.392555 0.500000 0.425195
O O2 0.292324 0.753864 0.406494
O O3 0.676498 0.768183 0.362508
O O4 0.168605 0.758616 0.508518
O O5 0.053535 0.500000 0.706100
O O6 0.932090 0.277474 0.685429
O O7 0.814042 0.233109 0.784775
O O8 0.438684 0.260606 0.795757
O O9 0.763160 0.234951 0.656136
O O10 0.720479 0.000000 0.716929
O O11 0.063621 0.732332 0.062764
O O12 0.330451 0.000000 0.009007
O O13 0.500000 0.732322 0.000000
O O14 0.505108 0.766785 0.922207
O O15 0.562229 0.500000 0.867285
O O16 0.319669 0.251450 0.896402
O O17 0.208258 0.000000 0.880763
O O18 0.876491 0.500000 0.589846
#
# Coordination Sequence:
#
# PCOD9148548 Si02
#       7
#     4   4   4   4   4   4   4
#     4   8  16  32  53  73  95 128 168 202 236 289
#     4   9  18  34  53  73  98 129 164 200 241 289
#     4  10  20  33  49  73 102 129 161 201 243 287
#     4  10  21  36  53  73  98 130 166 199 236 289
#     4  10  20  33  52  77 101 126 160 203 247 287
#     4   9  19  36  54  70  95 133 168 196 235 292
#     4   9  17  32  53  74  96 127 166 203 241 287
#
# _framework density 19.298725999999998
#
# number of rings (size 3 to 8) (size 9 to 14) (size 15 to 20)
#    0.000    2.714    0.000    2.143    0.000    5.429 
#    0.000    5.714    0.000    0.000    0.000    0.000 
#    0.000    0.000    0.000    0.000    0.000    0.000 
#
# Total GULP energy -156176.057867 kJ/mol
# GULP energy per Si atom -5577.716352 kJ/mol
# Density = 1.925480 g / cm^3
# Si number density = 19.298726 Si / 1000 Ang^3
#
#
#
# Elastic Constant Matrix: (Units=GPa)
#
#
# Indices 1 2 3 4 5 6 
#
# 1 2.2742 12.0656 -18.9175 0.0000 42.5406 0.0000
# 2 12.0656 11.4189 8.6405 0.0000 -12.0536 0.0000
# 3 -18.9175 8.6405 12.3088 0.0000 46.6567 0.0000
# 4 0.0000 0.0000 0.0000 21.2533 0.0000 8.0866
# 5 42.5406 -12.0536 46.6567 0.0000 18.8142 0.0000
# 6 0.0000 0.0000 0.0000 8.0866 0.0000 16.7796
#
#
#
# Elastic Compliance Matrix: (Units=1/GPa)
#
#
# Indices 1 2 3 4 5 6 
#
# 1 0.018853 0.007356 -0.019944 0.000000 0.011544 0.000000
# 2 0.007356 0.058253 0.012858 0.000000 -0.011197 0.000000
# 3 -0.019944 0.012858 0.019119 0.000000 0.005921 0.000000
# 4 0.000000 0.000000 0.000000 0.057616 0.000000 -0.027767
# 5 0.011544 -0.011197 0.005921 0.000000 0.005192 0.000000
# 6 0.000000 0.000000 0.000000 -0.027767 0.000000 0.072978
#
#
# Mechanical properties :
#
#
# Convention : Reuss Voigt Hill
#
# Bulk Modulus (GPa) = 10.33453 3.28657 6.81055
# Shear Modulus (GPa) = 18.95902 12.98364 15.97133
#
# Velocity S-wave (km/s) = 3.13772 2.59660 2.87990
# Velocity P-wave (km/s) = 4.30043 3.27054 3.82035
#
# Compressibility (1/GPa) = 0.09676298
#
# Stress axis : x y z
#
# Youngs Moduli (GPa) = 53.04150 17.16662 52.30456
#
# Poissons Ratio (x) = -0.12628 1.04318
# Poissons Ratio (y) = -0.39017 -0.67251
# Poissons Ratio (z) = 1.05788 -0.22072
#
# Static dielectric constant tensor:
#      x y z
#    x 1.645600 0.000000 -0.027680 
#    y 0.000000 1.698530 0.000000 
#    z -0.027680 0.000000 1.682880 
# 
# From -- ./inp_files/36891.got.cif
#   From: 2010.05.17/outbox.cif.g08.bks.cpg/sg10_19_cif.got.tgz:36891.got - 2010.06.03 11:33:40.
