data_PCOD9148336
_publ_section_title
;
Structure prediction by ZEFSAII (Michael W. Deem and Ramdas Pophale) SiO2 
 PCOD9148336
Probable space group: P 2/M
;
_chemical_formula_sum "Si O2"
_cell_formula_units_Z 32
_cell_length_a 19.833886
_cell_length_b 7.284257
_cell_length_c 24.807773
_cell_angle_alpha 90.000000
_cell_angle_beta 157.709180
_cell_angle_gamma 90.000000
_cell_volume 1359.479800
_symmetry_space_group_name_H-M "P 2/M"
_symmetry_group_IT_number 10
_symmetry_cell_setting 'monoclinic'
loop_
_space_group_symop_operation_xyz
x,y,z
-x,y,-z
-x,-y,-z
x,-y,z
loop_
_atom_site_type_symbol
_atom_site_label
_atom_site_fract_x
_atom_site_fract_y
_atom_site_fract_z
Si Si1 0.352958 0.788393 0.852799
Si Si2 0.332201 0.275711 0.508474
Si Si3 0.963575 0.276418 0.182990
Si Si4 0.422245 0.722389 0.084710
Si Si5 0.719028 0.277263 0.778308
Si Si6 0.051646 0.723156 0.952363
Si Si7 0.023336 0.777265 0.454927
Si Si8 0.392766 0.292553 0.673626
O O1 0.435996 0.785449 0.854448
O O2 0.155174 0.712165 0.706680
O O3 0.332322 0.000000 0.854441
O O4 0.500000 0.701988 0.000000
O O5 0.324049 0.500000 0.502485
O O6 0.517385 0.221847 0.617261
O O7 0.358113 0.212947 0.589274
O O8 0.147610 0.214148 0.345753
O O9 0.966828 0.500000 0.185535
O O10 0.946144 0.218159 0.107767
O O11 0.780506 0.222898 0.077185
O O12 0.431404 0.500000 0.091834
O O13 0.477188 0.787624 0.185061
O O14 0.720994 0.500000 0.779622
O O15 0.868719 0.220203 0.846462
O O16 0.788848 0.220829 0.889482
O O17 0.054721 0.500000 0.953959
O O18 0.000000 0.726470 0.500000
O O19 0.202148 0.703648 0.561711
O O20 0.032455 0.000000 0.459516
O O21 0.459945 0.500000 0.713525
#
# Coordination Sequence:
#
# PCOD9148336 Si02
#       8
#     4   4   4   4   4   4   4   4
#     4  10  22  38  54  72  95 123 154 193 241 287
#     4   9  17  27  39  60  90 122 155 194 236 276
#     4   9  17  27  39  59  90 123 155 193 236 278
#     4  10  20  33  49  70  96 127 159 193 236 284
#     4   8  13  22  37  56  81 117 159 194 228 274
#     4   8  13  22  37  56  81 118 158 193 229 275
#     4  10  20  36  55  73  93 120 156 197 238 281
#     4  10  20  32  49  71  96 126 158 195 237 282
#
# _framework density 23.538414
#
# number of rings (size 3 to 8) (size 9 to 14) (size 15 to 20)
#    0.000    2.750    1.250    1.500    1.750    4.500 
#    0.000    2.500    0.000    0.000    0.000    0.000 
#    0.000    1.000    0.000    7.500    0.000    9.750 
#
# Total GULP energy -178779.439827 kJ/mol
# GULP energy per Si atom -5586.857495 kJ/mol
# Density = 2.348484 g / cm^3
# Si number density = 23.538414 Si / 1000 Ang^3
#
#
#
# Elastic Constant Matrix: (Units=GPa)
#
#
# Indices 1 2 3 4 5 6 
#
# 1 39.1219 -12.4396 10.8828 0.0000 4.7995 0.0000
# 2 -12.4396 100.4252 -1.7332 0.0000 -3.4515 0.0000
# 3 10.8828 -1.7332 176.8658 0.0000 13.1919 0.0000
# 4 0.0000 0.0000 0.0000 -25.4580 0.0000 -3.5752
# 5 4.7995 -3.4515 13.1919 0.0000 34.5597 0.0000
# 6 0.0000 0.0000 0.0000 -3.5752 0.0000 -0.9794
#
#
#
# Elastic Compliance Matrix: (Units=1/GPa)
#
#
# Indices 1 2 3 4 5 6 
#
# 1 0.027356 0.003263 -0.001433 0.000000 -0.002926 0.000000
# 2 0.003263 0.010381 -0.000147 0.000000 0.000640 0.000000
# 3 -0.001433 -0.000147 0.005895 0.000000 -0.002066 0.000000
# 4 0.000000 0.000000 0.000000 -0.080599 0.000000 0.294216
# 5 -0.002926 0.000640 -0.002066 0.000000 0.030194 0.000000
# 6 0.000000 0.000000 0.000000 0.294216 0.000000 -2.095005
#
#
# Mechanical properties :
#
#
# Convention : Reuss Voigt Hill
#
# Bulk Modulus (GPa) = 21.27678 34.42587 27.85132
# Shear Modulus (GPa) = -2.39294 22.93798 10.27252
#
# Velocity S-wave (km/s) = -1.00937 3.12507 2.09132
# Velocity P-wave (km/s) = 2.77495 5.26104 4.20589
#
# Compressibility (1/GPa) = 0.04699960
#
# Stress axis : x y z
#
# Youngs Moduli (GPa) = 36.55449 96.32675 169.64035
#
# Poissons Ratio (x) = -0.31435 0.24310
# Poissons Ratio (y) = -0.11929 0.02490
# Poissons Ratio (z) = 0.05238 0.01414
#
# Static dielectric constant tensor:
#      x y z
#    x 1.843420 0.000000 -0.010940 
#    y 0.000000 1.915960 0.000000 
#    z -0.010940 0.000000 1.872250 
# 
# From -- ./inp_files/34584.got.cif
#   From: 2010.05.17/outbox.cif.g08.bks.cpg/sg10_18_cif.got.tgz:34584.got - 2010.06.03 11:33:40.
