data_PCOD9148533
_publ_section_title
;
Structure prediction by ZEFSAII (Michael W. Deem and Ramdas Pophale) SiO2 
 PCOD9148533
Probable space group: P 2/M
;
_chemical_formula_sum "Si O2"
_cell_formula_units_Z 32
_cell_length_a 14.685835
_cell_length_b 7.629480
_cell_length_c 20.532472
_cell_angle_alpha 90.000000
_cell_angle_beta 134.649045
_cell_angle_gamma 90.000000
_cell_volume 1636.680052
_symmetry_space_group_name_H-M "P 2/M"
_symmetry_group_IT_number 10
_symmetry_cell_setting 'monoclinic'
loop_
_space_group_symop_operation_xyz
x,y,z
-x,y,-z
-x,-y,-z
x,-y,z
loop_
_atom_site_type_symbol
_atom_site_label
_atom_site_fract_x
_atom_site_fract_y
_atom_site_fract_z
Si Si1 0.396197 0.288565 0.499486
Si Si2 0.114406 0.705022 0.514615
Si Si3 0.100176 0.289739 0.997332
Si Si4 0.389968 0.288589 0.141714
Si Si5 0.400185 0.715137 0.649947
Si Si6 0.896656 0.208002 0.640629
Si Si7 0.391474 0.209379 0.993675
Si Si8 0.100965 0.211194 0.848659
O O1 0.500000 0.223010 0.500000
O O2 0.402419 0.500000 0.502695
O O3 0.424361 0.230135 0.587566
O O4 0.249301 0.241338 0.410705
O O5 0.123035 0.500000 0.536710
O O6 0.257444 0.777087 0.596770
O O7 0.087442 0.716726 0.423950
O O8 0.000000 0.783015 0.500000
O O9 0.105181 0.500000 0.007225
O O10 0.063517 0.253719 0.904106
O O11 0.245133 0.223009 0.080047
O O12 0.000000 0.221294 0.000000
O O13 0.386855 0.500000 0.144208
O O14 0.491886 0.225807 0.245749
O O15 0.426541 0.241837 0.086377
O O16 0.398906 0.500000 0.649505
O O17 0.999379 0.275809 0.744483
O O18 0.913747 0.000000 0.643147
O O19 0.384904 0.000000 0.980402
O O20 0.500000 0.279998 0.000000
O O21 0.246386 0.277366 0.910832
O O22 0.104108 0.000000 0.845631
#
# Coordination Sequence:
#
# PCOD9148533 Si02
#       8
#     4   4   4   4   4   4   4   4
#     4   9  18  33  53  74  96 127 164 198 236 284
#     4   9  18  33  51  70  94 126 163 200 240 289
#     4   9  18  31  48  71  95 120 155 198 238 278
#     4   9  17  30  47  67  93 121 149 188 235 280
#     4   8  15  29  47  68  94 120 149 189 236 281
#     4  10  20  33  49  71 100 130 160 199 244 289
#     4   9  18  33  50  67  91 123 158 196 235 278
#     4   9  19  34  49  68  97 131 162 194 238 288
#
# _framework density 19.551774000000002
#
# number of rings (size 3 to 8) (size 9 to 14) (size 15 to 20)
#    0.000    3.000    0.000    1.125    0.000    4.000 
#    0.000    5.000    0.000    0.000    0.000    0.000 
#    0.000    0.000    0.000    0.000    0.000    0.000 
#
# Total GULP energy -178442.106966 kJ/mol
# GULP energy per Si atom -5576.315843 kJ/mol
# Density = 1.950727 g / cm^3
# Si number density = 19.551774 Si / 1000 Ang^3
#
#
#
# Elastic Constant Matrix: (Units=GPa)
#
#
# Indices 1 2 3 4 5 6 
#
# 1 169.8774 -0.7509 80.0343 0.0000 9.1991 0.0000
# 2 -0.7509 35.1832 -9.9257 0.0000 3.7404 0.0000
# 3 80.0343 -9.9257 169.3784 0.0000 2.4625 0.0000
# 4 0.0000 0.0000 0.0000 30.3826 0.0000 -0.2437
# 5 9.1991 3.7404 2.4625 0.0000 5.9716 0.0000
# 6 0.0000 0.0000 0.0000 -0.2437 0.0000 19.1935
#
#
#
# Elastic Compliance Matrix: (Units=1/GPa)
#
#
# Indices 1 2 3 4 5 6 
#
# 1 0.008256 0.000340 -0.003715 0.000000 -0.011399 0.000000
# 2 0.000340 0.031206 0.001972 0.000000 -0.020883 0.000000
# 3 -0.003715 0.001972 0.007756 0.000000 0.001290 0.000000
# 4 0.000000 0.000000 0.000000 0.032917 0.000000 0.000418
# 5 -0.011399 -0.020883 0.001290 0.000000 0.197566 0.000000
# 6 0.000000 0.000000 0.000000 0.000418 0.000000 0.052106
#
#
# Mechanical properties :
#
#
# Convention : Reuss Voigt Hill
#
# Bulk Modulus (GPa) = 22.51701 57.01716 39.76708
# Shear Modulus (GPa) = 14.39186 31.44830 22.92008
#
# Velocity S-wave (km/s) = 2.71604 4.01492 3.42757
# Velocity P-wave (km/s) = 4.62357 7.12167 6.00398
#
# Compressibility (1/GPa) = 0.04441088
#
# Stress axis : x y z
#
# Youngs Moduli (GPa) = 121.12742 32.04477 128.92723
#
# Poissons Ratio (x) = -0.01089 0.47901
# Poissons Ratio (y) = -0.04116 -0.25421
# Poissons Ratio (z) = 0.45003 -0.06318
#
# Static dielectric constant tensor:
#      x y z
#    x 1.674890 0.000000 0.022240 
#    y 0.000000 1.716850 0.000000 
#    z 0.022240 0.000000 1.664910 
# 
# From -- ./inp_files/84752.got.cif
#   From: 2010.05.17/outbox.cif.g08.bks.cpg/sg10_43_cif.got.tgz:84752.got - 2010.06.03 11:33:40.
