data_PCOD9148961
_publ_section_title
;
Structure prediction by ZEFSAII (Michael W. Deem and Ramdas Pophale) SiO2 
 PCOD9148961
Probable space group: P 2/M
;
_chemical_formula_sum "Si O2"
_cell_formula_units_Z 32
_cell_length_a 24.667118
_cell_length_b 7.730893
_cell_length_c 18.556262
_cell_angle_alpha 90.000000
_cell_angle_beta 28.780395
_cell_angle_gamma 90.000000
_cell_volume 1703.700250
_symmetry_space_group_name_H-M "P 2/M"
_symmetry_group_IT_number 10
_symmetry_cell_setting 'monoclinic'
loop_
_space_group_symop_operation_xyz
x,y,z
-x,y,-z
-x,-y,-z
x,-y,z
loop_
_atom_site_type_symbol
_atom_site_label
_atom_site_fract_x
_atom_site_fract_y
_atom_site_fract_z
Si Si1 0.947358 0.200135 0.487031
Si Si2 0.609420 0.301814 0.699662
Si Si3 0.632957 0.198746 0.976672
Si Si4 0.578500 0.712920 0.579651
Si Si5 0.633906 0.297760 0.361893
Si Si6 0.699438 0.300140 0.743177
Si Si7 0.321680 0.288005 0.844380
Si Si8 0.165232 0.704759 0.155602
O O1 0.833682 0.291683 0.595788
O O2 0.000000 0.271668 0.500000
O O3 0.047004 0.210646 0.313072
O O4 0.916390 0.000000 0.537014
O O5 0.650608 0.500000 0.648560
O O6 0.626344 0.226310 0.600320
O O7 0.663484 0.221799 0.708298
O O8 0.475357 0.300589 0.869434
O O9 0.645734 0.214177 0.876012
O O10 0.746450 0.263899 0.882449
O O11 0.616633 0.000000 0.015899
O O12 0.579670 0.500000 0.578187
O O13 0.642016 0.773585 0.433297
O O14 0.446686 0.762140 0.725753
O O15 0.500000 0.292848 0.500000
O O16 0.665965 0.500000 0.328829
O O17 0.691741 0.226080 0.222488
O O18 0.661628 0.500000 0.788704
O O19 0.321390 0.500000 0.843729
O O20 0.227766 0.232203 0.010561
O O21 0.146451 0.500000 0.171075
#
# Coordination Sequence:
#
# PCOD9148961 Si02
#       8
#     4   4   4   4   4   4   4   4
#     4  11  23  38  54  72  95 123 160 205 251 296
#     4  10  20  34  51  74 100 129 166 202 237 284
#     4  12  23  34  49  71 100 133 166 198 241 290
#     4   8  12  22  41  67 100 130 154 187 233 281
#     4   7  10  17  34  64  99 128 151 182 230 283
#     4  11  23  37  54  72  93 126 167 207 245 285
#     4   8  13  22  40  69 100 126 155 191 234 282
#     4  11  20  32  53  75  98 128 164 204 244 284
#
# _framework density 18.782644999999999
#
# number of rings (size 3 to 8) (size 9 to 14) (size 15 to 20)
#    0.000    2.250    2.500    4.125    0.000    3.000 
#    0.000    0.000    0.000    0.000    0.000    3.500 
#    0.000    7.000    0.000    0.000    0.000    0.000 
#
# Total GULP energy -178470.659281 kJ/mol
# GULP energy per Si atom -5577.208103 kJ/mol
# Density = 1.873990 g / cm^3
# Si number density = 18.782645 Si / 1000 Ang^3
#
#
#
# Elastic Constant Matrix: (Units=GPa)
#
#
# Indices 1 2 3 4 5 6 
#
# 1 103.4608 -5.5128 36.2682 0.0000 37.5565 0.0000
# 2 -5.5128 36.3846 -5.0023 0.0000 -0.2847 0.0000
# 3 36.2682 -5.0023 55.7715 0.0000 32.0403 0.0000
# 4 0.0000 0.0000 0.0000 4.3009 0.0000 -36.7593
# 5 37.5565 -0.2847 32.0403 0.0000 37.3183 0.0000
# 6 0.0000 0.0000 0.0000 -36.7593 0.0000 6.1546
#
#
#
# Elastic Compliance Matrix: (Units=1/GPa)
#
#
# Indices 1 2 3 4 5 6 
#
# 1 0.015501 0.001982 -0.001873 0.000000 -0.013977 0.000000
# 2 0.001982 0.028358 0.004492 0.000000 -0.005635 0.000000
# 3 -0.001873 0.004492 0.036405 0.000000 -0.029337 0.000000
# 4 0.000000 0.000000 0.000000 -0.004646 0.000000 -0.027748
# 5 -0.013977 -0.005635 -0.029337 0.000000 0.066008 0.000000
# 6 0.000000 0.000000 0.000000 -0.027748 0.000000 -0.003247
#
#
# Mechanical properties :
#
#
# Convention : Reuss Voigt Hill
#
# Bulk Modulus (GPa) = 11.17750 27.45812 19.31781
# Shear Modulus (GPa) = 31.44638 20.87901 26.16270
#
# Velocity S-wave (km/s) = 4.09617 3.33770 3.73623
# Velocity P-wave (km/s) = 5.32310 5.43178 5.37772
#
# Compressibility (1/GPa) = 0.08946545
#
# Stress axis : x y z
#
# Youngs Moduli (GPa) = 64.51016 35.26356 27.46864
#
# Poissons Ratio (x) = -0.06989 0.05145
# Poissons Ratio (y) = -0.12785 -0.12338
# Poissons Ratio (z) = 0.12083 -0.15840
#
# Static dielectric constant tensor:
#      x y z
#    x 1.682540 0.000000 0.049760 
#    y 0.000000 1.677570 0.000000 
#    z 0.049760 0.000000 1.640260 
# 
# From -- ./inp_files/79937.got.cif
#   From: 2010.05.17/outbox.cif.g08.bks.cpg/sg10_40_cif.got.tgz:79937.got - 2010.06.03 11:33:40.
