data_PCOD9148177
_publ_section_title
;
Structure prediction by ZEFSAII (Michael W. Deem and Ramdas Pophale) SiO2 
 PCOD9148177
Probable space group: P 2/M
;
_chemical_formula_sum "Si O2"
_cell_formula_units_Z 32
_cell_length_a 22.755084
_cell_length_b 7.464695
_cell_length_c 6.853599
_cell_angle_alpha 90.000000
_cell_angle_beta 82.984134
_cell_angle_gamma 90.000000
_cell_volume 1155.433959
_symmetry_space_group_name_H-M "P 2/M"
_symmetry_group_IT_number 10
_symmetry_cell_setting 'monoclinic'
loop_
_space_group_symop_operation_xyz
x,y,z
-x,y,-z
-x,-y,-z
x,-y,z
loop_
_atom_site_type_symbol
_atom_site_label
_atom_site_fract_x
_atom_site_fract_y
_atom_site_fract_z
Si Si1 0.078979 0.784941 0.283921
Si Si2 0.205414 0.779820 0.328642
Si Si3 0.702296 0.712149 0.189782
Si Si4 0.827519 0.785481 0.211402
Si Si5 0.574259 0.288401 0.107318
Si Si6 0.328506 0.796496 0.372552
Si Si7 0.046925 0.785081 0.756830
Si Si8 0.455397 0.199589 0.311831
O O1 0.146618 0.720326 0.236520
O O2 0.063416 0.762517 0.520608
O O3 0.020312 0.716427 0.197136
O O4 0.081626 0.000000 0.247748
O O5 0.189099 0.729215 0.560079
O O6 0.273655 0.715335 0.272347
O O7 0.207711 0.000000 0.317656
O O8 0.696116 0.500000 0.217937
O O9 0.770222 0.744382 0.102474
O O10 0.641515 0.771415 0.112496
O O11 0.696987 0.805644 0.400617
O O12 0.894695 0.718885 0.153000
O O13 0.831839 0.000000 0.208831
O O14 0.574199 0.500000 0.070070
O O15 0.524208 0.261833 0.296274
O O16 0.553783 0.197240 0.918305
O O17 0.392533 0.705298 0.381690
O O18 0.337677 0.000000 0.297842
O O19 0.043340 0.000000 0.791344
O O20 0.451127 0.000000 0.393396
#
# Coordination Sequence:
#
# PCOD9148177 Si02
#       8
#     4   4   4   4   4   4   4   4
#     4   7   8  11  23  45  73 103 135 168 201 245
#     4   7  10  18  32  52  80 110 136 167 209 252
#     4  10  20  31  45  66  90 119 152 181 214 259
#     4   8  13  22  36  54  80 111 141 178 219 253
#     4  10  21  36  51  67  90 118 147 180 217 259
#     4   9  18  31  47  69  94 117 144 180 220 261
#     4   7   9  13  24  46  73 102 137 172 206 246
#     4  10  20  34  53  73  90 112 144 180 220 265
#
# _framework density 27.695224
#
# number of rings (size 3 to 8) (size 9 to 14) (size 15 to 20)
#    0.000    3.500    0.000    4.875    0.000    3.500 
#    0.000    2.500    0.000    0.000    0.000   15.750 
#    0.000    1.000    0.000   12.500    0.000   10.750 
#
# Total GULP energy -178499.680189 kJ/mol
# GULP energy per Si atom -5578.115006 kJ/mol
# Density = 2.763219 g / cm^3
# Si number density = 27.695224 Si / 1000 Ang^3
#
#
#
# Elastic Constant Matrix: (Units=GPa)
#
#
# Indices 1 2 3 4 5 6 
#
# 1 378.3535 15.3580 62.5305 0.0000 30.9706 0.0000
# 2 15.3580 91.7905 -3.4355 0.0000 6.1201 0.0000
# 3 62.5305 -3.4355 53.3360 0.0000 15.6900 0.0000
# 4 0.0000 0.0000 0.0000 33.4390 0.0000 -18.9249
# 5 30.9706 6.1201 15.6900 0.0000 71.8981 0.0000
# 6 0.0000 0.0000 0.0000 -18.9249 0.0000 50.6259
#
#
#
# Elastic Compliance Matrix: (Units=1/GPa)
#
#
# Indices 1 2 3 4 5 6 
#
# 1 0.003343 -0.000665 -0.003799 0.000000 -0.000554 0.000000
# 2 -0.000665 0.011144 0.001808 0.000000 -0.001057 0.000000
# 3 -0.003799 0.001808 0.024453 0.000000 -0.003854 0.000000
# 4 0.000000 0.000000 0.000000 0.037930 0.000000 0.014179
# 5 -0.000554 -0.001057 -0.003854 0.000000 0.015078 0.000000
# 6 0.000000 0.000000 0.000000 0.014179 0.000000 0.025053
#
#
# Mechanical properties :
#
#
# Convention : Reuss Voigt Hill
#
# Bulk Modulus (GPa) = 29.73688 74.70956 52.22322
# Shear Modulus (GPa) = 37.44662 61.12773 49.28717
#
# Velocity S-wave (km/s) = 3.68108 4.70314 4.22314
# Velocity P-wave (km/s) = 5.36913 7.51843 6.53278
#
# Compressibility (1/GPa) = 0.03362827
#
# Stress axis : x y z
#
# Youngs Moduli (GPa) = 299.10413 89.73679 40.89396
#
# Poissons Ratio (x) = 0.05964 0.15537
# Poissons Ratio (y) = 0.19879 -0.07393
# Poissons Ratio (z) = 1.13641 -0.16223
#
# Static dielectric constant tensor:
#      x y z
#    x 2.342540 0.000000 -0.005770 
#    y 0.000000 2.026470 0.000000 
#    z -0.005770 0.000000 2.244560 
# 
# From -- ./inp_files/54519.got.cif
#   From: 2010.05.17/outbox.cif.g08.bks.cpg/sg10_28_cif.got.tgz:54519.got - 2010.06.03 11:33:40.
