data_PCOD9148988
_publ_section_title
;
Structure prediction by ZEFSAII (Michael W. Deem and Ramdas Pophale) SiO2 
 PCOD9148988
Probable space group: P 2/M
;
_chemical_formula_sum "Si O2"
_cell_formula_units_Z 24
_cell_length_a 14.906750
_cell_length_b 11.989504
_cell_length_c 21.393442
_cell_angle_alpha 90.000000
_cell_angle_beta 158.957208
_cell_angle_gamma 90.000000
_cell_volume 1372.897296
_symmetry_space_group_name_H-M "P 2/M"
_symmetry_group_IT_number 10
_symmetry_cell_setting 'monoclinic'
loop_
_space_group_symop_operation_xyz
x,y,z
-x,y,-z
-x,-y,-z
x,-y,z
loop_
_atom_site_type_symbol
_atom_site_label
_atom_site_fract_x
_atom_site_fract_y
_atom_site_fract_z
Si Si1 0.908333 0.000000 0.370517
Si Si2 0.305381 0.755467 0.974307
Si Si3 0.376356 0.634563 0.280275
Si Si4 0.858118 0.364589 0.005753
Si Si5 0.630708 0.000000 0.015888
Si Si6 0.928664 0.631746 0.640089
Si Si7 0.907126 0.756208 0.368052
O O1 0.977421 0.880182 0.387235
O O2 0.000000 0.000000 0.500000
O O3 0.611559 0.000000 0.185198
O O4 0.227933 0.706490 0.991070
O O5 0.154348 0.684667 0.825344
O O6 0.606858 0.746266 0.166803
O O7 0.237562 0.884043 0.914009
O O8 0.383657 0.500000 0.285840
O O9 0.651430 0.674130 0.478144
O O10 0.144284 0.664049 0.173614
O O11 0.303636 0.662926 0.161432
O O12 0.841268 0.500000 0.005691
O O13 0.500000 0.000000 0.000000
O O14 0.935304 0.500000 0.653462
O O15 0.967285 0.663764 0.593047
O O16 0.000000 0.749268 0.500000
#
# Coordination Sequence:
#
# PCOD9148988 Si02
#       7
#     2   4   4   4   2   4   4
#     4   8  16  32  52  71  89 120 170 209 236 285
#     4  11  21  33  53  76 101 132 169 213 254 296
#     4   8  17  34  54  76 103 137 170 200 245 308
#     4   9  17  33  57  80 102 130 167 209 253 302
#     4  10  20  36  52  69  99 139 174 203 248 306
#     4  11  22  33  48  74 106 135 166 206 253 304
#     4  10  20  34  52  73 100 133 168 209 255 304
#
# _framework density 17.481276999999999
#
# number of rings (size 3 to 8) (size 9 to 14) (size 15 to 20)
#    0.000    2.333    0.000    5.000    0.000    3.000 
#    0.000    2.500    0.000    5.000    0.000    0.000 
#    0.000    0.000    0.000    0.000    0.000    0.000 
#
# Total GULP energy -133649.927600 kJ/mol
# GULP energy per Si atom -5568.746983 kJ/mol
# Density = 1.744149 g / cm^3
# Si number density = 17.481277 Si / 1000 Ang^3
#
#
#
# Elastic Constant Matrix: (Units=GPa)
#
#
# Indices 1 2 3 4 5 6 
#
# 1 67.5662 28.1882 16.0703 0.0000 3.9805 0.0000
# 2 28.1882 79.6095 27.0893 0.0000 2.3197 0.0000
# 3 16.0703 27.0893 105.6607 0.0000 3.2623 0.0000
# 4 0.0000 0.0000 0.0000 12.6221 0.0000 -22.8503
# 5 3.9805 2.3197 3.2623 0.0000 14.5552 0.0000
# 6 0.0000 0.0000 0.0000 -22.8503 0.0000 -24.2410
#
#
#
# Elastic Compliance Matrix: (Units=1/GPa)
#
#
# Indices 1 2 3 4 5 6 
#
# 1 0.017690 -0.005784 -0.001094 0.000000 -0.003671 0.000000
# 2 -0.005784 0.015682 -0.003134 0.000000 -0.000215 0.000000
# 3 -0.001094 -0.003134 0.010482 0.000000 -0.001551 0.000000
# 4 0.000000 0.000000 0.000000 0.029273 0.000000 -0.027593
# 5 -0.003671 -0.000215 -0.001551 0.000000 0.070089 0.000000
# 6 0.000000 0.000000 0.000000 -0.027593 0.000000 -0.015242
#
#
# Mechanical properties :
#
#
# Convention : Reuss Voigt Hill
#
# Bulk Modulus (GPa) = 41.96617 43.94800 42.95709
# Shear Modulus (GPa) = 32.06299 12.68648 22.37474
#
# Velocity S-wave (km/s) = 4.28732 2.69684 3.58149
# Velocity P-wave (km/s) = 6.96898 5.90693 6.45982
#
# Compressibility (1/GPa) = 0.02382872
#
# Stress axis : x y z
#
# Youngs Moduli (GPa) = 56.52900 63.76641 95.40067
#
# Poissons Ratio (x) = 0.36885 0.10439
# Poissons Ratio (y) = 0.32699 0.29901
# Poissons Ratio (z) = 0.06185 0.19986
#
# Static dielectric constant tensor:
#      x y z
#    x 1.595970 0.000000 -0.003350 
#    y 0.000000 1.634920 0.000000 
#    z -0.003350 0.000000 1.596340 
# 
# From -- ./inp_files/34513.got.cif
#   From: 2010.05.17/outbox.cif.g08.bks.cpg/sg10_18_cif.got.tgz:34513.got - 2010.06.03 11:33:40.
