data_PCOD9148508
_publ_section_title
;
Structure prediction by ZEFSAII (Michael W. Deem and Ramdas Pophale) SiO2 
 PCOD9148508
Probable space group: P 2/M
;
_chemical_formula_sum "Si O2"
_cell_formula_units_Z 28
_cell_length_a 19.090210
_cell_length_b 8.700213
_cell_length_c 13.469453
_cell_angle_alpha 90.000000
_cell_angle_beta 32.761660
_cell_angle_gamma 90.000000
_cell_volume 1210.611220
_symmetry_space_group_name_H-M "P 2/M"
_symmetry_group_IT_number 10
_symmetry_cell_setting 'monoclinic'
loop_
_space_group_symop_operation_xyz
x,y,z
-x,y,-z
-x,-y,-z
x,-y,z
loop_
_atom_site_type_symbol
_atom_site_label
_atom_site_fract_x
_atom_site_fract_y
_atom_site_fract_z
Si Si1 0.866652 0.000000 0.220063
Si Si2 0.870144 0.334042 0.222935
Si Si3 0.584468 0.000000 0.501060
Si Si4 0.699268 0.175842 0.928113
Si Si5 0.765049 0.332068 0.143678
Si Si6 0.057018 0.173146 0.210060
Si Si7 0.878977 0.675069 0.567185
Si Si8 0.520615 0.679824 0.294750
O O1 0.861258 0.165459 0.281698
O O2 0.739503 0.000000 0.300751
O O3 0.000000 0.000000 0.000000
O O4 0.863262 0.500000 0.284156
O O5 0.761398 0.334560 0.265935
O O6 0.000000 0.338613 0.000000
O O7 0.500000 0.000000 0.500000
O O8 0.553276 0.157901 0.597937
O O9 0.821519 0.182420 0.858194
O O10 0.761989 0.223510 0.748730
O O11 0.652581 0.000000 0.982088
O O12 0.595425 0.289470 0.101262
O O13 0.812673 0.500000 0.052660
O O14 0.627778 0.312383 0.255617
O O15 0.872135 0.217022 0.975576
O O16 0.943776 0.279101 0.386410
O O17 0.010692 0.000000 0.266072
O O18 0.836442 0.500000 0.618224
O O19 0.000000 0.689747 0.500000
O O20 0.472812 0.500000 0.351741
#
# Coordination Sequence:
#
# PCOD9148508 Si02
#       8
#     2   4   2   4   4   4   4   4
#     4  10  22  38  56  76  99 129 165 205 256 312
#     4   9  18  33  52  72  93 123 163 204 249 303
#     4  12  24  36  54  78 102 131 169 213 261 306
#     4   9  15  26  41  57  84 122 165 206 245 293
#     4   9  17  28  44  65  94 130 166 208 256 304
#     4   9  16  22  34  56  84 122 165 206 246 293
#     4   9  15  22  33  52  81 119 165 208 241 286
#     4  10  20  33  48  70  98 130 167 207 254 303
#
# _framework density 23.128810999999999
#
# number of rings (size 3 to 8) (size 9 to 14) (size 15 to 20)
#    0.000    2.571    0.714    2.143    2.000    6.000 
#    0.000    0.000    0.000    0.000    0.000    0.000 
#    0.000    0.000    0.000   10.286    0.000   55.714 
#
# Total GULP energy -156151.921678 kJ/mol
# GULP energy per Si atom -5576.854346 kJ/mol
# Density = 2.307617 g / cm^3
# Si number density = 23.128811 Si / 1000 Ang^3
#
#
#
# Elastic Constant Matrix: (Units=GPa)
#
#
# Indices 1 2 3 4 5 6 
#
# 1 26.1764 10.8841 16.3589 0.0000 -0.9155 0.0000
# 2 10.8841 170.6091 64.6185 0.0000 7.3243 0.0000
# 3 16.3589 64.6185 94.9166 0.0000 3.1396 0.0000
# 4 0.0000 0.0000 0.0000 41.8787 0.0000 7.3604
# 5 -0.9155 7.3243 3.1396 0.0000 21.0728 0.0000
# 6 0.0000 0.0000 0.0000 7.3604 0.0000 18.3174
#
#
#
# Elastic Compliance Matrix: (Units=1/GPa)
#
#
# Indices 1 2 3 4 5 6 
#
# 1 0.043000 -0.000037 -0.007485 0.000000 0.002996 0.000000
# 2 -0.000037 0.007979 -0.005360 0.000000 -0.001976 0.000000
# 3 -0.007485 -0.005360 0.015500 0.000000 -0.000772 0.000000
# 4 0.000000 0.000000 0.000000 0.025693 0.000000 -0.010324
# 5 0.002996 -0.001976 -0.000772 0.000000 0.048387 0.000000
# 6 0.000000 0.000000 0.000000 -0.010324 0.000000 0.058741
#
#
# Mechanical properties :
#
#
# Convention : Reuss Voigt Hill
#
# Bulk Modulus (GPa) = 24.56097 52.82505 38.69301
# Shear Modulus (GPa) = 20.95241 29.57649 25.26445
#
# Velocity S-wave (km/s) = 3.01308 3.57987 3.30864
# Velocity P-wave (km/s) = 4.76940 6.32269 5.60016
#
# Compressibility (1/GPa) = 0.04071501
#
# Stress axis : x y z
#
# Youngs Moduli (GPa) = 23.25569 125.33376 64.51500
#
# Poissons Ratio (x) = 0.00462 0.48290
# Poissons Ratio (y) = 0.00086 0.34581
# Poissons Ratio (z) = 0.17407 0.67180
#
# Static dielectric constant tensor:
#      x y z
#    x 1.934690 0.000000 -0.039570 
#    y 0.000000 1.897340 0.000000 
#    z -0.039570 0.000000 1.854780 
# 
# From -- ./inp_files/70261.got.cif
#   From: 2010.05.17/outbox.cif.g08.bks.cpg/sg10_36_cif.got.tgz:70261.got - 2010.06.03 11:33:40.
