data_PCOD9148094
_publ_section_title
;
Structure prediction by ZEFSAII (Michael W. Deem and Ramdas Pophale) SiO2 
 PCOD9148094
Probable space group: P 2/M
;
_chemical_formula_sum "Si O2"
_cell_formula_units_Z 18
_cell_length_a 5.298045
_cell_length_b 25.970906
_cell_length_c 4.854510
_cell_angle_alpha 90.000000
_cell_angle_beta 89.835501
_cell_angle_gamma 90.000000
_cell_volume 667.953690
_symmetry_space_group_name_H-M "P 2/M"
_symmetry_group_IT_number 10
_symmetry_cell_setting 'monoclinic'
loop_
_space_group_symop_operation_xyz
x,y,z
-x,y,-z
-x,-y,-z
x,-y,z
loop_
_atom_site_type_symbol
_atom_site_label
_atom_site_fract_x
_atom_site_fract_y
_atom_site_fract_z
Si Si1 0.748509 0.590130 0.192374
Si Si2 0.000000 0.500000 0.500000
Si Si3 0.248129 0.072689 0.651861
Si Si4 0.250763 0.297514 0.811436
Si Si5 0.250645 0.187446 0.813036
Si Si6 0.500000 0.000000 0.000000
O O1 0.743935 0.646882 0.330738
O O2 0.797322 0.545012 0.405697
O O3 0.500000 0.583887 0.000000
O O4 0.000000 0.587108 0.000000
O O5 0.500000 0.053029 0.500000
O O6 0.252339 0.134418 0.650637
O O7 0.000000 0.056244 0.500000
O O8 0.287895 0.045871 0.942289
O O9 0.249758 0.242594 0.657533
O O10 0.500000 0.297229 0.000000
O O11 0.000000 0.297566 0.000000
O O12 0.500000 0.186458 0.000000
O O13 0.000000 0.185892 0.000000
#
# Coordination Sequence:
#
# PCOD9148094 Si02
#       6
#     4   1   4   4   4   1
#     4  10  22  40  60  89 124 163 208 261 310 366
#     4  12  24  38  64  88 124 162 220 248 320 376
#     4  12  27  45  69 102 129 169 218 259 320 379
#     4   8  16  33  61  87 119 163 203 248 313 372
#     4  10  19  39  68  93 127 170 206 257 323 376
#     4  12  28  50  72  88 142 168 218 264 314 370
#
# _framework density 26.947979
#
# number of rings (size 3 to 8) (size 9 to 14) (size 15 to 20)
#    0.000    1.778    1.111    2.667    0.000    2.667 
#    2.000    0.000    0.000    0.000    0.000    0.000 
#    0.000    0.000    0.000    0.000    0.000    0.000 
#
# Total GULP energy -100290.316233 kJ/mol
# GULP energy per Si atom -5571.684235 kJ/mol
# Density = 2.688664 g / cm^3
# Si number density = 26.947979 Si / 1000 Ang^3
#
#
#
# Elastic Constant Matrix: (Units=GPa)
#
#
# Indices 1 2 3 4 5 6 
#
# 1 263.0512 30.6977 67.4800 0.0000 36.8159 0.0000
# 2 30.6977 334.2069 32.0811 0.0000 33.2318 0.0000
# 3 67.4800 32.0811 60.4759 0.0000 29.7712 0.0000
# 4 0.0000 0.0000 0.0000 32.8300 0.0000 26.3349
# 5 36.8159 33.2318 29.7712 0.0000 81.3754 0.0000
# 6 0.0000 0.0000 0.0000 26.3349 0.0000 34.3716
#
#
#
# Elastic Compliance Matrix: (Units=1/GPa)
#
#
# Indices 1 2 3 4 5 6 
#
# 1 0.005335 0.000103 -0.005853 0.000000 -0.000315 0.000000
# 2 0.000103 0.003201 -0.001398 0.000000 -0.000842 0.000000
# 3 -0.005853 -0.001398 0.027105 0.000000 -0.006697 0.000000
# 4 0.000000 0.000000 0.000000 0.079035 0.000000 -0.060555
# 5 -0.000315 -0.000842 -0.006697 0.000000 0.015225 0.000000
# 6 0.000000 0.000000 0.000000 -0.060555 0.000000 0.075490
#
#
# Mechanical properties :
#
#
# Convention : Reuss Voigt Hill
#
# Bulk Modulus (GPa) = 46.85030 102.02795 74.43913
# Shear Modulus (GPa) = 22.04578 64.88042 43.46310
#
# Velocity S-wave (km/s) = 2.86332 4.91207 4.02039
# Velocity P-wave (km/s) = 5.32491 8.37344 7.01674
#
# Compressibility (1/GPa) = 0.02134458
#
# Stress axis : x y z
#
# Youngs Moduli (GPa) = 187.44529 312.43604 36.89396
#
# Poissons Ratio (x) = -0.03220 0.21593
# Poissons Ratio (y) = -0.01932 0.05159
# Poissons Ratio (z) = 1.09704 0.43688
#
# Static dielectric constant tensor:
#      x y z
#    x 2.101560 0.000000 -0.085060 
#    y 0.000000 2.090990 0.000000 
#    z -0.085060 0.000000 2.351140 
# 
# From -- ./inp_files/2178.got.cif
#   From: 2010.05.17/outbox.cif.g08.bks.cpg/sg10_2_cif.got.tgz:2178.got - 2010.06.03 11:33:40.
