data_PCOD9148879
_publ_section_title
;
Structure prediction by ZEFSAII (Michael W. Deem and Ramdas Pophale) SiO2 
 PCOD9148879
Probable space group: P 2/M
;
_chemical_formula_sum "Si O2"
_cell_formula_units_Z 28
_cell_length_a 19.621471
_cell_length_b 10.563206
_cell_length_c 22.754401
_cell_angle_alpha 90.000000
_cell_angle_beta 161.201859
_cell_angle_gamma 90.000000
_cell_volume 1519.726384
_symmetry_space_group_name_H-M "P 2/M"
_symmetry_group_IT_number 10
_symmetry_cell_setting 'monoclinic'
loop_
_space_group_symop_operation_xyz
x,y,z
-x,y,-z
-x,-y,-z
x,-y,z
loop_
_atom_site_type_symbol
_atom_site_label
_atom_site_fract_x
_atom_site_fract_y
_atom_site_fract_z
Si Si1 0.707298 0.360202 0.289229
Si Si2 0.215556 0.360187 0.921817
Si Si3 0.929540 0.730668 0.586133
Si Si4 0.263462 0.141923 0.780634
Si Si5 0.570059 0.848988 0.374636
Si Si6 0.135405 0.149624 0.953774
Si Si7 0.657105 0.152551 0.578159
O O1 0.745043 0.500000 0.294389
O O2 0.833204 0.344159 0.452567
O O3 0.762320 0.248780 0.289516
O O4 0.459163 0.349380 0.101585
O O5 0.186308 0.500000 0.925392
O O6 0.161896 0.244022 0.920757
O O7 0.069606 0.349580 0.745406
O O8 0.736628 0.788886 0.465673
O O9 0.089106 0.833708 0.688407
O O10 0.241757 0.000000 0.738750
O O11 0.500000 0.154226 0.000000
O O12 0.605817 0.801639 0.470301
O O13 0.606772 0.000000 0.404509
O O14 0.331711 0.827986 0.157464
O O15 0.904612 0.174383 0.792684
O O16 0.140721 0.000000 0.940474
O O17 0.500000 0.202239 0.500000
O O18 0.628832 0.000000 0.553314
#
# Coordination Sequence:
#
# PCOD9148879 Si02
#       7
#     4   4   4   4   4   4   4
#     4  11  25  43  62  86 117 154 198 247 299 354
#     4  11  23  39  60  88 118 153 197 248 294 345
#     4  12  22  39  62  86 112 155 200 248 290 354
#     4  11  25  42  61  87 118 156 198 247 301 351
#     4  10  20  33  56  89 119 152 195 241 292 343
#     4  10  20  36  59  88 120 155 192 239 292 346
#     4   9  18  33  56  89 126 157 189 233 289 349
#
# _framework density 18.424368999999999
#
# number of rings (size 3 to 8) (size 9 to 14) (size 15 to 20)
#    0.000    1.429    4.286    1.286    0.000    5.429 
#    0.000    2.857    0.000    0.429    0.000    1.000 
#    0.000    0.000    0.000    0.000    0.000    0.000 
#
# Total GULP energy -156334.133343 kJ/mol
# GULP energy per Si atom -5583.361905 kJ/mol
# Density = 1.838243 g / cm^3
# Si number density = 18.424369 Si / 1000 Ang^3
#
#
#
# Elastic Constant Matrix: (Units=GPa)
#
#
# Indices 1 2 3 4 5 6 
#
# 1 103.9773 46.8625 54.7567 0.0000 18.6954 0.0000
# 2 46.8625 89.7502 44.7159 0.0000 9.4502 0.0000
# 3 54.7567 44.7159 137.3061 0.0000 8.5796 0.0000
# 4 0.0000 0.0000 0.0000 -11.8665 0.0000 -1.2291
# 5 18.6954 9.4502 8.5796 0.0000 28.1863 0.0000
# 6 0.0000 0.0000 0.0000 -1.2291 0.0000 -12.4926
#
#
#
# Elastic Compliance Matrix: (Units=1/GPa)
#
#
# Indices 1 2 3 4 5 6 
#
# 1 0.015392 -0.005303 -0.003960 0.000000 -0.007226 0.000000
# 2 -0.005303 0.015417 -0.002857 0.000000 -0.000782 0.000000
# 3 -0.003960 -0.002857 0.009754 0.000000 0.000615 0.000000
# 4 0.000000 0.000000 0.000000 -0.085138 0.000000 0.008376
# 5 -0.007226 -0.000782 0.000615 0.000000 0.040346 0.000000
# 6 0.000000 0.000000 0.000000 0.008376 0.000000 -0.080871
#
#
# Mechanical properties :
#
#
# Convention : Reuss Voigt Hill
#
# Bulk Modulus (GPa) = 61.26242 69.30044 65.28143
# Shear Modulus (GPa) = -90.22064 13.07867 -38.57098
#
# Velocity S-wave (km/s) = -7.00531 2.66721 -4.58042
# Velocity P-wave (km/s) = 5.66653 6.86880 2.74507
#
# Compressibility (1/GPa) = 0.01632322
#
# Stress axis : x y z
#
# Youngs Moduli (GPa) = 64.96823 64.86421 102.52127
#
# Poissons Ratio (x) = 0.34399 0.40595
# Poissons Ratio (y) = 0.34454 0.29290
# Poissons Ratio (z) = 0.25725 0.18532
#
# Static dielectric constant tensor:
#      x y z
#    x 1.614590 0.000000 -0.001300 
#    y 0.000000 1.629780 0.000000 
#    z -0.001300 0.000000 1.649900 
# 
# From -- ./inp_files/79559.got.cif
#   From: 2010.05.17/outbox.cif.g08.bks.cpg/sg10_40_cif.got.tgz:79559.got - 2010.06.03 11:33:40.
