data_PCOD9148298
_publ_section_title
;
Structure prediction by ZEFSAII (Michael W. Deem and Ramdas Pophale) SiO2 
 PCOD9148298
Probable space group: P 2/M
;
_chemical_formula_sum "Si O2"
_cell_formula_units_Z 32
_cell_length_a 15.193995
_cell_length_b 9.176622
_cell_length_c 28.676181
_cell_angle_alpha 90.000000
_cell_angle_beta 153.508436
_cell_angle_gamma 90.000000
_cell_volume 1783.508967
_symmetry_space_group_name_H-M "P 2/M"
_symmetry_group_IT_number 10
_symmetry_cell_setting 'monoclinic'
loop_
_space_group_symop_operation_xyz
x,y,z
-x,y,-z
-x,-y,-z
x,-y,z
loop_
_atom_site_type_symbol
_atom_site_label
_atom_site_fract_x
_atom_site_fract_y
_atom_site_fract_z
Si Si1 0.061169 0.669864 0.921110
Si Si2 0.903794 0.673146 0.639745
Si Si3 0.737757 0.170896 0.061015
Si Si4 0.378786 0.671270 0.245316
Si Si5 0.222287 0.832595 0.083922
Si Si6 0.431750 0.175001 0.580811
Si Si7 0.296398 0.836111 0.373958
Si Si8 0.290977 0.828107 0.841115
O O1 0.110394 0.500000 0.944645
O O2 0.099905 0.737610 0.889021
O O3 0.837449 0.684373 0.833124
O O4 0.197986 0.755625 0.022767
O O5 0.890512 0.500000 0.629786
O O6 0.753209 0.750557 0.532577
O O7 0.835511 0.726452 0.659036
O O8 0.124609 0.732551 0.737843
O O9 0.735687 0.188911 0.115623
O O10 0.766993 0.000000 0.065061
O O11 0.517987 0.211585 0.939158
O O12 0.425834 0.500000 0.264474
O O13 0.354961 0.744184 0.183413
O O14 0.526948 0.756961 0.349307
O O15 0.285954 0.000000 0.109714
O O16 0.000000 0.832899 0.000000
O O17 0.624001 0.204672 0.639172
O O18 0.408109 0.000000 0.570762
O O19 0.500000 0.845824 0.500000
O O20 0.207921 0.000000 0.331351
O O21 0.263734 0.000000 0.817814
#
# Coordination Sequence:
#
# PCOD9148298 Si02
#       8
#     4   4   4   4   4   4   4   4
#     4  10  20  32  49  74 104 132 159 199 252 297
#     4  11  21  31  47  69  95 127 161 202 252 295
#     4   9  19  35  54  73  94 126 169 209 244 290
#     4  10  20  32  47  72 106 134 160 200 248 291
#     4   9  17  31  50  71  96 130 169 200 234 288
#     4  10  20  33  48  67  93 129 170 203 235 286
#     4   8  16  30  44  60  85 121 162 199 232 274
#     4   9  19  36  53  70  95 128 167 210 249 286
#
# _framework density 17.942157999999999
#
# number of rings (size 3 to 8) (size 9 to 14) (size 15 to 20)
#    0.000    2.500    0.000    4.125    1.750    6.750 
#    0.000    1.250    0.000    0.000    0.000    0.875 
#    0.000    7.000    0.000    0.000    0.000    0.000 
#
# Total GULP energy -178540.330167 kJ/mol
# GULP energy per Si atom -5579.385318 kJ/mol
# Density = 1.790132 g / cm^3
# Si number density = 17.942158 Si / 1000 Ang^3
#
#
#
# Elastic Constant Matrix: (Units=GPa)
#
#
# Indices 1 2 3 4 5 6 
#
# 1 16.4048 11.6580 -0.1910 0.0000 -2.6994 0.0000
# 2 11.6580 91.3842 50.5911 0.0000 -0.6007 0.0000
# 3 -0.1910 50.5911 89.4397 0.0000 -3.6841 0.0000
# 4 0.0000 0.0000 0.0000 9.9036 0.0000 0.5839
# 5 -2.6994 -0.6007 -3.6841 0.0000 24.5691 0.0000
# 6 0.0000 0.0000 0.0000 0.5839 0.0000 8.8590
#
#
#
# Elastic Compliance Matrix: (Units=1/GPa)
#
#
# Indices 1 2 3 4 5 6 
#
# 1 0.072290 -0.013760 0.008302 0.000000 0.008851 0.000000
# 2 -0.013760 0.018574 -0.010645 0.000000 -0.002654 0.000000
# 3 0.008302 -0.010645 0.017354 0.000000 0.003254 0.000000
# 4 0.000000 0.000000 0.000000 0.101367 0.000000 -0.006681
# 5 0.008851 -0.002654 0.003254 0.000000 0.042097 0.000000
# 6 0.000000 0.000000 0.000000 -0.006681 0.000000 0.113320
#
#
# Mechanical properties :
#
#
# Convention : Reuss Voigt Hill
#
# Bulk Modulus (GPa) = 13.15585 35.70498 24.43041
# Shear Modulus (GPa) = 11.83306 17.67770 14.75538
#
# Velocity S-wave (km/s) = 2.57088 3.14229 2.87084
# Velocity P-wave (km/s) = 4.02006 5.75401 4.96334
#
# Compressibility (1/GPa) = 0.07601183
#
# Stress axis : x y z
#
# Youngs Moduli (GPa) = 13.83323 53.83897 57.62446
#
# Poissons Ratio (x) = 0.74083 -0.47842
# Poissons Ratio (y) = 0.19035 0.61341
# Poissons Ratio (z) = -0.11485 0.57311
#
# Static dielectric constant tensor:
#      x y z
#    x 1.609800 0.000000 -0.000510 
#    y 0.000000 1.596250 0.000000 
#    z -0.000510 0.000000 1.639750 
# 
# From -- ./inp_files/93136.got.cif
#   From: 2010.05.17/outbox.cif.g08.bks.cpg/sg10_47_cif.got.tgz:93136.got - 2010.06.03 11:33:40.
