data_PCOD9148848
_publ_section_title
;
Structure prediction by ZEFSAII (Michael W. Deem and Ramdas Pophale) SiO2 
 PCOD9148848
Probable space group: P 2/M
;
_chemical_formula_sum "Si O2"
_cell_formula_units_Z 22
_cell_length_a 5.077196
_cell_length_b 19.666070
_cell_length_c 12.002671
_cell_angle_alpha 90.000000
_cell_angle_beta 79.597489
_cell_angle_gamma 90.000000
_cell_volume 1178.750368
_symmetry_space_group_name_H-M "P 2/M"
_symmetry_group_IT_number 10
_symmetry_cell_setting 'monoclinic'
loop_
_space_group_symop_operation_xyz
x,y,z
-x,y,-z
-x,-y,-z
x,-y,z
loop_
_atom_site_type_symbol
_atom_site_label
_atom_site_fract_x
_atom_site_fract_y
_atom_site_fract_z
Si Si1 0.724863 0.577743 0.577922
Si Si2 0.212775 0.000000 0.082372
Si Si3 0.019799 0.873584 0.241040
Si Si4 0.069578 0.726839 0.124085
Si Si5 0.535922 0.163028 0.629300
Si Si6 0.481554 0.690909 0.750814
O O1 0.500000 0.576516 0.500000
O O2 0.768571 0.500000 0.614080
O O3 0.617052 0.627732 0.679974
O O4 0.000000 0.602122 0.500000
O O5 0.151574 0.065482 0.162862
O O6 0.500000 0.000000 0.000000
O O7 0.000000 0.000000 0.000000
O O8 0.046667 0.804938 0.166152
O O9 0.185007 0.863287 0.342527
O O10 0.706590 0.878506 0.294268
O O11 0.357882 0.703356 0.146376
O O12 0.834376 0.685183 0.204308
O O13 0.000000 0.722504 0.000000
O O14 0.500000 0.159642 0.500000
O O15 0.516180 0.241369 0.672444
#
# Coordination Sequence:
#
# PCOD9148848 Si02
#       6
#     4   2   4   4   4   4
#     4  10  20  34  54  81 112 143 176 218 268 319
#     4  12  24  40  61  80 107 142 180 228 274 316
#     4  10  22  37  55  82 106 137 181 220 267 321
#     4  10  20  35  55  78 106 138 178 227 270 307
#     4  10  20  36  56  80 111 141 174 218 265 318
#     4  10  20  33  55  80 106 141 180 220 263 317
#
# _framework density 18.663831999999999
#
# number of rings (size 3 to 8) (size 9 to 14) (size 15 to 20)
#    0.000    1.818    0.000    4.364    0.000    5.818 
#    0.000    2.727    0.000    3.273    0.000    0.000 
#    0.000    0.000    0.000    0.000    0.000    0.000 
#
# Total GULP energy -122813.961925 kJ/mol
# GULP energy per Si atom -5582.452815 kJ/mol
# Density = 1.862135 g / cm^3
# Si number density = 18.663832 Si / 1000 Ang^3
#
#
#
# Elastic Constant Matrix: (Units=GPa)
#
#
# Indices 1 2 3 4 5 6 
#
# 1 87.6224 15.4773 13.0368 0.0000 -5.7189 0.0000
# 2 15.4773 62.5611 42.0314 0.0000 -9.2141 0.0000
# 3 13.0368 42.0314 88.0219 0.0000 11.6965 0.0000
# 4 0.0000 0.0000 0.0000 18.5548 0.0000 2.5095
# 5 -5.7189 -9.2141 11.6965 0.0000 37.1848 0.0000
# 6 0.0000 0.0000 0.0000 2.5095 0.0000 19.2651
#
#
#
# Elastic Compliance Matrix: (Units=1/GPa)
#
#
# Indices 1 2 3 4 5 6 
#
# 1 0.012035 -0.002039 -0.001031 0.000000 0.001670 0.000000
# 2 -0.002039 0.027860 -0.014483 0.000000 0.011146 0.000000
# 3 -0.001031 -0.014483 0.019753 0.000000 -0.009960 0.000000
# 4 0.000000 0.000000 0.000000 0.054861 0.000000 -0.007146
# 5 0.001670 0.011146 -0.009960 0.000000 0.033044 0.000000
# 6 0.000000 0.000000 0.000000 -0.007146 0.000000 0.052838
#
#
# Mechanical properties :
#
#
# Convention : Reuss Voigt Hill
#
# Bulk Modulus (GPa) = 40.74422 42.14405 41.44414
# Shear Modulus (GPa) = 20.51890 26.17827 23.34858
#
# Velocity S-wave (km/s) = 3.31931 3.74922 3.54079
# Velocity P-wave (km/s) = 6.04718 6.43209 6.24260
#
# Compressibility (1/GPa) = 0.02454336
#
# Stress axis : x y z
#
# Youngs Moduli (GPa) = 83.09013 35.89320 50.62604
#
# Poissons Ratio (x) = 0.07318 0.05219
# Poissons Ratio (y) = 0.16942 0.73320
# Poissons Ratio (z) = 0.08565 0.51983
#
# Static dielectric constant tensor:
#      x y z
#    x 1.633360 0.000000 -0.003440 
#    y 0.000000 1.635080 0.000000 
#    z -0.003440 0.000000 1.620500 
# 
# From -- ./inp_files/39360.got.cif
#   From: 2010.05.17/outbox.cif.g08.bks.cpg/sg10_20_cif.got.tgz:39360.got - 2010.06.03 11:33:40.
