data_PCOD9148648
_publ_section_title
;
Structure prediction by ZEFSAII (Michael W. Deem and Ramdas Pophale) SiO2 
 PCOD9148648
Probable space group: P 2/M
;
_chemical_formula_sum "Si O2"
_cell_formula_units_Z 32
_cell_length_a 21.994589
_cell_length_b 7.755184
_cell_length_c 17.283851
_cell_angle_alpha 90.000000
_cell_angle_beta 27.463617
_cell_angle_gamma 90.000000
_cell_volume 1359.639880
_symmetry_space_group_name_H-M "P 2/M"
_symmetry_group_IT_number 10
_symmetry_cell_setting 'monoclinic'
loop_
_space_group_symop_operation_xyz
x,y,z
-x,y,-z
-x,-y,-z
x,-y,z
loop_
_atom_site_type_symbol
_atom_site_label
_atom_site_fract_x
_atom_site_fract_y
_atom_site_fract_z
Si Si1 0.390371 0.708423 0.835407
Si Si2 0.420228 0.705554 0.982762
Si Si3 0.851357 0.800150 0.995554
Si Si4 0.999937 0.794021 0.688550
Si Si5 0.290842 0.708836 0.356101
Si Si6 0.865776 0.207383 0.691279
Si Si7 0.677649 0.702605 0.503886
Si Si8 0.157227 0.802481 0.827505
O O1 0.374047 0.500000 0.849155
O O2 0.400487 0.755239 0.914757
O O3 0.532877 0.762559 0.641479
O O4 0.274106 0.792698 0.918653
O O5 0.429959 0.500000 0.976900
O O6 0.567668 0.769183 0.838515
O O7 0.277845 0.747881 0.179430
O O8 0.968571 0.723855 0.809833
O O9 0.887284 0.000000 0.972132
O O10 0.815754 0.721138 0.118708
O O11 0.146422 0.763331 0.491428
O O12 0.890971 0.728874 0.750792
O O13 0.983857 0.000000 0.711615
O O14 0.291195 0.500000 0.351861
O O15 0.290170 0.772194 0.446957
O O16 0.000000 0.270346 0.500000
O O17 0.870449 0.000000 0.685899
O O18 0.661776 0.500000 0.536386
O O19 0.781150 0.725174 0.319109
O O20 0.205488 0.000000 0.772795
O O21 0.000000 0.800134 0.000000
#
# Coordination Sequence:
#
# PCOD9148648 Si02
#       8
#     4   4   4   4   4   4   4   4
#     4   9  18  33  53  76 101 133 172 216 263 311
#     4   9  18  35  57  81 109 141 179 218 261 316
#     4  10  20  33  51  75 102 134 177 222 262 312
#     4  10  20  35  55  81 109 138 178 222 265 318
#     4   9  19  35  56  81 108 141 182 225 263 310
#     4  10  21  37  58  84 112 141 175 217 264 317
#     4   9  19  35  52  73 103 136 175 219 263 313
#     4  10  21  35  49  68  99 137 175 218 267 314
#
# _framework density 23.535644000000001
#
# number of rings (size 3 to 8) (size 9 to 14) (size 15 to 20)
#    0.000    2.500    1.250    2.250    0.000    5.000 
#    0.000    5.625    0.000    3.750    0.000    0.000 
#    0.000    0.000    0.000    0.000    0.000    0.000 
#
# Total GULP energy -178489.680827 kJ/mol
# GULP energy per Si atom -5577.802526 kJ/mol
# Density = 2.348208 g / cm^3
# Si number density = 23.535644 Si / 1000 Ang^3
#
#
#
# Elastic Constant Matrix: (Units=GPa)
#
#
# Indices 1 2 3 4 5 6 
#
# 1 72.4661 -3.2230 30.8797 0.0000 -15.1820 0.0000
# 2 -3.2230 25.3747 -10.0552 0.0000 1.6722 0.0000
# 3 30.8797 -10.0552 154.2966 0.0000 -14.0040 0.0000
# 4 0.0000 0.0000 0.0000 19.9344 0.0000 -1.9813
# 5 -15.1820 1.6722 -14.0040 0.0000 37.9062 0.0000
# 6 0.0000 0.0000 0.0000 -1.9813 0.0000 3.5906
#
#
#
# Elastic Compliance Matrix: (Units=1/GPa)
#
#
# Indices 1 2 3 4 5 6 
#
# 1 0.016112 0.000622 -0.002691 0.000000 0.005431 0.000000
# 2 0.000622 0.040504 0.002458 0.000000 -0.000630 0.000000
# 3 -0.002691 0.002458 0.007317 0.000000 0.001517 0.000000
# 4 0.000000 0.000000 0.000000 0.053076 0.000000 0.029288
# 5 0.005431 -0.000630 0.001517 0.000000 0.029145 0.000000
# 6 0.000000 0.000000 0.000000 0.029288 0.000000 0.294666
#
#
# Mechanical properties :
#
#
# Convention : Reuss Voigt Hill
#
# Bulk Modulus (GPa) = 15.45328 31.92671 23.69000
# Shear Modulus (GPa) = 10.83161 27.92196 19.37679
#
# Velocity S-wave (km/s) = 2.14760 3.44811 2.87243
# Velocity P-wave (km/s) = 3.56788 5.42654 4.59223
#
# Compressibility (1/GPa) = 0.06471117
#
# Stress axis : x y z
#
# Youngs Moduli (GPa) = 62.06611 24.68906 136.65961
#
# Poissons Ratio (x) = -0.01536 0.36775
# Poissons Ratio (y) = -0.03861 -0.33590
# Poissons Ratio (z) = 0.16702 -0.06068
#
# Static dielectric constant tensor:
#      x y z
#    x 1.933680 0.000000 0.043760 
#    y 0.000000 1.863230 0.000000 
#    z 0.043760 0.000000 1.946290 
# 
# From -- ./inp_files/86781.got.cif
#   From: 2010.05.17/outbox.cif.g08.bks.cpg/sg10_44_cif.got.tgz:86781.got - 2010.06.03 11:33:40.
