data_PCOD9148580
_publ_section_title
;
Structure prediction by ZEFSAII (Michael W. Deem and Ramdas Pophale) SiO2 
 PCOD9148580
Probable space group: P 2/M
;
_chemical_formula_sum "Si O2"
_cell_formula_units_Z 32
_cell_length_a 22.594036
_cell_length_b 8.947830
_cell_length_c 28.927423
_cell_angle_alpha 90.000000
_cell_angle_beta 18.732946
_cell_angle_gamma 90.000000
_cell_volume 1878.189849
_symmetry_space_group_name_H-M "P 2/M"
_symmetry_group_IT_number 10
_symmetry_cell_setting 'monoclinic'
loop_
_space_group_symop_operation_xyz
x,y,z
-x,y,-z
-x,-y,-z
x,-y,z
loop_
_atom_site_type_symbol
_atom_site_label
_atom_site_fract_x
_atom_site_fract_y
_atom_site_fract_z
Si Si1 0.489899 0.321318 0.306558
Si Si2 0.518156 0.679985 0.933632
Si Si3 0.211790 0.679698 0.836144
Si Si4 0.516428 0.178540 0.186775
Si Si5 0.789522 0.820078 0.662064
Si Si6 0.212296 0.679893 0.085076
Si Si7 0.787257 0.319759 0.408935
Si Si8 0.491297 0.820927 0.560270
O O1 0.489258 0.500000 0.299513
O O2 0.664469 0.285344 0.210288
O O3 0.498627 0.240282 0.251399
O O4 0.310960 0.281896 0.469771
O O5 0.534936 0.500000 0.920630
O O6 0.691909 0.749699 0.778816
O O7 0.500000 0.728863 0.000000
O O8 0.338705 0.719954 0.035769
O O9 0.219663 0.500000 0.823881
O O10 0.311494 0.756570 0.719116
O O11 0.000000 0.723378 0.000000
O O12 0.338336 0.220255 0.287290
O O13 0.530534 0.000000 0.176878
O O14 0.691337 0.246844 0.030538
O O15 0.000000 0.771578 0.500000
O O16 0.786705 0.000000 0.668424
O O17 0.218754 0.500000 0.075353
O O18 0.000403 0.723981 0.248532
O O19 0.774138 0.500000 0.413828
O O20 0.665232 0.245395 0.459291
O O21 0.500000 0.778952 0.500000
O O22 0.491838 0.000000 0.563381
#
# Coordination Sequence:
#
# PCOD9148580 Si02
#       8
#     4   4   4   4   4   4   4   4
#     4   9  18  33  52  75 101 127 160 203 246 288
#     4   9  18  32  51  76 102 127 160 203 249 295
#     4   9  19  36  56  76  98 129 170 207 240 289
#     4  10  20  33  50  73 100 131 166 202 243 293
#     4   9  19  35  51  69  97 132 169 205 240 286
#     4   9  18  34  53  73 100 131 163 203 247 289
#     4   9  19  35  54  74  97 130 169 204 241 290
#     4  10  21  35  51  75 105 132 161 202 250 295
#
# _framework density 17.037682
#
# number of rings (size 3 to 8) (size 9 to 14) (size 15 to 20)
#    0.000    2.750    0.000    1.500    0.000    6.750 
#    0.000    5.000    0.000    0.000    0.000    0.000 
#    0.000    0.000    0.000    0.000    0.000    0.000 
#
# Total GULP energy -178457.696907 kJ/mol
# GULP energy per Si atom -5576.803028 kJ/mol
# Density = 1.699890 g / cm^3
# Si number density = 17.037682 Si / 1000 Ang^3
#
#
#
# Elastic Constant Matrix: (Units=GPa)
#
#
# Indices 1 2 3 4 5 6 
#
# 1 137.2899 44.9141 105.6176 0.0000 34.2679 0.0000
# 2 44.9141 20.3025 48.0945 0.0000 7.8407 0.0000
# 3 105.6176 48.0945 200.1309 0.0000 4.3835 0.0000
# 4 0.0000 0.0000 0.0000 441.3929 0.0000 10.1611
# 5 34.2679 7.8407 4.3835 0.0000 21.2211 0.0000
# 6 0.0000 0.0000 0.0000 10.1611 0.0000 18.9962
#
#
#
# Elastic Compliance Matrix: (Units=1/GPa)
#
#
# Indices 1 2 3 4 5 6 
#
# 1 0.049663 -0.070106 -0.008210 0.000000 -0.052598 0.000000
# 2 -0.070106 0.251309 -0.023950 0.000000 0.025301 0.000000
# 3 -0.008210 -0.023950 0.014667 0.000000 0.019077 0.000000
# 4 0.000000 0.000000 0.000000 0.002294 0.000000 -0.001227
# 5 -0.052598 0.025301 0.019077 0.000000 0.118770 0.000000
# 6 0.000000 0.000000 0.000000 -0.001227 0.000000 0.053298
#
#
# Mechanical properties :
#
#
# Convention : Reuss Voigt Hill
#
# Bulk Modulus (GPa) = 9.00021 83.88619 46.44320
# Shear Modulus (GPa) = 6.83463 106.92851 56.88157
#
# Velocity S-wave (km/s) = 2.00504 7.93072 5.78431
# Velocity P-wave (km/s) = 3.26408 11.54141 8.48111
#
# Compressibility (1/GPa) = 0.11110858
#
# Stress axis : x y z
#
# Youngs Moduli (GPa) = 20.13562 3.97917 68.17973
#
# Poissons Ratio (x) = 0.27896 0.55975
# Poissons Ratio (y) = 1.41162 1.63289
# Poissons Ratio (z) = 0.16531 0.09530
#
# Static dielectric constant tensor:
#      x y z
#    x 1.554750 0.000000 -0.010810 
#    y 0.000000 1.568420 0.000000 
#    z -0.010810 0.000000 1.561390 
# 
# From -- ./inp_files/93570.got.cif
#   From: 2010.05.17/outbox.cif.g08.bks.cpg/sg10_47_cif.got.tgz:93570.got - 2010.06.03 11:33:40.
