data_PCOD9148188
_publ_section_title
;
Structure prediction by ZEFSAII (Michael W. Deem and Ramdas Pophale) SiO2 
 PCOD9148188
Probable space group: P 2/M
;
_chemical_formula_sum "Si O2"
_cell_formula_units_Z 32
_cell_length_a 14.138440
_cell_length_b 20.349295
_cell_length_c 7.097965
_cell_angle_alpha 90.000000
_cell_angle_beta 44.173273
_cell_angle_gamma 90.000000
_cell_volume 1423.023042
_symmetry_space_group_name_H-M "P 2/M"
_symmetry_group_IT_number 10
_symmetry_cell_setting 'monoclinic'
loop_
_space_group_symop_operation_xyz
x,y,z
-x,y,-z
-x,-y,-z
x,-y,z
loop_
_atom_site_type_symbol
_atom_site_label
_atom_site_fract_x
_atom_site_fract_y
_atom_site_fract_z
Si Si1 0.710713 0.788081 0.031742
Si Si2 0.213851 0.208634 0.523688
Si Si3 0.701834 0.072096 0.555570
Si Si4 0.056500 0.573144 0.707292
Si Si5 0.605463 0.926889 0.130999
Si Si6 0.625647 0.427215 0.670693
Si Si7 0.033490 0.715190 0.238289
Si Si8 0.460683 0.292056 0.279419
O O1 0.749862 0.791882 0.752470
O O2 0.828619 0.755009 0.984834
O O3 0.668658 0.862714 0.137778
O O4 0.586749 0.737205 0.208984
O O5 0.199670 0.133770 0.609795
O O6 0.342372 0.239081 0.444098
O O7 0.087004 0.256823 0.716536
O O8 0.557080 0.080599 0.657539
O O9 0.757450 0.000000 0.431119
O O10 0.660249 0.072253 0.837032
O O11 0.033890 0.500000 0.657789
O O12 0.221038 0.585083 0.466592
O O13 0.973809 0.636199 0.752526
O O14 0.000000 0.569455 0.000000
O O15 0.635006 0.000000 0.166925
O O16 0.633204 0.500000 0.570599
O O17 0.590591 0.364462 0.593660
O O18 0.500000 0.430802 0.000000
O O19 0.000000 0.733278 0.500000
O O20 0.500000 0.297445 0.000000
#
# Coordination Sequence:
#
# PCOD9148188 Si02
#       8
#     4   4   4   4   4   4   4   4
#     4   9  16  24  38  64  96 127 163 214 266 305
#     4   9  14  24  38  60  92 126 167 210 255 303
#     4   8  12  18  32  54  83 123 170 209 246 301
#     4  10  21  38  57  77 106 144 178 212 264 324
#     4   8  12  19  32  53  84 127 169 203 250 312
#     4   9  17  29  50  78  99 125 176 221 247 295
#     4  10  20  31  47  75 104 132 169 216 265 315
#     4   9  14  23  42  63  89 125 163 209 253 295
#
# _framework density 22.487337
#
# number of rings (size 3 to 8) (size 9 to 14) (size 15 to 20)
#    0.000    3.000    2.500    0.750    1.750    0.250 
#    0.000    1.250    0.000    4.500    0.000    2.625 
#    0.000    2.000    0.000    4.500    0.000    4.500 
#
# Total GULP energy -178480.800772 kJ/mol
# GULP energy per Si atom -5577.525024 kJ/mol
# Density = 2.243615 g / cm^3
# Si number density = 22.487337 Si / 1000 Ang^3
#
#
#
# Elastic Constant Matrix: (Units=GPa)
#
#
# Indices 1 2 3 4 5 6 
#
# 1 63.2113 44.2712 6.4352 0.0000 -19.5922 0.0000
# 2 44.2712 231.4229 10.4477 0.0000 -35.3938 0.0000
# 3 6.4352 10.4477 52.6938 0.0000 10.9721 0.0000
# 4 0.0000 0.0000 0.0000 16.8252 0.0000 -21.1256
# 5 -19.5922 -35.3938 10.9721 0.0000 30.6428 0.0000
# 6 0.0000 0.0000 0.0000 -21.1256 0.0000 35.4497
#
#
#
# Elastic Compliance Matrix: (Units=1/GPa)
#
#
# Indices 1 2 3 4 5 6 
#
# 1 0.021893 -0.001861 -0.005156 0.000000 0.013694 0.000000
# 2 -0.001861 0.005727 -0.002202 0.000000 0.006213 0.000000
# 3 -0.005156 -0.002202 0.022973 0.000000 -0.014066 0.000000
# 4 0.000000 0.000000 0.000000 0.236084 0.000000 0.140690
# 5 0.013694 0.006213 -0.014066 0.000000 0.053603 0.000000
# 6 0.000000 0.000000 0.000000 0.140690 0.000000 0.112051
#
#
# Mechanical properties :
#
#
# Convention : Reuss Voigt Hill
#
# Bulk Modulus (GPa) = 31.10020 52.18181 41.64100
# Shear Modulus (GPa) = 10.38451 35.66179 23.02315
#
# Velocity S-wave (km/s) = 2.15127 3.98661 3.20320
# Velocity P-wave (km/s) = 4.47557 6.66679 5.67789
#
# Compressibility (1/GPa) = 0.03215414
#
# Stress axis : x y z
#
# Youngs Moduli (GPa) = 45.67726 174.61909 43.53003
#
# Poissons Ratio (x) = 0.32494 0.22445
# Poissons Ratio (y) = 0.08500 0.09585
# Poissons Ratio (z) = 0.23552 0.38450
#
# Static dielectric constant tensor:
#      x y z
#    x 1.836190 0.000000 0.071660 
#    y 0.000000 1.845780 0.000000 
#    z 0.071660 0.000000 1.935710 
# 
# From -- ./inp_files/30290.got.cif
#   From: 2010.05.17/outbox.cif.g08.bks.cpg/sg10_16_cif.got.tgz:30290.got - 2010.06.03 11:33:40.
