data_PCOD9148494
_publ_section_title
;
Structure prediction by ZEFSAII (Michael W. Deem and Ramdas Pophale) SiO2 
 PCOD9148494
Probable space group: P 2/M
;
_chemical_formula_sum "Si O2"
_cell_formula_units_Z 32
_cell_length_a 19.743831
_cell_length_b 7.477482
_cell_length_c 11.421259
_cell_angle_alpha 90.000000
_cell_angle_beta 64.813910
_cell_angle_gamma 90.000000
_cell_volume 1525.864457
_symmetry_space_group_name_H-M "P 2/M"
_symmetry_group_IT_number 10
_symmetry_cell_setting 'monoclinic'
loop_
_space_group_symop_operation_xyz
x,y,z
-x,y,-z
-x,-y,-z
x,-y,z
loop_
_atom_site_type_symbol
_atom_site_label
_atom_site_fract_x
_atom_site_fract_y
_atom_site_fract_z
Si Si1 0.095265 0.709551 0.193573
Si Si2 0.758312 0.718988 0.786856
Si Si3 0.913845 0.215468 0.059893
Si Si4 0.539094 0.714677 0.791104
Si Si5 0.309690 0.714483 0.410390
Si Si6 0.608489 0.285426 0.999953
Si Si7 0.169064 0.213563 0.647596
Si Si8 0.045266 0.797123 0.574649
O O1 0.084044 0.500000 0.223712
O O2 0.160136 0.777146 0.231960
O O3 0.016072 0.801028 0.276724
O O4 0.118389 0.733541 0.042486
O O5 0.758859 0.500000 0.786262
O O6 0.732500 0.778283 0.676985
O O7 0.693651 0.777740 0.925867
O O8 0.865062 0.280644 0.205520
O O9 0.915722 0.000000 0.063656
O O10 0.000000 0.279876 0.000000
O O11 0.532914 0.500000 0.779040
O O12 0.604414 0.780856 0.656645
O O13 0.454105 0.784615 0.863689
O O14 0.574576 0.741994 0.894459
O O15 0.313894 0.500000 0.397632
O O16 0.255894 0.755410 0.557909
O O17 0.612109 0.500000 0.013741
O O18 0.119175 0.287064 0.575930
O O19 0.157122 0.000000 0.655284
O O20 0.000000 0.712181 0.500000
O O21 0.063685 0.000000 0.524141
#
# Coordination Sequence:
#
# PCOD9148494 Si02
#       8
#     4   4   4   4   4   4   4   4
#     4  11  21  31  47  71  95 115 145 187 234 274
#     4   8  15  26  40  65 100 127 141 171 222 269
#     4  10  20  38  55  62  79 113 155 198 229 263
#     4   7  10  17  34  61  88 118 151 176 199 246
#     4   9  16  27  44  68  98 122 143 177 222 264
#     4   7   9  17  34  57  89 123 150 170 200 251
#     4  10  20  33  48  65  84 113 151 187 225 265
#     4  10  20  34  50  66  88 121 156 182 212 266
#
# _framework density 20.971717000000002
#
# number of rings (size 3 to 8) (size 9 to 14) (size 15 to 20)
#    0.000    3.000    1.250    3.375    0.000    1.500 
#    0.000    0.625    0.000    0.000    0.000    9.625 
#    0.000    7.000    0.000    0.000    0.000    0.000 
#
# Total GULP energy -178341.435659 kJ/mol
# GULP energy per Si atom -5573.169864 kJ/mol
# Density = 2.092398 g / cm^3
# Si number density = 20.971717 Si / 1000 Ang^3
#
#
#
# Elastic Constant Matrix: (Units=GPa)
#
#
# Indices 1 2 3 4 5 6 
#
# 1 23.9606 1.8222 19.1870 0.0000 -25.7425 0.0000
# 2 1.8222 64.3241 2.7348 0.0000 -1.6168 0.0000
# 3 19.1870 2.7348 125.4705 0.0000 -31.7111 0.0000
# 4 0.0000 0.0000 0.0000 16.1184 0.0000 -9.0816
# 5 -25.7425 -1.6168 -31.7111 0.0000 43.8273 0.0000
# 6 0.0000 0.0000 0.0000 -9.0816 0.0000 -1.2053
#
#
#
# Elastic Compliance Matrix: (Units=1/GPa)
#
#
# Indices 1 2 3 4 5 6 
#
# 1 0.113306 -0.001524 -0.000597 0.000000 0.066064 0.000000
# 2 -0.001524 0.015587 -0.000230 0.000000 -0.000486 0.000000
# 3 -0.000597 -0.000230 0.009760 0.000000 0.006703 0.000000
# 4 0.000000 0.000000 0.000000 0.011828 0.000000 -0.089119
# 5 0.066064 -0.000486 0.006703 0.000000 0.066452 0.000000
# 6 0.000000 0.000000 0.000000 -0.089119 0.000000 -0.158173
#
#
# Mechanical properties :
#
#
# Convention : Reuss Voigt Hill
#
# Bulk Modulus (GPa) = 7.46530 29.02702 18.24616
# Shear Modulus (GPa) = 46.24776 24.41548 35.33162
#
# Velocity S-wave (km/s) = 4.70110 3.41575 4.10900
# Velocity P-wave (km/s) = 5.74757 5.42472 5.58847
#
# Compressibility (1/GPa) = 0.13395314
#
# Stress axis : x y z
#
# Youngs Moduli (GPa) = 8.82564 64.15613 102.45491
#
# Poissons Ratio (x) = 0.09777 0.06115
# Poissons Ratio (y) = 0.01345 0.02352
# Poissons Ratio (z) = 0.00527 0.01473
#
# Static dielectric constant tensor:
#      x y z
#    x 1.749330 0.000000 -0.042690 
#    y 0.000000 1.808130 0.000000 
#    z -0.042690 0.000000 1.815740 
# 
# From -- ./inp_files/54810.got.cif
#   From: 2010.05.17/outbox.cif.g08.bks.cpg/sg10_28_cif.got.tgz:54810.got - 2010.06.03 11:33:40.
