data_PCOD9148409
_publ_section_title
;
Structure prediction by ZEFSAII (Michael W. Deem and Ramdas Pophale) SiO2 
 PCOD9148409
Probable space group: P 2/M
;
_chemical_formula_sum "Si O2"
_cell_formula_units_Z 28
_cell_length_a 14.300473
_cell_length_b 12.390356
_cell_length_c 7.960842
_cell_angle_alpha 90.000000
_cell_angle_beta 124.529662
_cell_angle_gamma 90.000000
_cell_volume 1162.070019
_symmetry_space_group_name_H-M "P 2/M"
_symmetry_group_IT_number 10
_symmetry_cell_setting 'monoclinic'
loop_
_space_group_symop_operation_xyz
x,y,z
-x,y,-z
-x,-y,-z
x,-y,z
loop_
_atom_site_type_symbol
_atom_site_label
_atom_site_fract_x
_atom_site_fract_y
_atom_site_fract_z
Si Si1 0.327941 0.187809 0.734935
Si Si2 0.203718 0.670737 0.817629
Si Si3 0.556673 0.872224 0.794975
Si Si4 0.072211 0.115912 0.743718
Si Si5 0.292724 0.707076 0.244378
Si Si6 0.806537 0.500000 0.722375
Si Si7 0.150506 0.879437 0.283449
Si Si8 0.040398 0.500000 0.775527
O O1 0.279483 0.307093 0.732128
O O2 0.434708 0.178055 0.719854
O O3 0.226845 0.130552 0.530447
O O4 0.373230 0.138178 0.956978
O O5 0.092574 0.598717 0.722104
O O6 0.158193 0.789113 0.813162
O O7 0.282237 0.644799 0.055594
O O8 0.612990 0.797336 0.708700
O O9 0.548391 0.000000 0.744743
O O10 0.979090 0.132080 0.792517
O O11 0.000000 0.114129 0.500000
O O12 0.128648 0.000000 0.820954
O O13 0.273995 0.605987 0.351721
O O14 0.191224 0.785299 0.203628
O O15 0.906068 0.500000 0.679843
O O16 0.889352 0.500000 0.974795
O O17 0.168474 0.000000 0.234363
#
# Coordination Sequence:
#
# PCOD9148409 Si02
#       8
#     4   4   4   4   4   2   4   2
#     4  10  20  35  57  80 116 150 178 225 282 339
#     4  10  20  37  57  81 111 146 190 230 277 329
#     4  10  20  36  58  87 111 145 193 228 275 337
#     4  10  20  32  51  78 111 150 181 212 275 348
#     4  10  22  36  57  82 108 145 190 239 274 326
#     4   9  18  38  58  78 110 150 187 226 294 333
#     4  11  21  34  53  82 114 145 180 226 283 336
#     4   9  18  34  61  84 105 143 192 241 273 329
#
# _framework density 24.094933999999999
#
# number of rings (size 3 to 8) (size 9 to 14) (size 15 to 20)
#    0.000    2.000    1.429    3.000    0.000    5.714 
#    0.000    4.643    0.000    5.143    0.000    0.000 
#    0.000    0.000    0.000    0.000    0.000    0.000 
#
# Total GULP energy -156154.242445 kJ/mol
# GULP energy per Si atom -5576.937230 kJ/mol
# Density = 2.404009 g / cm^3
# Si number density = 24.094934 Si / 1000 Ang^3
#
#
#
# Elastic Constant Matrix: (Units=GPa)
#
#
# Indices 1 2 3 4 5 6 
#
# 1 175.4782 110.5177 10.2245 0.0000 -4.0311 0.0000
# 2 110.5177 133.2493 -4.8609 0.0000 -9.7184 0.0000
# 3 10.2245 -4.8609 88.3787 0.0000 -21.3651 0.0000
# 4 0.0000 0.0000 0.0000 -3.4443 0.0000 -6.3971
# 5 -4.0311 -9.7184 -21.3651 0.0000 30.3441 0.0000
# 6 0.0000 0.0000 0.0000 -6.3971 0.0000 46.9561
#
#
#
# Elastic Compliance Matrix: (Units=1/GPa)
#
#
# Indices 1 2 3 4 5 6 
#
# 1 0.012631 -0.010872 -0.003007 0.000000 -0.003921 0.000000
# 2 -0.010872 0.017154 0.003833 0.000000 0.006748 0.000000
# 3 -0.003007 0.003833 0.014550 0.000000 0.011073 0.000000
# 4 0.000000 0.000000 0.000000 -0.231708 0.000000 -0.031567
# 5 -0.003921 0.006748 0.011073 0.000000 0.042392 0.000000
# 6 0.000000 0.000000 0.000000 -0.031567 0.000000 0.016996
#
#
# Mechanical properties :
#
#
# Convention : Reuss Voigt Hill
#
# Bulk Modulus (GPa) = 41.25023 69.87432 55.56228
# Shear Modulus (GPa) = -50.09504 33.51952 -8.28776
#
# Velocity S-wave (km/s) = -4.56463 3.73385 -1.85664
# Velocity P-wave (km/s) = 3.25946 6.90300 4.30275
#
# Compressibility (1/GPa) = 0.02424229
#
# Stress axis : x y z
#
# Youngs Moduli (GPa) = 79.16912 58.29516 68.72633
#
# Poissons Ratio (x) = 0.63379 0.20668
# Poissons Ratio (y) = 0.86073 -0.26340
# Poissons Ratio (z) = 0.23808 -0.22342
#
# Static dielectric constant tensor:
#      x y z
#    x 1.960600 0.000000 -0.052740 
#    y 0.000000 17.146080 0.000000 
#    z -0.052740 0.000000 2.005610 
# 
# From -- ./inp_files/28721.got.cif
#   From: 2010.05.17/outbox.cif.g08.bks.cpg/sg10_15_cif.got.tgz:28721.got - 2010.06.03 11:33:40.
