data_PCOD9148645
_publ_section_title
;
Structure prediction by ZEFSAII (Michael W. Deem and Ramdas Pophale) SiO2 
 PCOD9148645
Probable space group: P 2/M
;
_chemical_formula_sum "Si O2"
_cell_formula_units_Z 28
_cell_length_a 16.320448
_cell_length_b 15.143195
_cell_length_c 9.458698
_cell_angle_alpha 90.000000
_cell_angle_beta 148.286899
_cell_angle_gamma 90.000000
_cell_volume 1228.827684
_symmetry_space_group_name_H-M "P 2/M"
_symmetry_group_IT_number 10
_symmetry_cell_setting 'monoclinic'
loop_
_space_group_symop_operation_xyz
x,y,z
-x,y,-z
-x,-y,-z
x,-y,z
loop_
_atom_site_type_symbol
_atom_site_label
_atom_site_fract_x
_atom_site_fract_y
_atom_site_fract_z
Si Si1 0.345902 0.355330 0.208752
Si Si2 0.846409 0.398419 0.706969
Si Si3 0.014254 0.846071 0.682518
Si Si4 0.162219 0.894962 0.312799
Si Si5 0.012577 0.367455 0.678874
Si Si6 0.332052 0.155420 0.298488
Si Si7 0.494101 0.607343 0.827438
O O1 0.500000 0.399281 0.500000
O O2 0.337993 0.257275 0.259348
O O3 0.375590 0.353231 0.083679
O O4 0.178355 0.397800 0.985773
O O5 0.842790 0.500000 0.747741
O O6 0.674750 0.362596 0.479601
O O7 0.877215 0.397130 0.584200
O O8 0.000000 0.354082 0.000000
O O9 0.016892 0.739169 0.685373
O O10 0.000000 0.876154 0.500000
O O11 0.869454 0.871506 0.570849
O O12 0.176944 0.880187 0.990461
O O13 0.297470 0.853922 0.414671
O O14 0.177254 0.000000 0.322540
O O15 0.000000 0.866723 0.000000
O O16 0.000000 0.397737 0.500000
O O17 0.500000 0.116887 0.500000
O O18 0.503454 0.500000 0.834252
O O19 0.500000 0.632596 0.000000
#
# Coordination Sequence:
#
# PCOD9148645 Si02
#       7
#     4   4   4   4   4   4   4
#     4  10  20  34  52  76 103 135 175 216 262 310
#     4  10  21  35  51  73  99 130 172 219 260 301
#     4   9  19  35  55  81 109 138 175 216 259 311
#     4   9  18  34  57  81 107 143 178 209 256 317
#     4  10  20  33  51  75 102 132 167 211 259 306
#     4   9  19  35  53  79 109 139 177 217 260 309
#     4  10  21  36  52  72 102 139 176 216 266 321
#
# _framework density 22.785945000000002
#
# number of rings (size 3 to 8) (size 9 to 14) (size 15 to 20)
#    0.000    2.429    0.000    1.714    0.000    6.857 
#    0.000    0.714    0.000    0.857    0.000    0.000 
#    0.000    0.000    0.000    0.000    0.000    0.000 
#
# Total GULP energy -156392.451735 kJ/mol
# GULP energy per Si atom -5585.444705 kJ/mol
# Density = 2.273408 g / cm^3
# Si number density = 22.785945 Si / 1000 Ang^3
#
#
#
# Elastic Constant Matrix: (Units=GPa)
#
#
# Indices 1 2 3 4 5 6 
#
# 1 209.8719 28.7410 32.0346 0.0000 -3.6337 0.0000
# 2 28.7410 61.3497 4.8680 0.0000 -1.8973 0.0000
# 3 32.0346 4.8680 64.0811 0.0000 5.3779 0.0000
# 4 0.0000 0.0000 0.0000 -17.0942 0.0000 -7.6762
# 5 -3.6337 -1.8973 5.3779 0.0000 46.0775 0.0000
# 6 0.0000 0.0000 0.0000 -7.6762 0.0000 41.2788
#
#
#
# Elastic Compliance Matrix: (Units=1/GPa)
#
#
# Indices 1 2 3 4 5 6 
#
# 1 0.005498 -0.002348 -0.002624 0.000000 0.000643 0.000000
# 2 -0.002348 0.017433 -0.000197 0.000000 0.000556 0.000000
# 3 -0.002624 -0.000197 0.017118 0.000000 -0.002213 0.000000
# 4 0.000000 0.000000 0.000000 -0.053991 0.000000 -0.010040
# 5 0.000643 0.000556 -0.002213 0.000000 0.022034 0.000000
# 6 0.000000 0.000000 0.000000 -0.010040 0.000000 0.022358
#
#
# Mechanical properties :
#
#
# Convention : Reuss Voigt Hill
#
# Bulk Modulus (GPa) = 33.65840 51.84332 42.75086
# Shear Modulus (GPa) = 98.63484 32.02969 65.33227
#
# Velocity S-wave (km/s) = 6.58647 3.75330 5.36045
# Velocity P-wave (km/s) = 8.52324 6.44863 7.55746
#
# Compressibility (1/GPa) = 0.02971026
#
# Stress axis : x y z
#
# Youngs Moduli (GPa) = 181.88504 57.36366 58.41889
#
# Poissons Ratio (x) = 0.13467 0.15330
# Poissons Ratio (y) = 0.42699 0.01153
# Poissons Ratio (z) = 0.47729 0.01132
#
# Static dielectric constant tensor:
#      x y z
#    x 1.862850 0.000000 -0.023160 
#    y 0.000000 1.807510 0.000000 
#    z -0.023160 0.000000 1.918450 
# 
# From -- ./inp_files/30158.got.cif
#   From: 2010.05.17/outbox.cif.g08.bks.cpg/sg10_16_cif.got.tgz:30158.got - 2010.06.03 11:33:40.
