data_PCOD9148171
_publ_section_title
;
Structure prediction by ZEFSAII (Michael W. Deem and Ramdas Pophale) SiO2 
 PCOD9148171
Probable space group: P 2/M
;
_chemical_formula_sum "Si O2"
_cell_formula_units_Z 28
_cell_length_a 9.236040
_cell_length_b 15.434300
_cell_length_c 15.656774
_cell_angle_alpha 90.000000
_cell_angle_beta 53.849534
_cell_angle_gamma 90.000000
_cell_volume 1802.194866
_symmetry_space_group_name_H-M "P 2/M"
_symmetry_group_IT_number 10
_symmetry_cell_setting 'monoclinic'
loop_
_space_group_symop_operation_xyz
x,y,z
-x,y,-z
-x,-y,-z
x,-y,z
loop_
_atom_site_type_symbol
_atom_site_label
_atom_site_fract_x
_atom_site_fract_y
_atom_site_fract_z
Si Si1 0.455679 0.270461 0.873418
Si Si2 0.202515 0.729539 0.126581
Si Si3 0.039424 0.096783 0.128357
Si Si4 0.543806 0.396594 0.284451
Si Si5 0.833398 0.605191 0.499999
Si Si6 0.703862 0.096783 0.128357
Si Si7 0.887292 0.603406 0.284451
O O1 0.647258 0.276672 0.852743
O O2 0.432484 0.343792 0.810630
O O3 0.428378 0.176536 0.839310
O O4 0.306750 0.278781 1.000000
O O5 0.106998 0.823463 0.160689
O O6 0.053743 0.656207 0.189369
O O7 0.840916 0.111384 0.159084
O O8 0.047682 0.000000 0.163795
O O9 0.170571 0.095331 1.000000
O O10 0.535190 0.500000 0.270965
O O11 0.357191 0.369383 0.393832
O O12 0.709765 0.381097 0.290235
O O13 0.835273 0.500000 0.499999
O O14 0.855148 0.630618 0.393830
O O15 0.000000 0.634894 0.500000
O O16 0.624727 0.000000 0.163795
O O17 0.922880 0.500000 0.270965
#
# Coordination Sequence:
#
# PCOD9148171 Si02
#       7
#     4   4   4   4   4   4   4
#     4  10  20  31  44  66  96 127 157 190 230 276
#     4  10  20  31  44  66  96 127 157 190 230 276
#     4   8  14  26  44  64  87 117 152 189 228 270
#     4  10  20  33  49  68  91 121 157 194 230 271
#     4   9  17  31  51  71  90 113 146 191 237 275
#     4   8  14  26  44  64  87 117 152 189 228 270
#     4  10  20  33  49  68  91 121 157 194 230 271
#
# _framework density 15.536611000000001
#
# number of rings (size 3 to 8) (size 9 to 14) (size 15 to 20)
#    0.000    2.714    0.000    3.000    0.000    6.286 
#    0.000    5.714    0.000    0.000    0.000    1.000 
#    0.000    8.000    0.000    0.000    0.000    0.000 
#
# Total GULP energy -155992.615450 kJ/mol
# GULP energy per Si atom -5571.164838 kJ/mol
# Density = 1.550125 g / cm^3
# Si number density = 15.536611 Si / 1000 Ang^3
#
#
#
# Elastic Constant Matrix: (Units=GPa)
#
#
# Indices 1 2 3 4 5 6 
#
# 1 124.6465 75.5323 59.0189 0.0000 -0.3679 0.0000
# 2 75.5323 77.7741 43.7097 0.0000 -0.8584 0.0000
# 3 59.0189 43.7097 50.9764 0.0000 -1.6194 0.0000
# 4 0.0000 0.0000 0.0000 -2.8578 0.0000 -0.7216
# 5 -0.3679 -0.8584 -1.6194 0.0000 25.9634 0.0000
# 6 0.0000 0.0000 0.0000 -0.7216 0.0000 23.8923
#
#
#
# Elastic Compliance Matrix: (Units=1/GPa)
#
#
# Indices 1 2 3 4 5 6 
#
# 1 0.024484 -0.015131 -0.015408 0.000000 -0.001114 0.000000
# 2 -0.015131 0.034174 -0.011779 0.000000 0.000181 0.000000
# 3 -0.015408 -0.011779 0.047631 0.000000 0.002363 0.000000
# 4 0.000000 0.000000 0.000000 -0.347273 0.000000 -0.010488
# 5 -0.001114 0.000181 0.002363 0.000000 0.038653 0.000000
# 6 0.000000 0.000000 0.000000 -0.010488 0.000000 0.041538
#
#
# Mechanical properties :
#
#
# Convention : Reuss Voigt Hill
#
# Bulk Modulus (GPa) = 46.18257 67.76876 56.97566
# Shear Modulus (GPa) = -72.52763 14.40867 -29.05948
#
# Velocity S-wave (km/s) = -6.83982 3.04863 -4.32949
# Velocity P-wave (km/s) = 5.70858 7.49037 3.42912
#
# Compressibility (1/GPa) = 0.02165319
#
# Stress axis : x y z
#
# Youngs Moduli (GPa) = 40.84313 29.26159 20.99484
#
# Poissons Ratio (x) = 0.44276 0.32349
# Poissons Ratio (y) = 0.61800 0.24730
# Poissons Ratio (z) = 0.62931 0.34467
#
# Static dielectric constant tensor:
#      x y z
#    x 1.516590 0.000000 -0.000500 
#    y 0.000000 1.518770 0.000000 
#    z -0.000500 0.000000 1.498140 
# 
# From -- ./inp_files/25437.got.cif
#   From: 2010.05.17/outbox.cif.g08.bks.cpg/sg10_13_cif.got.tgz:25437.got - 2010.06.03 11:33:40.
