data_PCOD9148970
_publ_section_title
;
Structure prediction by ZEFSAII (Michael W. Deem and Ramdas Pophale) SiO2 
 PCOD9148970
Probable space group: P 2/M
;
_chemical_formula_sum "Si O2"
_cell_formula_units_Z 24
_cell_length_a 23.630447
_cell_length_b 13.172618
_cell_length_c 8.725953
_cell_angle_alpha 90.000000
_cell_angle_beta 149.766127
_cell_angle_gamma 90.000000
_cell_volume 1367.675152
_symmetry_space_group_name_H-M "P 2/M"
_symmetry_group_IT_number 10
_symmetry_cell_setting 'monoclinic'
loop_
_space_group_symop_operation_xyz
x,y,z
-x,y,-z
-x,-y,-z
x,-y,z
loop_
_atom_site_type_symbol
_atom_site_label
_atom_site_fract_x
_atom_site_fract_y
_atom_site_fract_z
Si Si1 0.426787 0.772381 0.192130
Si Si2 0.770950 0.308382 0.644690
Si Si3 0.373817 0.116475 0.771435
Si Si4 0.761592 0.381646 0.270584
Si Si5 0.993835 0.380575 0.304010
Si Si6 0.437668 0.611749 0.689243
O O1 0.500000 0.816182 0.500000
O O2 0.508708 0.697841 0.288463
O O3 0.381517 0.855859 0.968919
O O4 0.326151 0.697522 0.007247
O O5 0.712985 0.197787 0.500716
O O6 0.761921 0.356968 0.453548
O O7 0.692370 0.370807 0.577463
O O8 0.897802 0.314526 0.998812
O O9 0.342152 0.000000 0.670930
O O10 0.500000 0.131589 0.000000
O O11 0.730978 0.500000 0.176407
O O12 0.885077 0.365673 0.490268
O O13 0.963898 0.500000 0.212422
O O14 0.000000 0.361085 0.500000
O O15 0.456703 0.500000 0.667744
O O16 0.500000 0.616356 0.000000
#
# Coordination Sequence:
#
# PCOD9148970 Si02
#       6
#     4   4   4   4   4   4
#     4  11  22  34  52  81 115 144 177 219 277 327
#     4  11  19  35  56  77 103 143 184 224 264 316
#     4  10  20  38  60  81 104 135 184 232 277 327
#     4  10  20  34  51  76 109 148 186 215 253 314
#     4  10  22  35  51  78 112 150 182 214 259 318
#     4  11  19  31  51  80 111 144 177 215 261 322
#
# _framework density 17.548027000000001
#
# number of rings (size 3 to 8) (size 9 to 14) (size 15 to 20)
#    0.000    1.500    5.000    2.500    2.333    3.000 
#    0.000    0.000    0.000    8.500    0.000    0.000 
#    0.000    0.000    0.000    0.000    0.000    0.000 
#
# Total GULP energy -134000.882578 kJ/mol
# GULP energy per Si atom -5583.370107 kJ/mol
# Density = 1.750809 g / cm^3
# Si number density = 17.548027 Si / 1000 Ang^3
#
#
#
# Elastic Constant Matrix: (Units=GPa)
#
#
# Indices 1 2 3 4 5 6 
#
# 1 45.6599 13.4925 14.4784 0.0000 22.5065 0.0000
# 2 13.4925 72.8780 24.2527 0.0000 6.1452 0.0000
# 3 14.4784 24.2527 84.8324 0.0000 10.1335 0.0000
# 4 0.0000 0.0000 0.0000 16.8717 0.0000 9.1978
# 5 22.5065 6.1452 10.1335 0.0000 26.8405 0.0000
# 6 0.0000 0.0000 0.0000 9.1978 0.0000 11.6764
#
#
#
# Elastic Compliance Matrix: (Units=1/GPa)
#
#
# Indices 1 2 3 4 5 6 
#
# 1 0.038976 -0.003997 -0.001796 0.000000 -0.031089 0.000000
# 2 -0.003997 0.015669 -0.003947 0.000000 0.001254 0.000000
# 3 -0.001796 -0.003947 0.013546 0.000000 -0.002705 0.000000
# 4 0.000000 0.000000 0.000000 0.103882 0.000000 -0.081830
# 5 -0.031089 0.001254 -0.002705 0.000000 0.064060 0.000000
# 6 0.000000 0.000000 0.000000 -0.081830 0.000000 0.150103
#
#
# Mechanical properties :
#
#
# Convention : Reuss Voigt Hill
#
# Bulk Modulus (GPa) = 20.52902 34.20195 27.36549
# Shear Modulus (GPa) = 11.84966 21.15415 16.50190
#
# Velocity S-wave (km/s) = 2.60142 3.47580 3.06990
# Velocity P-wave (km/s) = 4.55492 5.97001 5.30982
#
# Compressibility (1/GPa) = 0.04871152
#
# Stress axis : x y z
#
# Youngs Moduli (GPa) = 25.65687 63.81860 73.82240
#
# Poissons Ratio (x) = 0.25507 0.13256
# Poissons Ratio (y) = 0.10255 0.29141
# Poissons Ratio (z) = 0.04607 0.25192
#
# Static dielectric constant tensor:
#      x y z
#    x 1.609150 0.000000 -0.004850 
#    y 0.000000 1.580340 0.000000 
#    z -0.004850 0.000000 1.616200 
# 
# From -- ./inp_files/29678.got.cif
#   From: 2010.05.17/outbox.cif.g08.bks.cpg/sg10_15_cif.got.tgz:29678.got - 2010.06.03 11:33:40.
