data_PCOD9149582
_publ_section_title
;
Structure prediction by ZEFSAII (Michael W. Deem and Ramdas Pophale) SiO2 
 PCOD9149582
Probable space group: P 2/M
;
_chemical_formula_sum "Si O2"
_cell_formula_units_Z 32
_cell_length_a 11.498008
_cell_length_b 12.807289
_cell_length_c 17.945074
_cell_angle_alpha 90.000000
_cell_angle_beta 149.139356
_cell_angle_gamma 90.000000
_cell_volume 1355.506396
_symmetry_space_group_name_H-M "P 2/M"
_symmetry_group_IT_number 10
_symmetry_cell_setting 'monoclinic'
loop_
_space_group_symop_operation_xyz
x,y,z
-x,y,-z
-x,-y,-z
x,-y,z
loop_
_atom_site_type_symbol
_atom_site_label
_atom_site_fract_x
_atom_site_fract_y
_atom_site_fract_z
Si Si1 0.929068 0.377873 0.640515
Si Si2 0.929781 0.376812 0.117333
Si Si3 0.496507 0.616331 0.778767
Si Si4 0.854626 0.880079 0.988390
Si Si5 0.971627 0.162576 0.362592
Si Si6 0.657313 0.158821 0.320307
Si Si7 0.412561 0.617859 0.344726
Si Si8 0.274266 0.120362 0.917699
O O1 0.925220 0.500000 0.613710
O O2 0.663595 0.345278 0.507114
O O3 0.077266 0.371567 0.797234
O O4 0.025923 0.288972 0.640860
O O5 0.956675 0.500000 0.112185
O O6 0.175704 0.327452 0.233566
O O7 0.701129 0.354380 0.946576
O O8 0.407992 0.500000 0.749484
O O9 0.335677 0.715612 0.685262
O O10 0.586106 0.611021 0.743685
O O11 0.598404 0.877043 0.817629
O O12 0.936911 0.000000 0.041788
O O13 0.823990 0.838932 0.057267
O O14 0.000000 0.830980 0.000000
O O15 0.778094 0.121471 0.311582
O O16 0.920002 0.125740 0.251396
O O17 0.202653 0.130019 0.529735
O O18 0.403880 0.500000 0.370955
O O19 0.334880 0.000000 0.967180
O O20 0.500000 0.167138 0.000000
#
# Coordination Sequence:
#
# PCOD9149582 Si02
#       8
#     4   4   4   4   4   4   4   4
#     4  10  20  35  52  79 122 170 217 268 325 375
#     4   9  18  30  50  77 108 154 212 273 327 374
#     4  10  20  35  53  81 119 164 221 269 315 377
#     4  10  23  46  74 103 134 166 205 260 330 399
#     4  11  24  40  62  93 131 171 224 272 311 387
#     4  11  24  41  61  93 130 174 220 269 327 376
#     4   9  16  31  51  72 108 158 212 263 316 381
#     4  10  21  43  74 103 129 166 210 258 325 394
#
# _framework density 23.607412
#
# number of rings (size 3 to 8) (size 9 to 14) (size 15 to 20)
#    0.000    2.000    2.500    0.750    1.750    5.000 
#    0.000    3.125    0.000    4.875    0.000    0.000 
#    0.000    0.000    0.000    0.000    0.000    0.000 
#
# Total GULP energy -178464.507508 kJ/mol
# GULP energy per Si atom -5577.015860 kJ/mol
# Density = 2.355368 g / cm^3
# Si number density = 23.607412 Si / 1000 Ang^3
#
#
#
# Elastic Constant Matrix: (Units=GPa)
#
#
# Indices 1 2 3 4 5 6 
#
# 1 120.2695 11.3075 55.3650 0.0000 -10.1873 0.0000
# 2 11.3075 79.0215 3.6739 0.0000 -7.9884 0.0000
# 3 55.3650 3.6739 138.7880 0.0000 -20.0671 0.0000
# 4 0.0000 0.0000 0.0000 3.4301 0.0000 -10.6696
# 5 -10.1873 -7.9884 -20.0671 0.0000 33.7667 0.0000
# 6 0.0000 0.0000 0.0000 -10.6696 0.0000 -118.5426
#
#
#
# Elastic Compliance Matrix: (Units=1/GPa)
#
#
# Indices 1 2 3 4 5 6 
#
# 1 0.010319 -0.001246 -0.004022 0.000000 0.000428 0.000000
# 2 -0.001246 0.013117 0.000595 0.000000 0.003081 0.000000
# 3 -0.004022 0.000595 0.009451 0.000000 0.004544 0.000000
# 4 0.000000 0.000000 0.000000 0.227770 0.000000 -0.020501
# 5 0.000428 0.003081 0.004544 0.000000 0.033174 0.000000
# 6 0.000000 0.000000 0.000000 -0.020501 0.000000 -0.006591
#
#
# Mechanical properties :
#
#
# Convention : Reuss Voigt Hill
#
# Bulk Modulus (GPa) = 42.47726 53.19686 47.83706
# Shear Modulus (GPa) = 16.42400 1.57968 9.00184
#
# Velocity S-wave (km/s) = 2.64050 0.81890 1.95484
# Velocity P-wave (km/s) = 5.22767 4.84531 5.04012
#
# Compressibility (1/GPa) = 0.02354201
#
# Stress axis : x y z
#
# Youngs Moduli (GPa) = 96.90411 76.23749 105.81114
#
# Poissons Ratio (x) = 0.09502 0.42554
# Poissons Ratio (y) = 0.12078 -0.06301
# Poissons Ratio (z) = 0.38972 -0.04540
#
# Static dielectric constant tensor:
#      x y z
#    x 1.922380 0.000000 0.011690 
#    y 0.000000 2.013450 0.000000 
#    z 0.011690 0.000000 1.889770 
# 
# From -- ./inp_files/77029.got.cif
#   From: 2010.05.17/outbox.cif.g08.bks.cpg/sg10_39_cif.got.tgz:77029.got - 2010.06.03 11:33:40.
