data_PCOD9149250
_publ_section_title
;
Structure prediction by ZEFSAII (Michael W. Deem and Ramdas Pophale) SiO2 
 PCOD9149250
Probable space group: P 2/M
;
_chemical_formula_sum "Si O2"
_cell_formula_units_Z 32
_cell_length_a 24.814668
_cell_length_b 9.438819
_cell_length_c 15.960823
_cell_angle_alpha 90.000000
_cell_angle_beta 151.995712
_cell_angle_gamma 90.000000
_cell_volume 1755.301897
_symmetry_space_group_name_H-M "P 2/M"
_symmetry_group_IT_number 10
_symmetry_cell_setting 'monoclinic'
loop_
_space_group_symop_operation_xyz
x,y,z
-x,y,-z
-x,-y,-z
x,-y,z
loop_
_atom_site_type_symbol
_atom_site_label
_atom_site_fract_x
_atom_site_fract_y
_atom_site_fract_z
Si Si1 0.363779 0.663073 0.313326
Si Si2 0.411101 0.667375 0.801477
Si Si3 0.144867 0.328332 0.452186
Si Si4 0.278896 0.334436 0.007288
Si Si5 0.016585 0.672322 0.618251
Si Si6 0.895665 0.670493 0.793167
Si Si7 0.697525 0.165381 0.614994
Si Si8 0.479775 0.165703 0.202303
O O1 0.500000 0.688370 0.500000
O O2 0.344572 0.500000 0.314781
O O3 0.319180 0.677381 0.158239
O O4 0.302610 0.767503 0.293350
O O5 0.407932 0.500000 0.774608
O O6 0.279731 0.710738 0.641214
O O7 0.459950 0.757589 0.792367
O O8 0.500000 0.683077 0.000000
O O9 0.141170 0.500000 0.449999
O O10 0.092526 0.289039 0.289019
O O11 0.072436 0.276633 0.432940
O O12 0.289115 0.500000 0.996061
O O13 0.361759 0.241601 0.063925
O O14 0.146516 0.292996 0.820976
O O15 0.006869 0.500000 0.603808
O O16 0.000000 0.721530 0.500000
O O17 0.880640 0.500000 0.775182
O O18 0.783676 0.747821 0.674734
O O19 0.000000 0.705068 0.000000
O O20 0.569212 0.179850 0.401962
O O21 0.727720 0.000000 0.656627
O O22 0.463066 0.000000 0.162593
#
# Coordination Sequence:
#
# PCOD9149250 Si02
#       8
#     4   4   4   4   4   4   4   4
#     4  10  20  34  54  82 113 146 185 234 284 336
#     4  10  21  36  61  90 114 145 191 242 292 348
#     4   9  18  34  54  85 120 145 182 237 290 342
#     4  10  21  36  59  86 114 150 195 240 284 343
#     4   9  19  34  56  86 117 146 183 240 294 336
#     4  10  21  36  59  84 112 152 193 238 287 341
#     4  11  23  37  55  80 116 155 190 233 288 351
#     4  11  23  38  57  83 119 155 191 236 291 350
#
# _framework density 18.230483
#
# number of rings (size 3 to 8) (size 9 to 14) (size 15 to 20)
#    0.000    2.000    2.500    0.750    3.500    2.250 
#    0.000    0.000    0.000    1.125    0.000    0.000 
#    0.000    0.000    0.000    0.000    0.000    0.000 
#
# Total GULP energy -178549.426309 kJ/mol
# GULP energy per Si atom -5579.669572 kJ/mol
# Density = 1.818899 g / cm^3
# Si number density = 18.230483 Si / 1000 Ang^3
#
#
#
# Elastic Constant Matrix: (Units=GPa)
#
#
# Indices 1 2 3 4 5 6 
#
# 1 150.4299 53.6051 66.1689 0.0000 14.7493 0.0000
# 2 53.6051 40.9940 31.3209 0.0000 7.0474 0.0000
# 3 66.1689 31.3209 107.7216 0.0000 2.6211 0.0000
# 4 0.0000 0.0000 0.0000 3.7305 0.0000 -4.1629
# 5 14.7493 7.0474 2.6211 0.0000 19.8732 0.0000
# 6 0.0000 0.0000 0.0000 -4.1629 0.0000 -4.4999
#
#
#
# Elastic Compliance Matrix: (Units=1/GPa)
#
#
# Indices 1 2 3 4 5 6 
#
# 1 0.014171 -0.014315 -0.004424 0.000000 -0.004857 0.000000
# 2 -0.014315 0.047914 -0.004999 0.000000 -0.005707 0.000000
# 3 -0.004424 -0.004999 0.013374 0.000000 0.003292 0.000000
# 4 0.000000 0.000000 0.000000 0.131897 0.000000 -0.122020
# 5 -0.004857 -0.005707 0.003292 0.000000 0.055514 0.000000
# 6 0.000000 0.000000 0.000000 -0.122020 0.000000 -0.109345
#
#
# Mechanical properties :
#
#
# Convention : Reuss Voigt Hill
#
# Bulk Modulus (GPa) = 35.73764 66.81504 51.27634
# Shear Modulus (GPa) = 23.77230 13.69079 18.73155
#
# Velocity S-wave (km/s) = 3.61499 2.74338 3.20892
# Velocity P-wave (km/s) = 6.08851 6.83846 6.47436
#
# Compressibility (1/GPa) = 0.02798170
#
# Stress axis : x y z
#
# Youngs Moduli (GPa) = 70.56582 20.87086 74.77057
#
# Poissons Ratio (x) = 0.29877 0.33081
# Poissons Ratio (y) = 1.01017 0.37378
# Poissons Ratio (z) = 0.31220 0.10434
#
# Static dielectric constant tensor:
#      x y z
#    x 1.611160 0.000000 -0.014490 
#    y 0.000000 1.598620 0.000000 
#    z -0.014490 0.000000 1.638540 
# 
# From -- ./inp_files/63875.got.cif
#   From: 2010.05.17/outbox.cif.g08.bks.cpg/sg10_32_cif.got.tgz:63875.got - 2010.06.03 11:33:40.
