data_PCOD9149004
_publ_section_title
;
Structure prediction by ZEFSAII (Michael W. Deem and Ramdas Pophale) SiO2 
 PCOD9149004
Probable space group: P 2/M
;
_chemical_formula_sum "Si O2"
_cell_formula_units_Z 28
_cell_length_a 14.238978
_cell_length_b 12.497931
_cell_length_c 9.444917
_cell_angle_alpha 90.000000
_cell_angle_beta 118.585771
_cell_angle_gamma 90.000000
_cell_volume 1475.910317
_symmetry_space_group_name_H-M "P 2/M"
_symmetry_group_IT_number 10
_symmetry_cell_setting 'monoclinic'
loop_
_space_group_symop_operation_xyz
x,y,z
-x,y,-z
-x,-y,-z
x,-y,z
loop_
_atom_site_type_symbol
_atom_site_label
_atom_site_fract_x
_atom_site_fract_y
_atom_site_fract_z
Si Si1 0.627334 0.125005 0.593236
Si Si2 0.109561 0.614831 0.995416
Si Si3 0.751867 0.258382 0.443006
Si Si4 0.270260 0.786073 0.054961
Si Si5 0.129884 0.877600 0.713628
Si Si6 0.017713 0.680929 0.356479
Si Si7 0.371320 0.375156 0.898107
O O1 0.500000 0.139535 0.500000
O O2 0.685047 0.198802 0.516751
O O3 0.662411 0.155167 0.777676
O O4 0.652118 0.000000 0.582405
O O5 0.160612 0.500000 0.060971
O O6 0.065553 0.622398 0.804376
O O7 0.184977 0.713587 0.076883
O O8 0.000000 0.623895 0.000000
O O9 0.807261 0.174202 0.373750
O O10 0.855871 0.319814 0.582791
O O11 0.678221 0.331265 0.286029
O O12 0.207667 0.865037 0.904969
O O13 0.328483 0.701342 0.992787
O O14 0.027652 0.802990 0.673374
O O15 0.103016 0.000000 0.670233
O O16 0.000000 0.637565 0.500000
O O17 0.340292 0.500000 0.894327
O O18 0.500000 0.369225 0.000000
#
# Coordination Sequence:
#
# PCOD9149004 Si02
#       7
#     4   4   4   4   4   4   4
#     4  11  23  37  54  78 108 142 179 220 266 312
#     4  10  20  34  52  74 103 138 172 207 253 314
#     4  10  20  35  55  79 109 140 173 219 266 311
#     4  10  20  36  56  77 106 140 176 218 262 313
#     4   9  18  33  54  79 105 137 175 213 259 316
#     4   9  19  32  50  78 105 131 167 212 261 312
#     4  10  21  38  59  80 103 137 181 225 268 312
#
# _framework density 18.971343000000001
#
# number of rings (size 3 to 8) (size 9 to 14) (size 15 to 20)
#    0.000    2.143    0.000    3.857    0.000    4.000 
#    0.000    1.429    0.000   15.429    0.000    0.000 
#    0.000    0.000    0.000    0.000    0.000    0.000 
#
# Total GULP energy -156141.355621 kJ/mol
# GULP energy per Si atom -5576.476986 kJ/mol
# Density = 1.892816 g / cm^3
# Si number density = 18.971343 Si / 1000 Ang^3
#
#
#
# Elastic Constant Matrix: (Units=GPa)
#
#
# Indices 1 2 3 4 5 6 
#
# 1 64.1950 23.6281 23.9019 0.0000 7.3192 0.0000
# 2 23.6281 66.9183 1.3767 0.0000 9.5573 0.0000
# 3 23.9019 1.3767 95.1564 0.0000 16.1029 0.0000
# 4 0.0000 0.0000 0.0000 -4.6984 0.0000 -7.6226
# 5 7.3192 9.5573 16.1029 0.0000 30.3903 0.0000
# 6 0.0000 0.0000 0.0000 -7.6226 0.0000 21.2415
#
#
#
# Elastic Compliance Matrix: (Units=1/GPa)
#
#
# Indices 1 2 3 4 5 6 
#
# 1 0.019965 -0.006945 -0.004911 0.000000 -0.000022 0.000000
# 2 -0.006945 0.018101 0.002376 0.000000 -0.005279 0.000000
# 3 -0.004911 0.002376 0.012780 0.000000 -0.006336 0.000000
# 4 0.000000 0.000000 0.000000 -0.134520 0.000000 -0.048273
# 5 -0.000022 -0.005279 -0.006336 0.000000 0.037928 0.000000
# 6 0.000000 0.000000 0.000000 -0.048273 0.000000 0.029755
#
#
# Mechanical properties :
#
#
# Convention : Reuss Voigt Hill
#
# Bulk Modulus (GPa) = 31.36136 36.00923 33.68529
# Shear Modulus (GPa) = 367.72068 21.21089 194.46578
#
# Velocity S-wave (km/s) = 13.93737 3.34735 10.13546
# Velocity P-wave (km/s) = 16.60022 5.82767 12.44044
#
# Compressibility (1/GPa) = 0.03188637
#
# Stress axis : x y z
#
# Youngs Moduli (GPa) = 50.08841 55.24603 78.24475
#
# Poissons Ratio (x) = 0.38369 0.38423
# Poissons Ratio (y) = 0.34787 -0.18590
# Poissons Ratio (z) = 0.24596 -0.13126
#
# Static dielectric constant tensor:
#      x y z
#    x 1.660360 0.000000 0.009770 
#    y 0.000000 1.653420 0.000000 
#    z 0.009770 0.000000 1.571140 
# 
# From -- ./inp_files/28498.got.cif
#   From: 2010.05.17/outbox.cif.g08.bks.cpg/sg10_15_cif.got.tgz:28498.got - 2010.06.03 11:33:40.
