data_PCOD9149546
_publ_section_title
;
Structure prediction by ZEFSAII (Michael W. Deem and Ramdas Pophale) SiO2 
 PCOD9149546
Probable space group: P 2/M
;
_chemical_formula_sum "Si O2"
_cell_formula_units_Z 21
_cell_length_a 10.272238
_cell_length_b 12.344946
_cell_length_c 13.342998
_cell_angle_alpha 90.000000
_cell_angle_beta 33.682216
_cell_angle_gamma 90.000000
_cell_volume 938.375639
_symmetry_space_group_name_H-M "P 2/M"
_symmetry_group_IT_number 10
_symmetry_cell_setting 'monoclinic'
loop_
_space_group_symop_operation_xyz
x,y,z
-x,y,-z
-x,-y,-z
x,-y,z
loop_
_atom_site_type_symbol
_atom_site_label
_atom_site_fract_x
_atom_site_fract_y
_atom_site_fract_z
Si Si1 0.055144 0.672046 0.139447
Si Si2 0.530962 0.776984 0.230882
Si Si3 0.284971 0.881518 0.215028
Si Si4 0.249553 0.123840 0.717069
Si Si5 0.000000 0.500000 0.000000
Si Si6 0.052236 0.675600 0.577247
O O1 0.918375 0.786999 0.224531
O O2 0.965472 0.594280 0.109203
O O3 0.027823 0.623037 0.267574
O O4 0.320389 0.702150 0.939457
O O5 0.400191 0.867844 0.250116
O O6 0.696173 0.832846 0.206257
O O7 0.327570 0.702858 0.408301
O O8 0.097079 0.787080 0.327128
O O9 0.179233 0.000000 0.268221
O O10 0.500000 0.868822 0.000000
O O11 0.500000 0.124397 0.500000
O O12 0.159899 0.000000 0.773507
O O13 0.000000 0.627172 0.500000
#
# Coordination Sequence:
#
# PCOD9149546 Si02
#       6
#     4   4   4   4   1   4
#     4  12  24  46  67 100 134 172 235 283 345 403
#     4  11  21  39  63  93 137 179 221 271 328 401
#     4  10  20  34  59  96 136 184 220 259 322 398
#     4  11  23  39  64 100 142 181 219 275 345 417
#     4  12  28  48  78  98 126 176 238 302 350 396
#     4  10  23  40  65  94 138 178 218 273 324 410
#
# _framework density 22.379097000000002
#
# number of rings (size 3 to 8) (size 9 to 14) (size 15 to 20)
#    0.000    1.143    5.714    0.571    0.000    7.238 
#    0.000    4.762    0.000    8.000    0.000    0.000 
#    0.000    0.000    0.000    0.000    0.000    0.000 
#
# Total GULP energy -117105.673947 kJ/mol
# GULP energy per Si atom -5576.460664 kJ/mol
# Density = 2.232816 g / cm^3
# Si number density = 22.379097 Si / 1000 Ang^3
#
#
#
# Elastic Constant Matrix: (Units=GPa)
#
#
# Indices 1 2 3 4 5 6 
#
# 1 108.4689 25.6813 23.3170 0.0000 38.9921 0.0000
# 2 25.6813 116.5410 33.9340 0.0000 6.2289 0.0000
# 3 23.3170 33.9340 127.7796 0.0000 22.6963 0.0000
# 4 0.0000 0.0000 0.0000 -23.1263 0.0000 12.9996
# 5 38.9921 6.2289 22.6963 0.0000 53.4310 0.0000
# 6 0.0000 0.0000 0.0000 12.9996 0.0000 -4.5752
#
#
#
# Elastic Compliance Matrix: (Units=1/GPa)
#
#
# Indices 1 2 3 4 5 6 
#
# 1 0.013133 -0.002363 -0.000125 0.000000 -0.009255 0.000000
# 2 -0.002363 0.009725 -0.002441 0.000000 0.001627 0.000000
# 3 -0.000125 -0.002441 0.009118 0.000000 -0.003497 0.000000
# 4 0.000000 0.000000 0.000000 0.072412 0.000000 0.205747
# 5 -0.009255 0.001627 -0.003497 0.000000 0.026766 0.000000
# 6 0.000000 0.000000 0.000000 0.205747 0.000000 0.366025
#
#
# Mechanical properties :
#
#
# Convention : Reuss Voigt Hill
#
# Bulk Modulus (GPa) = 45.21014 57.62824 51.41919
# Shear Modulus (GPa) = 9.71991 23.13638 16.42814
#
# Velocity S-wave (km/s) = 2.08632 3.21882 2.71234
# Velocity P-wave (km/s) = 5.10387 6.29454 5.73021
#
# Compressibility (1/GPa) = 0.02211893
#
# Stress axis : x y z
#
# Youngs Moduli (GPa) = 76.14669 102.82783 109.67171
#
# Poissons Ratio (x) = 0.24297 0.01371
# Poissons Ratio (y) = 0.17992 0.26765
# Poissons Ratio (z) = 0.00952 0.25095
#
# Static dielectric constant tensor:
#      x y z
#    x 1.847740 0.000000 0.043250 
#    y 0.000000 1.782190 0.000000 
#    z 0.043250 0.000000 1.840090 
# 
# From -- ./inp_files/64601.got.cif
#   From: 2010.05.17/outbox.cif.g08.bks.cpg/sg10_33_cif.got.tgz:64601.got - 2010.06.03 11:33:40.
