data_PCOD9149344
_publ_section_title
;
Structure prediction by ZEFSAII (Michael W. Deem and Ramdas Pophale) SiO2 
 PCOD9149344
Probable space group: P 2/M
;
_chemical_formula_sum "Si O2"
_cell_formula_units_Z 32
_cell_length_a 19.762358
_cell_length_b 7.708055
_cell_length_c 25.454022
_cell_angle_alpha 90.000000
_cell_angle_beta 158.238030
_cell_angle_gamma 90.000000
_cell_volume 1437.549695
_symmetry_space_group_name_H-M "P 2/M"
_symmetry_group_IT_number 10
_symmetry_cell_setting 'monoclinic'
loop_
_space_group_symop_operation_xyz
x,y,z
-x,y,-z
-x,-y,-z
x,-y,z
loop_
_atom_site_type_symbol
_atom_site_label
_atom_site_fract_x
_atom_site_fract_y
_atom_site_fract_z
Si Si1 0.298377 0.702902 0.363940
Si Si2 0.939005 0.291074 0.708759
Si Si3 0.648137 0.709950 0.972695
Si Si4 0.669044 0.298961 0.868002
Si Si5 0.713719 0.206561 0.441780
Si Si6 0.963181 0.197327 0.916518
Si Si7 0.012104 0.787289 0.448271
Si Si8 0.374831 0.797225 0.864820
O O1 0.500000 0.779183 0.500000
O O2 0.324943 0.500000 0.396100
O O3 0.178145 0.775395 0.325664
O O4 0.180904 0.716213 0.226193
O O5 0.948480 0.500000 0.719897
O O6 0.836093 0.246605 0.580786
O O7 0.149817 0.231493 0.863102
O O8 0.639235 0.500000 0.970128
O O9 0.624233 0.759248 0.894765
O O10 0.488045 0.784081 0.892935
O O11 0.726317 0.500000 0.912461
O O12 0.488840 0.282864 0.703002
O O13 0.841441 0.198103 0.970692
O O14 0.817686 0.269601 0.464142
O O15 0.694284 0.000000 0.424161
O O16 0.898439 0.000000 0.878268
O O17 0.000000 0.279269 0.000000
O O18 0.826826 0.725037 0.286890
O O19 0.000000 0.731945 0.500000
O O20 0.014062 0.000000 0.450022
O O21 0.348565 0.000000 0.859209
O O22 0.500000 0.715853 0.000000
#
# Coordination Sequence:
#
# PCOD9149344 Si02
#       8
#     4   4   4   4   4   4   4   4
#     4  10  22  42  67  93 121 163 209 242 289 358
#     4  10  21  40  60  86 123 160 201 248 295 359
#     4  10  21  38  60  85 117 155 201 251 299 354
#     4  11  23  42  64  88 120 162 206 246 296 360
#     4  11  23  38  60  91 122 157 202 253 308 358
#     4  11  25  43  64  95 129 158 197 251 304 353
#     4   9  18  34  54  78 113 154 195 244 297 354
#     4  10  20  34  55  83 114 151 198 245 297 360
#
# _framework density 22.260099
#
# number of rings (size 3 to 8) (size 9 to 14) (size 15 to 20)
#    0.000    1.750    1.250    2.625    1.750    5.500 
#    0.000    1.250    0.000    3.375    0.000    0.000 
#    0.000    0.000    0.000    0.000    0.000    0.000 
#
# Total GULP energy -178878.777252 kJ/mol
# GULP energy per Si atom -5589.961789 kJ/mol
# Density = 2.220943 g / cm^3
# Si number density = 22.260099 Si / 1000 Ang^3
#
#
#
# Elastic Constant Matrix: (Units=GPa)
#
#
# Indices 1 2 3 4 5 6 
#
# 1 63.5863 -12.6378 3.5951 0.0000 -5.6196 0.0000
# 2 -12.6378 38.1587 -9.6675 0.0000 2.4638 0.0000
# 3 3.5951 -9.6675 112.0007 0.0000 4.8636 0.0000
# 4 0.0000 0.0000 0.0000 261.9648 0.0000 8.1182
# 5 -5.6196 2.4638 4.8636 0.0000 39.1625 0.0000
# 6 0.0000 0.0000 0.0000 8.1182 0.0000 16.1568
#
#
#
# Elastic Compliance Matrix: (Units=1/GPa)
#
#
# Indices 1 2 3 4 5 6 
#
# 1 0.017007 0.005454 -0.000167 0.000000 0.002118 0.000000
# 2 0.005454 0.028695 0.002359 0.000000 -0.001316 0.000000
# 3 -0.000167 0.002359 0.009195 0.000000 -0.001314 0.000000
# 4 0.000000 0.000000 0.000000 0.003878 0.000000 -0.001948
# 5 0.002118 -0.001316 -0.001314 0.000000 0.026085 0.000000
# 6 0.000000 0.000000 0.000000 -0.001948 0.000000 0.062872
#
#
# Mechanical properties :
#
#
# Convention : Reuss Voigt Hill
#
# Bulk Modulus (GPa) = 14.24756 19.59169 16.91963
# Shear Modulus (GPa) = 32.08486 78.95389 55.51937
#
# Velocity S-wave (km/s) = 3.80065 5.96203 4.99954
# Velocity P-wave (km/s) = 5.06698 7.49765 6.39879
#
# Compressibility (1/GPa) = 0.07018744
#
# Stress axis : x y z
#
# Youngs Moduli (GPa) = 58.79866 34.84920 108.75985
#
# Poissons Ratio (x) = -0.19005 0.01818
# Poissons Ratio (y) = -0.32066 -0.25656
# Poissons Ratio (z) = 0.00983 -0.08221
#
# Static dielectric constant tensor:
#      x y z
#    x 1.799080 0.000000 -0.006270 
#    y 0.000000 1.824060 0.000000 
#    z -0.006270 0.000000 1.790660 
# 
# From -- ./inp_files/93761.got.cif
#   From: 2010.05.17/outbox.cif.g08.bks.cpg/sg10_47_cif.got.tgz:93761.got - 2010.06.03 11:33:40.
