data_PCOD9149214
_publ_section_title
;
Structure prediction by ZEFSAII (Michael W. Deem and Ramdas Pophale) SiO2 
 PCOD9149214
Probable space group: P 2/M
;
_chemical_formula_sum "Si O2"
_cell_formula_units_Z 24
_cell_length_a 10.307266
_cell_length_b 23.357754
_cell_length_c 12.117799
_cell_angle_alpha 90.000000
_cell_angle_beta 24.564033
_cell_angle_gamma 90.000000
_cell_volume 1212.798698
_symmetry_space_group_name_H-M "P 2/M"
_symmetry_group_IT_number 10
_symmetry_cell_setting 'monoclinic'
loop_
_space_group_symop_operation_xyz
x,y,z
-x,y,-z
-x,-y,-z
x,-y,z
loop_
_atom_site_type_symbol
_atom_site_label
_atom_site_fract_x
_atom_site_fract_y
_atom_site_fract_z
Si Si1 0.629903 0.937132 0.775295
Si Si2 0.444373 0.565063 0.411522
Si Si3 0.590974 0.182582 0.061083
Si Si4 0.133138 0.237793 0.777840
Si Si5 0.899921 0.634896 0.912565
Si Si6 0.349814 0.296756 0.235342
O O1 0.000000 0.927803 0.500000
O O2 0.577544 0.000000 0.763129
O O3 0.500000 0.941122 0.000000
O O4 0.478543 0.880626 0.839325
O O5 0.500000 0.564409 0.500000
O O6 0.402390 0.500000 0.404882
O O7 0.747443 0.592747 0.120640
O O8 0.126283 0.602069 0.652626
O O9 0.929481 0.206162 0.839459
O O10 0.500000 0.177048 0.000000
O O11 0.367741 0.233897 0.277056
O O12 0.500000 0.226219 0.500000
O O13 0.000000 0.220683 0.000000
O O14 0.080898 0.306920 0.807553
O O15 0.580408 0.659561 0.111774
O O16 0.000000 0.316617 0.500000
O O17 0.500000 0.288615 0.000000
#
# Coordination Sequence:
#
# PCOD9149214 Si02
#       6
#     4   4   4   4   4   4
#     4   9  17  30  51  80 111 143 184 233 275 314
#     4  11  22  36  55  78 102 131 171 216 263 321
#     4   9  20  36  57  83 113 147 188 229 274 327
#     4  11  23  37  56  83 115 147 180 226 280 331
#     4  11  21  36  57  77 106 140 172 215 270 328
#     4  10  20  34  54  80 106 136 176 221 265 315
#
# _framework density 19.788938999999999
#
# number of rings (size 3 to 8) (size 9 to 14) (size 15 to 20)
#    0.000    1.833    0.000    5.000    0.000   10.667 
#    0.000    0.000    0.000   11.000    0.000    0.000 
#    0.000    0.000    0.000    0.000    0.000    0.000 
#
# Total GULP energy -133698.575772 kJ/mol
# GULP energy per Si atom -5570.773991 kJ/mol
# Density = 1.974390 g / cm^3
# Si number density = 19.788939 Si / 1000 Ang^3
#
#
#
# Elastic Constant Matrix: (Units=GPa)
#
#
# Indices 1 2 3 4 5 6 
#
# 1 55.5331 33.7478 38.4063 0.0000 -16.5906 0.0000
# 2 33.7478 151.5026 48.3619 0.0000 -15.9669 0.0000
# 3 38.4063 48.3619 156.4405 0.0000 -14.2914 0.0000
# 4 0.0000 0.0000 0.0000 -22.3341 0.0000 -6.1300
# 5 -16.5906 -15.9669 -14.2914 0.0000 35.3969 0.0000
# 6 0.0000 0.0000 0.0000 -6.1300 0.0000 11.5885
#
#
#
# Elastic Compliance Matrix: (Units=1/GPa)
#
#
# Indices 1 2 3 4 5 6 
#
# 1 0.025780 -0.003390 -0.004482 0.000000 0.008744 0.000000
# 2 -0.003390 0.007985 -0.001508 0.000000 0.001404 0.000000
# 3 -0.004482 -0.001508 0.008000 0.000000 0.000449 0.000000
# 4 0.000000 0.000000 0.000000 -0.039098 0.000000 -0.020682
# 5 0.008744 0.001404 0.000449 0.000000 0.033164 0.000000
# 6 0.000000 0.000000 0.000000 -0.020682 0.000000 0.075352
#
#
# Mechanical properties :
#
#
# Convention : Reuss Voigt Hill
#
# Bulk Modulus (GPa) = 43.47080 67.16757 55.31919
# Shear Modulus (GPa) = 36.33426 21.12761 28.73094
#
# Velocity S-wave (km/s) = 4.28961 3.27103 3.81447
# Velocity P-wave (km/s) = 6.82270 6.94852 6.88590
#
# Compressibility (1/GPa) = 0.02300395
#
# Stress axis : x y z
#
# Youngs Moduli (GPa) = 38.79037 125.23383 125.00424
#
# Poissons Ratio (x) = 0.42457 0.56028
# Poissons Ratio (y) = 0.13151 0.18850
# Poissons Ratio (z) = 0.17386 0.18884
#
# Static dielectric constant tensor:
#      x y z
#    x 1.759240 0.000000 -0.008830 
#    y 0.000000 1.792590 0.000000 
#    z -0.008830 0.000000 1.628750 
# 
# From -- ./inp_files/65466.got.cif
#   From: 2010.05.17/outbox.cif.g08.bks.cpg/sg10_33_cif.got.tgz:65466.got - 2010.06.03 11:33:40.
