data_PCOD9149935
_publ_section_title
;
Structure prediction by ZEFSAII (Michael W. Deem and Ramdas Pophale) SiO2 
 PCOD9149935
Probable space group: P 2/M
;
_chemical_formula_sum "Si O2"
_cell_formula_units_Z 28
_cell_length_a 28.533246
_cell_length_b 9.279280
_cell_length_c 8.694699
_cell_angle_alpha 90.000000
_cell_angle_beta 40.376463
_cell_angle_gamma 90.000000
_cell_volume 1491.302184
_symmetry_space_group_name_H-M "P 2/M"
_symmetry_group_IT_number 10
_symmetry_cell_setting 'monoclinic'
loop_
_space_group_symop_operation_xyz
x,y,z
-x,y,-z
-x,-y,-z
x,-y,z
loop_
_atom_site_type_symbol
_atom_site_label
_atom_site_fract_x
_atom_site_fract_y
_atom_site_fract_z
Si Si1 0.421704 0.669031 0.129780
Si Si2 0.854919 0.667693 0.176552
Si Si3 0.421704 0.669031 0.761702
Si Si4 0.716154 0.167384 0.393952
Si Si5 0.145082 0.332307 0.451144
Si Si6 0.283846 0.167384 0.974724
Si Si7 0.000000 0.166064 0.812486
O O1 0.409906 0.500000 0.199117
O O2 0.357268 0.763008 0.358962
O O3 0.500000 0.711044 0.000000
O O4 0.422463 0.681007 0.943843
O O5 0.857563 0.500000 0.125039
O O6 0.784412 0.744961 0.287106
O O7 0.851672 0.673313 0.370820
O O8 0.927594 0.750655 0.945197
O O9 0.500000 0.711044 0.500000
O O10 0.409906 0.500000 0.751351
O O11 0.357268 0.763008 0.854699
O O12 0.715732 0.174871 0.210670
O O13 0.721642 0.000000 0.426772
O O14 0.142437 0.500000 0.412854
O O15 0.072406 0.249345 0.583167
O O16 0.215588 0.255039 0.209164
O O17 0.278358 0.000000 0.034980
O O18 1.000000 0.000000 0.761651
O O19 0.000000 0.165888 0.000000
#
# Coordination Sequence:
#
# PCOD9149935 Si02
#       7
#     4   4   4   4   4   4   4
#     4  10  21  38  61  87 113 144 183 226 274 329
#     4  10  20  35  57  84 112 144 185 231 278 330
#     4  10  21  38  61  87 113 144 183 226 274 329
#     4  11  24  39  55  79 112 149 188 230 277 328
#     4  10  20  35  57  84 112 144 185 231 278 330
#     4  11  24  39  55  79 112 149 188 230 277 328
#     4   9  17  31  54  83 114 147 182 224 276 331
#
# _framework density 18.775537
#
# number of rings (size 3 to 8) (size 9 to 14) (size 15 to 20)
#    0.000    1.857    0.000    3.857    0.000   11.429 
#    0.000    0.714    0.000    4.286    0.000    0.000 
#    0.000    0.000    0.000    0.000    0.000    0.000 
#
# Total GULP energy -156492.466830 kJ/mol
# GULP energy per Si atom -5589.016672 kJ/mol
# Density = 1.873280 g / cm^3
# Si number density = 18.775537 Si / 1000 Ang^3
#
#
#
# Elastic Constant Matrix: (Units=GPa)
#
#
# Indices 1 2 3 4 5 6 
#
# 1 86.5230 81.8472 48.1906 0.0000 -43.1304 0.0000
# 2 81.8472 188.6751 106.8654 0.0000 -44.4998 0.0000
# 3 48.1906 106.8654 136.7186 0.0000 -46.1526 0.0000
# 4 0.0000 0.0000 0.0000 112.0585 0.0000 -66.8146
# 5 -43.1304 -44.4998 -46.1526 0.0000 36.6661 0.0000
# 6 0.0000 0.0000 0.0000 -66.8146 0.0000 74.4955
#
#
#
# Elastic Compliance Matrix: (Units=1/GPa)
#
#
# Indices 1 2 3 4 5 6 
#
# 1 0.041111 -0.013510 0.011927 0.000000 0.046975 0.000000
# 2 -0.013510 0.014265 -0.010274 0.000000 -0.011511 0.000000
# 3 0.011927 -0.010274 0.020289 0.000000 0.027098 0.000000
# 4 0.000000 0.000000 0.000000 0.019182 0.000000 0.017204
# 5 0.046975 -0.011511 0.027098 0.000000 0.102669 0.000000
# 6 0.000000 0.000000 0.000000 0.017204 0.000000 0.028854
#
#
# Mechanical properties :
#
#
# Convention : Reuss Voigt Hill
#
# Bulk Modulus (GPa) = 19.24919 98.41367 58.83143
# Shear Modulus (GPa) = 18.69855 56.31160 37.50507
#
# Velocity S-wave (km/s) = 3.15921 5.48244 4.47424
# Velocity P-wave (km/s) = 4.85613 9.62319 7.62194
#
# Compressibility (1/GPa) = 0.05195024
#
# Stress axis : x y z
#
# Youngs Moduli (GPa) = 24.32429 70.10181 49.28849
#
# Poissons Ratio (x) = 0.94708 -0.58785
# Poissons Ratio (y) = 0.32862 0.50639
# Poissons Ratio (z) = -0.29011 0.72023
#
# Static dielectric constant tensor:
#      x y z
#    x 1.624520 0.000000 0.015420 
#    y 0.000000 1.635580 0.000000 
#    z 0.015420 0.000000 1.615850 
# 
# From -- ./inp_files/37120.got.cif
#   From: 2010.05.17/outbox.cif.g08.bks.cpg/sg10_19_cif.got.tgz:37120.got - 2010.06.03 11:33:40.
