data_PCOD9149640
_publ_section_title
;
Structure prediction by ZEFSAII (Michael W. Deem and Ramdas Pophale) SiO2 
 PCOD9149640
Probable space group: P 2/M
;
_chemical_formula_sum "Si O2"
_cell_formula_units_Z 32
_cell_length_a 14.687266
_cell_length_b 8.595524
_cell_length_c 20.191226
_cell_angle_alpha 90.000000
_cell_angle_beta 46.411079
_cell_angle_gamma 90.000000
_cell_volume 1846.280184
_symmetry_space_group_name_H-M "P 2/M"
_symmetry_group_IT_number 10
_symmetry_cell_setting 'monoclinic'
loop_
_space_group_symop_operation_xyz
x,y,z
-x,y,-z
-x,-y,-z
x,-y,z
loop_
_atom_site_type_symbol
_atom_site_label
_atom_site_fract_x
_atom_site_fract_y
_atom_site_fract_z
Si Si1 0.234392 0.686405 0.310814
Si Si2 0.134148 0.313346 0.639714
Si Si3 0.623296 0.812718 0.978085
Si Si4 0.469775 0.686470 0.840677
Si Si5 0.375159 0.310691 0.602223
Si Si6 0.520290 0.311509 0.312132
Si Si7 0.866899 0.186503 0.774229
Si Si8 0.237002 0.814678 0.452734
O O1 0.224913 0.500000 0.315559
O O2 0.382249 0.728804 0.227025
O O3 0.159306 0.756417 0.287255
O O4 0.195328 0.749815 0.402199
O O5 0.134852 0.500000 0.637940
O O6 0.249245 0.258646 0.628511
O O7 0.159322 0.251799 0.553100
O O8 0.999690 0.253127 0.730741
O O9 0.749932 0.759634 0.878151
O O10 0.622160 0.000000 0.976264
O O11 0.500000 0.755915 0.000000
O O12 0.608181 0.760534 0.061132
O O13 0.461579 0.500000 0.850031
O O14 0.432019 0.731985 0.784891
O O15 0.500000 0.260462 0.500000
O O16 0.374079 0.500000 0.600954
O O17 0.393424 0.264884 0.669470
O O18 0.506140 0.500000 0.320336
O O19 0.381130 0.241739 0.390238
O O20 0.870522 0.000000 0.773046
O O21 0.231367 0.000000 0.455136
#
# Coordination Sequence:
#
# PCOD9149640 Si02
#       8
#     4   4   4   4   4   4   4   4
#     4  10  20  35  54  78 107 143 182 220 260 313
#     4  11  22  37  56  78 106 144 183 220 266 319
#     4  10  20  35  55  77 105 142 177 214 264 321
#     4   9  18  30  52  82 109 133 170 225 266 306
#     4   9  16  31  58  82 104 138 179 223 265 312
#     4   9  17  33  54  81 110 139 177 221 270 313
#     4  11  23  38  54  77 109 142 177 222 270 319
#     4  11  21  33  51  78 111 146 179 217 262 314
#
# _framework density 17.332146000000002
#
# number of rings (size 3 to 8) (size 9 to 14) (size 15 to 20)
#    0.000    2.000    2.500    3.000    0.000    3.750 
#    0.000    4.375    0.000    0.750    0.000    5.250 
#    0.000    0.000    0.000    0.000    0.000    0.000 
#
# Total GULP energy -178621.553109 kJ/mol
# GULP energy per Si atom -5581.923535 kJ/mol
# Density = 1.729270 g / cm^3
# Si number density = 17.332146 Si / 1000 Ang^3
#
#
#
# Elastic Constant Matrix: (Units=GPa)
#
#
# Indices 1 2 3 4 5 6 
#
# 1 115.9649 21.0722 72.0166 0.0000 1.6008 0.0000
# 2 21.0722 36.3449 24.4348 0.0000 -1.7824 0.0000
# 3 72.0166 24.4348 119.0268 0.0000 -0.3182 0.0000
# 4 0.0000 0.0000 0.0000 -51.0767 0.0000 -119.1638
# 5 1.6008 -1.7824 -0.3182 0.0000 23.9136 0.0000
# 6 0.0000 0.0000 0.0000 -119.1638 0.0000 -166.2852
#
#
#
# Elastic Compliance Matrix: (Units=1/GPa)
#
#
# Indices 1 2 3 4 5 6 
#
# 1 0.014097 -0.002899 -0.007938 0.000000 -0.001265 0.000000
# 2 -0.002899 0.032642 -0.004940 0.000000 0.002561 0.000000
# 3 -0.007938 -0.004940 0.014219 0.000000 0.000352 0.000000
# 4 0.000000 0.000000 0.000000 0.029138 0.000000 -0.020881
# 5 -0.001265 0.002561 0.000352 0.000000 0.042098 0.000000
# 6 0.000000 0.000000 0.000000 -0.020881 0.000000 0.008950
#
#
# Mechanical properties :
#
#
# Convention : Reuss Voigt Hill
#
# Bulk Modulus (GPa) = 34.00818 56.26488 45.13653
# Shear Modulus (GPa) = 27.39744 -28.43547 -0.51901
#
# Velocity S-wave (km/s) = 3.98015 -4.05485 -0.54781
# Velocity P-wave (km/s) = 6.38641 3.25742 5.06937
#
# Compressibility (1/GPa) = 0.02940469
#
# Stress axis : x y z
#
# Youngs Moduli (GPa) = 70.93762 30.63560 70.32760
#
# Poissons Ratio (x) = 0.08881 0.55823
# Poissons Ratio (y) = 0.20563 0.34744
# Poissons Ratio (z) = 0.56307 0.15135
#
# Static dielectric constant tensor:
#      x y z
#    x 1.594560 0.000000 0.001700 
#    y 0.000000 1.584640 0.000000 
#    z 0.001700 0.000000 1.582120 
# 
# From -- ./inp_files/84721.got.cif
#   From: 2010.05.17/outbox.cif.g08.bks.cpg/sg10_43_cif.got.tgz:84721.got - 2010.06.03 11:33:40.
