data_PCOD9149189
_publ_section_title
;
Structure prediction by ZEFSAII (Michael W. Deem and Ramdas Pophale) SiO2 
 PCOD9149189
Probable space group: P 2/M
;
_chemical_formula_sum "Si O2"
_cell_formula_units_Z 28
_cell_length_a 19.709318
_cell_length_b 7.547590
_cell_length_c 14.605136
_cell_angle_alpha 90.000000
_cell_angle_beta 35.585432
_cell_angle_gamma 90.000000
_cell_volume 1264.287836
_symmetry_space_group_name_H-M "P 2/M"
_symmetry_group_IT_number 10
_symmetry_cell_setting 'monoclinic'
loop_
_space_group_symop_operation_xyz
x,y,z
-x,y,-z
-x,-y,-z
x,-y,z
loop_
_atom_site_type_symbol
_atom_site_label
_atom_site_fract_x
_atom_site_fract_y
_atom_site_fract_z
Si Si1 0.521829 0.217047 0.873018
Si Si2 0.195259 0.786330 0.925437
Si Si3 0.311491 0.206478 0.459096
Si Si4 0.616434 0.217175 0.425576
Si Si5 0.696186 0.206946 0.004230
Si Si6 0.048205 0.291696 0.731013
Si Si7 0.939057 0.285224 0.660019
O O1 0.639790 0.274178 0.691409
O O2 0.417662 0.277574 0.920482
O O3 0.519057 0.000000 0.881568
O O4 0.500000 0.280323 0.000000
O O5 0.269299 0.728190 0.756987
O O6 0.260224 0.718510 0.946354
O O7 0.198649 0.000000 0.923872
O O8 0.059770 0.737372 0.081994
O O9 0.373118 0.281969 0.481902
O O10 0.172913 0.217427 0.621159
O O11 0.343191 0.000000 0.424419
O O12 0.500000 0.272180 0.500000
O O13 0.615043 0.000000 0.428344
O O14 0.672042 0.000000 0.048048
O O15 0.806273 0.224170 0.816034
O O16 0.065654 0.500000 0.702206
O O17 0.005580 0.222190 0.678587
O O18 0.938659 0.500000 0.661711
O O19 0.000000 0.226345 0.500000
#
# Coordination Sequence:
#
# PCOD9149189 Si02
#       7
#     4   4   4   4   4   4   4
#     4   9  18  31  48  74 106 134 161 205 262 310
#     4   9  17  32  54  78 103 132 172 215 254 301
#     4  10  20  34  54  78 105 137 173 212 255 307
#     4   9  17  31  55  83 106 133 172 216 257 300
#     4   9  17  30  50  75  99 127 165 208 252 300
#     4  10  21  36  52  73 106 140 172 213 260 306
#     4   9  19  34  51  70  96 133 172 211 253 298
#
# _framework density 22.146856
#
# number of rings (size 3 to 8) (size 9 to 14) (size 15 to 20)
#    0.000    2.714    0.000    1.286    2.000    4.857 
#    0.000    4.286    0.000    4.286    0.000    0.000 
#    0.000    0.000    0.000    0.000    0.000    0.000 
#
# Total GULP energy -156299.764349 kJ/mol
# GULP energy per Si atom -5582.134441 kJ/mol
# Density = 2.209645 g / cm^3
# Si number density = 22.146856 Si / 1000 Ang^3
#
#
#
# Elastic Constant Matrix: (Units=GPa)
#
#
# Indices 1 2 3 4 5 6 
#
# 1 81.3889 1.6538 66.8144 0.0000 -3.6221 0.0000
# 2 1.6538 49.8469 -5.8258 0.0000 5.9335 0.0000
# 3 66.8144 -5.8258 137.5575 0.0000 15.2413 0.0000
# 4 0.0000 0.0000 0.0000 49.8269 0.0000 -15.3342
# 5 -3.6221 5.9335 15.2413 0.0000 33.8781 0.0000
# 6 0.0000 0.0000 0.0000 -15.3342 0.0000 6.2816
#
#
#
# Elastic Compliance Matrix: (Units=1/GPa)
#
#
# Indices 1 2 3 4 5 6 
#
# 1 0.022615 -0.003157 -0.012048 0.000000 0.008391 0.000000
# 2 -0.003157 0.021164 0.003029 0.000000 -0.005407 0.000000
# 3 -0.012048 0.003029 0.014157 0.000000 -0.008188 0.000000
# 4 0.000000 0.000000 0.000000 0.080682 0.000000 0.196956
# 5 0.008391 -0.005407 -0.008188 0.000000 0.035045 0.000000
# 6 0.000000 0.000000 0.000000 0.196956 0.000000 0.639989
#
#
# Mechanical properties :
#
#
# Convention : Reuss Voigt Hill
#
# Bulk Modulus (GPa) = 29.77673 43.78647 36.78160
# Shear Modulus (GPa) = 5.88790 31.74069 18.81430
#
# Velocity S-wave (km/s) = 1.63228 3.78986 2.91782
# Velocity P-wave (km/s) = 4.12635 6.24216 5.29109
#
# Compressibility (1/GPa) = 0.03358327
#
# Stress axis : x y z
#
# Youngs Moduli (GPa) = 44.21909 47.25051 70.63637
#
# Poissons Ratio (x) = 0.14918 0.85101
# Poissons Ratio (y) = 0.13961 -0.21395
# Poissons Ratio (z) = 0.53274 -0.14312
#
# Static dielectric constant tensor:
#      x y z
#    x 1.799500 0.000000 0.014360 
#    y 0.000000 1.825780 0.000000 
#    z 0.014360 0.000000 1.807750 
# 
# From -- ./inp_files/70207.got.cif
#   From: 2010.05.17/outbox.cif.g08.bks.cpg/sg10_36_cif.got.tgz:70207.got - 2010.06.03 11:33:40.
