data_PCOD9149559
_publ_section_title
;
Structure prediction by ZEFSAII (Michael W. Deem and Ramdas Pophale) SiO2 
 PCOD9149559
Probable space group: P 2/M
;
_chemical_formula_sum "Si O2"
_cell_formula_units_Z 32
_cell_length_a 9.366332
_cell_length_b 14.513365
_cell_length_c 17.015076
_cell_angle_alpha 90.000000
_cell_angle_beta 57.475652
_cell_angle_gamma 90.000000
_cell_volume 1950.217823
_symmetry_space_group_name_H-M "P 2/M"
_symmetry_group_IT_number 10
_symmetry_cell_setting 'monoclinic'
loop_
_space_group_symop_operation_xyz
x,y,z
-x,y,-z
-x,-y,-z
x,-y,z
loop_
_atom_site_type_symbol
_atom_site_label
_atom_site_fract_x
_atom_site_fract_y
_atom_site_fract_z
Si Si1 0.545461 0.607508 0.856163
Si Si2 0.772501 0.890704 0.408153
Si Si3 0.465272 0.109021 0.099850
Si Si4 0.963644 0.234601 0.101198
Si Si5 0.928523 0.110178 0.787185
Si Si6 0.778022 0.607616 0.932912
Si Si7 0.452967 0.109759 0.385222
Si Si8 0.429850 0.769335 0.792941
O O1 0.562031 0.500000 0.829598
O O2 0.695895 0.631256 0.872556
O O3 0.527083 0.676986 0.789676
O O4 0.373329 0.616739 0.958747
O O5 0.700800 0.857867 0.513009
O O6 0.621780 0.881321 0.389012
O O7 0.943837 0.854618 0.318171
O O8 0.796397 0.000000 0.412735
O O9 0.267216 0.125299 0.175140
O O10 0.573194 0.167458 0.128222
O O11 0.500790 0.000000 0.096378
O O12 0.500000 0.136902 0.000000
O O13 0.763907 0.250365 0.171945
O O14 0.025389 0.157887 0.144466
O O15 0.070818 0.325922 0.088682
O O16 0.000000 0.208936 0.000000
O O17 0.952600 0.000000 0.788385
O O18 0.826788 0.500000 0.917075
O O19 0.479182 0.171214 0.301113
O O20 0.434903 0.000000 0.371998
#
# Coordination Sequence:
#
# PCOD9149559 Si02
#       8
#     4   4   4   4   4   4   4   4
#     4   9  19  35  54  71  95 134 171 205 256 311
#     4   8  15  31  53  72  97 134 174 216 259 299
#     4  10  22  36  48  66 103 151 180 202 243 300
#     4  12  22  30  46  76 105 132 166 214 255 295
#     4  10  20  35  51  70 100 142 184 211 242 298
#     4   9  19  36  53  69  95 133 172 208 249 305
#     4   9  17  31  51  76 103 133 168 213 265 303
#     4  12  21  30  51  76 104 131 167 214 258 304
#
# _framework density 16.408422999999999
#
# number of rings (size 3 to 8) (size 9 to 14) (size 15 to 20)
#    0.000    2.125    2.500    3.375    1.750    1.500 
#    0.000    0.625    0.000    3.000    0.000    2.625 
#    0.000    3.000    0.000    0.000    0.000    0.000 
#
# Total GULP energy -178511.589632 kJ/mol
# GULP energy per Si atom -5578.487176 kJ/mol
# Density = 1.637108 g / cm^3
# Si number density = 16.408423 Si / 1000 Ang^3
#
#
#
# Elastic Constant Matrix: (Units=GPa)
#
#
# Indices 1 2 3 4 5 6 
#
# 1 65.9283 35.5651 24.4052 0.0000 -1.7584 0.0000
# 2 35.5651 62.0220 37.4858 0.0000 8.8454 0.0000
# 3 24.4052 37.4858 79.5783 0.0000 -3.2604 0.0000
# 4 0.0000 0.0000 0.0000 12.5778 0.0000 9.6466
# 5 -1.7584 8.8454 -3.2604 0.0000 22.2730 0.0000
# 6 0.0000 0.0000 0.0000 9.6466 0.0000 17.4154
#
#
#
# Elastic Compliance Matrix: (Units=1/GPa)
#
#
# Indices 1 2 3 4 5 6 
#
# 1 0.023088 -0.014277 -0.000048 0.000000 0.007486 0.000000
# 2 -0.014277 0.034148 -0.012383 0.000000 -0.016501 0.000000
# 3 -0.000048 -0.012383 0.018728 0.000000 0.007655 0.000000
# 4 0.000000 0.000000 0.000000 0.138227 0.000000 -0.076566
# 5 0.007486 -0.016501 0.007655 0.000000 0.053162 0.000000
# 6 0.000000 0.000000 0.000000 -0.076566 0.000000 0.099831
#
#
# Mechanical properties :
#
#
# Convention : Reuss Voigt Hill
#
# Bulk Modulus (GPa) = 44.35437 44.71567 44.53502
# Shear Modulus (GPa) = 11.67906 17.79141 14.73523
#
# Velocity S-wave (km/s) = 2.67080 3.29642 2.99996
# Velocity P-wave (km/s) = 6.04988 6.46524 6.26101
#
# Compressibility (1/GPa) = 0.02254569
#
# Stress axis : x y z
#
# Youngs Moduli (GPa) = 43.31346 29.28432 53.39641
#
# Poissons Ratio (x) = 0.41810 0.00258
# Poissons Ratio (y) = 0.61840 0.66121
# Poissons Ratio (z) = 0.00210 0.36263
#
# Static dielectric constant tensor:
#      x y z
#    x 1.557020 0.000000 -0.013060 
#    y 0.000000 1.549750 0.000000 
#    z -0.013060 0.000000 1.563720 
# 
# From -- ./inp_files/35147.got.cif
#   From: 2010.05.17/outbox.cif.g08.bks.cpg/sg10_18_cif.got.tgz:35147.got - 2010.06.03 11:33:40.
