data_PCOD9149490
_publ_section_title
;
Structure prediction by ZEFSAII (Michael W. Deem and Ramdas Pophale) SiO2 
 PCOD9149490
Probable space group: P 2/M
;
_chemical_formula_sum "Si O2"
_cell_formula_units_Z 28
_cell_length_a 27.898252
_cell_length_b 7.643080
_cell_length_c 9.610905
_cell_angle_alpha 90.000000
_cell_angle_beta 37.263067
_cell_angle_gamma 90.000000
_cell_volume 1240.812799
_symmetry_space_group_name_H-M "P 2/M"
_symmetry_group_IT_number 10
_symmetry_cell_setting 'monoclinic'
loop_
_space_group_symop_operation_xyz
x,y,z
-x,y,-z
-x,-y,-z
x,-y,z
loop_
_atom_site_type_symbol
_atom_site_label
_atom_site_fract_x
_atom_site_fract_y
_atom_site_fract_z
Si Si1 0.073052 0.212597 0.236626
Si Si2 0.753386 0.212978 0.066426
Si Si3 0.389348 0.297934 0.405581
Si Si4 0.332942 0.700630 0.238172
Si Si5 0.025042 0.214415 0.791300
Si Si6 0.470999 0.799417 0.717263
Si Si7 0.797459 0.205679 0.667611
O O1 0.000000 0.271107 0.500000
O O2 0.044894 0.265873 0.150213
O O3 0.074707 0.000000 0.240879
O O4 0.159371 0.267197 0.084164
O O5 0.687676 0.289368 0.319184
O O6 0.745562 0.000000 0.092666
O O7 0.749867 0.270710 0.913185
O O8 0.415529 0.500000 0.326914
O O9 0.367602 0.223784 0.302826
O O10 0.457443 0.205805 0.337550
O O11 0.315463 0.500000 0.311378
O O12 0.253026 0.775695 0.355892
O O13 0.398500 0.712012 0.965463
O O14 0.113151 0.276539 0.547798
O O15 0.028009 0.000000 0.782393
O O16 0.000000 0.272207 0.000000
O O17 0.500000 0.727657 0.500000
O O18 0.446106 0.000000 0.747727
O O19 0.807251 0.000000 0.671988
#
# Coordination Sequence:
#
# PCOD9149490 Si02
#       7
#     4   4   4   4   4   4   4
#     4   9  15  28  49  77 113 149 187 241 297 340
#     4  10  20  34  57  87 117 151 196 245 293 344
#     4  11  25  42  60  86 120 156 194 234 280 340
#     4  11  25  42  60  85 120 158 194 232 281 341
#     4   9  17  28  47  79 115 149 190 240 294 347
#     4  11  24  43  68  96 120 144 184 234 283 339
#     4  10  20  35  56  86 119 151 195 246 291 343
#
# _framework density 22.565854999999999
#
# number of rings (size 3 to 8) (size 9 to 14) (size 15 to 20)
#    0.000    1.857    1.429    2.571    2.000    9.143 
#    0.000    0.000    0.000    1.714    0.000    0.000 
#    0.000    0.000    0.000    0.000    0.000    0.000 
#
# Total GULP energy -156403.017715 kJ/mol
# GULP energy per Si atom -5585.822061 kJ/mol
# Density = 2.251449 g / cm^3
# Si number density = 22.565855 Si / 1000 Ang^3
#
#
#
# Elastic Constant Matrix: (Units=GPa)
#
#
# Indices 1 2 3 4 5 6 
#
# 1 129.7115 -6.8377 22.3932 0.0000 12.6853 0.0000
# 2 -6.8377 42.6502 -4.4719 0.0000 4.2720 0.0000
# 3 22.3932 -4.4719 66.4077 0.0000 6.2973 0.0000
# 4 0.0000 0.0000 0.0000 46.4149 0.0000 -18.4726
# 5 12.6853 4.2720 6.2973 0.0000 44.9519 0.0000
# 6 0.0000 0.0000 0.0000 -18.4726 0.0000 22.0609
#
#
#
# Elastic Compliance Matrix: (Units=1/GPa)
#
#
# Indices 1 2 3 4 5 6 
#
# 1 0.008428 0.001298 -0.002551 0.000000 -0.002144 0.000000
# 2 0.001298 0.024094 0.001456 0.000000 -0.002860 0.000000
# 3 -0.002551 0.001456 0.016177 0.000000 -0.001685 0.000000
# 4 0.000000 0.000000 0.000000 0.032313 0.000000 0.027057
# 5 -0.002144 -0.002860 -0.001685 0.000000 0.023359 0.000000
# 6 0.000000 0.000000 0.000000 0.027057 0.000000 0.067986
#
#
# Mechanical properties :
#
#
# Convention : Reuss Voigt Hill
#
# Bulk Modulus (GPa) = 20.36467 28.99296 24.67881
# Shear Modulus (GPa) = 26.55077 37.86457 32.20767
#
# Velocity S-wave (km/s) = 3.43387 4.10073 3.78203
# Velocity P-wave (km/s) = 4.97655 5.94116 5.48012
#
# Compressibility (1/GPa) = 0.04910466
#
# Stress axis : x y z
#
# Youngs Moduli (GPa) = 118.65194 41.50438 61.81777
#
# Poissons Ratio (x) = -0.05389 0.15771
# Poissons Ratio (y) = -0.15407 -0.09000
# Poissons Ratio (z) = 0.30271 -0.06042
#
# Static dielectric constant tensor:
#      x y z
#    x 1.925330 0.000000 0.049450 
#    y 0.000000 1.845780 0.000000 
#    z 0.049450 0.000000 1.809320 
# 
# From -- ./inp_files/37025.got.cif
#   From: 2010.05.17/outbox.cif.g08.bks.cpg/sg10_19_cif.got.tgz:37025.got - 2010.06.03 11:33:40.
