data_PCOD9149917
_publ_section_title
;
Structure prediction by ZEFSAII (Michael W. Deem and Ramdas Pophale) SiO2 
 PCOD9149917
Probable space group: P 2/M
;
_chemical_formula_sum "Si O2"
_cell_formula_units_Z 28
_cell_length_a 9.567150
_cell_length_b 8.729633
_cell_length_c 30.014718
_cell_angle_alpha 90.000000
_cell_angle_beta 142.484056
_cell_angle_gamma 90.000000
_cell_volume 1526.572442
_symmetry_space_group_name_H-M "P 2/M"
_symmetry_group_IT_number 10
_symmetry_cell_setting 'monoclinic'
loop_
_space_group_symop_operation_xyz
x,y,z
-x,y,-z
-x,-y,-z
x,-y,z
loop_
_atom_site_type_symbol
_atom_site_label
_atom_site_fract_x
_atom_site_fract_y
_atom_site_fract_z
Si Si1 0.673515 0.182751 0.504596
Si Si2 0.178943 0.682819 0.636972
Si Si3 0.416927 0.686657 0.930239
Si Si4 0.416192 0.182328 0.203984
Si Si5 0.481602 0.316556 0.627680
Si Si6 0.109719 0.685012 0.204767
Si Si7 0.266617 0.314590 0.072099
O O1 0.500000 0.228445 0.500000
O O2 0.570954 0.232628 0.431255
O O3 0.920142 0.260302 0.573384
O O4 0.702051 0.000000 0.513014
O O5 0.190720 0.500000 0.645290
O O6 0.342864 0.759200 0.715042
O O7 0.290423 0.719219 0.616886
O O8 0.421146 0.500000 0.931594
O O9 0.586441 0.735569 0.933678
O O10 0.153225 0.732428 0.855747
O O11 0.500000 0.737696 0.000000
O O12 0.222787 0.244587 0.189200
O O13 0.369156 0.247967 0.143306
O O14 0.411928 0.000000 0.202408
O O15 0.477229 0.500000 0.619111
O O16 0.724505 0.275741 0.711971
O O17 0.117891 0.500000 0.202025
O O18 0.275694 0.500000 0.076713
O O19 0.000000 0.270326 0.000000
#
# Coordination Sequence:
#
# PCOD9149917 Si02
#       7
#     4   4   4   4   4   4   4
#     4  11  24  38  53  80 117 150 181 222 274 329
#     4  10  21  39  62  84 107 140 186 231 272 324
#     4   9  17  31  55  84 109 139 184 234 276 316
#     4  11  22  36  56  83 114 145 180 223 276 333
#     4   9  19  35  56  81 106 139 185 232 275 325
#     4   9  18  35  57  81 109 140 182 231 275 325
#     4  10  20  35  57  83 112 148 188 229 274 324
#
# _framework density 18.341743999999998
#
# number of rings (size 3 to 8) (size 9 to 14) (size 15 to 20)
#    0.000    2.143    0.000    4.286    0.000    9.429 
#    0.000    2.143    0.000    1.714    0.000    0.000 
#    0.000    0.000    0.000    0.000    0.000    0.000 
#
# Total GULP energy -156385.191905 kJ/mol
# GULP energy per Si atom -5585.185425 kJ/mol
# Density = 1.830000 g / cm^3
# Si number density = 18.341744 Si / 1000 Ang^3
#
#
#
# Elastic Constant Matrix: (Units=GPa)
#
#
# Indices 1 2 3 4 5 6 
#
# 1 151.2704 43.9083 122.6287 0.0000 6.5940 0.0000
# 2 43.9083 32.5097 42.8332 0.0000 -1.6932 0.0000
# 3 122.6287 42.8332 148.7485 0.0000 0.9309 0.0000
# 4 0.0000 0.0000 0.0000 -216.6430 0.0000 59.9287
# 5 6.5940 -1.6932 0.9309 0.0000 36.8993 0.0000
# 6 0.0000 0.0000 0.0000 59.9287 0.0000 3.2779
#
#
#
# Elastic Compliance Matrix: (Units=1/GPa)
#
#
# Indices 1 2 3 4 5 6 
#
# 1 0.022074 -0.009795 -0.015352 0.000000 -0.004007 0.000000
# 2 -0.009795 0.054169 -0.007551 0.000000 0.004427 0.000000
# 3 -0.015352 -0.007551 0.021542 0.000000 0.001853 0.000000
# 4 0.000000 0.000000 0.000000 -0.000762 0.000000 0.013932
# 5 -0.004007 0.004427 0.001853 0.000000 0.027973 0.000000
# 6 0.000000 0.000000 0.000000 0.013932 0.000000 0.050364
#
#
# Mechanical properties :
#
#
# Convention : Reuss Voigt Hill
#
# Bulk Modulus (GPa) = 30.87537 83.47432 57.17484
# Shear Modulus (GPa) = 19.87669 -27.08260 -3.60296
#
# Velocity S-wave (km/s) = 3.29551 -3.84677 -1.40307
# Velocity P-wave (km/s) = 5.59915 5.08716 5.34928
#
# Compressibility (1/GPa) = 0.03238828
#
# Stress axis : x y z
#
# Youngs Moduli (GPa) = 45.30278 18.46087 46.42127
#
# Poissons Ratio (x) = 0.18082 0.71266
# Poissons Ratio (y) = 0.44373 0.35053
# Poissons Ratio (z) = 0.69549 0.13940
#
# Static dielectric constant tensor:
#      x y z
#    x 1.609450 0.000000 0.010030 
#    y 0.000000 1.610850 0.000000 
#    z 0.010030 0.000000 1.608830 
# 
# From -- ./inp_files/36936.got.cif
#   From: 2010.05.17/outbox.cif.g08.bks.cpg/sg10_19_cif.got.tgz:36936.got - 2010.06.03 11:33:40.
