data_PCOD9149533
_publ_section_title
;
Structure prediction by ZEFSAII (Michael W. Deem and Ramdas Pophale) SiO2 
 PCOD9149533
Probable space group: P 2/M
;
_chemical_formula_sum "Si O2"
_cell_formula_units_Z 32
_cell_length_a 15.583406
_cell_length_b 19.945415
_cell_length_c 15.518276
_cell_angle_alpha 90.000000
_cell_angle_beta 161.178976
_cell_angle_gamma 90.000000
_cell_volume 1556.076147
_symmetry_space_group_name_H-M "P 2/M"
_symmetry_group_IT_number 10
_symmetry_cell_setting 'monoclinic'
loop_
_space_group_symop_operation_xyz
x,y,z
-x,y,-z
-x,-y,-z
x,-y,z
loop_
_atom_site_type_symbol
_atom_site_label
_atom_site_fract_x
_atom_site_fract_y
_atom_site_fract_z
Si Si1 0.842433 0.923172 0.583280
Si Si2 0.360295 0.164527 0.052645
Si Si3 0.776146 0.904702 0.721497
Si Si4 0.119610 0.426057 0.801080
Si Si5 0.768094 0.756206 0.345627
Si Si6 0.660882 0.600244 0.235982
Si Si7 0.228361 0.743195 0.282206
Si Si8 0.998080 0.279988 0.245571
O O1 0.582646 0.880745 0.310131
O O2 0.840088 0.924822 0.684961
O O3 0.834050 0.000000 0.543678
O O4 0.103875 0.883517 0.798754
O O5 0.511516 0.196275 0.113446
O O6 0.255831 0.230009 0.006519
O O7 0.500000 0.927082 0.500000
O O8 0.770486 0.823938 0.716324
O O9 0.000000 0.926377 0.000000
O O10 0.061849 0.500000 0.781879
O O11 0.046577 0.358379 0.781057
O O12 0.946296 0.421730 0.546239
O O13 0.437152 0.417869 0.093184
O O14 0.688612 0.679973 0.247986
O O15 0.000000 0.777597 0.500000
O O16 0.882464 0.748158 0.551360
O O17 0.500000 0.573426 0.000000
O O18 0.500000 0.718243 0.500000
O O19 0.176842 0.725283 0.331693
O O20 0.000000 0.720553 0.000000
#
# Coordination Sequence:
#
# PCOD9149533 Si02
#       8
#     4   4   4   4   4   4   4   4
#     4  12  26  42  64  93 132 174 218 267 335 404
#     4  12  23  43  67  94 123 173 222 269 327 378
#     4  10  20  34  58  90 127 166 207 257 320 400
#     4  11  24  39  60  92 132 181 221 266 330 386
#     4  11  24  41  70 103 130 164 223 284 331 383
#     4  11  22  38  59  93 135 174 218 262 323 404
#     4  10  22  35  62  96 127 165 213 273 327 378
#     4  11  23  43  69  97 133 171 227 278 321 396
#
# _framework density 20.564546
#
# number of rings (size 3 to 8) (size 9 to 14) (size 15 to 20)
#    0.000    1.000    3.750    3.375    5.250    2.000 
#    0.000    0.000    0.000    3.000    0.000    0.000 
#    0.000    0.000    0.000    0.000    0.000    0.000 
#
# Total GULP energy -178608.053390 kJ/mol
# GULP energy per Si atom -5581.501668 kJ/mol
# Density = 2.051774 g / cm^3
# Si number density = 20.564546 Si / 1000 Ang^3
#
#
#
# Elastic Constant Matrix: (Units=GPa)
#
#
# Indices 1 2 3 4 5 6 
#
# 1 119.0673 29.6946 37.5187 0.0000 25.2133 0.0000
# 2 29.6946 143.9992 40.2092 0.0000 14.7137 0.0000
# 3 37.5187 40.2092 134.2298 0.0000 22.2031 0.0000
# 4 0.0000 0.0000 0.0000 -0.9491 0.0000 4.1331
# 5 25.2133 14.7137 22.2031 0.0000 30.0100 0.0000
# 6 0.0000 0.0000 0.0000 4.1331 0.0000 2.5158
#
#
#
# Elastic Compliance Matrix: (Units=1/GPa)
#
#
# Indices 1 2 3 4 5 6 
#
# 1 0.010680 -0.001042 -0.001451 0.000000 -0.007389 0.000000
# 2 -0.001042 0.007825 -0.001781 0.000000 -0.001643 0.000000
# 3 -0.001451 -0.001781 0.009164 0.000000 -0.004688 0.000000
# 4 0.000000 0.000000 0.000000 -0.129213 0.000000 0.212280
# 5 -0.007389 -0.001643 -0.004688 0.000000 0.043804 0.000000
# 6 0.000000 0.000000 0.000000 0.212280 0.000000 0.048746
#
#
# Mechanical properties :
#
#
# Convention : Reuss Voigt Hill
#
# Bulk Modulus (GPa) = 52.29744 68.01571 60.15657
# Shear Modulus (GPa) = 843.35969 25.64025 434.49997
#
# Velocity S-wave (km/s) = 20.27299 3.53486 14.55145
# Velocity P-wave (km/s) = 23.94740 7.05736 17.65339
#
# Compressibility (1/GPa) = 0.01912140
#
# Stress axis : x y z
#
# Youngs Moduli (GPa) = 93.62987 127.80273 109.11827
#
# Poissons Ratio (x) = 0.13321 0.15831
# Poissons Ratio (y) = 0.09759 0.19431
# Poissons Ratio (z) = 0.13584 0.22759
#
# Static dielectric constant tensor:
#      x y z
#    x 1.752170 0.000000 -0.007710 
#    y 0.000000 1.746970 0.000000 
#    z -0.007710 0.000000 1.797780 
# 
# From -- ./inp_files/67982.got.cif
#   From: 2010.05.17/outbox.cif.g08.bks.cpg/sg10_34_cif.got.tgz:67982.got - 2010.06.03 11:33:40.
