data_PCOD9149393
_publ_section_title
;
Structure prediction by ZEFSAII (Michael W. Deem and Ramdas Pophale) SiO2 
 PCOD9149393
Probable space group: P 2/M
;
_chemical_formula_sum "Si O2"
_cell_formula_units_Z 22
_cell_length_a 14.599628
_cell_length_b 12.073856
_cell_length_c 6.224656
_cell_angle_alpha 90.000000
_cell_angle_beta 109.793633
_cell_angle_gamma 90.000000
_cell_volume 1032.416891
_symmetry_space_group_name_H-M "P 2/M"
_symmetry_group_IT_number 10
_symmetry_cell_setting 'monoclinic'
loop_
_space_group_symop_operation_xyz
x,y,z
-x,y,-z
-x,-y,-z
x,-y,z
loop_
_atom_site_type_symbol
_atom_site_label
_atom_site_fract_x
_atom_site_fract_y
_atom_site_fract_z
Si Si1 0.221947 0.500000 0.467881
Si Si2 0.857958 0.313106 0.903270
Si Si3 0.414082 0.873608 0.286218
Si Si4 0.693913 0.262962 0.121951
Si Si5 0.784457 0.872084 0.590005
Si Si6 0.919688 0.500000 0.253903
Si Si7 0.392921 0.500000 0.818882
O O1 0.179587 0.395324 0.310657
O O2 0.178540 0.500000 0.677029
O O3 0.339779 0.500000 0.541576
O O4 0.868912 0.196520 0.784831
O O5 0.772034 0.286920 0.000148
O O6 0.926483 0.390197 0.109581
O O7 0.500000 0.823330 0.500000
O O8 0.313824 0.875191 0.342916
O O9 0.442053 0.000000 0.259694
O O10 0.390548 0.810602 0.049864
O O11 0.749586 0.196253 0.353292
O O12 0.649020 0.380676 0.145717
O O13 0.811115 0.000000 0.564834
O O14 0.000000 0.500000 0.500000
O O15 0.500000 0.500000 0.000000
#
# Coordination Sequence:
#
# PCOD9149393 Si02
#       7
#     2   4   4   4   4   2   2
#     4  11  20  42  57  85 121 154 191 238 286 343
#     4  10  20  37  62  81 122 150 187 244 286 348
#     4   9  20  34  51  75 104 145 200 255 297 338
#     4  11  21  37  53  77 113 155 196 246 288 342
#     4  10  20  34  56  80 107 151 197 237 291 345
#     4  11  22  38  66  96 117 149 185 233 299 353
#     4  12  24  33  53  79 113 160 198 230 287 340
#
# _framework density 21.309221999999998
#
# number of rings (size 3 to 8) (size 9 to 14) (size 15 to 20)
#    0.000    1.636    3.636    1.091    2.545    2.182 
#    0.000    4.091    0.000    0.545    0.000    5.091 
#    0.000    0.000    0.000    0.000    0.000    0.000 
#
# Total GULP energy -122491.986738 kJ/mol
# GULP energy per Si atom -5567.817579 kJ/mol
# Density = 2.126072 g / cm^3
# Si number density = 21.309222 Si / 1000 Ang^3
#
#
#
# Elastic Constant Matrix: (Units=GPa)
#
#
# Indices 1 2 3 4 5 6 
#
# 1 32.3542 15.2337 19.4395 0.0000 14.5037 0.0000
# 2 15.2337 167.5093 76.3406 0.0000 6.2448 0.0000
# 3 19.4395 76.3406 126.5948 0.0000 24.9171 0.0000
# 4 0.0000 0.0000 0.0000 -48.6977 0.0000 -5.6508
# 5 14.5037 6.2448 24.9171 0.0000 39.6269 0.0000
# 6 0.0000 0.0000 0.0000 -5.6508 0.0000 5.5431
#
#
#
# Elastic Compliance Matrix: (Units=1/GPa)
#
#
# Indices 1 2 3 4 5 6 
#
# 1 0.038817 -0.002022 -0.002291 0.000000 -0.012448 0.000000
# 2 -0.002022 0.008491 -0.005355 0.000000 0.002769 0.000000
# 3 -0.002291 -0.005355 0.012724 0.000000 -0.006318 0.000000
# 4 0.000000 0.000000 0.000000 -0.018363 0.000000 -0.018719
# 5 -0.012448 0.002769 -0.006318 0.000000 0.033328 0.000000
# 6 0.000000 0.000000 0.000000 -0.018719 0.000000 0.161321
#
#
# Mechanical properties :
#
#
# Convention : Reuss Voigt Hill
#
# Bulk Modulus (GPa) = 24.57283 60.94287 42.75785
# Shear Modulus (GPa) = 18.57235 13.65745 16.11490
#
# Velocity S-wave (km/s) = 2.95543 2.53438 2.75297
# Velocity P-wave (km/s) = 4.81691 6.10127 5.49673
#
# Compressibility (1/GPa) = 0.04069535
#
# Stress axis : x y z
#
# Youngs Moduli (GPa) = 25.76221 117.77402 78.59335
#
# Poissons Ratio (x) = 0.23811 0.18008
# Poissons Ratio (y) = 0.05208 0.42085
# Poissons Ratio (z) = 0.05903 0.63065
#
# Static dielectric constant tensor:
#      x y z
#    x 1.879880 0.000000 0.068910 
#    y 0.000000 1.835700 0.000000 
#    z 0.068910 0.000000 1.822620 
# 
# From -- ./inp_files/11022.got.cif
#   From: 2010.05.17/outbox.cif.g08.bks.cpg/sg10_6_cif.got.tgz:11022.got - 2010.06.03 11:33:40.
