data_PCOD9149765
_publ_section_title
;
Structure prediction by ZEFSAII (Michael W. Deem and Ramdas Pophale) SiO2 
 PCOD9149765
Probable space group: P 2/M
;
_chemical_formula_sum "Si O2"
_cell_formula_units_Z 32
_cell_length_a 12.621896
_cell_length_b 7.334377
_cell_length_c 21.227580
_cell_angle_alpha 90.000000
_cell_angle_beta 141.227001
_cell_angle_gamma 90.000000
_cell_volume 1230.627659
_symmetry_space_group_name_H-M "P 2/M"
_symmetry_group_IT_number 10
_symmetry_cell_setting 'monoclinic'
loop_
_space_group_symop_operation_xyz
x,y,z
-x,y,-z
-x,-y,-z
x,-y,z
loop_
_atom_site_type_symbol
_atom_site_label
_atom_site_fract_x
_atom_site_fract_y
_atom_site_fract_z
Si Si1 0.399374 0.723285 0.823937
Si Si2 0.236802 0.718735 0.020443
Si Si3 0.141046 0.785409 0.167268
Si Si4 0.615947 0.220984 0.496215
Si Si5 0.156463 0.292228 0.612499
Si Si6 0.290434 0.709703 0.904722
Si Si7 0.919747 0.779095 0.716865
Si Si8 0.496370 0.220963 0.694648
O O1 0.394115 0.500000 0.821501
O O2 0.231192 0.791647 0.711350
O O3 0.405134 0.779268 0.900321
O O4 0.574774 0.777894 0.869995
O O5 0.238535 0.500000 0.023896
O O6 0.249584 0.790002 0.954074
O O7 0.044830 0.765954 0.950033
O O8 0.132256 0.716264 0.236018
O O9 0.306558 0.717283 0.206064
O O10 0.171522 0.000000 0.187155
O O11 0.500000 0.279760 0.500000
O O12 0.799666 0.278454 0.604312
O O13 0.545621 0.275810 0.396801
O O14 0.613011 0.000000 0.493412
O O15 0.103731 0.500000 0.602183
O O16 0.333164 0.294542 0.655804
O O17 0.000000 0.211521 0.500000
O O18 0.334235 0.500000 0.938039
O O19 0.105411 0.712407 0.788796
O O20 0.917953 0.000000 0.718494
O O21 0.488103 0.000000 0.697038
#
# Coordination Sequence:
#
# PCOD9149765 Si02
#       8
#     4   4   4   4   4   4   4   4
#     4   9  18  35  55  73 100 140 179 212 254 309
#     4   9  17  31  54  81 105 132 170 212 254 308
#     4   9  17  31  51  77 109 137 160 201 262 315
#     4   9  15  27  49  75 102 135 172 203 246 312
#     4  10  23  41  57  74 101 139 178 216 258 301
#     4   9  17  29  50  77 104 132 167 210 256 304
#     4   9  16  27  45  73 106 136 165 199 248 312
#     4  10  20  35  56  78 103 137 176 216 255 302
#
# _framework density 26.002993
#
# number of rings (size 3 to 8) (size 9 to 14) (size 15 to 20)
#    0.000    2.750    1.250    0.375    1.750    2.250 
#    0.000    2.500    0.000    7.500    0.000    0.000 
#    0.000    0.000    0.000    0.000    0.000    0.000 
#
# Total GULP energy -178502.191861 kJ/mol
# GULP energy per Si atom -5578.193496 kJ/mol
# Density = 2.594381 g / cm^3
# Si number density = 26.002993 Si / 1000 Ang^3
#
#
#
# Elastic Constant Matrix: (Units=GPa)
#
#
# Indices 1 2 3 4 5 6 
#
# 1 108.7224 -6.3196 13.7590 0.0000 8.9600 0.0000
# 2 -6.3196 105.9067 -2.4096 0.0000 -1.7316 0.0000
# 3 13.7590 -2.4096 161.3677 0.0000 18.3337 0.0000
# 4 0.0000 0.0000 0.0000 8.3403 0.0000 14.6992
# 5 8.9600 -1.7316 18.3337 0.0000 43.6029 0.0000
# 6 0.0000 0.0000 0.0000 14.6992 0.0000 0.7696
#
#
#
# Elastic Compliance Matrix: (Units=1/GPa)
#
#
# Indices 1 2 3 4 5 6 
#
# 1 0.009442 0.000522 -0.000608 0.000000 -0.001664 0.000000
# 2 0.000522 0.009479 0.000070 0.000000 0.000240 0.000000
# 3 -0.000608 0.000070 0.006548 0.000000 -0.002626 0.000000
# 4 0.000000 0.000000 0.000000 -0.003671 0.000000 0.070114
# 5 -0.001664 0.000240 -0.002626 0.000000 0.024390 0.000000
# 6 0.000000 0.000000 0.000000 0.070114 0.000000 -0.039783
#
#
# Mechanical properties :
#
#
# Convention : Reuss Voigt Hill
#
# Bulk Modulus (GPa) = 39.31253 42.89513 41.10383
# Shear Modulus (GPa) = 335.19669 35.27370 185.23519
#
# Velocity S-wave (km/s) = 11.36604 3.68710 8.44930
# Velocity P-wave (km/s) = 13.68943 5.88713 10.53705
#
# Compressibility (1/GPa) = 0.02543718
#
# Stress axis : x y z
#
# Youngs Moduli (GPa) = 105.90760 105.49684 152.71293
#
# Poissons Ratio (x) = -0.05511 0.09289
# Poissons Ratio (y) = -0.05533 -0.01065
# Poissons Ratio (z) = 0.06442 -0.00736
#
# Static dielectric constant tensor:
#      x y z
#    x 2.071770 0.000000 -0.000100 
#    y 0.000000 2.042540 0.000000 
#    z -0.000100 0.000000 2.131150 
# 
# From -- ./inp_files/88947.got.cif
#   From: 2010.05.17/outbox.cif.g08.bks.cpg/sg10_45_cif.got.tgz:88947.got - 2010.06.03 11:33:40.
