data_PCOD9149289
_publ_section_title
;
Structure prediction by ZEFSAII (Michael W. Deem and Ramdas Pophale) SiO2 
 PCOD9149289
Probable space group: P 2/M
;
_chemical_formula_sum "Si O2"
_cell_formula_units_Z 32
_cell_length_a 30.003271
_cell_length_b 9.671665
_cell_length_c 5.423647
_cell_angle_alpha 90.000000
_cell_angle_beta 78.382129
_cell_angle_gamma 90.000000
_cell_volume 1541.598366
_symmetry_space_group_name_H-M "P 2/M"
_symmetry_group_IT_number 10
_symmetry_cell_setting 'monoclinic'
loop_
_space_group_symop_operation_xyz
x,y,z
-x,y,-z
-x,-y,-z
x,-y,z
loop_
_atom_site_type_symbol
_atom_site_label
_atom_site_fract_x
_atom_site_fract_y
_atom_site_fract_z
Si Si1 0.551750 0.166946 0.925029
Si Si2 0.322724 0.654979 0.462579
Si Si3 0.184031 0.847746 0.560110
Si Si4 0.099997 0.833693 0.336678
Si Si5 0.771554 0.652304 0.162135
Si Si6 0.276469 0.846259 0.175166
Si Si7 0.947912 0.168681 0.106857
Si Si8 0.394280 0.167198 0.638577
O O1 0.574752 0.200014 0.637292
O O2 0.549687 0.000000 0.934961
O O3 0.500000 0.219490 0.000000
O O4 0.580460 0.205306 0.135953
O O5 0.341064 0.500000 0.394260
O O6 0.270515 0.635386 0.601975
O O7 0.318228 0.759828 0.238653
O O8 0.350063 0.739286 0.638963
O O9 0.151904 0.811114 0.366068
O O10 0.186093 0.725948 0.754509
O O11 0.236259 0.863920 0.420776
O O12 0.168727 0.000000 0.673038
O O13 0.082706 0.783538 0.091106
O O14 0.094678 0.000000 0.331073
O O15 0.070417 0.785177 0.605743
O O16 0.781901 0.500000 0.048676
O O17 0.749695 0.757189 0.995336
O O18 0.290137 0.000000 0.078035
O O19 0.946776 0.000000 0.113642
O O20 0.000000 0.208824 0.000000
O O21 0.385531 0.000000 0.646159
#
# Coordination Sequence:
#
# PCOD9149289 Si02
#       8
#     4   4   4   4   4   4   4   4
#     4   9  18  34  57  85 115 145 182 232 284 330
#     4  10  22  38  53  76 110 148 187 227 276 329
#     4   9  19  33  50  75 103 139 180 225 274 321
#     4   9  17  27  44  68 100 136 175 217 265 325
#     4  10  21  36  54  75 106 146 182 224 275 328
#     4  10  20  34  55  78 105 140 182 228 275 327
#     4   9  16  26  41  65 100 140 173 209 265 331
#     4  10  20  34  57  87 113 145 189 234 277 328
#
# _framework density 20.757677000000001
#
# number of rings (size 3 to 8) (size 9 to 14) (size 15 to 20)
#    0.000    2.500    0.000    1.875    3.500    5.000 
#    0.000    0.000    0.000    2.250    0.000    0.000 
#    0.000    3.000    0.000    0.000    0.000    0.000 
#
# Total GULP energy -178333.904017 kJ/mol
# GULP energy per Si atom -5572.934501 kJ/mol
# Density = 2.071043 g / cm^3
# Si number density = 20.757677 Si / 1000 Ang^3
#
#
#
# Elastic Constant Matrix: (Units=GPa)
#
#
# Indices 1 2 3 4 5 6 
#
# 1 93.3598 19.5228 28.5394 0.0000 12.8731 0.0000
# 2 19.5228 107.6794 25.4254 0.0000 22.2031 0.0000
# 3 28.5394 25.4254 87.4665 0.0000 16.1702 0.0000
# 4 0.0000 0.0000 0.0000 -3.7362 0.0000 -15.2132
# 5 12.8731 22.2031 16.1702 0.0000 39.6382 0.0000
# 6 0.0000 0.0000 0.0000 -15.2132 0.0000 -21.5847
#
#
#
# Elastic Compliance Matrix: (Units=1/GPa)
#
#
# Indices 1 2 3 4 5 6 
#
# 1 0.012218 -0.001010 -0.003314 0.000000 -0.002050 0.000000
# 2 -0.001010 0.010961 -0.001928 0.000000 -0.005026 0.000000
# 3 -0.003314 -0.001928 0.013710 0.000000 -0.003437 0.000000
# 4 0.000000 0.000000 0.000000 0.143136 0.000000 -0.100885
# 5 -0.002050 -0.005026 -0.003437 0.000000 0.030111 0.000000
# 6 0.000000 0.000000 0.000000 -0.100885 0.000000 0.024776
#
#
# Mechanical properties :
#
#
# Convention : Reuss Voigt Hill
#
# Bulk Modulus (GPa) = 41.00671 48.38678 44.69674
# Shear Modulus (GPa) = 19.56600 17.19800 18.38200
#
# Velocity S-wave (km/s) = 3.07350 2.88151 2.97905
# Velocity P-wave (km/s) = 5.69149 5.86786 5.78034
#
# Compressibility (1/GPa) = 0.02438625
#
# Stress axis : x y z
#
# Youngs Moduli (GPa) = 81.84481 91.22960 72.93931
#
# Poissons Ratio (x) = 0.09213 0.24172
# Poissons Ratio (y) = 0.08266 0.14061
# Poissons Ratio (z) = 0.27124 0.17586
#
# Static dielectric constant tensor:
#      x y z
#    x 1.772290 0.000000 -0.049630 
#    y 0.000000 1.797620 0.000000 
#    z -0.049630 0.000000 1.818500 
# 
# From -- ./inp_files/13640.got.cif
#   From: 2010.05.17/outbox.cif.g08.bks.cpg/sg10_7_cif.got.tgz:13640.got - 2010.06.03 11:33:40.
