data_PCOD9149088
_publ_section_title
;
Structure prediction by ZEFSAII (Michael W. Deem and Ramdas Pophale) SiO2 
 PCOD9149088
Probable space group: P 2/M
;
_chemical_formula_sum "Si O2"
_cell_formula_units_Z 28
_cell_length_a 9.674253
_cell_length_b 7.979577
_cell_length_c 25.665951
_cell_angle_alpha 90.000000
_cell_angle_beta 139.215009
_cell_angle_gamma 90.000000
_cell_volume 1294.242515
_symmetry_space_group_name_H-M "P 2/M"
_symmetry_group_IT_number 10
_symmetry_cell_setting 'monoclinic'
loop_
_space_group_symop_operation_xyz
x,y,z
-x,y,-z
-x,-y,-z
x,-y,z
loop_
_atom_site_type_symbol
_atom_site_label
_atom_site_fract_x
_atom_site_fract_y
_atom_site_fract_z
Si Si1 0.332190 0.193705 0.994448
Si Si2 0.181623 0.795797 0.679820
Si Si3 0.406066 0.195526 0.254089
Si Si4 0.270496 0.196639 0.422625
Si Si5 0.127717 0.695738 0.269915
Si Si6 0.673129 0.697548 0.163835
Si Si7 0.914574 0.306198 0.920533
O O1 0.467135 0.206594 0.086023
O O2 0.282328 0.000000 0.968424
O O3 0.500000 0.259286 0.000000
O O4 0.116839 0.293432 0.940112
O O5 0.354444 0.742943 0.686567
O O6 0.267609 0.732576 0.759800
O O7 0.938363 0.736741 0.607295
O O8 0.182009 0.000000 0.681164
O O9 0.273437 0.282954 0.261470
O O10 0.277649 0.217695 0.163451
O O11 0.412692 0.000000 0.269299
O O12 0.500000 0.272697 0.500000
O O13 0.221066 0.213060 0.347153
O O14 0.281192 0.000000 0.439432
O O15 0.113511 0.500000 0.279769
O O16 0.884505 0.752437 0.192616
O O17 0.634601 0.500000 0.145078
O O18 0.854259 0.500000 0.911821
O O19 0.000000 0.236707 0.000000
#
# Coordination Sequence:
#
# PCOD9149088 Si02
#       7
#     4   4   4   4   4   4   4
#     4  11  23  36  52  75 102 136 179 226 274 321
#     4   9  19  35  56  81 107 138 176 217 263 317
#     4  11  22  36  55  79 109 144 183 226 271 322
#     4   9  18  36  62  88 113 142 178 220 266 320
#     4  10  21  36  56  82 112 146 182 222 270 323
#     4  10  20  34  53  76 102 136 178 223 270 320
#     4  11  24  39  55  77 107 144 185 229 277 326
#
# _framework density 21.634274999999999
#
# number of rings (size 3 to 8) (size 9 to 14) (size 15 to 20)
#    0.000    1.857    0.000    3.857    0.000   10.000 
#    0.000    0.714    0.000    4.286    0.000    0.000 
#    0.000    0.000    0.000    0.000    0.000    0.000 
#
# Total GULP energy -156428.110769 kJ/mol
# GULP energy per Si atom -5586.718242 kJ/mol
# Density = 2.158503 g / cm^3
# Si number density = 21.634275 Si / 1000 Ang^3
#
#
#
# Elastic Constant Matrix: (Units=GPa)
#
#
# Indices 1 2 3 4 5 6 
#
# 1 106.9892 -1.3206 19.9865 0.0000 33.3501 0.0000
# 2 -1.3206 30.2751 -3.4489 0.0000 6.7318 0.0000
# 3 19.9865 -3.4489 79.7561 0.0000 35.5471 0.0000
# 4 0.0000 0.0000 0.0000 45.4956 0.0000 -0.9898
# 5 33.3501 6.7318 35.5471 0.0000 33.1962 0.0000
# 6 0.0000 0.0000 0.0000 -0.9898 0.0000 19.1837
#
#
#
# Elastic Compliance Matrix: (Units=1/GPa)
#
#
# Indices 1 2 3 4 5 6 
#
# 1 0.016140 0.007460 0.007995 0.000000 -0.026288 0.000000
# 2 0.007460 0.041637 0.013457 0.000000 -0.030349 0.000000
# 3 0.007995 0.013457 0.030441 0.000000 -0.043358 0.000000
# 4 0.000000 0.000000 0.000000 0.022005 0.000000 0.001135
# 5 -0.026288 -0.030349 -0.043358 0.000000 0.109117 0.000000
# 6 0.000000 0.000000 0.000000 0.001135 0.000000 0.052186
#
#
# Mechanical properties :
#
#
# Convention : Reuss Voigt Hill
#
# Bulk Modulus (GPa) = 6.84732 27.49495 17.17114
# Shear Modulus (GPa) = 19.05613 33.02865 26.04239
#
# Velocity S-wave (km/s) = 2.97110 3.91152 3.47328
# Velocity P-wave (km/s) = 3.86546 5.75643 4.90297
#
# Compressibility (1/GPa) = 0.14604252
#
# Stress axis : x y z
#
# Youngs Moduli (GPa) = 61.95866 24.01707 32.85014
#
# Poissons Ratio (x) = -0.17917 -0.26263
# Poissons Ratio (y) = -0.46222 -0.44208
# Poissons Ratio (z) = -0.49534 -0.32321
#
# Static dielectric constant tensor:
#      x y z
#    x 1.841140 0.000000 0.022890 
#    y 0.000000 1.747860 0.000000 
#    z 0.022890 0.000000 1.781920 
# 
# From -- ./inp_files/36973.got.cif
#   From: 2010.05.17/outbox.cif.g08.bks.cpg/sg10_19_cif.got.tgz:36973.got - 2010.06.03 11:33:40.
