data_PCOD9149388
_publ_section_title
;
Structure prediction by ZEFSAII (Michael W. Deem and Ramdas Pophale) SiO2 
 PCOD9149388
Probable space group: P 2/M
;
_chemical_formula_sum "Si O2"
_cell_formula_units_Z 30
_cell_length_a 15.507650
_cell_length_b 21.373412
_cell_length_c 5.618154
_cell_angle_alpha 90.000000
_cell_angle_beta 114.728168
_cell_angle_gamma 90.000000
_cell_volume 1691.391179
_symmetry_space_group_name_H-M "P 2/M"
_symmetry_group_IT_number 10
_symmetry_cell_setting 'monoclinic'
loop_
_space_group_symop_operation_xyz
x,y,z
-x,y,-z
-x,-y,-z
x,-y,z
loop_
_atom_site_type_symbol
_atom_site_label
_atom_site_fract_x
_atom_site_fract_y
_atom_site_fract_z
Si Si1 0.210227 0.231689 0.898700
Si Si2 0.267121 0.129005 0.593376
Si Si3 0.058200 0.000000 0.809158
Si Si4 0.409468 0.933105 0.067802
Si Si5 0.891887 0.874373 0.956791
Si Si6 0.885093 0.571927 0.860924
Si Si7 0.604540 0.192784 0.640437
Si Si8 0.884758 0.360670 0.359881
O O1 0.221418 0.181250 0.705175
O O2 0.141647 0.194059 0.998467
O O3 0.165952 0.294685 0.747530
O O4 0.314289 0.234979 0.142059
O O5 0.317039 0.074957 0.798426
O O6 0.349836 0.166507 0.548359
O O7 0.184964 0.105938 0.327395
O O8 0.111368 0.066678 0.868895
O O9 0.000000 0.000000 0.500000
O O10 0.000000 0.000000 0.000000
O O11 0.407857 0.000000 0.196172
O O12 0.500000 0.932250 0.000000
O O13 0.409518 0.871203 0.225930
O O14 0.000000 0.868475 0.000000
O O15 0.853211 0.500000 0.801961
O O16 0.857841 0.609655 0.587284
O O17 0.858971 0.599204 0.091898
O O18 0.000000 0.571997 0.000000
O O19 0.500000 0.221897 0.500000
O O20 0.000000 0.353789 0.500000
#
# Coordination Sequence:
#
# PCOD9149388 Si02
#       8
#     4   4   2   4   4   4   4   4
#     4  10  24  36  55  83 108 147 192 236 286 342
#     4  10  22  38  53  76 104 139 178 234 293 348
#     4  10  24  42  60  76  96 143 200 243 292 340
#     4  10  20  34  56  79 100 129 175 236 302 376
#     4  10  24  39  57  73 104 146 187 244 290 345
#     4   9  18  34  55  85 121 162 197 227 269 322
#     4  10  20  39  55  73 105 141 179 234 299 351
#     4  10  21  33  57  84 122 160 194 234 272 328
#
# _framework density 17.736878000000001
#
# number of rings (size 3 to 8) (size 9 to 14) (size 15 to 20)
#    0.000    2.133    1.333    0.400   10.267    2.933 
#    9.600    0.000    0.000    0.000    0.000    0.000 
#    0.000    3.200    0.000    0.000    0.000    0.000 
#
# Total GULP energy -167155.805570 kJ/mol
# GULP energy per Si atom -5571.860186 kJ/mol
# Density = 1.769651 g / cm^3
# Si number density = 17.736878 Si / 1000 Ang^3
#
#
#
# Elastic Constant Matrix: (Units=GPa)
#
#
# Indices 1 2 3 4 5 6 
#
# 1 62.4901 21.1873 27.4804 0.0000 12.6856 0.0000
# 2 21.1873 105.6799 51.9447 0.0000 11.4828 0.0000
# 3 27.4804 51.9447 112.3590 0.0000 11.7516 0.0000
# 4 0.0000 0.0000 0.0000 -0.9524 0.0000 29.0044
# 5 12.6856 11.4828 11.7516 0.0000 27.3974 0.0000
# 6 0.0000 0.0000 0.0000 29.0044 0.0000 -11.2914
#
#
#
# Elastic Compliance Matrix: (Units=1/GPa)
#
#
# Indices 1 2 3 4 5 6 
#
# 1 0.019376 -0.001500 -0.003322 0.000000 -0.006918 0.000000
# 2 -0.001500 0.012575 -0.005201 0.000000 -0.002345 0.000000
# 3 -0.003322 -0.005201 0.012279 0.000000 -0.001549 0.000000
# 4 0.000000 0.000000 0.000000 0.013596 0.000000 0.034924
# 5 -0.006918 -0.002345 -0.001549 0.000000 0.041350 0.000000
# 6 0.000000 0.000000 0.000000 0.034924 0.000000 0.001147
#
#
# Mechanical properties :
#
#
# Convention : Reuss Voigt Hill
#
# Bulk Modulus (GPa) = 41.35057 53.52819 47.43938
# Shear Modulus (GPa) = 38.93151 15.02516 26.97833
#
# Velocity S-wave (km/s) = 4.69011 2.91368 3.90427
# Velocity P-wave (km/s) = 7.25902 6.44701 6.86503
#
# Compressibility (1/GPa) = 0.02418347
#
# Stress axis : x y z
#
# Youngs Moduli (GPa) = 51.60921 79.52526 81.43927
#
# Poissons Ratio (x) = 0.11930 0.27053
# Poissons Ratio (y) = 0.07742 0.42359
# Poissons Ratio (z) = 0.17144 0.41363
#
# Static dielectric constant tensor:
#      x y z
#    x 1.690970 0.000000 -0.045620 
#    y 0.000000 1.585830 0.000000 
#    z -0.045620 0.000000 1.665810 
# 
# From -- ./inp_files/10085.got.cif
#   From: 2010.05.17/outbox.cif.g08.bks.cpg/sg10_6_cif.got.tgz:10085.got - 2010.06.03 11:33:40.
