data_PCOD9149874
_publ_section_title
;
Structure prediction by ZEFSAII (Michael W. Deem and Ramdas Pophale) SiO2 
 PCOD9149874
Probable space group: P 2/M
;
_chemical_formula_sum "Si O2"
_cell_formula_units_Z 24
_cell_length_a 9.144160
_cell_length_b 14.858408
_cell_length_c 8.657914
_cell_angle_alpha 90.000000
_cell_angle_beta 68.872544
_cell_angle_gamma 90.000000
_cell_volume 1097.258659
_symmetry_space_group_name_H-M "P 2/M"
_symmetry_group_IT_number 10
_symmetry_cell_setting 'monoclinic'
loop_
_space_group_symop_operation_xyz
x,y,z
-x,y,-z
-x,-y,-z
x,-y,z
loop_
_atom_site_type_symbol
_atom_site_label
_atom_site_fract_x
_atom_site_fract_y
_atom_site_fract_z
Si Si1 0.866881 0.601649 0.717104
Si Si2 0.093260 0.745769 0.712387
Si Si3 0.884622 0.901210 0.692810
Si Si4 0.619508 0.159390 0.575084
Si Si5 0.468925 0.318550 0.191981
Si Si6 0.785732 0.598166 0.110934
O O1 0.878999 0.500000 0.657716
O O2 0.017902 0.664271 0.643574
O O3 0.707118 0.646449 0.719283
O O4 0.839202 0.597916 0.913590
O O5 0.240512 0.793895 0.576157
O O6 0.953003 0.820335 0.771941
O O7 0.150925 0.689858 0.838030
O O8 0.714142 0.888542 0.678972
O O9 0.000000 0.900781 0.500000
O O10 0.105124 0.000000 0.237040
O O11 0.500000 0.112109 0.500000
O O12 0.516827 0.234394 0.700743
O O13 0.598164 0.392335 0.184442
O O14 0.500000 0.295090 0.000000
O O15 0.830493 0.500000 0.162669
#
# Coordination Sequence:
#
# PCOD9149874 Si02
#       6
#     4   4   4   4   4   4
#     4  10  20  35  57  84 117 161 205 235 280 348
#     4  11  20  34  59  84 120 148 192 244 294 334
#     4   9  20  38  61  86 113 147 186 237 298 357
#     4  11  21  38  60  86 116 146 195 245 293 342
#     4  10  20  37  58  83 116 162 199 233 286 344
#     4  10  20  35  56  86 121 162 202 234 276 345
#
# _framework density 21.872693000000002
#
# number of rings (size 3 to 8) (size 9 to 14) (size 15 to 20)
#    0.000    1.833    3.333    1.500    0.000    3.667 
#    0.000    5.000    0.000    2.500    0.000    0.000 
#    0.000    0.000    0.000    0.000    0.000    0.000 
#
# Total GULP energy -133828.935762 kJ/mol
# GULP energy per Si atom -5576.205657 kJ/mol
# Density = 2.182291 g / cm^3
# Si number density = 21.872693 Si / 1000 Ang^3
#
#
#
# Elastic Constant Matrix: (Units=GPa)
#
#
# Indices 1 2 3 4 5 6 
#
# 1 118.6041 14.7667 13.7044 0.0000 7.5252 0.0000
# 2 14.7667 97.3465 15.8976 0.0000 25.6603 0.0000
# 3 13.7044 15.8976 38.6114 0.0000 10.5515 0.0000
# 4 0.0000 0.0000 0.0000 17.3961 0.0000 11.1821
# 5 7.5252 25.6603 10.5515 0.0000 32.1847 0.0000
# 6 0.0000 0.0000 0.0000 11.1821 0.0000 14.8115
#
#
#
# Elastic Compliance Matrix: (Units=1/GPa)
#
#
# Indices 1 2 3 4 5 6 
#
# 1 0.008872 -0.000751 -0.002676 0.000000 -0.000598 0.000000
# 2 -0.000751 0.013345 -0.002601 0.000000 -0.009611 0.000000
# 3 -0.002676 -0.002601 0.029857 0.000000 -0.007089 0.000000
# 4 0.000000 0.000000 0.000000 0.111682 0.000000 -0.084315
# 5 -0.000598 -0.009611 -0.007089 0.000000 0.041197 0.000000
# 6 0.000000 0.000000 0.000000 -0.084315 0.000000 0.131170
#
#
# Mechanical properties :
#
#
# Convention : Reuss Voigt Hill
#
# Bulk Modulus (GPa) = 24.98967 38.14437 31.56702
# Shear Modulus (GPa) = 13.83050 26.89133 20.36091
#
# Velocity S-wave (km/s) = 2.51732 3.51015 3.05435
# Velocity P-wave (km/s) = 4.46084 5.82283 5.18673
#
# Compressibility (1/GPa) = 0.04001653
#
# Stress axis : x y z
#
# Youngs Moduli (GPa) = 112.71267 74.93537 33.49271
#
# Poissons Ratio (x) = 0.05628 0.08964
# Poissons Ratio (y) = 0.08466 0.08713
# Poissons Ratio (z) = 0.30165 0.19494
#
# Static dielectric constant tensor:
#      x y z
#    x 1.857350 0.000000 0.037890 
#    y 0.000000 1.793020 0.000000 
#    z 0.037890 0.000000 1.824680 
# 
# From -- ./inp_files/42005.got.cif
#   From: 2010.05.17/outbox.cif.g08.bks.cpg/sg10_22_cif.got.tgz:42005.got - 2010.06.03 11:33:40.
