data_PCOD9149219
_publ_section_title
;
Structure prediction by ZEFSAII (Michael W. Deem and Ramdas Pophale) SiO2 
 PCOD9149219
Probable space group: P 2/M
;
_chemical_formula_sum "Si O2"
_cell_formula_units_Z 24
_cell_length_a 10.128652
_cell_length_b 7.428774
_cell_length_c 13.583860
_cell_angle_alpha 90.000000
_cell_angle_beta 79.527803
_cell_angle_gamma 90.000000
_cell_volume 1005.071879
_symmetry_space_group_name_H-M "P 2/M"
_symmetry_group_IT_number 10
_symmetry_cell_setting 'monoclinic'
loop_
_space_group_symop_operation_xyz
x,y,z
-x,y,-z
-x,-y,-z
x,-y,z
loop_
_atom_site_type_symbol
_atom_site_label
_atom_site_fract_x
_atom_site_fract_y
_atom_site_fract_z
Si Si1 0.047198 0.205078 0.096505
Si Si2 0.849927 0.781508 0.547991
Si Si3 0.623705 0.293790 0.423703
Si Si4 0.462994 0.217190 0.895048
Si Si5 0.257687 0.779997 0.225226
Si Si6 0.231504 0.708554 0.785993
O O1 0.912366 0.201970 0.180197
O O2 0.166956 0.282720 0.145646
O O3 0.089785 0.000000 0.066328
O O4 0.000000 0.290895 0.000000
O O5 0.747416 0.709588 0.481429
O O6 0.805023 0.723616 0.662848
O O7 0.000000 0.727294 0.500000
O O8 0.843725 0.000000 0.545893
O O9 0.500000 0.209264 0.500000
O O10 0.582915 0.500000 0.405635
O O11 0.677432 0.213480 0.314407
O O12 0.587823 0.273117 0.809483
O O13 0.321821 0.280652 0.871506
O O14 0.456897 0.000000 0.896865
O O15 0.500000 0.275979 0.000000
O O16 0.253626 0.000000 0.224014
O O17 0.203936 0.500000 0.766620
#
# Coordination Sequence:
#
# PCOD9149219 Si02
#       6
#     4   4   4   4   4   4
#     4  10  20  37  61  84 109 145 184 223 271 326
#     4  10  20  34  54  80 108 138 176 226 278 323
#     4  10  22  39  56  77 109 148 188 226 267 323
#     4  10  20  36  58  81 106 140 182 224 267 321
#     4   9  18  33  54  81 108 135 177 229 274 320
#     4  11  23  37  55  82 114 146 181 225 275 323
#
# _framework density 23.878888
#
# number of rings (size 3 to 8) (size 9 to 14) (size 15 to 20)
#    0.000    2.000    0.000    3.500    0.000    6.667 
#    0.000    1.667    0.000    0.000    0.000    0.000 
#    0.000    0.000    0.000    0.000    0.000    0.000 
#
# Total GULP energy -134248.083265 kJ/mol
# GULP energy per Si atom -5593.670136 kJ/mol
# Density = 2.382454 g / cm^3
# Si number density = 23.878888 Si / 1000 Ang^3
#
#
#
# Elastic Constant Matrix: (Units=GPa)
#
#
# Indices 1 2 3 4 5 6 
#
# 1 99.7114 -12.2583 -12.6468 0.0000 0.3702 0.0000
# 2 -12.2583 80.3058 -3.5362 0.0000 -3.8617 0.0000
# 3 -12.6468 -3.5362 70.5219 0.0000 -0.9630 0.0000
# 4 0.0000 0.0000 0.0000 -5.9630 0.0000 -2.9588
# 5 0.3702 -3.8617 -0.9630 0.0000 48.9853 0.0000
# 6 0.0000 0.0000 0.0000 -2.9588 0.0000 6.6751
#
#
#
# Elastic Compliance Matrix: (Units=1/GPa)
#
#
# Indices 1 2 3 4 5 6 
#
# 1 0.010486 0.001692 0.001967 0.000000 0.000093 0.000000
# 2 0.001692 0.012802 0.000959 0.000000 0.001015 0.000000
# 3 0.001967 0.000959 0.014585 0.000000 0.000347 0.000000
# 4 0.000000 0.000000 0.000000 -0.137466 0.000000 -0.060933
# 5 0.000093 0.001015 0.000347 0.000000 0.020500 0.000000
# 6 0.000000 0.000000 0.000000 -0.060933 0.000000 0.122801
#
#
# Mechanical properties :
#
#
# Convention : Reuss Voigt Hill
#
# Bulk Modulus (GPa) = 21.22781 21.51739 21.37260
# Shear Modulus (GPa) = 99.64912 28.53818 64.09365
#
# Velocity S-wave (km/s) = 6.46697 3.46080 5.18646
# Velocity P-wave (km/s) = 8.04185 5.00002 6.69595
#
# Compressibility (1/GPa) = 0.04710802
#
# Stress axis : x y z
#
# Youngs Moduli (GPa) = 95.36527 78.11466 68.56125
#
# Poissons Ratio (x) = -0.13215 -0.13483
# Poissons Ratio (y) = -0.16133 -0.06576
# Poissons Ratio (z) = -0.18754 -0.07492
#
# Static dielectric constant tensor:
#      x y z
#    x 1.823240 0.000000 -0.020820 
#    y 0.000000 1.919970 0.000000 
#    z -0.020820 0.000000 1.915130 
# 
# From -- ./inp_files/60221.got.cif
#   From: 2010.05.17/outbox.cif.g08.bks.cpg/sg10_31_cif.got.tgz:60221.got - 2010.06.03 11:33:40.
