data_PCOD9149322
_publ_section_title
;
Structure prediction by ZEFSAII (Michael W. Deem and Ramdas Pophale) SiO2 
 PCOD9149322
Probable space group: P 2/M
;
_chemical_formula_sum "Si O2"
_cell_formula_units_Z 24
_cell_length_a 10.771625
_cell_length_b 13.644924
_cell_length_c 15.135591
_cell_angle_alpha 90.000000
_cell_angle_beta 34.077503
_cell_angle_gamma 90.000000
_cell_volume 1246.473534
_symmetry_space_group_name_H-M "P 2/M"
_symmetry_group_IT_number 10
_symmetry_cell_setting 'monoclinic'
loop_
_space_group_symop_operation_xyz
x,y,z
-x,y,-z
-x,-y,-z
x,-y,z
loop_
_atom_site_type_symbol
_atom_site_label
_atom_site_fract_x
_atom_site_fract_y
_atom_site_fract_z
Si Si1 0.459339 0.769360 0.432292
Si Si2 0.679521 0.392011 0.688617
Si Si3 0.105144 0.611223 0.630238
Si Si4 0.746527 0.609993 0.178596
Si Si5 0.734226 0.743753 0.820376
Si Si6 0.093952 0.884471 0.544389
O O1 0.500000 0.826053 0.500000
O O2 0.292931 0.681021 0.556969
O O3 0.670941 0.709536 0.272163
O O4 0.322948 0.830792 0.438845
O O5 0.719649 0.500000 0.705897
O O6 0.840371 0.383495 0.508116
O O7 0.431793 0.391948 0.795774
O O8 0.702019 0.304000 0.742891
O O9 0.123811 0.500000 0.646330
O O10 0.868540 0.657581 0.790931
O O11 0.716165 0.500000 0.239242
O O12 0.000000 0.615922 0.000000
O O13 0.902717 0.833983 0.715795
O O14 0.500000 0.767222 0.000000
O O15 0.000000 0.870665 0.500000
O O16 0.116681 0.000000 0.545511
#
# Coordination Sequence:
#
# PCOD9149322 Si02
#       6
#     4   4   4   4   4   4
#     4  10  20  34  55  82 108 136 172 218 265 305
#     4   9  17  31  50  71 104 151 190 215 244 296
#     4   9  18  32  49  72 107 150 187 211 239 298
#     4   9  18  31  49  75 109 148 181 208 244 298
#     4  11  21  31  49  79 109 134 167 221 278 317
#     4  10  22  42  64  78  94 132 181 221 265 328
#
# _framework density 19.25432
#
# number of rings (size 3 to 8) (size 9 to 14) (size 15 to 20)
#    0.000    2.333    0.000    5.500    0.000    7.333 
#    0.000    1.667    0.000    1.000    0.000    0.000 
#    0.000    0.000    0.000    0.000    0.000    0.000 
#
# Total GULP energy -133712.154061 kJ/mol
# GULP energy per Si atom -5571.339753 kJ/mol
# Density = 1.921050 g / cm^3
# Si number density = 19.254320 Si / 1000 Ang^3
#
#
#
# Elastic Constant Matrix: (Units=GPa)
#
#
# Indices 1 2 3 4 5 6 
#
# 1 61.5539 25.2245 24.5972 0.0000 2.0544 0.0000
# 2 25.2245 105.8442 32.3430 0.0000 3.1416 0.0000
# 3 24.5972 32.3430 80.6187 0.0000 -29.7879 0.0000
# 4 0.0000 0.0000 0.0000 14.5161 0.0000 -4.8084
# 5 2.0544 3.1416 -29.7879 0.0000 22.2697 0.0000
# 6 0.0000 0.0000 0.0000 -4.8084 0.0000 12.8690
#
#
#
# Elastic Compliance Matrix: (Units=1/GPa)
#
#
# Indices 1 2 3 4 5 6 
#
# 1 0.023243 -0.000136 -0.015466 0.000000 -0.022812 0.000000
# 2 -0.000136 0.013766 -0.012247 0.000000 -0.018311 0.000000
# 3 -0.015466 -0.012247 0.045874 0.000000 0.064515 0.000000
# 4 0.000000 0.000000 0.000000 0.078620 0.000000 0.029375
# 5 -0.022812 -0.018311 0.064515 0.000000 0.135887 0.000000
# 6 0.000000 0.000000 0.000000 0.029375 0.000000 0.088682
#
#
# Mechanical properties :
#
#
# Convention : Reuss Voigt Hill
#
# Bulk Modulus (GPa) = 36.78455 45.81624 41.30040
# Shear Modulus (GPa) = 11.09061 20.98776 16.03919
#
# Velocity S-wave (km/s) = 2.40262 3.30514 2.88934
# Velocity P-wave (km/s) = 5.18100 6.19776 5.71205
#
# Compressibility (1/GPa) = 0.02718532
#
# Stress axis : x y z
#
# Youngs Moduli (GPa) = 43.02310 72.64221 21.79891
#
# Poissons Ratio (x) = 0.00990 0.33714
# Poissons Ratio (y) = 0.00586 0.26697
# Poissons Ratio (z) = 0.66539 0.88964
#
# Static dielectric constant tensor:
#      x y z
#    x 1.770070 0.000000 0.019300 
#    y 0.000000 1.671780 0.000000 
#    z 0.019300 0.000000 1.673220 
# 
# From -- ./inp_files/65017.got.cif
#   From: 2010.05.17/outbox.cif.g08.bks.cpg/sg10_33_cif.got.tgz:65017.got - 2010.06.03 11:33:40.
