data_PCOD9149249
_publ_section_title
;
Structure prediction by ZEFSAII (Michael W. Deem and Ramdas Pophale) SiO2 
 PCOD9149249
Probable space group: P 2/M
;
_chemical_formula_sum "Si O2"
_cell_formula_units_Z 32
_cell_length_a 25.727256
_cell_length_b 8.913874
_cell_length_c 21.053761
_cell_angle_alpha 90.000000
_cell_angle_beta 22.391569
_cell_angle_gamma 90.000000
_cell_volume 1839.245731
_symmetry_space_group_name_H-M "P 2/M"
_symmetry_group_IT_number 10
_symmetry_cell_setting 'monoclinic'
loop_
_space_group_symop_operation_xyz
x,y,z
-x,y,-z
-x,-y,-z
x,-y,z
loop_
_atom_site_type_symbol
_atom_site_label
_atom_site_fract_x
_atom_site_fract_y
_atom_site_fract_z
Si Si1 0.340600 0.678580 0.496699
Si Si2 0.079778 0.819820 0.846116
Si Si3 0.346089 0.678642 0.851164
Si Si4 0.340704 0.821418 0.996640
Si Si5 0.920131 0.319823 0.653962
Si Si6 0.654007 0.178644 0.648786
Si Si7 0.084302 0.320646 0.596541
Si Si8 0.915579 0.820644 0.903581
O O1 0.326897 0.500000 0.503452
O O2 0.495648 0.709442 0.343459
O O3 0.322655 0.758535 0.448742
O O4 0.224834 0.740161 0.673759
O O5 0.989457 0.782915 0.886140
O O6 0.100182 0.000000 0.823736
O O7 0.000000 0.777288 0.000000
O O8 0.324531 0.500000 0.875942
O O9 0.322751 0.741477 0.948688
O O10 0.236882 0.756679 0.929288
O O11 0.224930 0.759844 0.173707
O O12 0.327018 0.000000 0.003379
O O13 0.495748 0.790536 0.843405
O O14 0.899721 0.500000 0.676338
O O15 0.000000 0.277286 0.500000
O O16 0.010384 0.282929 0.614036
O O17 0.763230 0.256688 0.570632
O O18 0.675550 0.000000 0.624032
O O19 0.085828 0.500000 0.601640
O O20 0.999963 0.249991 0.750040
O O21 0.914051 0.000000 0.898492
#
# Coordination Sequence:
#
# PCOD9149249 Si02
#       8
#     4   4   4   4   4   4   4   4
#     4  10  20  34  55  82 110 144 184 226 276 325
#     4  10  22  39  57  79 111 149 185 224 274 331
#     4  10  20  34  54  82 113 143 180 228 276 327
#     4  10  20  34  55  82 110 144 184 226 276 325
#     4  10  22  39  57  79 111 149 185 224 274 331
#     4  10  20  34  54  82 113 143 180 228 276 327
#     4  11  21  34  56  84 111 142 184 230 275 323
#     4  11  21  34  56  84 111 142 184 230 275 323
#
# _framework density 17.398436
#
# number of rings (size 3 to 8) (size 9 to 14) (size 15 to 20)
#    0.000    1.750    2.500    2.250    0.000    4.500 
#    0.000    1.250    0.000    7.500    0.000    0.000 
#    0.000    0.000    0.000    0.000    0.000    0.000 
#
# Total GULP energy -178707.637971 kJ/mol
# GULP energy per Si atom -5584.613687 kJ/mol
# Density = 1.735884 g / cm^3
# Si number density = 17.398436 Si / 1000 Ang^3
#
#
#
# Elastic Constant Matrix: (Units=GPa)
#
#
# Indices 1 2 3 4 5 6 
#
# 1 90.3069 46.9712 69.1042 0.0000 -0.6206 0.0000
# 2 46.9712 54.9987 60.2696 0.0000 -4.5503 0.0000
# 3 69.1042 60.2696 155.7165 0.0000 -0.2958 0.0000
# 4 0.0000 0.0000 0.0000 34.6993 0.0000 -5.4140
# 5 -0.6206 -4.5503 -0.2958 0.0000 28.0756 0.0000
# 6 0.0000 0.0000 0.0000 -5.4140 0.0000 24.0869
#
#
#
# Elastic Compliance Matrix: (Units=1/GPa)
#
#
# Indices 1 2 3 4 5 6 
#
# 1 0.021494 -0.013982 -0.004130 0.000000 -0.001835 0.000000
# 2 -0.013982 0.041385 -0.009801 0.000000 0.006295 0.000000
# 3 -0.004130 -0.009801 0.012045 0.000000 -0.001553 0.000000
# 4 0.000000 0.000000 0.000000 0.029866 0.000000 0.006713
# 5 -0.001835 0.006295 -0.001553 0.000000 0.036582 0.000000
# 6 0.000000 0.000000 0.000000 0.006713 0.000000 0.043025
#
#
# Mechanical properties :
#
#
# Convention : Reuss Voigt Hill
#
# Bulk Modulus (GPa) = 52.36411 72.63469 62.49940
# Shear Modulus (GPa) = 20.27662 25.68416 22.98039
#
# Velocity S-wave (km/s) = 3.41754 3.84635 3.63827
# Velocity P-wave (km/s) = 6.76278 7.84629 7.32460
#
# Compressibility (1/GPa) = 0.01909705
#
# Stress axis : x y z
#
# Youngs Moduli (GPa) = 46.52464 24.16357 83.02044
#
# Poissons Ratio (x) = 0.33787 0.34290
# Poissons Ratio (y) = 0.65053 0.81365
# Poissons Ratio (z) = 0.19216 0.23682
#
# Static dielectric constant tensor:
#      x y z
#    x 1.571730 0.000000 -0.021650 
#    y 0.000000 1.580690 0.000000 
#    z -0.021650 0.000000 1.595750 
# 
# From -- ./inp_files/86735.got.cif
#   From: 2010.05.17/outbox.cif.g08.bks.cpg/sg10_44_cif.got.tgz:86735.got - 2010.06.03 11:33:40.
