data_PCOD9149739
_publ_section_title
;
Structure prediction by ZEFSAII (Michael W. Deem and Ramdas Pophale) SiO2 
 PCOD9149739
Probable space group: P 2/M
;
_chemical_formula_sum "Si O2"
_cell_formula_units_Z 28
_cell_length_a 14.424438
_cell_length_b 9.246027
_cell_length_c 18.790545
_cell_angle_alpha 90.000000
_cell_angle_beta 34.601691
_cell_angle_gamma 90.000000
_cell_volume 1423.117834
_symmetry_space_group_name_H-M "P 2/M"
_symmetry_group_IT_number 10
_symmetry_cell_setting 'monoclinic'
loop_
_space_group_symop_operation_xyz
x,y,z
-x,y,-z
-x,-y,-z
x,-y,z
loop_
_atom_site_type_symbol
_atom_site_label
_atom_site_fract_x
_atom_site_fract_y
_atom_site_fract_z
Si Si1 0.533759 0.668915 0.777142
Si Si2 0.720625 0.832039 0.436149
Si Si3 0.838970 0.829510 0.649967
Si Si4 0.576011 0.331870 0.316190
Si Si5 0.126461 0.167153 0.819139
Si Si6 0.825333 0.669384 0.951293
Si Si7 0.027175 0.330510 0.299804
O O1 0.567267 0.500000 0.773142
O O2 0.682975 0.765476 0.708235
O O3 0.499253 0.678497 0.714960
O O4 0.362641 0.712019 0.921665
O O5 0.549615 0.752142 0.553821
O O6 0.788343 0.826095 0.312972
O O7 0.855467 0.751824 0.399023
O O8 0.704491 0.000000 0.466645
O O9 0.869902 0.743757 0.703346
O O10 0.000000 0.809506 0.500000
O O11 0.819168 0.000000 0.676136
O O12 0.589069 0.500000 0.328122
O O13 0.752815 0.258196 0.207726
O O14 0.949671 0.237701 0.919942
O O15 0.116328 0.000000 0.846935
O O16 0.838075 0.500000 0.964193
O O17 0.882592 0.681347 0.833314
O O18 0.999474 0.500000 0.332249
#
# Coordination Sequence:
#
# PCOD9149739 Si02
#       7
#     4   4   4   4   4   4   4
#     4  10  23  41  59  81 111 147 187 231 275 325
#     4  10  20  35  55  82 116 148 183 230 281 332
#     4  11  24  40  59  85 116 148 180 221 276 333
#     4  11  22  35  55  82 112 149 190 232 278 327
#     4  10  21  36  56  82 113 149 186 229 280 331
#     4   9  20  40  61  82 110 145 187 230 274 326
#     4  10  20  36  61  86 110 145 185 228 276 327
#
# _framework density 19.675111999999999
#
# number of rings (size 3 to 8) (size 9 to 14) (size 15 to 20)
#    0.000    1.857    0.000    3.429    0.000   10.286 
#    0.000    5.714    0.000    0.000    0.000    0.000 
#    0.000    0.000    0.000    0.000    0.000    0.000 
#
# Total GULP energy -156557.856808 kJ/mol
# GULP energy per Si atom -5591.352029 kJ/mol
# Density = 1.963033 g / cm^3
# Si number density = 19.675112 Si / 1000 Ang^3
#
#
#
# Elastic Constant Matrix: (Units=GPa)
#
#
# Indices 1 2 3 4 5 6 
#
# 1 84.0395 66.7999 36.2161 0.0000 -33.2132 0.0000
# 2 66.7999 147.4580 70.6542 0.0000 -29.8320 0.0000
# 3 36.2161 70.6542 87.9696 0.0000 -26.3566 0.0000
# 4 0.0000 0.0000 0.0000 23.7644 0.0000 -16.7176
# 5 -33.2132 -29.8320 -26.3566 0.0000 29.5171 0.0000
# 6 0.0000 0.0000 0.0000 -16.7176 0.0000 68.0706
#
#
#
# Elastic Compliance Matrix: (Units=1/GPa)
#
#
# Indices 1 2 3 4 5 6 
#
# 1 0.027379 -0.009023 0.003377 0.000000 0.024704 0.000000
# 2 -0.009023 0.014437 -0.008943 0.000000 -0.003548 0.000000
# 3 0.003377 -0.008943 0.021285 0.000000 0.013767 0.000000
# 4 0.000000 0.000000 0.000000 0.050868 0.000000 0.012493
# 5 0.024704 -0.003548 0.013767 0.000000 0.070382 0.000000
# 6 0.000000 0.000000 0.000000 0.012493 0.000000 0.017759
#
#
# Mechanical properties :
#
#
# Convention : Reuss Voigt Hill
#
# Bulk Modulus (GPa) = 29.47988 74.08973 51.78480
# Shear Modulus (GPa) = 20.61032 33.99020 27.30026
#
# Velocity S-wave (km/s) = 3.24007 4.16092 3.72903
# Velocity P-wave (km/s) = 5.38640 7.79889 6.70209
#
# Compressibility (1/GPa) = 0.03392144
#
# Stress axis : x y z
#
# Youngs Moduli (GPa) = 36.52383 69.26851 46.98146
#
# Poissons Ratio (x) = 0.62504 -0.15865
# Poissons Ratio (y) = 0.32957 0.42017
# Poissons Ratio (z) = -0.12334 0.61949
#
# Static dielectric constant tensor:
#      x y z
#    x 1.675750 0.000000 0.024560 
#    y 0.000000 1.661750 0.000000 
#    z 0.024560 0.000000 1.691380 
# 
# From -- ./inp_files/49610.got.cif
#   From: 2010.05.17/outbox.cif.g08.bks.cpg/sg10_25_cif.got.tgz:49610.got - 2010.06.03 11:33:40.
