data_PCOD9149078
_publ_section_title
;
Structure prediction by ZEFSAII (Michael W. Deem and Ramdas Pophale) SiO2 
 PCOD9149078
Probable space group: P 2/M
;
_chemical_formula_sum "Si O2"
_cell_formula_units_Z 20
_cell_length_a 21.007586
_cell_length_b 7.466503
_cell_length_c 7.492927
_cell_angle_alpha 90.000000
_cell_angle_beta 55.244536
_cell_angle_gamma 90.000000
_cell_volume 965.609216
_symmetry_space_group_name_H-M "P 2/M"
_symmetry_group_IT_number 10
_symmetry_cell_setting 'monoclinic'
loop_
_space_group_symop_operation_xyz
x,y,z
-x,y,-z
-x,-y,-z
x,-y,z
loop_
_atom_site_type_symbol
_atom_site_label
_atom_site_fract_x
_atom_site_fract_y
_atom_site_fract_z
Si Si1 0.586516 0.710103 0.399650
Si Si2 0.294772 0.793985 0.089591
Si Si3 0.996575 0.218229 0.800519
Si Si4 0.413806 0.783629 0.189515
Si Si5 0.122473 0.781294 0.306354
O O1 0.500000 0.782716 0.500000
O O2 0.585272 0.500000 0.357770
O O3 0.603139 0.735713 0.580496
O O4 0.651694 0.792840 0.170836
O O5 0.348341 0.714430 0.159693
O O6 0.210248 0.716315 0.186352
O O7 0.280274 0.000000 0.165878
O O8 0.070087 0.269776 0.560606
O O9 0.921751 0.274956 0.803919
O O10 0.995907 0.000000 0.806360
O O11 0.000000 0.279634 0.000000
O O12 0.415720 0.000000 0.171064
O O13 0.500000 0.719147 0.000000
O O14 0.122736 0.000000 0.300065
#
# Coordination Sequence:
#
# PCOD9149078 Si02
#       5
#     4   4   4   4   4
#     4  11  23  36  52  73  99 135 175 215 258 304
#     4  10  20  34  53  76 104 135 171 214 254 299
#     4   8  13  23  41  65  98 132 157 190 242 300
#     4  10  20  34  53  75  99 131 170 213 257 300
#     4   8  15  26  41  68 100 129 161 197 243 297
#
# _framework density 20.712313000000002
#
# number of rings (size 3 to 8) (size 9 to 14) (size 15 to 20)
#    0.000    2.600    2.000    1.800    0.000    3.600 
#    0.000    6.000    0.000    0.000    0.000    2.800 
#    0.000    8.000    0.000    0.000    0.000    0.000 
#
# Total GULP energy -111630.234001 kJ/mol
# GULP energy per Si atom -5581.511700 kJ/mol
# Density = 2.066517 g / cm^3
# Si number density = 20.712313 Si / 1000 Ang^3
#
#
#
# Elastic Constant Matrix: (Units=GPa)
#
#
# Indices 1 2 3 4 5 6 
#
# 1 217.0392 6.5819 127.1118 0.0000 -6.3064 0.0000
# 2 6.5819 61.3352 -7.8312 0.0000 -6.0510 0.0000
# 3 127.1118 -7.8312 125.2476 0.0000 11.1203 0.0000
# 4 0.0000 0.0000 0.0000 -55.9496 0.0000 1.0337
# 5 -6.3064 -6.0510 11.1203 0.0000 46.9688 0.0000
# 6 0.0000 0.0000 0.0000 1.0337 0.0000 -3.6165
#
#
#
# Elastic Compliance Matrix: (Units=1/GPa)
#
#
# Indices 1 2 3 4 5 6 
#
# 1 0.012704 -0.002633 -0.013462 0.000000 0.004554 0.000000
# 2 -0.002633 0.017151 0.003656 0.000000 0.000990 0.000000
# 3 -0.013462 0.003656 0.022466 0.000000 -0.006655 0.000000
# 4 0.000000 0.000000 0.000000 -0.017968 0.000000 -0.005136
# 5 0.004554 0.000990 -0.006655 0.000000 0.023605 0.000000
# 6 0.000000 0.000000 0.000000 -0.005136 0.000000 -0.277975
#
#
# Mechanical properties :
#
#
# Convention : Reuss Voigt Hill
#
# Bulk Modulus (GPa) = 36.43751 72.81632 54.62691
# Shear Modulus (GPa) = -26.88267 15.99783 -5.44242
#
# Velocity S-wave (km/s) = -3.60656 2.78219 -1.62275
# Velocity P-wave (km/s) = 0.53608 6.74931 4.78751
#
# Compressibility (1/GPa) = 0.02744425
#
# Stress axis : x y z
#
# Youngs Moduli (GPa) = 78.71835 58.30590 44.51256
#
# Poissons Ratio (x) = 0.15350 0.59921
# Poissons Ratio (y) = 0.20724 -0.16275
# Poissons Ratio (z) = 1.05967 -0.21319
#
# Static dielectric constant tensor:
#      x y z
#    x 1.745570 0.000000 0.003430 
#    y 0.000000 1.777830 0.000000 
#    z 0.003430 0.000000 1.748890 
# 
# From -- ./inp_files/31149.got.cif
#   From: 2010.05.17/outbox.cif.g08.bks.cpg/sg10_16_cif.got.tgz:31149.got - 2010.06.03 11:33:40.
