data_PCOD9149837
_publ_section_title
;
Structure prediction by ZEFSAII (Michael W. Deem and Ramdas Pophale) SiO2 
 PCOD9149837
Probable space group: P 2/M
;
_chemical_formula_sum "Si O2"
_cell_formula_units_Z 24
_cell_length_a 17.800508
_cell_length_b 7.687323
_cell_length_c 13.417118
_cell_angle_alpha 90.000000
_cell_angle_beta 32.740103
_cell_angle_gamma 90.000000
_cell_volume 992.948870
_symmetry_space_group_name_H-M "P 2/M"
_symmetry_group_IT_number 10
_symmetry_cell_setting 'monoclinic'
loop_
_space_group_symop_operation_xyz
x,y,z
-x,y,-z
-x,-y,-z
x,-y,z
loop_
_atom_site_type_symbol
_atom_site_label
_atom_site_fract_x
_atom_site_fract_y
_atom_site_fract_z
Si Si1 0.157805 0.710677 0.341564
Si Si2 0.240000 0.298052 0.040199
Si Si3 0.596853 0.793388 0.802663
Si Si4 0.220073 0.788464 0.731680
Si Si5 0.972358 0.790402 0.872469
Si Si6 0.524851 0.204610 0.664026
O O1 0.156640 0.500000 0.342217
O O2 0.243951 0.768011 0.341321
O O3 0.000000 0.768980 0.500000
O O4 0.240588 0.775412 0.150995
O O5 0.271783 0.500000 0.010647
O O6 0.087640 0.276416 0.163878
O O7 0.359876 0.219008 0.837901
O O8 0.562878 0.721731 0.731002
O O9 0.570339 0.000000 0.827695
O O10 0.500000 0.720204 0.000000
O O11 0.137176 0.726630 0.921054
O O12 0.374697 0.726348 0.534498
O O13 0.217794 0.000000 0.743944
O O14 0.123634 0.742623 0.743983
O O15 0.968821 0.000000 0.872262
O O16 0.557176 0.000000 0.631425
#
# Coordination Sequence:
#
# PCOD9149837 Si02
#       6
#     4   4   4   4   4   4
#     4  10  23  40  55  75 108 148 183 215 261 323
#     4  11  23  37  53  79 111 143 180 220 265 317
#     4  10  20  35  56  83 110 136 174 225 270 311
#     4   8  17  35  59  84 106 137 180 219 265 324
#     4   9  18  36  60  82 107 139 177 222 268 316
#     4  10  20  36  57  81 110 142 178 220 267 318
#
# _framework density 24.170427
#
# number of rings (size 3 to 8) (size 9 to 14) (size 15 to 20)
#    0.000    2.333    1.667    1.500    2.333    2.667 
#    0.000    6.667    0.000    0.000    0.000    0.000 
#    0.000    0.000    0.000    0.000    0.000    0.000 
#
# Total GULP energy -134053.238927 kJ/mol
# GULP energy per Si atom -5585.551622 kJ/mol
# Density = 2.411541 g / cm^3
# Si number density = 24.170427 Si / 1000 Ang^3
#
#
#
# Elastic Constant Matrix: (Units=GPa)
#
#
# Indices 1 2 3 4 5 6 
#
# 1 60.3333 -10.1961 -23.3587 0.0000 -19.5618 0.0000
# 2 -10.1961 40.1463 0.0668 0.0000 8.1768 0.0000
# 3 -23.3587 0.0668 76.9744 0.0000 -10.3129 0.0000
# 4 0.0000 0.0000 0.0000 34.8961 0.0000 -19.7708
# 5 -19.5618 8.1768 -10.3129 0.0000 26.0770 0.0000
# 6 0.0000 0.0000 0.0000 -19.7708 0.0000 -7.7790
#
#
#
# Elastic Compliance Matrix: (Units=1/GPa)
#
#
# Indices 1 2 3 4 5 6 
#
# 1 0.031049 0.002202 0.013145 0.000000 0.027800 0.000000
# 2 0.002202 0.026871 -0.000277 0.000000 -0.006884 0.000000
# 3 0.013145 -0.000277 0.019338 0.000000 0.017596 0.000000
# 4 0.000000 0.000000 0.000000 0.011745 0.000000 -0.029850
# 5 0.027800 -0.006884 0.017596 0.000000 0.068319 0.000000
# 6 0.000000 0.000000 0.000000 -0.029850 0.000000 -0.052686
#
#
# Mechanical properties :
#
#
# Convention : Reuss Voigt Hill
#
# Bulk Modulus (GPa) = 9.31130 12.27535 10.79332
# Shear Modulus (GPa) = 45.33232 24.70163 35.01697
#
# Velocity S-wave (km/s) = 4.33544 3.20031 3.81038
# Velocity P-wave (km/s) = 5.37792 4.32962 4.88199
#
# Compressibility (1/GPa) = 0.10739640
#
# Stress axis : x y z
#
# Youngs Moduli (GPa) = 32.20668 37.21547 51.71171
#
# Poissons Ratio (x) = -0.08194 -0.67975
# Poissons Ratio (y) = -0.07091 0.01435
# Poissons Ratio (z) = -0.42336 0.01033
#
# Static dielectric constant tensor:
#      x y z
#    x 1.896150 0.000000 0.026240 
#    y 0.000000 1.890130 0.000000 
#    z 0.026240 0.000000 1.970980 
# 
# From -- ./inp_files/27088.got.cif
#   From: 2010.05.17/outbox.cif.g08.bks.cpg/sg10_14_cif.got.tgz:27088.got - 2010.06.03 11:33:40.
