data_PCOD9149602
_publ_section_title
;
Structure prediction by ZEFSAII (Michael W. Deem and Ramdas Pophale) SiO2 
 PCOD9149602
Probable space group: P 2/M
;
_chemical_formula_sum "Si O2"
_cell_formula_units_Z 28
_cell_length_a 14.264719
_cell_length_b 8.434246
_cell_length_c 12.888203
_cell_angle_alpha 90.000000
_cell_angle_beta 75.723011
_cell_angle_gamma 90.000000
_cell_volume 1502.716663
_symmetry_space_group_name_H-M "P 2/M"
_symmetry_group_IT_number 10
_symmetry_cell_setting 'monoclinic'
loop_
_space_group_symop_operation_xyz
x,y,z
-x,y,-z
-x,-y,-z
x,-y,z
loop_
_atom_site_type_symbol
_atom_site_label
_atom_site_fract_x
_atom_site_fract_y
_atom_site_fract_z
Si Si1 0.793624 0.188790 0.447586
Si Si2 0.999274 0.309522 0.671663
Si Si3 0.937535 0.309664 0.114159
Si Si4 0.214326 0.690967 0.329154
Si Si5 0.576973 0.189494 0.117853
Si Si6 0.368125 0.310786 0.116279
Si Si7 0.732600 0.809205 0.238844
O O1 0.906683 0.235347 0.407098
O O2 0.753513 0.257250 0.565433
O O3 0.743700 0.248467 0.354617
O O4 0.785428 0.000000 0.452306
O O5 0.005202 0.500000 0.654952
O O6 0.009141 0.276484 0.791616
O O7 0.895684 0.253229 0.659664
O O8 0.927853 0.500000 0.107991
O O9 0.830670 0.239124 0.153089
O O10 0.000000 0.251860 0.000000
O O11 0.212672 0.500000 0.326123
O O12 0.285258 0.744306 0.217992
O O13 0.472932 0.271309 0.135955
O O14 0.640081 0.244652 0.198618
O O15 0.562910 0.000000 0.127089
O O16 0.633335 0.229773 0.995919
O O17 0.359806 0.500000 0.103991
O O18 0.728986 0.000000 0.243306
#
# Coordination Sequence:
#
# PCOD9149602 Si02
#       7
#     4   4   4   4   4   4   4
#     4  10  20  35  53  76 105 137 178 218 252 302
#     4   9  18  33  50  72 105 142 173 209 257 306
#     4   9  18  30  49  76 104 135 175 214 251 304
#     4  10  21  35  53  76 106 139 173 213 261 309
#     4  10  20  37  58  78 105 138 172 211 263 319
#     4  10  21  36  56  82 107 133 170 218 264 308
#     4   9  20  36  53  74 103 140 173 209 261 310
#
# _framework density 18.632922000000001
#
# number of rings (size 3 to 8) (size 9 to 14) (size 15 to 20)
#    0.000    2.429    0.000    2.571    2.000    5.429 
#    0.000    0.714    0.000    4.286    0.000    0.000 
#    0.000    0.000    0.000    0.000    0.000    0.000 
#
# Total GULP energy -156238.967399 kJ/mol
# GULP energy per Si atom -5579.963121 kJ/mol
# Density = 1.859051 g / cm^3
# Si number density = 18.632922 Si / 1000 Ang^3
#
#
#
# Elastic Constant Matrix: (Units=GPa)
#
#
# Indices 1 2 3 4 5 6 
#
# 1 67.5634 1.5777 25.6972 0.0000 20.8749 0.0000
# 2 1.5777 6.8604 3.9571 0.0000 0.5212 0.0000
# 3 25.6972 3.9571 62.4233 0.0000 0.2444 0.0000
# 4 0.0000 0.0000 0.0000 42.0828 0.0000 -17.0297
# 5 20.8749 0.5212 0.2444 0.0000 15.9271 0.0000
# 6 0.0000 0.0000 0.0000 -17.0297 0.0000 36.2050
#
#
#
# Elastic Compliance Matrix: (Units=1/GPa)
#
#
# Indices 1 2 3 4 5 6 
#
# 1 0.033546 0.003617 -0.013867 0.000000 -0.043873 0.000000
# 2 0.003617 0.152054 -0.011090 0.000000 -0.009546 0.000000
# 3 -0.013867 -0.011090 0.022360 0.000000 0.018195 0.000000
# 4 0.000000 0.000000 0.000000 0.029349 0.000000 0.013805
# 5 -0.043873 -0.009546 0.018195 0.000000 0.120322 0.000000
# 6 0.000000 0.000000 0.000000 0.013805 0.000000 0.034114
#
#
# Mechanical properties :
#
#
# Convention : Reuss Voigt Hill
#
# Bulk Modulus (GPa) = 6.05041 22.14568 14.09804
# Shear Modulus (GPa) = 10.21413 25.88398 18.04905
#
# Velocity S-wave (km/s) = 2.34386 3.73118 3.11571
# Velocity P-wave (km/s) = 3.25255 5.52026 4.53058
#
# Compressibility (1/GPa) = 0.16527819
#
# Stress axis : x y z
#
# Youngs Moduli (GPa) = 29.80989 6.57663 44.72284
#
# Poissons Ratio (x) = -0.02379 0.62017
# Poissons Ratio (y) = -0.10781 0.49599
# Poissons Ratio (z) = 0.41337 0.07294
#
# Static dielectric constant tensor:
#      x y z
#    x 1.634730 0.000000 0.022100 
#    y 0.000000 1.640180 0.000000 
#    z 0.022100 0.000000 1.649290 
# 
# From -- ./inp_files/49186.got.cif
#   From: 2010.05.17/outbox.cif.g08.bks.cpg/sg10_25_cif.got.tgz:49186.got - 2010.06.03 11:33:40.
