data_PCOD9149331
_publ_section_title
;
Structure prediction by ZEFSAII (Michael W. Deem and Ramdas Pophale) SiO2 
 PCOD9149331
Probable space group: P 2/M
;
_chemical_formula_sum "Si O2"
_cell_formula_units_Z 28
_cell_length_a 12.259468
_cell_length_b 14.134657
_cell_length_c 10.153883
_cell_angle_alpha 90.000000
_cell_angle_beta 124.063945
_cell_angle_gamma 90.000000
_cell_volume 1457.591887
_symmetry_space_group_name_H-M "P 2/M"
_symmetry_group_IT_number 10
_symmetry_cell_setting 'monoclinic'
loop_
_space_group_symop_operation_xyz
x,y,z
-x,y,-z
-x,-y,-z
x,-y,z
loop_
_atom_site_type_symbol
_atom_site_label
_atom_site_fract_x
_atom_site_fract_y
_atom_site_fract_z
Si Si1 0.690182 0.784719 0.034227
Si Si2 0.596915 0.387609 0.441250
Si Si3 0.649365 0.113316 0.558085
Si Si4 0.596406 0.216201 0.259941
Si Si5 0.150436 0.114132 0.075091
Si Si6 0.871178 0.386087 0.756718
Si Si7 0.162200 0.613431 0.958889
O O1 0.680154 0.793361 0.183995
O O2 0.724717 0.675258 0.028882
O O3 0.550682 0.816634 0.878187
O O4 0.798391 0.843109 0.026866
O O5 0.500000 0.368084 0.500000
O O6 0.586787 0.500000 0.407981
O O7 0.572795 0.322063 0.299697
O O8 0.744940 0.362172 0.586281
O O9 0.500000 0.136921 0.500000
O O10 0.661626 0.159000 0.423235
O O11 0.753675 0.144769 0.739661
O O12 0.659487 0.000000 0.555138
O O13 0.156873 0.000000 0.073131
O O14 0.000000 0.141959 0.000000
O O15 0.878573 0.500000 0.763004
O O16 0.016586 0.356747 0.809497
O O17 0.843610 0.361680 0.889908
O O18 0.179715 0.500000 0.957333
#
# Coordination Sequence:
#
# PCOD9149331 Si02
#       7
#     4   4   4   4   4   4   4
#     4  11  24  38  57  87 120 163 195 238 309 348
#     4  10  20  34  55  82 115 158 203 250 297 340
#     4  10  20  39  67  91 112 150 196 242 297 350
#     4  11  24  38  56  88 125 154 199 247 289 364
#     4  10  23  43  67  94 120 150 197 249 296 357
#     4   8  16  31  53  79 103 142 202 252 288 331
#     4   9  18  33  53  80 114 153 198 241 286 348
#
# _framework density 19.209766999999999
#
# number of rings (size 3 to 8) (size 9 to 14) (size 15 to 20)
#    0.000    2.143    1.429    2.143    4.000    2.857 
#    0.000    5.714    0.000    5.143    0.000    0.000 
#    0.000    0.000    0.000    0.000    0.000    0.000 
#
# Total GULP energy -156244.789316 kJ/mol
# GULP energy per Si atom -5580.171047 kJ/mol
# Density = 1.916605 g / cm^3
# Si number density = 19.209767 Si / 1000 Ang^3
#
#
#
# Elastic Constant Matrix: (Units=GPa)
#
#
# Indices 1 2 3 4 5 6 
#
# 1 120.7341 35.0608 66.2189 0.0000 -11.4421 0.0000
# 2 35.0608 58.9467 32.9405 0.0000 -7.4173 0.0000
# 3 66.2189 32.9405 105.0524 0.0000 -9.0709 0.0000
# 4 0.0000 0.0000 0.0000 8.5100 0.0000 5.8631
# 5 -11.4421 -7.4173 -9.0709 0.0000 32.3622 0.0000
# 6 0.0000 0.0000 0.0000 5.8631 0.0000 12.2800
#
#
#
# Elastic Compliance Matrix: (Units=1/GPa)
#
#
# Indices 1 2 3 4 5 6 
#
# 1 0.013482 -0.003786 -0.007147 0.000000 0.001896 0.000000
# 2 -0.003786 0.021916 -0.004271 0.000000 0.002487 0.000000
# 3 -0.007147 -0.004271 0.015434 0.000000 0.000820 0.000000
# 4 0.000000 0.000000 0.000000 0.175111 0.000000 -0.083606
# 5 0.001896 0.002487 0.000820 0.000000 0.032370 0.000000
# 6 0.000000 0.000000 0.000000 -0.083606 0.000000 0.121350
#
#
# Mechanical properties :
#
#
# Convention : Reuss Voigt Hill
#
# Bulk Modulus (GPa) = 48.96266 61.46373 55.21320
# Shear Modulus (GPa) = 11.99386 20.66465 16.32926
#
# Velocity S-wave (km/s) = 2.50144 3.28340 2.91872
# Velocity P-wave (km/s) = 5.82122 6.81468 6.33745
#
# Compressibility (1/GPa) = 0.02042373
#
# Stress axis : x y z
#
# Youngs Moduli (GPa) = 74.17354 45.62877 64.79109
#
# Poissons Ratio (x) = 0.17276 0.46308
# Poissons Ratio (y) = 0.28084 0.27670
# Poissons Ratio (z) = 0.53014 0.19486
#
# Static dielectric constant tensor:
#      x y z
#    x 1.672820 0.000000 0.030000 
#    y 0.000000 1.707440 0.000000 
#    z 0.030000 0.000000 1.691430 
# 
# From -- ./inp_files/25442.got.cif
#   From: 2010.05.17/outbox.cif.g08.bks.cpg/sg10_13_cif.got.tgz:25442.got - 2010.06.03 11:33:40.
