data_PCOD9149464
_publ_section_title
;
Structure prediction by ZEFSAII (Michael W. Deem and Ramdas Pophale) SiO2 
 PCOD9149464
Probable space group: P 2/M
;
_chemical_formula_sum "Si O2"
_cell_formula_units_Z 21
_cell_length_a 20.149638
_cell_length_b 7.975565
_cell_length_c 7.857509
_cell_angle_alpha 90.000000
_cell_angle_beta 125.798553
_cell_angle_gamma 90.000000
_cell_volume 1024.180570
_symmetry_space_group_name_H-M "P 2/M"
_symmetry_group_IT_number 10
_symmetry_cell_setting 'monoclinic'
loop_
_space_group_symop_operation_xyz
x,y,z
-x,y,-z
-x,-y,-z
x,-y,z
loop_
_atom_site_type_symbol
_atom_site_label
_atom_site_fract_x
_atom_site_fract_y
_atom_site_fract_z
Si Si1 0.236005 0.814605 0.553639
Si Si2 0.866979 0.500000 0.110404
Si Si3 0.763995 0.185395 0.845624
Si Si4 0.409943 0.695396 0.318012
Si Si5 0.000000 0.500000 0.000000
Si Si6 0.409943 0.695396 0.911816
Si Si7 0.133021 0.500000 0.509466
O O1 0.215199 0.804756 0.322799
O O2 0.190194 0.663947 0.577224
O O3 0.213143 0.000000 0.582472
O O4 0.333254 0.790185 0.718619
O O5 0.809806 0.336053 0.006643
O O6 0.929300 0.500000 0.046312
O O7 0.903339 0.500000 0.355008
O O8 0.666746 0.209815 0.718856
O O9 0.786857 0.000000 0.943043
O O10 0.500000 0.759826 0.500000
O O11 0.405996 0.500000 0.368805
O O12 0.401368 0.699628 0.102052
O O13 0.070700 0.500000 0.258411
O O14 0.405996 0.500000 0.849185
O O15 0.500000 0.759826 0.000000
#
# Coordination Sequence:
#
# PCOD9149464 Si02
#       7
#     4   2   4   4   1   4   2
#     4  11  23  41  67  98 137 182 225 277 338 401
#     4  12  25  47  76 105 136 174 220 276 344 411
#     4  11  23  41  67  98 137 182 225 277 338 401
#     4  10  20  34  56  89 129 178 230 281 333 389
#     4  12  26  52  78 106 140 174 218 284 346 430
#     4  10  20  34  56  89 129 178 230 281 333 389
#     4  12  25  47  76 105 136 174 220 276 344 411
#
# _framework density 20.504194999999999
#
# number of rings (size 3 to 8) (size 9 to 14) (size 15 to 20)
#    0.000    1.143    3.810    2.571    0.000    5.333 
#    0.000    1.905    0.000    2.286    0.000    0.000 
#    0.000    0.000    0.000    0.000    0.000    0.000 
#
# Total GULP energy -117125.197354 kJ/mol
# GULP energy per Si atom -5577.390350 kJ/mol
# Density = 2.045753 g / cm^3
# Si number density = 20.504195 Si / 1000 Ang^3
#
#
#
# Elastic Constant Matrix: (Units=GPa)
#
#
# Indices 1 2 3 4 5 6 
#
# 1 105.1628 43.6906 39.8392 0.0000 -1.4923 0.0000
# 2 43.6906 136.2223 43.8776 0.0000 6.5365 0.0000
# 3 39.8392 43.8776 105.0826 0.0000 -1.3320 0.0000
# 4 0.0000 0.0000 0.0000 -9.9159 0.0000 3.3948
# 5 -1.4923 6.5365 -1.3320 0.0000 38.2533 0.0000
# 6 0.0000 0.0000 0.0000 3.3948 0.0000 -10.0128
#
#
#
# Elastic Compliance Matrix: (Units=1/GPa)
#
#
# Indices 1 2 3 4 5 6 
#
# 1 0.011952 -0.002792 -0.003355 0.000000 0.000827 0.000000
# 2 -0.002792 0.009230 -0.002818 0.000000 -0.001784 0.000000
# 3 -0.003355 -0.002818 0.011975 0.000000 0.000768 0.000000
# 4 0.000000 0.000000 0.000000 -0.114092 0.000000 -0.038683
# 5 0.000827 -0.001784 0.000768 0.000000 0.026505 0.000000
# 6 0.000000 0.000000 0.000000 -0.038683 0.000000 -0.112988
#
#
# Mechanical properties :
#
#
# Convention : Reuss Voigt Hill
#
# Bulk Modulus (GPa) = 65.67681 66.80918 66.24299
# Shear Modulus (GPa) = -34.62287 18.26894 -8.17696
#
# Velocity S-wave (km/s) = -4.11369 2.98818 -1.99915
# Velocity P-wave (km/s) = 3.08824 6.67529 5.20081
#
# Compressibility (1/GPa) = 0.01522608
#
# Stress axis : x y z
#
# Youngs Moduli (GPa) = 83.66929 108.34453 83.51046
#
# Poissons Ratio (x) = 0.30254 0.28016
# Poissons Ratio (y) = 0.23364 0.23532
# Poissons Ratio (z) = 0.28069 0.30530
#
# Static dielectric constant tensor:
#      x y z
#    x 1.712510 0.000000 -0.017420 
#    y 0.000000 1.743740 0.000000 
#    z -0.017420 0.000000 1.712010 
# 
# From -- ./inp_files/34108.got.cif
#   From: 2010.05.17/outbox.cif.g08.bks.cpg/sg10_18_cif.got.tgz:34108.got - 2010.06.03 11:33:40.
