data_PCOD9149459
_publ_section_title
;
Structure prediction by ZEFSAII (Michael W. Deem and Ramdas Pophale) SiO2 
 PCOD9149459
Probable space group: P 2/M
;
_chemical_formula_sum "Si O2"
_cell_formula_units_Z 28
_cell_length_a 9.664507
_cell_length_b 14.591971
_cell_length_c 12.547710
_cell_angle_alpha 90.000000
_cell_angle_beta 58.354298
_cell_angle_gamma 90.000000
_cell_volume 1506.417008
_symmetry_space_group_name_H-M "P 2/M"
_symmetry_group_IT_number 10
_symmetry_cell_setting 'monoclinic'
loop_
_space_group_symop_operation_xyz
x,y,z
-x,y,-z
-x,-y,-z
x,-y,z
loop_
_atom_site_type_symbol
_atom_site_label
_atom_site_fract_x
_atom_site_fract_y
_atom_site_fract_z
Si Si1 0.365533 0.895176 0.688131
Si Si2 0.810106 0.198161 0.044034
Si Si3 0.802913 0.398314 0.096684
Si Si4 0.730167 0.897552 0.627157
Si Si5 0.310281 0.394751 0.609097
Si Si6 0.168305 0.787007 0.601013
Si Si7 0.146696 0.892207 0.192911
O O1 0.269773 0.856647 0.827592
O O2 0.550202 0.894102 0.652378
O O3 0.315441 0.832120 0.609723
O O4 0.322231 0.000000 0.678723
O O5 0.750182 0.303618 0.062410
O O6 0.782776 0.144638 0.945719
O O7 0.000000 0.201337 0.000000
O O8 0.746262 0.500000 0.083434
O O9 0.738647 0.388122 0.245171
O O10 0.000000 0.400222 0.000000
O O11 0.826606 0.823438 0.520682
O O12 0.738550 0.883615 0.750064
O O13 0.796476 0.000000 0.578818
O O14 0.500000 0.376183 0.500000
O O15 0.279345 0.500000 0.590425
O O16 0.196221 0.320651 0.598495
O O17 0.008951 0.828906 0.719858
O O18 0.102702 0.000000 0.200748
#
# Coordination Sequence:
#
# PCOD9149459 Si02
#       7
#     4   4   4   4   4   4   4
#     4  11  21  33  54  83 112 144 186 239 281 327
#     4  11  20  34  55  83 111 144 191 239 288 335
#     4   9  17  32  53  82 117 148 187 240 295 348
#     4  10  23  38  53  79 115 156 192 227 283 347
#     4  10  20  34  56  88 121 150 186 240 301 352
#     4  12  20  35  60  84 111 145 191 238 283 337
#     4  11  23  38  56  80 115 157 194 231 282 349
#
# _framework density 18.587152
#
# number of rings (size 3 to 8) (size 9 to 14) (size 15 to 20)
#    0.000    1.429    2.857    4.286    0.000    3.429 
#    0.000    2.143    0.000    2.571    0.000    1.000 
#    0.000    0.000    0.000    0.000    0.000    0.000 
#
# Total GULP energy -156150.288582 kJ/mol
# GULP energy per Si atom -5576.796021 kJ/mol
# Density = 1.854485 g / cm^3
# Si number density = 18.587152 Si / 1000 Ang^3
#
#
#
# Elastic Constant Matrix: (Units=GPa)
#
#
# Indices 1 2 3 4 5 6 
#
# 1 47.4020 13.2843 13.2678 0.0000 11.8624 0.0000
# 2 13.2843 103.7793 30.2960 0.0000 8.5904 0.0000
# 3 13.2678 30.2960 104.1063 0.0000 7.6678 0.0000
# 4 0.0000 0.0000 0.0000 31.7625 0.0000 14.7006
# 5 11.8624 8.5904 7.6678 0.0000 28.9012 0.0000
# 6 0.0000 0.0000 0.0000 14.7006 0.0000 -6.8686
#
#
#
# Elastic Compliance Matrix: (Units=1/GPa)
#
#
# Indices 1 2 3 4 5 6 
#
# 1 0.024385 -0.001820 -0.001918 0.000000 -0.008959 0.000000
# 2 -0.001820 0.010827 -0.002791 0.000000 -0.001731 0.000000
# 3 -0.001918 -0.002791 0.010753 0.000000 -0.001236 0.000000
# 4 0.000000 0.000000 0.000000 0.015816 0.000000 0.033851
# 5 -0.008959 -0.001731 -0.001236 0.000000 0.039120 0.000000
# 6 0.000000 0.000000 0.000000 0.033851 0.000000 -0.073140
#
#
# Mechanical properties :
#
#
# Convention : Reuss Voigt Hill
#
# Bulk Modulus (GPa) = 30.38921 40.99819 35.69370
# Shear Modulus (GPa) = 96.54370 23.98832 60.26601
#
# Velocity S-wave (km/s) = 7.21484 3.59637 5.70034
# Velocity P-wave (km/s) = 9.26230 6.27298 7.91014
#
# Compressibility (1/GPa) = 0.03290641
#
# Stress axis : x y z
#
# Youngs Moduli (GPa) = 41.00866 92.36259 92.99391
#
# Poissons Ratio (x) = 0.16808 0.17839
# Poissons Ratio (y) = 0.07463 0.25958
# Poissons Ratio (z) = 0.07867 0.25782
#
# Static dielectric constant tensor:
#      x y z
#    x 1.733810 0.000000 -0.147730 
#    y 0.000000 1.661470 0.000000 
#    z -0.147730 0.000000 1.813160 
# 
# From -- ./inp_files/42748.got.cif
#   From: 2010.05.17/outbox.cif.g08.bks.cpg/sg10_22_cif.got.tgz:42748.got - 2010.06.03 11:33:40.
