data_PCOD9149392
_publ_section_title
;
Structure prediction by ZEFSAII (Michael W. Deem and Ramdas Pophale) SiO2 
 PCOD9149392
Probable space group: P 2/M
;
_chemical_formula_sum "Si O2"
_cell_formula_units_Z 28
_cell_length_a 15.766399
_cell_length_b 21.721124
_cell_length_c 9.230491
_cell_angle_alpha 90.000000
_cell_angle_beta 150.605993
_cell_angle_gamma 90.000000
_cell_volume 1551.512703
_symmetry_space_group_name_H-M "P 2/M"
_symmetry_group_IT_number 10
_symmetry_cell_setting 'monoclinic'
loop_
_space_group_symop_operation_xyz
x,y,z
-x,y,-z
-x,-y,-z
x,-y,z
loop_
_atom_site_type_symbol
_atom_site_label
_atom_site_fract_x
_atom_site_fract_y
_atom_site_fract_z
Si Si1 0.584428 0.500000 0.891096
Si Si2 0.483423 0.367780 0.309398
Si Si3 0.471810 0.927032 0.289138
Si Si4 0.308495 0.070202 0.640454
Si Si5 0.183751 0.848327 0.697247
Si Si6 0.678881 0.714223 0.176807
Si Si7 0.842292 0.366710 0.666502
Si Si8 0.780833 0.500000 0.477179
O O1 0.587855 0.437579 0.804973
O O2 0.402023 0.500000 0.707649
O O3 0.729396 0.500000 0.231724
O O4 0.500000 0.347669 0.500000
O O5 0.670066 0.367409 0.508932
O O6 0.364864 0.325533 0.030720
O O7 0.500000 0.917880 0.500000
O O8 0.645703 0.913493 0.456185
O O9 0.432778 0.000000 0.205102
O O10 0.320392 0.884604 0.001702
O O11 0.188339 0.115156 0.551612
O O12 0.246762 0.000000 0.558056
O O13 0.500000 0.072722 0.000000
O O14 0.246106 0.779522 0.757616
O O15 0.000000 0.849016 0.500000
O O16 0.801896 0.675916 0.468148
O O17 0.500000 0.723271 0.000000
O O18 0.873172 0.436710 0.657799
O O19 0.000000 0.345518 0.000000
#
# Coordination Sequence:
#
# PCOD9149392 Si02
#       8
#     2   4   4   4   4   4   4   2
#     4   9  15  30  55  82 105 134 179 221 264 334
#     4  10  20  34  56  80 105 140 179 225 274 331
#     4   9  18  35  60  87 113 143 181 224 268 322
#     4   8  15  31  55  80 107 141 177 212 257 319
#     4  11  22  35  54  80 110 146 184 229 274 319
#     4  10  21  38  55  73 104 149 194 224 268 333
#     4  10  20  35  57  81 106 139 179 228 281 334
#     4   9  15  30  57  82 105 136 177 221 274 338
#
# _framework density 18.046903
#
# number of rings (size 3 to 8) (size 9 to 14) (size 15 to 20)
#    0.000    2.429    1.429    3.000    0.000    2.857 
#    0.000    3.571    0.000    3.429    0.000    0.000 
#    0.000    0.000    0.000    0.000    0.000    0.000 
#
# Total GULP energy -156168.577743 kJ/mol
# GULP energy per Si atom -5577.449205 kJ/mol
# Density = 1.800583 g / cm^3
# Si number density = 18.046903 Si / 1000 Ang^3
#
#
#
# Elastic Constant Matrix: (Units=GPa)
#
#
# Indices 1 2 3 4 5 6 
#
# 1 119.9336 80.3801 52.2477 0.0000 -27.4783 0.0000
# 2 80.3801 137.6385 61.6564 0.0000 -2.3596 0.0000
# 3 52.2477 61.6564 87.7067 0.0000 -21.3113 0.0000
# 4 0.0000 0.0000 0.0000 1.0924 0.0000 -5.3351
# 5 -27.4783 -2.3596 -21.3113 0.0000 27.4381 0.0000
# 6 0.0000 0.0000 0.0000 -5.3351 0.0000 6.0620
#
#
#
# Elastic Compliance Matrix: (Units=1/GPa)
#
#
# Indices 1 2 3 4 5 6 
#
# 1 0.020868 -0.012461 0.001413 0.000000 0.020924 0.000000
# 2 -0.012461 0.018917 -0.010492 0.000000 -0.019002 0.000000
# 3 0.001413 -0.010492 0.022262 0.000000 0.017804 0.000000
# 4 0.000000 0.000000 0.000000 -0.277556 0.000000 -0.244271
# 5 0.020924 -0.019002 0.017804 0.000000 0.069594 0.000000
# 6 0.000000 0.000000 0.000000 -0.244271 0.000000 -0.050016
#
#
# Mechanical properties :
#
#
# Convention : Reuss Voigt Hill
#
# Bulk Modulus (GPa) = 52.72616 81.53857 67.13237
# Shear Modulus (GPa) = -34.12293 16.98482 -8.56905
#
# Velocity S-wave (km/s) = -4.35304 3.07114 -2.18140
# Velocity P-wave (km/s) = 2.00358 7.60628 5.56191
#
# Compressibility (1/GPa) = 0.01896592
#
# Stress axis : x y z
#
# Youngs Moduli (GPa) = 47.92088 52.86305 44.91994
#
# Poissons Ratio (x) = 0.65872 -0.06347
# Poissons Ratio (y) = 0.59713 0.47131
# Poissons Ratio (z) = -0.06771 0.55465
#
# Static dielectric constant tensor:
#      x y z
#    x 1.626590 0.000000 -0.011820 
#    y 0.000000 1.613050 0.000000 
#    z -0.011820 0.000000 1.607000 
# 
# From -- ./inp_files/30526.got.cif
#   From: 2010.05.17/outbox.cif.g08.bks.cpg/sg10_16_cif.got.tgz:30526.got - 2010.06.03 11:33:40.
