data_PCOD9149732
_publ_section_title
;
Structure prediction by ZEFSAII (Michael W. Deem and Ramdas Pophale) SiO2 
 PCOD9149732
Probable space group: P 2/M
;
_chemical_formula_sum "Si O2"
_cell_formula_units_Z 32
_cell_length_a 15.352065
_cell_length_b 7.656935
_cell_length_c 11.957059
_cell_angle_alpha 90.000000
_cell_angle_beta 93.492883
_cell_angle_gamma 90.000000
_cell_volume 1402.938476
_symmetry_space_group_name_H-M "P 2/M"
_symmetry_group_IT_number 10
_symmetry_cell_setting 'monoclinic'
loop_
_space_group_symop_operation_xyz
x,y,z
-x,y,-z
-x,-y,-z
x,-y,z
loop_
_atom_site_type_symbol
_atom_site_label
_atom_site_fract_x
_atom_site_fract_y
_atom_site_fract_z
Si Si1 0.516829 0.702772 0.377554
Si Si2 0.347803 0.202533 0.230881
Si Si3 0.166453 0.703652 0.557210
Si Si4 0.314453 0.714100 0.742055
Si Si5 0.167892 0.199138 0.307021
Si Si6 0.974356 0.211737 0.287243
Si Si7 0.713280 0.295454 0.006947
Si Si8 0.091446 0.210713 0.953137
O O1 0.500000 0.779655 0.500000
O O2 0.540722 0.500000 0.398727
O O3 0.430042 0.711475 0.296366
O O4 0.597146 0.775144 0.311620
O O5 0.255809 0.280791 0.266103
O O6 0.350847 0.000000 0.265888
O O7 0.342848 0.213113 0.096695
O O8 0.183814 0.500000 0.535882
O O9 0.234924 0.767173 0.655580
O O10 0.174663 0.801434 0.441439
O O11 0.071668 0.723778 0.604903
O O12 0.313226 0.500000 0.746834
O O13 0.304296 0.774421 0.869294
O O14 0.072747 0.276842 0.275715
O O15 0.165051 0.000000 0.262060
O O16 0.915689 0.263737 0.177019
O O17 0.977804 0.000000 0.292372
O O18 0.692960 0.500000 0.004841
O O19 0.816838 0.272990 0.991359
O O20 0.092519 0.000000 0.960179
O O21 0.000000 0.268945 0.000000
#
# Coordination Sequence:
#
# PCOD9149732 Si02
#       8
#     4   4   4   4   4   4   4   4
#     4  10  21  41  68  93 119 156 199 241 297 367
#     4  11  24  42  62  88 122 155 196 250 301 355
#     4  11  21  36  58  86 119 152 196 248 295 348
#     4   9  20  38  60  87 121 157 193 244 304 357
#     4  10  22  39  57  80 116 159 197 239 298 359
#     4  10  20  35  55  80 114 157 200 239 292 358
#     4  11  22  39  61  86 120 159 202 248 298 358
#     4  10  20  36  58  83 116 161 208 251 297 351
#
# _framework density 22.809267999999999
#
# number of rings (size 3 to 8) (size 9 to 14) (size 15 to 20)
#    0.000    1.750    1.250    3.000    0.000    7.000 
#    0.000    6.250    0.000    0.000    0.000    0.000 
#    0.000    0.000    0.000    0.000    0.000    0.000 
#
# Total GULP energy -178886.654088 kJ/mol
# GULP energy per Si atom -5590.207940 kJ/mol
# Density = 2.275735 g / cm^3
# Si number density = 22.809268 Si / 1000 Ang^3
#
#
#
# Elastic Constant Matrix: (Units=GPa)
#
#
# Indices 1 2 3 4 5 6 
#
# 1 119.1855 -9.8068 28.9442 0.0000 2.6255 0.0000
# 2 -9.8068 45.3116 -9.7317 0.0000 -3.2491 0.0000
# 3 28.9442 -9.7317 92.5432 0.0000 12.8595 0.0000
# 4 0.0000 0.0000 0.0000 17.5849 0.0000 9.5564
# 5 2.6255 -3.2491 12.8595 0.0000 36.5693 0.0000
# 6 0.0000 0.0000 0.0000 9.5564 0.0000 17.0906
#
#
#
# Elastic Compliance Matrix: (Units=1/GPa)
#
#
# Indices 1 2 3 4 5 6 
#
# 1 0.009173 0.001420 -0.002782 0.000000 0.000446 0.000000
# 2 0.001420 0.022852 0.001778 0.000000 0.001303 0.000000
# 3 -0.002782 0.001778 0.012420 0.000000 -0.004010 0.000000
# 4 0.000000 0.000000 0.000000 0.081691 0.000000 -0.045678
# 5 0.000446 0.001303 -0.004010 0.000000 0.028839 0.000000
# 6 0.000000 0.000000 0.000000 -0.045678 0.000000 0.084053
#
#
# Mechanical properties :
#
#
# Convention : Reuss Voigt Hill
#
# Bulk Modulus (GPa) = 22.08624 30.65019 26.36822
# Shear Modulus (GPa) = 19.74040 30.75793 25.24917
#
# Velocity S-wave (km/s) = 2.94505 3.67615 3.33072
# Velocity P-wave (km/s) = 4.61178 5.61120 5.13586
#
# Compressibility (1/GPa) = 0.04527705
#
# Stress axis : x y z
#
# Youngs Moduli (GPa) = 109.01818 43.75987 80.51614
#
# Poissons Ratio (x) = -0.06213 0.22396
# Poissons Ratio (y) = -0.15479 -0.14315
# Poissons Ratio (z) = 0.30324 -0.07780
#
# Static dielectric constant tensor:
#      x y z
#    x 1.831800 0.000000 -0.019880 
#    y 0.000000 2.667050 0.000000 
#    z -0.019880 0.000000 1.834890 
# 
# From -- ./inp_files/49942.got.cif
#   From: 2010.05.17/outbox.cif.g08.bks.cpg/sg10_25_cif.got.tgz:49942.got - 2010.06.03 11:33:40.
