data_PCOD9149891
_publ_section_title
;
Structure prediction by ZEFSAII (Michael W. Deem and Ramdas Pophale) SiO2 
 PCOD9149891
Probable space group: P 2/M
;
_chemical_formula_sum "Si O2"
_cell_formula_units_Z 28
_cell_length_a 25.250029
_cell_length_b 9.078738
_cell_length_c 24.341162
_cell_angle_alpha 90.000000
_cell_angle_beta 16.676121
_cell_angle_gamma 90.000000
_cell_volume 1601.223706
_symmetry_space_group_name_H-M "P 2/M"
_symmetry_group_IT_number 10
_symmetry_cell_setting 'monoclinic'
loop_
_space_group_symop_operation_xyz
x,y,z
-x,y,-z
-x,-y,-z
x,-y,z
loop_
_atom_site_type_symbol
_atom_site_label
_atom_site_fract_x
_atom_site_fract_y
_atom_site_fract_z
Si Si1 0.207841 0.175865 0.639636
Si Si2 0.780389 0.825735 0.656259
Si Si3 0.809471 0.676046 0.048324
Si Si4 0.472787 0.823910 0.590488
Si Si5 0.491454 0.323180 0.277113
Si Si6 0.492739 0.324269 0.865645
Si Si7 0.780475 0.174127 0.780442
O O1 0.341489 0.205926 0.559097
O O2 0.321240 0.242403 0.475703
O O3 0.188687 0.000000 0.653194
O O4 0.008591 0.249588 0.844380
O O5 0.672699 0.737091 0.717447
O O6 0.727481 0.779981 0.770996
O O7 0.999834 0.808045 0.433164
O O8 0.739261 0.000000 0.692182
O O9 0.828935 0.500000 0.033307
O O10 0.695362 0.739739 0.213366
O O11 0.676479 0.708826 0.128243
O O12 0.500000 0.783706 0.500000
O O13 0.437868 0.000000 0.628371
O O14 0.461472 0.500000 0.309698
O O15 0.512327 0.279152 0.193034
O O16 0.489908 0.500000 0.870334
O O17 0.325038 0.260385 0.067817
O O18 0.739401 0.000000 0.825819
#
# Coordination Sequence:
#
# PCOD9149891 Si02
#       7
#     4   4   4   4   4   4   4
#     4  10  20  35  57  81 104 135 176 218 258 302
#     4   9  19  36  55  75 101 135 172 209 254 308
#     4  10  20  36  57  77 105 144 178 212 257 309
#     4   9  19  36  56  80 111 142 174 215 258 302
#     4   9  21  39  53  71 103 140 175 212 257 308
#     4  11  22  34  52  78 105 133 168 213 263 310
#     4   9  19  36  55  74 101 136 171 208 253 310
#
# _framework density 17.486625
#
# number of rings (size 3 to 8) (size 9 to 14) (size 15 to 20)
#    0.000    2.429    0.000    2.571    0.000    7.143 
#    0.000    8.571    0.000    0.000    0.000    0.000 
#    0.000    0.000    0.000    0.000    0.000    0.000 
#
# Total GULP energy -156264.310835 kJ/mol
# GULP energy per Si atom -5580.868244 kJ/mol
# Density = 1.744682 g / cm^3
# Si number density = 17.486625 Si / 1000 Ang^3
#
#
#
# Elastic Constant Matrix: (Units=GPa)
#
#
# Indices 1 2 3 4 5 6 
#
# 1 129.8979 62.1145 104.1177 0.0000 32.1605 0.0000
# 2 62.1145 60.6913 79.9254 0.0000 8.9765 0.0000
# 3 104.1177 79.9254 182.8908 0.0000 10.8273 0.0000
# 4 0.0000 0.0000 0.0000 43.9342 0.0000 -0.5502
# 5 32.1605 8.9765 10.8273 0.0000 31.6639 0.0000
# 6 0.0000 0.0000 0.0000 -0.5502 0.0000 30.5796
#
#
#
# Elastic Compliance Matrix: (Units=1/GPa)
#
#
# Indices 1 2 3 4 5 6 
#
# 1 0.023770 -0.012324 -0.007067 0.000000 -0.018232 0.000000
# 2 -0.012324 0.046101 -0.013368 0.000000 0.004020 0.000000
# 3 -0.007067 -0.013368 0.014987 0.000000 0.005843 0.000000
# 4 0.000000 0.000000 0.000000 0.022766 0.000000 0.000410
# 5 -0.018232 0.004020 0.005843 0.000000 0.046963 0.000000
# 6 0.000000 0.000000 0.000000 0.000410 0.000000 0.032709
#
#
# Mechanical properties :
#
#
# Convention : Reuss Voigt Hill
#
# Bulk Modulus (GPa) = 51.70987 96.19947 73.95467
# Shear Modulus (GPa) = 19.28563 29.72370 24.50467
#
# Velocity S-wave (km/s) = 3.32456 4.12733 3.74751
# Velocity P-wave (km/s) = 6.66125 8.82302 7.81723
#
# Compressibility (1/GPa) = 0.01933867
#
# Stress axis : x y z
#
# Youngs Moduli (GPa) = 42.07025 21.69163 66.72489
#
# Poissons Ratio (x) = 0.26734 0.47152
# Poissons Ratio (y) = 0.51849 0.89200
# Poissons Ratio (z) = 0.29729 0.28998
#
# Static dielectric constant tensor:
#      x y z
#    x 1.587180 0.000000 -0.006140 
#    y 0.000000 1.581310 0.000000 
#    z -0.006140 0.000000 1.571520 
# 
# From -- ./inp_files/86426.got.cif
#   From: 2010.05.17/outbox.cif.g08.bks.cpg/sg10_44_cif.got.tgz:86426.got - 2010.06.03 11:33:40.
