data_PCOD9149624
_publ_section_title
;
Structure prediction by ZEFSAII (Michael W. Deem and Ramdas Pophale) SiO2 
 PCOD9149624
Probable space group: P 2/M
;
_chemical_formula_sum "Si O2"
_cell_formula_units_Z 32
_cell_length_a 14.325105
_cell_length_b 9.080590
_cell_length_c 22.914673
_cell_angle_alpha 90.000000
_cell_angle_beta 36.251698
_cell_angle_gamma 90.000000
_cell_volume 1762.617442
_symmetry_space_group_name_H-M "P 2/M"
_symmetry_group_IT_number 10
_symmetry_cell_setting 'monoclinic'
loop_
_space_group_symop_operation_xyz
x,y,z
-x,y,-z
-x,-y,-z
x,-y,z
loop_
_atom_site_type_symbol
_atom_site_label
_atom_site_fract_x
_atom_site_fract_y
_atom_site_fract_z
Si Si1 0.134922 0.824398 0.385014
Si Si2 0.156200 0.174703 0.131717
Si Si3 0.806111 0.673373 0.763741
Si Si4 0.342703 0.167783 0.538708
Si Si5 0.460650 0.324953 0.253783
Si Si6 0.843656 0.675167 0.269143
Si Si7 0.432842 0.671415 0.925149
Si Si8 0.538166 0.325216 0.346127
O O1 0.113707 0.743521 0.333734
O O2 0.301591 0.767343 0.325870
O O3 0.000000 0.789602 0.500000
O O4 0.139056 0.000000 0.373917
O O5 0.151494 0.242932 0.198780
O O6 0.006156 0.243126 0.174057
O O7 0.146322 0.000000 0.138920
O O8 0.316791 0.227382 0.020113
O O9 0.842101 0.500000 0.750058
O O10 0.616273 0.688062 0.850534
O O11 0.500000 0.165454 0.500000
O O12 0.220108 0.266022 0.636416
O O13 0.401257 0.237221 0.448781
O O14 0.286423 0.000000 0.560460
O O15 0.420703 0.500000 0.270708
O O16 0.570429 0.296134 0.142398
O O17 0.536020 0.295307 0.278505
O O18 0.866063 0.500000 0.259692
O O19 0.705239 0.709442 0.292461
O O20 0.389643 0.500000 0.956909
O O21 0.511119 0.500000 0.368780
#
# Coordination Sequence:
#
# PCOD9149624 Si02
#       8
#     4   4   4   4   4   4   4   4
#     4  10  21  36  54  81 117 149 177 214 259 310
#     4  12  24  36  54  80 109 139 174 221 275 324
#     4  10  21  38  60  82 106 140 180 219 261 316
#     4   9  17  30  49  74 105 138 171 213 265 315
#     4   9  19  36  58  81 105 138 181 224 264 313
#     4  10  20  35  54  76 106 142 181 225 267 313
#     4   9  19  37  58  79 104 135 174 218 266 321
#     4   9  18  34  56  80 105 140 185 224 262 314
#
# _framework density 18.154819
#
# number of rings (size 3 to 8) (size 9 to 14) (size 15 to 20)
#    0.000    2.250    0.000    3.750    0.000    8.500 
#    0.000    3.125    0.000    3.750    0.000    0.000 
#    0.000    0.000    0.000    0.000    0.000    0.000 
#
# Total GULP energy -178652.043483 kJ/mol
# GULP energy per Si atom -5582.876359 kJ/mol
# Density = 1.811350 g / cm^3
# Si number density = 18.154819 Si / 1000 Ang^3
#
#
#
# Elastic Constant Matrix: (Units=GPa)
#
#
# Indices 1 2 3 4 5 6 
#
# 1 72.2630 42.9973 27.5093 0.0000 20.9292 0.0000
# 2 42.9973 99.9325 58.3987 0.0000 8.5030 0.0000
# 3 27.5093 58.3987 79.9649 0.0000 9.9898 0.0000
# 4 0.0000 0.0000 0.0000 15.9813 0.0000 -0.0270
# 5 20.9292 8.5030 9.9898 0.0000 16.7139 0.0000
# 6 0.0000 0.0000 0.0000 -0.0270 0.0000 22.1112
#
#
#
# Elastic Compliance Matrix: (Units=1/GPa)
#
#
# Indices 1 2 3 4 5 6 
#
# 1 0.028653 -0.010793 0.001968 0.000000 -0.031565 0.000000
# 2 -0.010793 0.021551 -0.013341 0.000000 0.010525 0.000000
# 3 0.001968 -0.013341 0.022728 0.000000 -0.009262 0.000000
# 4 0.000000 0.000000 0.000000 0.062573 0.000000 0.000076
# 5 -0.031565 0.010525 -0.009262 0.000000 0.099538 0.000000
# 6 0.000000 0.000000 0.000000 0.000076 0.000000 0.045226
#
#
# Mechanical properties :
#
#
# Convention : Reuss Voigt Hill
#
# Bulk Modulus (GPa) = 34.96286 56.66344 45.81315
# Shear Modulus (GPa) = 14.96407 19.17831 17.07119
#
# Velocity S-wave (km/s) = 2.87409 3.25372 3.06978
# Velocity P-wave (km/s) = 5.50580 6.73755 6.15258
#
# Compressibility (1/GPa) = 0.02860178
#
# Stress axis : x y z
#
# Youngs Moduli (GPa) = 34.90054 46.40146 43.99795
#
# Poissons Ratio (x) = 0.50080 -0.08660
# Poissons Ratio (y) = 0.37667 0.58697
# Poissons Ratio (z) = -0.06869 0.61903
#
# Static dielectric constant tensor:
#      x y z
#    x 1.636020 0.000000 -0.008170 
#    y 0.000000 1.606580 0.000000 
#    z -0.008170 0.000000 1.609080 
# 
# From -- ./inp_files/89565.got.cif
#   From: 2010.05.17/outbox.cif.g08.bks.cpg/sg10_45_cif.got.tgz:89565.got - 2010.06.03 11:33:40.
