data_PCOD9149771
_publ_section_title
;
Structure prediction by ZEFSAII (Michael W. Deem and Ramdas Pophale) SiO2 
 PCOD9149771
Probable space group: P 2/M
;
_chemical_formula_sum "Si O2"
_cell_formula_units_Z 28
_cell_length_a 19.064060
_cell_length_b 7.629837
_cell_length_c 19.203382
_cell_angle_alpha 90.000000
_cell_angle_beta 28.755636
_cell_angle_gamma 90.000000
_cell_volume 1343.758339
_symmetry_space_group_name_H-M "P 2/M"
_symmetry_group_IT_number 10
_symmetry_cell_setting 'monoclinic'
loop_
_space_group_symop_operation_xyz
x,y,z
-x,y,-z
-x,-y,-z
x,-y,z
loop_
_atom_site_type_symbol
_atom_site_label
_atom_site_fract_x
_atom_site_fract_y
_atom_site_fract_z
Si Si1 0.551550 0.786334 0.380277
Si Si2 0.877156 0.786323 0.053961
Si Si3 0.535290 0.213718 0.693513
Si Si4 0.649296 0.800566 0.841333
Si Si5 0.881682 0.301602 0.745852
Si Si6 0.209929 0.211917 0.019993
Si Si7 0.787152 0.787277 0.578378
O O1 0.500000 0.722624 0.500000
O O2 0.718596 0.738235 0.220857
O O3 0.462914 0.730573 0.388805
O O4 0.545217 0.000000 0.387004
O O5 0.884475 0.000000 0.046793
O O6 0.878908 0.730708 0.971597
O O7 0.000000 0.723147 0.000000
O O8 0.672730 0.270718 0.618983
O O9 0.534869 0.000000 0.694483
O O10 0.378975 0.267178 0.862161
O O11 0.768598 0.807241 0.798267
O O12 0.725090 0.724104 0.706659
O O13 0.608316 0.000000 0.855954
O O14 0.500000 0.717960 0.000000
O O15 0.843734 0.500000 0.761741
O O16 0.855792 0.271528 0.850100
O O17 0.048541 0.269017 0.580026
O O18 0.209900 0.000000 0.020409
O O19 0.790682 0.000000 0.575830
#
# Coordination Sequence:
#
# PCOD9149771 Si02
#       7
#     4   4   4   4   4   4   4
#     4   8  13  21  36  64 103 135 157 194 251 307
#     4   8  14  24  42  72 104 131 163 208 260 308
#     4   8  15  29  50  75 100 131 172 213 253 301
#     4  10  21  39  63  85 103 129 169 212 255 309
#     4  12  25  37  51  76 110 141 172 211 255 304
#     4   9  17  33  55  76 103 138 177 218 258 307
#     4  10  20  35  56  79 103 133 170 212 258 305
#
# _framework density 20.837081999999999
#
# number of rings (size 3 to 8) (size 9 to 14) (size 15 to 20)
#    0.000    2.714    0.000    4.286    0.000    6.000 
#    0.000    6.429    0.000    0.429    0.000    0.000 
#    0.000    5.143    0.000    0.000    0.000    0.000 
#
# Total GULP energy -156254.227177 kJ/mol
# GULP energy per Si atom -5580.508113 kJ/mol
# Density = 2.078966 g / cm^3
# Si number density = 20.837082 Si / 1000 Ang^3
#
#
#
# Elastic Constant Matrix: (Units=GPa)
#
#
# Indices 1 2 3 4 5 6 
#
# 1 169.6882 -4.0623 100.4598 0.0000 7.2832 0.0000
# 2 -4.0623 47.4331 0.9029 0.0000 0.9562 0.0000
# 3 100.4598 0.9029 150.9701 0.0000 21.8700 0.0000
# 4 0.0000 0.0000 0.0000 237.1107 0.0000 -58.5781
# 5 7.2832 0.9562 21.8700 0.0000 40.4305 0.0000
# 6 0.0000 0.0000 0.0000 -58.5781 0.0000 -8.2776
#
#
#
# Elastic Compliance Matrix: (Units=1/GPa)
#
#
# Indices 1 2 3 4 5 6 
#
# 1 0.009902 0.000940 -0.006871 0.000000 0.001911 0.000000
# 2 0.000940 0.021182 -0.000711 0.000000 -0.000286 0.000000
# 3 -0.006871 -0.000711 0.011956 0.000000 -0.005212 0.000000
# 4 0.000000 0.000000 0.000000 0.001535 0.000000 -0.010860
# 5 0.001911 -0.000286 -0.005212 0.000000 0.027216 0.000000
# 6 0.000000 0.000000 0.000000 -0.010860 0.000000 -0.043957
#
#
# Mechanical properties :
#
#
# Convention : Reuss Voigt Hill
#
# Bulk Modulus (GPa) = 33.60738 62.52135 48.06437
# Shear Modulus (GPa) = 97.97242 71.90546 84.93894
#
# Velocity S-wave (km/s) = 6.86443 5.88076 6.39155
# Velocity P-wave (km/s) = 8.88768 8.72818 8.80829
#
# Compressibility (1/GPa) = 0.02975537
#
# Stress axis : x y z
#
# Youngs Moduli (GPa) = 100.99349 47.20954 83.64340
#
# Poissons Ratio (x) = -0.04439 0.57474
# Poissons Ratio (y) = -0.09496 0.05947
# Poissons Ratio (z) = 0.69395 0.03356
#
# Static dielectric constant tensor:
#      x y z
#    x 1.732970 0.000000 0.013760 
#    y 0.000000 1.774090 0.000000 
#    z 0.013760 0.000000 1.707050 
# 
# From -- ./inp_files/78748.got.cif
#   From: 2010.05.17/outbox.cif.g08.bks.cpg/sg10_40_cif.got.tgz:78748.got - 2010.06.03 11:33:40.
