data_PCOD9149906
_publ_section_title
;
Structure prediction by ZEFSAII (Michael W. Deem and Ramdas Pophale) SiO2 
 PCOD9149906
Probable space group: P 2/M
;
_chemical_formula_sum "Si O2"
_cell_formula_units_Z 28
_cell_length_a 11.947062
_cell_length_b 9.123907
_cell_length_c 13.695726
_cell_angle_alpha 90.000000
_cell_angle_beta 57.503723
_cell_angle_gamma 90.000000
_cell_volume 1259.140505
_symmetry_space_group_name_H-M "P 2/M"
_symmetry_group_IT_number 10
_symmetry_cell_setting 'monoclinic'
loop_
_space_group_symop_operation_xyz
x,y,z
-x,y,-z
-x,-y,-z
x,-y,z
loop_
_atom_site_type_symbol
_atom_site_label
_atom_site_fract_x
_atom_site_fract_y
_atom_site_fract_z
Si Si1 0.535864 0.325745 0.868359
Si Si2 0.802621 0.168217 0.761680
Si Si3 0.189085 0.753327 0.721585
Si Si4 0.094105 0.840091 0.561380
Si Si5 0.100696 0.331807 0.091424
Si Si6 0.349482 0.500000 0.540712
Si Si7 0.300074 0.833855 0.870322
Si Si8 0.148848 0.500000 0.482138
O O1 0.556202 0.500000 0.849566
O O2 0.670142 0.238326 0.779970
O O3 0.416570 0.269014 0.856761
O O4 0.500000 0.296407 0.000000
O O5 0.841213 0.275427 0.832765
O O6 0.933217 0.164965 0.633452
O O7 0.778450 0.000000 0.804965
O O8 0.130368 0.846239 0.660168
O O9 0.280995 0.636160 0.626203
O O10 0.272709 0.826737 0.768066
O O11 0.057591 0.679034 0.829188
O O12 0.139258 0.677890 0.509562
O O13 0.142171 0.000000 0.500728
O O14 0.140393 0.500000 0.055685
O O15 0.165738 0.224666 0.983093
O O16 0.500000 0.500000 0.500000
O O17 0.306632 0.500000 0.447053
O O18 0.328421 0.000000 0.887178
O O19 0.000000 0.500000 0.500000
#
# Coordination Sequence:
#
# PCOD9149906 Si02
#       8
#     4   4   4   4   4   2   4   2
#     4  11  23  37  53  77 118 173 220 258 304 366
#     4  10  20  35  57  82 116 164 215 257 307 365
#     4  10  22  39  64  91 123 164 211 261 316 382
#     4   9  20  39  65  94 125 161 204 261 324 388
#     4  11  21  34  58  87 125 164 209 256 307 363
#     4  10  22  46  73  97 128 167 209 267 338 407
#     4  12  25  37  56  87 129 170 215 264 309 372
#     4  10  22  42  70 105 128 156 202 265 336 411
#
# _framework density 22.237390999999999
#
# number of rings (size 3 to 8) (size 9 to 14) (size 15 to 20)
#    0.000    1.571    2.143    2.571    6.000    3.714 
#    2.571    0.000    0.000   10.714    0.000    0.000 
#    0.000    0.000    0.000    0.000    0.000    0.000 
#
# Total GULP energy -155921.064265 kJ/mol
# GULP energy per Si atom -5568.609438 kJ/mol
# Density = 2.218678 g / cm^3
# Si number density = 22.237391 Si / 1000 Ang^3
#
#
#
# Elastic Constant Matrix: (Units=GPa)
#
#
# Indices 1 2 3 4 5 6 
#
# 1 158.8938 24.9394 20.7362 0.0000 -11.2472 0.0000
# 2 24.9394 155.0649 13.7122 0.0000 -3.5262 0.0000
# 3 20.7362 13.7122 14.4611 0.0000 -7.5462 0.0000
# 4 0.0000 0.0000 0.0000 21.7065 0.0000 7.5845
# 5 -11.2472 -3.5262 -7.5462 0.0000 40.6394 0.0000
# 6 0.0000 0.0000 0.0000 7.5845 0.0000 32.1861
#
#
#
# Elastic Compliance Matrix: (Units=1/GPa)
#
#
# Indices 1 2 3 4 5 6 
#
# 1 0.007755 -0.000291 -0.010782 0.000000 0.000119 0.000000
# 2 -0.000291 0.007068 -0.006651 0.000000 -0.000702 0.000000
# 3 -0.010782 -0.006651 0.098615 0.000000 0.014751 0.000000
# 4 0.000000 0.000000 0.000000 0.050203 0.000000 -0.011830
# 5 0.000119 -0.000702 0.014751 0.000000 0.027318 0.000000
# 6 0.000000 0.000000 0.000000 -0.011830 0.000000 0.033857
#
#
# Mechanical properties :
#
#
# Convention : Reuss Voigt Hill
#
# Bulk Modulus (GPa) = 12.82213 49.68840 31.25527
# Shear Modulus (GPa) = 17.46673 36.84188 27.15430
#
# Velocity S-wave (km/s) = 2.80566 4.07474 3.49823
# Velocity P-wave (km/s) = 4.03413 6.67316 5.51386
#
# Compressibility (1/GPa) = 0.07799016
#
# Stress axis : x y z
#
# Youngs Moduli (GPa) = 128.95482 141.48493 10.14046
#
# Poissons Ratio (x) = 0.04119 0.10933
# Poissons Ratio (y) = 0.03754 0.06744
# Poissons Ratio (z) = 1.39034 0.94101
#
# Static dielectric constant tensor:
#      x y z
#    x 1.829490 0.000000 0.059060 
#    y 0.000000 1.769880 0.000000 
#    z 0.059060 0.000000 1.885510 
# 
# From -- ./inp_files/63692.got.cif
#   From: 2010.05.17/outbox.cif.g08.bks.cpg/sg10_32_cif.got.tgz:63692.got - 2010.06.03 11:33:40.
