data_PCOD9149948
_publ_section_title
;
Structure prediction by ZEFSAII (Michael W. Deem and Ramdas Pophale) SiO2 
 PCOD9149948
Probable space group: P 2/M
;
_chemical_formula_sum "Si O2"
_cell_formula_units_Z 32
_cell_length_a 11.870238
_cell_length_b 7.601178
_cell_length_c 15.404268
_cell_angle_alpha 90.000000
_cell_angle_beta 93.712755
_cell_angle_gamma 90.000000
_cell_volume 1386.976019
_symmetry_space_group_name_H-M "P 2/M"
_symmetry_group_IT_number 10
_symmetry_cell_setting 'monoclinic'
loop_
_space_group_symop_operation_xyz
x,y,z
-x,y,-z
-x,-y,-z
x,-y,z
loop_
_atom_site_type_symbol
_atom_site_label
_atom_site_fract_x
_atom_site_fract_y
_atom_site_fract_z
Si Si1 0.270497 0.793084 0.150810
Si Si2 0.237702 0.715378 0.812140
Si Si3 0.509401 0.286737 0.218069
Si Si4 0.235183 0.789911 0.523951
Si Si5 0.806118 0.203546 0.667545
Si Si6 0.063118 0.290793 0.654555
Si Si7 0.121501 0.295824 0.981288
Si Si8 0.529322 0.297763 0.408641
O O1 0.404906 0.768230 0.153851
O O2 0.231360 0.718073 0.242505
O O3 0.203247 0.711493 0.067913
O O4 0.243590 0.000000 0.147715
O O5 0.240912 0.500000 0.811722
O O6 0.366876 0.773044 0.805472
O O7 0.154695 0.769956 0.730284
O O8 0.183912 0.777915 0.899889
O O9 0.511370 0.500000 0.221570
O O10 0.488032 0.220816 0.315842
O O11 0.240541 0.721206 0.425417
O O12 0.117055 0.749808 0.563931
O O13 0.334788 0.706214 0.585440
O O14 0.250093 0.000000 0.524337
O O15 0.941167 0.210315 0.665229
O O16 0.770046 0.000000 0.667142
O O17 0.049932 0.500000 0.662138
O O18 0.099256 0.500000 0.957536
O O19 0.000000 0.216451 0.000000
O O20 0.500000 0.213060 0.500000
O O21 0.490097 0.500000 0.409642
#
# Coordination Sequence:
#
# PCOD9149948 Si02
#       8
#     4   4   4   4   4   4   4   4
#     4  11  24  41  60  86 121 155 194 244 293 347
#     4   9  19  37  61  87 117 151 189 243 301 351
#     4  10  20  38  60  83 117 155 195 242 294 350
#     4  11  22  36  55  81 118 160 198 238 293 360
#     4  10  23  40  55  79 119 161 196 237 296 356
#     4  11  21  37  61  88 117 150 198 250 294 346
#     4  10  21  40  66  92 116 149 195 239 292 362
#     4  10  20  35  57  84 115 153 202 256 296 335
#
# _framework density 23.071777000000001
#
# number of rings (size 3 to 8) (size 9 to 14) (size 15 to 20)
#    0.000    1.750    1.250    3.000    0.000    6.000 
#    0.000    4.375    0.000    0.000    0.000    0.000 
#    0.000    0.000    0.000    0.000    0.000    0.000 
#
# Total GULP energy -178941.371696 kJ/mol
# GULP energy per Si atom -5591.917866 kJ/mol
# Density = 2.301926 g / cm^3
# Si number density = 23.071777 Si / 1000 Ang^3
#
#
#
# Elastic Constant Matrix: (Units=GPa)
#
#
# Indices 1 2 3 4 5 6 
#
# 1 101.8140 -4.9200 28.6300 0.0000 6.4352 0.0000
# 2 -4.9200 57.7327 1.0931 0.0000 -7.0049 0.0000
# 3 28.6300 1.0931 119.0406 0.0000 -3.5015 0.0000
# 4 0.0000 0.0000 0.0000 19.1226 0.0000 13.5166
# 5 6.4352 -7.0049 -3.5015 0.0000 38.7453 0.0000
# 6 0.0000 0.0000 0.0000 13.5166 0.0000 31.4095
#
#
#
# Elastic Compliance Matrix: (Units=1/GPa)
#
#
# Indices 1 2 3 4 5 6 
#
# 1 0.010719 0.000735 -0.002640 0.000000 -0.001886 0.000000
# 2 0.000735 0.017761 -0.000250 0.000000 0.003066 0.000000
# 3 -0.002640 -0.000250 0.009073 0.000000 0.001213 0.000000
# 4 0.000000 0.000000 0.000000 0.075155 0.000000 -0.032342
# 5 -0.001886 0.003066 0.001213 0.000000 0.026787 0.000000
# 6 0.000000 0.000000 0.000000 -0.032342 0.000000 0.045755
#
#
# Mechanical properties :
#
#
# Convention : Reuss Voigt Hill
#
# Bulk Modulus (GPa) = 30.08178 36.46596 33.27387
# Shear Modulus (GPa) = 24.92013 34.77442 29.84727
#
# Velocity S-wave (km/s) = 3.29007 3.88651 3.60066
# Velocity P-wave (km/s) = 5.24399 5.99831 5.63379
#
# Compressibility (1/GPa) = 0.03324271
#
# Stress axis : x y z
#
# Youngs Moduli (GPa) = 93.29262 56.30436 110.21152
#
# Poissons Ratio (x) = -0.04136 0.29098
# Poissons Ratio (y) = -0.06853 0.02751
# Poissons Ratio (z) = 0.24631 0.01405
#
# Static dielectric constant tensor:
#      x y z
#    x 1.854020 0.000000 -0.025600 
#    y 0.000000 1.856870 0.000000 
#    z -0.025600 0.000000 1.857020 
# 
# From -- ./inp_files/63810.got.cif
#   From: 2010.05.17/outbox.cif.g08.bks.cpg/sg10_32_cif.got.tgz:63810.got - 2010.06.03 11:33:40.
