data_PCOD9149790
_publ_section_title
;
Structure prediction by ZEFSAII (Michael W. Deem and Ramdas Pophale) SiO2 
 PCOD9149790
Probable space group: P 2/M
;
_chemical_formula_sum "Si O2"
_cell_formula_units_Z 24
_cell_length_a 9.949145
_cell_length_b 7.649054
_cell_length_c 22.381999
_cell_angle_alpha 90.000000
_cell_angle_beta 33.324785
_cell_angle_gamma 90.000000
_cell_volume 935.768926
_symmetry_space_group_name_H-M "P 2/M"
_symmetry_group_IT_number 10
_symmetry_cell_setting 'monoclinic'
loop_
_space_group_symop_operation_xyz
x,y,z
-x,y,-z
-x,-y,-z
x,-y,z
loop_
_atom_site_type_symbol
_atom_site_label
_atom_site_fract_x
_atom_site_fract_y
_atom_site_fract_z
Si Si1 0.278958 0.793487 0.330292
Si Si2 0.155955 0.786362 0.596421
Si Si3 0.016737 0.301665 0.868388
Si Si4 0.627381 0.709592 0.099001
Si Si5 0.522868 0.793951 0.623364
Si Si6 0.818053 0.208196 0.824453
O O1 0.528711 0.770691 0.199613
O O2 0.312594 0.718481 0.383766
O O3 0.057595 0.731947 0.371125
O O4 0.235431 0.000000 0.352868
O O5 0.400502 0.728837 0.470809
O O6 0.052084 0.727484 0.698636
O O7 0.160417 0.000000 0.601200
O O8 0.086716 0.500000 0.856691
O O9 0.250877 0.219013 0.749927
O O10 0.818482 0.297563 0.888341
O O11 0.881408 0.224189 0.976348
O O12 0.643692 0.500000 0.094945
O O13 0.413880 0.760594 0.131636
O O14 0.576150 0.000000 0.599952
O O15 0.835541 0.000000 0.828334
#
# Coordination Sequence:
#
# PCOD9149790 Si02
#       6
#     4   4   4   4   4   4
#     4   9  18  34  58  84 106 134 177 224 263 306
#     4   8  16  33  57  83 107 133 170 218 269 314
#     4  11  24  38  51  74 111 148 178 213 264 319
#     4  10  21  37  56  77 106 143 177 215 266 318
#     4  10  20  35  56  80 108 142 178 216 260 313
#     4  10  20  36  60  84 104 132 176 225 265 309
#
# _framework density 25.647355999999998
#
# number of rings (size 3 to 8) (size 9 to 14) (size 15 to 20)
#    0.000    2.333    0.000    3.500    0.000    8.667 
#    0.000   10.833    0.000    5.000    0.000    0.000 
#    0.000    0.000    0.000    0.000    0.000    0.000 
#
# Total GULP energy -134100.262923 kJ/mol
# GULP energy per Si atom -5587.510955 kJ/mol
# Density = 2.558898 g / cm^3
# Si number density = 25.647356 Si / 1000 Ang^3
#
#
#
# Elastic Constant Matrix: (Units=GPa)
#
#
# Indices 1 2 3 4 5 6 
#
# 1 57.0535 -7.3305 17.6433 0.0000 16.0702 0.0000
# 2 -7.3305 54.0035 -6.9504 0.0000 1.1028 0.0000
# 3 17.6433 -6.9504 192.9812 0.0000 19.8526 0.0000
# 4 0.0000 0.0000 0.0000 26.6980 0.0000 -4.2904
# 5 16.0702 1.1028 19.8526 0.0000 38.2962 0.0000
# 6 0.0000 0.0000 0.0000 -4.2904 0.0000 25.6959
#
#
#
# Elastic Compliance Matrix: (Units=1/GPa)
#
#
# Indices 1 2 3 4 5 6 
#
# 1 0.020487 0.002829 -0.000928 0.000000 -0.008197 0.000000
# 2 0.002829 0.019026 0.000639 0.000000 -0.002066 0.000000
# 3 -0.000928 0.000639 0.005547 0.000000 -0.002505 0.000000
# 4 0.000000 0.000000 0.000000 0.038489 0.000000 0.006426
# 5 -0.008197 -0.002066 -0.002505 0.000000 0.030910 0.000000
# 6 0.000000 0.000000 0.000000 0.006426 0.000000 0.039990
#
#
# Mechanical properties :
#
#
# Convention : Reuss Voigt Hill
#
# Bulk Modulus (GPa) = 19.94406 34.52923 27.23665
# Shear Modulus (GPa) = 30.10570 38.18306 34.14438
#
# Velocity S-wave (km/s) = 3.42984 3.86265 3.65266
# Velocity P-wave (km/s) = 4.84543 5.77803 5.33216
#
# Compressibility (1/GPa) = 0.05014025
#
# Stress axis : x y z
#
# Youngs Moduli (GPa) = 48.81209 52.56028 180.26542
#
# Poissons Ratio (x) = -0.14869 0.16726
# Poissons Ratio (y) = -0.13808 -0.11522
# Poissons Ratio (z) = 0.04529 -0.03359
#
# Static dielectric constant tensor:
#      x y z
#    x 2.050030 0.000000 -0.059550 
#    y 0.000000 1.962620 0.000000 
#    z -0.059550 0.000000 2.067580 
# 
# From -- ./inp_files/45134.got.cif
#   From: 2010.05.17/outbox.cif.g08.bks.cpg/sg10_23_cif.got.tgz:45134.got - 2010.06.03 11:33:40.
