data_PCOD9149795
_publ_section_title
;
Structure prediction by ZEFSAII (Michael W. Deem and Ramdas Pophale) SiO2 
 PCOD9149795
Probable space group: P 2/M
;
_chemical_formula_sum "Si O2"
_cell_formula_units_Z 30
_cell_length_a 8.638592
_cell_length_b 15.315409
_cell_length_c 24.827373
_cell_angle_alpha 90.000000
_cell_angle_beta 31.059867
_cell_angle_gamma 90.000000
_cell_volume 1694.712363
_symmetry_space_group_name_H-M "P 2/M"
_symmetry_group_IT_number 10
_symmetry_cell_setting 'monoclinic'
loop_
_space_group_symop_operation_xyz
x,y,z
-x,y,-z
-x,-y,-z
x,-y,z
loop_
_atom_site_type_symbol
_atom_site_label
_atom_site_fract_x
_atom_site_fract_y
_atom_site_fract_z
Si Si1 0.000000 0.651433 0.000000
Si Si2 0.492427 0.255320 0.224659
Si Si3 0.351812 0.900756 0.887434
Si Si4 0.807057 0.594218 0.942799
Si Si5 0.990062 0.402292 0.374483
Si Si6 0.170142 0.739679 0.770957
Si Si7 0.599428 0.401623 0.381767
Si Si8 0.733007 0.100328 0.882540
O O1 0.246500 0.702593 0.891128
O O2 0.812102 0.605340 0.006721
O O3 0.460129 0.161834 0.206968
O O4 0.580197 0.236251 0.259902
O O5 0.227639 0.325188 0.303629
O O6 0.524847 0.896926 0.892103
O O7 0.346104 0.000000 0.869030
O O8 0.000000 0.875723 0.000000
O O9 0.960906 0.500000 0.887767
O O10 0.963777 0.676199 0.868740
O O11 0.500000 0.590104 0.000000
O O12 0.126090 0.500000 0.339259
O O13 0.810171 0.400370 0.371781
O O14 0.739905 0.392087 0.495482
O O15 0.300445 0.677164 0.685970
O O16 0.984066 0.824232 0.807439
O O17 0.628153 0.500000 0.349354
O O18 0.848529 0.000000 0.854111
O O19 0.500000 0.117949 0.000000
#
# Coordination Sequence:
#
# PCOD9149795 Si02
#       8
#     2   4   4   4   4   4   4   4
#     4  10  23  36  49  76 116 150 185 230 269 338
#     4  11  22  35  54  81 110 148 186 223 283 330
#     4  10  20  35  56  80 109 144 183 228 274 329
#     4  10  22  35  49  74 107 150 187 219 272 331
#     4   9  20  37  59  82 108 145 189 231 279 329
#     4  11  22  34  54  78 111 143 181 228 276 333
#     4   9  19  38  59  82 108 142 189 238 278 325
#     4  10  21  35  55  81 110 146 186 228 278 333
#
# _framework density 17.702119
#
# number of rings (size 3 to 8) (size 9 to 14) (size 15 to 20)
#    0.000    2.000    0.667    3.400    5.600    5.333 
#    0.000    1.333    0.000    0.800    0.000    5.600 
#    0.000    0.000    0.000    0.000    0.000    0.000 
#
# Total GULP energy -167038.527830 kJ/mol
# GULP energy per Si atom -5567.950928 kJ/mol
# Density = 1.766183 g / cm^3
# Si number density = 17.702119 Si / 1000 Ang^3
#
#
#
# Elastic Constant Matrix: (Units=GPa)
#
#
# Indices 1 2 3 4 5 6 
#
# 1 77.5095 47.4016 37.4994 0.0000 8.4692 0.0000
# 2 47.4016 141.2499 64.9075 0.0000 0.0959 0.0000
# 3 37.4994 64.9075 67.6207 0.0000 5.1164 0.0000
# 4 0.0000 0.0000 0.0000 31.0392 0.0000 -1.6277
# 5 8.4692 0.0959 5.1164 0.0000 25.5046 0.0000
# 6 0.0000 0.0000 0.0000 -1.6277 0.0000 31.4887
#
#
#
# Elastic Compliance Matrix: (Units=1/GPa)
#
#
# Indices 1 2 3 4 5 6 
#
# 1 0.018708 -0.002994 -0.007140 0.000000 -0.004769 0.000000
# 2 -0.002994 0.013296 -0.011346 0.000000 0.003220 0.000000
# 3 -0.007140 -0.011346 0.029910 0.000000 -0.003586 0.000000
# 4 0.000000 0.000000 0.000000 0.032305 0.000000 0.001670
# 5 -0.004769 0.003220 -0.003586 0.000000 0.041500 0.000000
# 6 0.000000 0.000000 0.000000 0.001670 0.000000 0.031844
#
#
# Mechanical properties :
#
#
# Convention : Reuss Voigt Hill
#
# Bulk Modulus (GPa) = 52.75847 65.11079 58.93463
# Shear Modulus (GPa) = 23.05859 26.71127 24.88493
#
# Velocity S-wave (km/s) = 3.61306 3.88871 3.75341
# Velocity P-wave (km/s) = 6.87559 7.55142 7.22142
#
# Compressibility (1/GPa) = 0.01895430
#
# Stress axis : x y z
#
# Youngs Moduli (GPa) = 53.45298 75.21190 33.43400
#
# Poissons Ratio (x) = 0.22518 0.23872
# Poissons Ratio (y) = 0.16003 0.37933
# Poissons Ratio (z) = 0.38165 0.85333
#
# Static dielectric constant tensor:
#      x y z
#    x 1.673120 0.000000 0.003100 
#    y 0.000000 1.655890 0.000000 
#    z 0.003100 0.000000 1.589940 
# 
# From -- ./inp_files/88195.got.cif
#   From: 2010.05.17/outbox.cif.g08.bks.cpg/sg10_45_cif.got.tgz:88195.got - 2010.06.03 11:33:40.
