data_PCOD9149611
_publ_section_title
;
Structure prediction by ZEFSAII (Michael W. Deem and Ramdas Pophale) SiO2 
 PCOD9149611
Probable space group: P 2/M
;
_chemical_formula_sum "Si O2"
_cell_formula_units_Z 26
_cell_length_a 12.157310
_cell_length_b 15.349743
_cell_length_c 8.384476
_cell_angle_alpha 90.000000
_cell_angle_beta 120.452912
_cell_angle_gamma 90.000000
_cell_volume 1348.791930
_symmetry_space_group_name_H-M "P 2/M"
_symmetry_group_IT_number 10
_symmetry_cell_setting 'monoclinic'
loop_
_space_group_symop_operation_xyz
x,y,z
-x,y,-z
-x,-y,-z
x,-y,z
loop_
_atom_site_type_symbol
_atom_site_label
_atom_site_fract_x
_atom_site_fract_y
_atom_site_fract_z
Si Si1 0.424308 0.597489 0.279021
Si Si2 0.912476 0.600872 0.679735
Si Si3 0.151268 0.285926 0.779668
Si Si4 0.326054 0.598327 0.741393
Si Si5 0.000000 0.851414 0.500000
Si Si6 0.797048 0.733481 0.831850
Si Si7 0.902287 0.096638 0.776196
O O1 0.500000 0.590913 0.500000
O O2 0.363078 0.500000 0.211020
O O3 0.534714 0.610121 0.229285
O O4 0.332706 0.679861 0.234205
O O5 0.932215 0.500000 0.732413
O O6 0.785921 0.606515 0.475285
O O7 0.882203 0.661188 0.807051
O O8 0.040055 0.641147 0.697443
O O9 0.283571 0.332702 0.840235
O O10 0.117436 0.212642 0.627380
O O11 0.152012 0.245482 0.955075
O O12 0.318075 0.500000 0.797621
O O13 0.033701 0.895864 0.354485
O O14 0.808039 0.821230 0.735629
O O15 0.842552 0.000000 0.739696
O O16 0.000000 0.100410 0.000000
#
# Coordination Sequence:
#
# PCOD9149611 Si02
#       7
#     4   4   4   4   2   4   4
#     4  10  21  38  59  83 118 171 220 256 297 354
#     4  11  20  33  54  82 120 159 197 244 304 365
#     4  12  22  34  57  88 125 160 198 252 314 368
#     4  10  20  35  53  79 116 165 214 249 289 354
#     4  12  21  40  61  94 126 162 195 244 311 388
#     4  12  22  38  58  89 123 156 205 257 302 372
#     4  11  23  42  67  97 127 157 199 255 318 384
#
# _framework density 19.276510999999999
#
# number of rings (size 3 to 8) (size 9 to 14) (size 15 to 20)
#    0.000    0.923    6.154    1.615    0.000    4.923 
#    0.000    1.538    0.000    0.462    0.000    1.077 
#    0.000    0.000    0.000    0.000    0.000    0.000 
#
# Total GULP energy -145062.995607 kJ/mol
# GULP energy per Si atom -5579.345985 kJ/mol
# Density = 1.923264 g / cm^3
# Si number density = 19.276511 Si / 1000 Ang^3
#
#
#
# Elastic Constant Matrix: (Units=GPa)
#
#
# Indices 1 2 3 4 5 6 
#
# 1 87.3896 53.7864 20.3403 0.0000 -10.5969 0.0000
# 2 53.7864 136.3751 26.7740 0.0000 -5.2380 0.0000
# 3 20.3403 26.7740 77.0582 0.0000 -19.9031 0.0000
# 4 0.0000 0.0000 0.0000 17.6048 0.0000 -0.4855
# 5 -10.5969 -5.2380 -19.9031 0.0000 34.7154 0.0000
# 6 0.0000 0.0000 0.0000 -0.4855 0.0000 27.0460
#
#
#
# Elastic Compliance Matrix: (Units=1/GPa)
#
#
# Indices 1 2 3 4 5 6 
#
# 1 0.015713 -0.005819 -0.001307 0.000000 0.003169 0.000000
# 2 -0.005819 0.010030 -0.002368 0.000000 -0.001620 0.000000
# 3 -0.001307 -0.002368 0.016374 0.000000 0.008631 0.000000
# 4 0.000000 0.000000 0.000000 0.056831 0.000000 0.001020
# 5 0.003169 -0.001620 0.008631 0.000000 0.034477 0.000000
# 6 0.000000 0.000000 0.000000 0.001020 0.000000 0.036992
#
#
# Mechanical properties :
#
#
# Convention : Reuss Voigt Hill
#
# Bulk Modulus (GPa) = 43.23388 55.84715 49.54052
# Shear Modulus (GPa) = 25.36587 29.20138 27.28362
#
# Velocity S-wave (km/s) = 3.63146 3.89635 3.76624
# Velocity P-wave (km/s) = 6.32932 7.01973 6.68345
#
# Compressibility (1/GPa) = 0.02313001
#
# Stress axis : x y z
#
# Youngs Moduli (GPa) = 63.64190 99.69846 61.07140
#
# Poissons Ratio (x) = 0.58013 0.07984
# Poissons Ratio (y) = 0.37032 0.14459
# Poissons Ratio (z) = 0.08320 0.23604
#
# Static dielectric constant tensor:
#      x y z
#    x 1.687670 0.000000 -0.028250 
#    y 0.000000 1.660300 0.000000 
#    z -0.028250 0.000000 1.765060 
# 
# From -- ./inp_files/24795.got.cif
#   From: 2010.05.17/outbox.cif.g08.bks.cpg/sg10_13_cif.got.tgz:24795.got - 2010.06.03 11:33:40.
