data_PCOD9149715
_publ_section_title
;
Structure prediction by ZEFSAII (Michael W. Deem and Ramdas Pophale) SiO2 
 PCOD9149715
Probable space group: P 2/M
;
_chemical_formula_sum "Si O2"
_cell_formula_units_Z 28
_cell_length_a 9.492323
_cell_length_b 7.821067
_cell_length_c 30.100349
_cell_angle_alpha 90.000000
_cell_angle_beta 37.668088
_cell_angle_gamma 90.000000
_cell_volume 1365.565583
_symmetry_space_group_name_H-M "P 2/M"
_symmetry_group_IT_number 10
_symmetry_cell_setting 'monoclinic'
loop_
_space_group_symop_operation_xyz
x,y,z
-x,y,-z
-x,-y,-z
x,-y,z
loop_
_atom_site_type_symbol
_atom_site_label
_atom_site_fract_x
_atom_site_fract_y
_atom_site_fract_z
Si Si1 0.324489 0.791615 0.730742
Si Si2 0.673208 0.698344 0.994014
Si Si3 0.517743 0.198654 0.128171
Si Si4 0.427236 0.707502 0.567173
Si Si5 0.997766 0.702601 0.730469
Si Si6 0.745850 0.798289 0.569137
Si Si7 0.803395 0.200362 0.139918
O O1 0.571707 0.730674 0.650268
O O2 0.273140 0.729280 0.793137
O O3 0.131204 0.735559 0.743542
O O4 0.321933 0.000000 0.731007
O O5 0.714072 0.500000 0.972521
O O6 0.922557 0.784156 0.932551
O O7 0.500000 0.770468 0.000000
O O8 0.560513 0.711647 0.070578
O O9 0.250144 0.211003 0.207848
O O10 0.674218 0.272240 0.128936
O O11 0.581504 0.000000 0.105289
O O12 0.500000 0.762575 0.500000
O O13 0.432348 0.500000 0.567449
O O14 0.608237 0.775365 0.557790
O O15 0.174541 0.760647 0.647734
O O16 0.961704 0.500000 0.734857
O O17 0.000000 0.722378 0.500000
O O18 0.772887 0.000000 0.571963
O O19 0.740059 0.000000 0.156477
#
# Coordination Sequence:
#
# PCOD9149715 Si02
#       7
#     4   4   4   4   4   4   4
#     4   9  18  35  56  77 106 143 179 218 267 319
#     4  11  24  40  59  83 109 139 177 218 260 310
#     4  11  23  38  57  82 111 141 175 216 264 317
#     4   9  19  35  53  75 106 143 181 221 266 317
#     4  10  20  35  55  79 107 140 181 224 264 313
#     4   9  18  32  52  79 108 139 178 223 268 315
#     4  10  22  38  56  80 109 141 177 217 263 316
#
# _framework density 20.504325999999999
#
# number of rings (size 3 to 8) (size 9 to 14) (size 15 to 20)
#    0.000    2.143    0.000    2.571    0.000    9.143 
#    0.000    1.429    0.000    0.000    0.000    0.000 
#    0.000    0.000    0.000    0.000    0.000    0.000 
#
# Total GULP energy -156347.338648 kJ/mol
# GULP energy per Si atom -5583.833523 kJ/mol
# Density = 2.045766 g / cm^3
# Si number density = 20.504326 Si / 1000 Ang^3
#
#
#
# Elastic Constant Matrix: (Units=GPa)
#
#
# Indices 1 2 3 4 5 6 
#
# 1 117.9979 -7.4037 80.5286 0.0000 -1.5104 0.0000
# 2 -7.4037 26.3330 -11.0096 0.0000 3.2103 0.0000
# 3 80.5286 -11.0096 135.5716 0.0000 1.5647 0.0000
# 4 0.0000 0.0000 0.0000 16.8494 0.0000 -4.5161
# 5 -1.5104 3.2103 1.5647 0.0000 37.5873 0.0000
# 6 0.0000 0.0000 0.0000 -4.5161 0.0000 31.8643
#
#
#
# Elastic Compliance Matrix: (Units=1/GPa)
#
#
# Indices 1 2 3 4 5 6 
#
# 1 0.014288 0.000368 -0.008467 0.000000 0.000895 0.000000
# 2 0.000368 0.039783 0.003053 0.000000 -0.003510 0.000000
# 3 -0.008467 0.003053 0.012667 0.000000 -0.001128 0.000000
# 4 0.000000 0.000000 0.000000 0.061693 0.000000 0.008744
# 5 0.000895 -0.003510 -0.001128 0.000000 0.026987 0.000000
# 6 0.000000 0.000000 0.000000 0.008744 0.000000 0.032622
#
#
# Mechanical properties :
#
#
# Convention : Reuss Voigt Hill
#
# Bulk Modulus (GPa) = 17.65415 44.90367 31.27891
# Shear Modulus (GPa) = 23.03991 31.77934 27.40962
#
# Velocity S-wave (km/s) = 3.35574 3.94113 3.66016
# Velocity P-wave (km/s) = 4.86244 6.53124 5.75762
#
# Compressibility (1/GPa) = 0.05664390
#
# Stress axis : x y z
#
# Youngs Moduli (GPa) = 69.98930 25.13642 78.94737
#
# Poissons Ratio (x) = -0.00925 0.66848
# Poissons Ratio (y) = -0.02575 -0.24101
# Poissons Ratio (z) = 0.59263 -0.07674
#
# Static dielectric constant tensor:
#      x y z
#    x 1.698500 0.000000 0.008720 
#    y 0.000000 1.755420 0.000000 
#    z 0.008720 0.000000 1.728660 
# 
# From -- ./inp_files/37035.got.cif
#   From: 2010.05.17/outbox.cif.g08.bks.cpg/sg10_19_cif.got.tgz:37035.got - 2010.06.03 11:33:40.
