data_PCOD9149875
_publ_section_title
;
Structure prediction by ZEFSAII (Michael W. Deem and Ramdas Pophale) SiO2 
 PCOD9149875
Probable space group: P 2/M
;
_chemical_formula_sum "Si O2"
_cell_formula_units_Z 24
_cell_length_a 14.144396
_cell_length_b 12.693989
_cell_length_c 14.144396
_cell_angle_alpha 90.000000
_cell_angle_beta 32.371722
_cell_angle_gamma 90.000000
_cell_volume 1359.732327
_symmetry_space_group_name_H-M "P 2/M"
_symmetry_group_IT_number 10
_symmetry_cell_setting 'monoclinic'
loop_
_space_group_symop_operation_xyz
x,y,z
-x,y,-z
-x,-y,-z
x,-y,z
loop_
_atom_site_type_symbol
_atom_site_label
_atom_site_fract_x
_atom_site_fract_y
_atom_site_fract_z
Si Si1 0.491348 0.377763 0.897422
Si Si2 0.558200 0.873253 0.558200
Si Si3 0.934234 0.192912 0.316335
Si Si4 0.489725 0.000000 0.896181
Si Si5 0.316335 0.192912 0.934234
Si Si6 0.896181 0.000000 0.489725
Si Si7 0.897422 0.377763 0.491348
O O1 0.433845 0.500000 0.944365
O O2 0.369804 0.302426 0.938176
O O3 0.689502 0.371312 0.689502
O O4 0.500000 0.344297 0.000000
O O5 0.500000 0.854306 0.500000
O O6 0.750103 0.825313 0.418465
O O7 0.418465 0.825313 0.750103
O O8 0.566313 0.000000 0.566313
O O9 0.942466 0.102017 0.388988
O O10 0.938176 0.302426 0.369805
O O11 0.105955 0.183872 0.105955
O O12 0.388988 0.102017 0.942466
O O13 0.687779 0.000000 0.687779
O O14 0.500000 0.000000 0.000000
O O15 0.000000 0.000000 0.500000
O O16 0.944365 0.500000 0.433845
O O17 0.000000 0.344297 0.500000
#
# Coordination Sequence:
#
# PCOD9149875 Si02
#       7
#     4   4   4   2   4   2   4
#     4  10  20  35  56  86 124 164 202 239 286 352
#     4  11  24  44  65  87 119 155 202 257 305 358
#     4  12  22  38  60  86 120 154 196 245 300 354
#     4  12  22  36  54  84 123 157 194 236 290 359
#     4  12  22  38  60  86 120 154 196 245 300 354
#     4  12  22  36  54  84 123 157 194 236 290 359
#     4  10  20  35  56  86 124 164 202 239 286 352
#
# _framework density 17.650532999999999
#
# number of rings (size 3 to 8) (size 9 to 14) (size 15 to 20)
#    0.000    0.833    5.000    3.500    0.000    2.667 
#    0.000    1.667    0.000    2.000    0.000    2.333 
#    0.000    0.000    0.000    0.000    0.000    0.000 
#
# Total GULP energy -134197.886803 kJ/mol
# GULP energy per Si atom -5591.578617 kJ/mol
# Density = 1.761036 g / cm^3
# Si number density = 17.650533 Si / 1000 Ang^3
#
#
#
# Elastic Constant Matrix: (Units=GPa)
#
#
# Indices 1 2 3 4 5 6 
#
# 1 127.6118 46.2029 65.7591 0.0000 3.4023 0.0000
# 2 46.2029 73.1822 37.2919 0.0000 2.5724 0.0000
# 3 65.7591 37.2919 149.1421 0.0000 -9.6176 0.0000
# 4 0.0000 0.0000 0.0000 123.2610 0.0000 -27.0661
# 5 3.4023 2.5724 -9.6176 0.0000 28.7919 0.0000
# 6 0.0000 0.0000 0.0000 -27.0661 0.0000 29.5004
#
#
#
# Elastic Compliance Matrix: (Units=1/GPa)
#
#
# Indices 1 2 3 4 5 6 
#
# 1 0.011943 -0.005388 -0.004066 0.000000 -0.002288 0.000000
# 2 -0.005388 0.018309 -0.002317 0.000000 -0.001773 0.000000
# 3 -0.004066 -0.002317 0.009322 0.000000 0.003802 0.000000
# 4 0.000000 0.000000 0.000000 0.010160 0.000000 0.009321
# 5 -0.002288 -0.001773 0.003802 0.000000 0.036431 0.000000
# 6 0.000000 0.000000 0.000000 0.009321 0.000000 0.042450
#
#
# Mechanical properties :
#
#
# Convention : Reuss Voigt Hill
#
# Bulk Modulus (GPa) = 62.37224 72.04932 67.21078
# Shear Modulus (GPa) = 31.74572 49.68946 40.71759
#
# Velocity S-wave (km/s) = 4.24556 5.31158 4.80821
# Velocity P-wave (km/s) = 7.71019 8.86148 8.30580
#
# Compressibility (1/GPa) = 0.01603277
#
# Stress axis : x y z
#
# Youngs Moduli (GPa) = 83.72809 54.61802 107.26835
#
# Poissons Ratio (x) = 0.29427 0.43620
# Poissons Ratio (y) = 0.45111 0.24852
# Poissons Ratio (z) = 0.34047 0.12654
#
# Static dielectric constant tensor:
#      x y z
#    x 1.563020 0.000000 -0.014330 
#    y 0.000000 1.604160 0.000000 
#    z -0.014330 0.000000 1.612660 
# 
# From -- ./inp_files/67268.got.cif
#   From: 2010.05.17/outbox.cif.g08.bks.cpg/sg10_34_cif.got.tgz:67268.got - 2010.06.03 11:33:40.
