data_PCOD9149708
_publ_section_title
;
Structure prediction by ZEFSAII (Michael W. Deem and Ramdas Pophale) SiO2 
 PCOD9149708
Probable space group: P 2/M
;
_chemical_formula_sum "Si O2"
_cell_formula_units_Z 32
_cell_length_a 8.452882
_cell_length_b 28.956821
_cell_length_c 14.487576
_cell_angle_alpha 90.000000
_cell_angle_beta 31.022951
_cell_angle_gamma 90.000000
_cell_volume 1827.595783
_symmetry_space_group_name_H-M "P 2/M"
_symmetry_group_IT_number 10
_symmetry_cell_setting 'monoclinic'
loop_
_space_group_symop_operation_xyz
x,y,z
-x,y,-z
-x,-y,-z
x,-y,z
loop_
_atom_site_type_symbol
_atom_site_label
_atom_site_fract_x
_atom_site_fract_y
_atom_site_fract_z
Si Si1 0.634663 0.697592 0.182669
Si Si2 0.368343 0.053728 0.815828
Si Si3 0.369232 0.371776 0.462905
Si Si4 0.367768 0.123088 0.168483
Si Si5 0.367768 0.876912 0.463749
Si Si6 0.369232 0.371776 0.167862
Si Si7 0.632154 0.200721 0.683923
Si Si8 0.372681 0.447586 0.313659
O O1 0.496213 0.671211 0.340586
O O2 0.496212 0.671210 0.163202
O O3 0.536929 0.750774 0.231535
O O4 0.000000 0.692944 0.000000
O O5 0.498273 0.080531 0.839797
O O6 0.498272 0.080531 0.661930
O O7 0.455945 0.000000 0.772027
O O8 0.000000 0.056978 0.000000
O O9 0.500000 0.372495 0.500000
O O10 0.461628 0.417491 0.358561
O O11 0.000000 0.369507 0.649211
O O12 0.444547 0.169121 0.188931
O O13 1.000000 0.119249 0.350074
O O14 0.500000 0.124702 0.000000
O O15 0.500000 0.875297 0.500000
O O16 0.444548 0.830879 0.366521
O O17 0.461627 0.417491 0.179811
O O18 0.500000 0.372495 0.000000
O O19 0.000000 0.208424 0.500000
O O20 0.487411 0.500000 0.256295
O O21 0.000000 0.449210 0.500000
#
# Coordination Sequence:
#
# PCOD9149708 Si02
#       8
#     4   4   4   4   4   4   4   4
#     4  11  22  36  56  80 107 140 178 220 267 318
#     4  10  21  37  57  81 110 144 182 224 268 315
#     4  10  20  35  55  78 108 142 177 220 265 314
#     4  10  21  37  58  82 110 143 178 220 266 317
#     4  10  21  37  58  82 110 143 178 220 266 317
#     4  10  20  35  55  78 108 142 177 220 265 314
#     4   9  20  38  56  78 109 142 178 220 267 316
#     4   8  16  32  53  77 106 140 176 216 264 315
#
# _framework density 17.509342
#
# number of rings (size 3 to 8) (size 9 to 14) (size 15 to 20)
#    0.000    2.250    0.000    4.500    0.000    6.000 
#    0.000    2.500    0.000   12.750    0.000    0.000 
#    0.000    0.000    0.000    0.000    0.000    0.000 
#
# Total GULP energy -178630.832684 kJ/mol
# GULP energy per Si atom -5582.213521 kJ/mol
# Density = 1.746949 g / cm^3
# Si number density = 17.509342 Si / 1000 Ang^3
#
#
#
# Elastic Constant Matrix: (Units=GPa)
#
#
# Indices 1 2 3 4 5 6 
#
# 1 160.7868 91.8087 70.2378 0.0000 29.2039 0.0000
# 2 91.8087 176.8099 78.1678 0.0000 13.8237 0.0000
# 3 70.2378 78.1678 107.8339 0.0000 24.4603 0.0000
# 4 0.0000 0.0000 0.0000 16.2402 0.0000 -7.4847
# 5 29.2039 13.8237 24.4603 0.0000 35.6734 0.0000
# 6 0.0000 0.0000 0.0000 -7.4847 0.0000 8.8549
#
#
#
# Elastic Compliance Matrix: (Units=1/GPa)
#
#
# Indices 1 2 3 4 5 6 
#
# 1 0.010637 -0.003789 -0.003007 0.000000 -0.005178 0.000000
# 2 -0.003789 0.009708 -0.005234 0.000000 0.002928 0.000000
# 3 -0.003007 -0.005234 0.016588 0.000000 -0.006884 0.000000
# 4 0.000000 0.000000 0.000000 0.100870 0.000000 0.085261
# 5 -0.005178 0.002928 -0.006884 0.000000 0.035856 0.000000
# 6 0.000000 0.000000 0.000000 0.085261 0.000000 0.184998
#
#
# Mechanical properties :
#
#
# Convention : Reuss Voigt Hill
#
# Bulk Modulus (GPa) = 77.68322 102.87326 90.27824
# Shear Modulus (GPa) = 12.91964 25.83479 19.37722
#
# Velocity S-wave (km/s) = 2.71933 3.84537 3.33029
# Velocity P-wave (km/s) = 7.37039 8.86548 8.15228
#
# Compressibility (1/GPa) = 0.01287279
#
# Stress axis : x y z
#
# Youngs Moduli (GPa) = 94.01099 103.00775 60.28576
#
# Poissons Ratio (x) = 0.39028 0.18131
# Poissons Ratio (y) = 0.35620 0.31551
# Poissons Ratio (z) = 0.28274 0.53910
#
# Static dielectric constant tensor:
#      x y z
#    x 1.571500 0.000000 -0.007530 
#    y 0.000000 1.580320 0.000000 
#    z -0.007530 0.000000 1.578930 
# 
# From -- ./inp_files/62740.got.cif
#   From: 2010.05.17/outbox.cif.g08.bks.cpg/sg10_32_cif.got.tgz:62740.got - 2010.06.03 11:33:40.
