data_PCOD9149359
_publ_section_title
;
Structure prediction by ZEFSAII (Michael W. Deem and Ramdas Pophale) SiO2 
 PCOD9149359
Probable space group: P 2/M
;
_chemical_formula_sum "Si O2"
_cell_formula_units_Z 28
_cell_length_a 8.834433
_cell_length_b 20.621547
_cell_length_c 14.840655
_cell_angle_alpha 90.000000
_cell_angle_beta 149.653726
_cell_angle_gamma 90.000000
_cell_volume 1365.958877
_symmetry_space_group_name_H-M "P 2/M"
_symmetry_group_IT_number 10
_symmetry_cell_setting 'monoclinic'
loop_
_space_group_symop_operation_xyz
x,y,z
-x,y,-z
-x,-y,-z
x,-y,z
loop_
_atom_site_type_symbol
_atom_site_label
_atom_site_fract_x
_atom_site_fract_y
_atom_site_fract_z
Si Si1 0.730634 0.669171 0.200540
Si Si2 0.639753 0.342493 0.805774
Si Si3 0.219741 0.929208 0.200347
Si Si4 0.352942 0.198102 0.194018
Si Si5 0.702102 0.424008 0.514947
Si Si6 0.851390 0.808809 0.324365
Si Si7 0.143650 0.927461 0.800273
O O1 0.532157 0.655151 0.187396
O O2 0.881540 0.739860 0.291527
O O3 0.991392 0.616650 0.322189
O O4 0.500000 0.670892 0.000000
O O5 0.564677 0.269838 0.729959
O O6 0.495358 0.395666 0.667709
O O7 0.000000 0.349228 0.000000
O O8 0.414683 0.864712 0.286463
O O9 0.029915 0.922540 0.194087
O O10 0.373205 0.000000 0.281677
O O11 0.000000 0.931054 0.000000
O O12 0.502219 0.186518 0.173687
O O13 0.000000 0.201812 0.000000
O O14 0.500000 0.415927 0.500000
O O15 0.766486 0.500000 0.535793
O O16 0.936873 0.869270 0.307540
O O17 0.000000 0.808057 0.500000
O O18 0.083489 0.000000 0.732564
O O19 0.500000 0.923427 0.000000
#
# Coordination Sequence:
#
# PCOD9149359 Si02
#       7
#     4   4   4   4   4   4   4
#     4  11  23  41  66  94 125 163 209 259 312 371
#     4  10  21  39  63  94 128 166 210 253 306 370
#     4   9  17  30  51  80 112 150 200 254 302 351
#     4   9  18  34  57  83 112 150 199 246 292 352
#     4  11  25  44  66  95 129 164 205 252 304 366
#     4  11  23  39  59  88 123 157 200 253 311 369
#     4  10  20  34  55  84 117 158 207 253 303 364
#
# _framework density 20.498422000000001
#
# number of rings (size 3 to 8) (size 9 to 14) (size 15 to 20)
#    0.000    1.857    0.000    5.143    0.000    8.286 
#    0.000    0.714    0.000    1.714    0.000    0.000 
#    0.000    0.000    0.000    0.000    0.000    0.000 
#
# Total GULP energy -156330.944434 kJ/mol
# GULP energy per Si atom -5583.248015 kJ/mol
# Density = 2.045177 g / cm^3
# Si number density = 20.498422 Si / 1000 Ang^3
#
#
#
# Elastic Constant Matrix: (Units=GPa)
#
#
# Indices 1 2 3 4 5 6 
#
# 1 93.5609 99.9182 45.4935 0.0000 -5.3084 0.0000
# 2 99.9182 212.6231 80.6267 0.0000 -9.8099 0.0000
# 3 45.4935 80.6267 119.4267 0.0000 -8.9907 0.0000
# 4 0.0000 0.0000 0.0000 38.2456 0.0000 4.9146
# 5 -5.3084 -9.8099 -8.9907 0.0000 31.2609 0.0000
# 6 0.0000 0.0000 0.0000 4.9146 0.0000 38.6720
#
#
#
# Elastic Compliance Matrix: (Units=1/GPa)
#
#
# Indices 1 2 3 4 5 6 
#
# 1 0.021761 -0.009516 -0.001852 0.000000 0.000176 0.000000
# 2 -0.009516 0.010501 -0.003412 0.000000 0.000698 0.000000
# 3 -0.001852 -0.003412 0.011528 0.000000 0.001930 0.000000
# 4 0.000000 0.000000 0.000000 0.026581 0.000000 -0.003378
# 5 0.000176 0.000698 0.001930 0.000000 0.032793 0.000000
# 6 0.000000 0.000000 0.000000 -0.003378 0.000000 0.026288
#
#
# Mechanical properties :
#
#
# Convention : Reuss Voigt Hill
#
# Bulk Modulus (GPa) = 70.27285 97.52084 83.89684
# Shear Modulus (GPa) = 30.53358 34.94054 32.73706
#
# Velocity S-wave (km/s) = 3.86367 4.13310 4.00065
# Velocity P-wave (km/s) = 7.36617 8.39373 7.89668
#
# Compressibility (1/GPa) = 0.01423025
#
# Stress axis : x y z
#
# Youngs Moduli (GPa) = 45.95343 95.22955 86.74880
#
# Poissons Ratio (x) = 0.90619 0.16066
# Poissons Ratio (y) = 0.43729 0.29598
# Poissons Ratio (z) = 0.08510 0.32491
#
# Static dielectric constant tensor:
#      x y z
#    x 1.728670 0.000000 0.041930 
#    y 0.000000 1.762910 0.000000 
#    z 0.041930 0.000000 1.774350 
# 
# From -- ./inp_files/62604.got.cif
#   From: 2010.05.17/outbox.cif.g08.bks.cpg/sg10_32_cif.got.tgz:62604.got - 2010.06.03 11:33:40.
