data_PCOD9149532
_publ_section_title
;
Structure prediction by ZEFSAII (Michael W. Deem and Ramdas Pophale) SiO2 
 PCOD9149532
Probable space group: P 2/M
;
_chemical_formula_sum "Si O2"
_cell_formula_units_Z 28
_cell_length_a 14.321184
_cell_length_b 9.032459
_cell_length_c 18.634905
_cell_angle_alpha 90.000000
_cell_angle_beta 35.598023
_cell_angle_gamma 90.000000
_cell_volume 1403.155849
_symmetry_space_group_name_H-M "P 2/M"
_symmetry_group_IT_number 10
_symmetry_cell_setting 'monoclinic'
loop_
_space_group_symop_operation_xyz
x,y,z
-x,y,-z
-x,-y,-z
x,-y,z
loop_
_atom_site_type_symbol
_atom_site_label
_atom_site_fract_x
_atom_site_fract_y
_atom_site_fract_z
Si Si1 0.502456 0.176033 0.202862
Si Si2 0.952528 0.330018 0.736045
Si Si3 0.266745 0.170700 0.581503
Si Si4 0.475809 0.324692 0.667484
Si Si5 0.844144 0.328958 0.970494
Si Si6 0.349553 0.823149 0.145155
Si Si7 0.161602 0.827722 0.814126
O O1 0.445068 0.258745 0.310029
O O2 0.399321 0.205299 0.196072
O O3 0.507455 0.000000 0.211539
O O4 0.680742 0.237951 0.077605
O O5 0.987239 0.500000 0.694573
O O6 0.894481 0.329448 0.855254
O O7 0.808886 0.262427 0.779555
O O8 0.112664 0.232111 0.635218
O O9 0.418651 0.267784 0.464802
O O10 0.222390 0.178466 0.693195
O O11 0.300574 0.000000 0.542632
O O12 0.469058 0.500000 0.673345
O O13 0.297692 0.256996 0.773102
O O14 0.822287 0.500000 0.006794
O O15 0.989236 0.250626 0.921816
O O16 0.324776 0.000000 0.151314
O O17 0.500000 0.781557 0.000000
O O18 0.151151 0.000000 0.841435
#
# Coordination Sequence:
#
# PCOD9149532 Si02
#       7
#     4   4   4   4   4   4   4
#     4  11  23  39  59  83 117 156 195 236 284 345
#     4  10  20  34  58  90 121 150 186 237 291 338
#     4  10  21  39  63  87 115 151 195 239 281 337
#     4  12  25  40  58  83 118 154 192 239 290 342
#     4  10  20  35  56  87 121 151 188 236 290 340
#     4  10  20  36  60  88 116 150 193 236 283 341
#     4  10  21  38  62  88 114 150 196 238 282 339
#
# _framework density 19.955017999999999
#
# number of rings (size 3 to 8) (size 9 to 14) (size 15 to 20)
#    0.000    1.571    1.429    3.857    0.000    6.571 
#    0.000    3.571    0.000    4.286    0.000    0.000 
#    0.000    0.000    0.000    0.000    0.000    0.000 
#
# Total GULP energy -156610.558197 kJ/mol
# GULP energy per Si atom -5593.234221 kJ/mol
# Density = 1.990960 g / cm^3
# Si number density = 19.955018 Si / 1000 Ang^3
#
#
#
# Elastic Constant Matrix: (Units=GPa)
#
#
# Indices 1 2 3 4 5 6 
#
# 1 101.2484 68.6110 12.9841 0.0000 -15.6386 0.0000
# 2 68.6110 136.6032 18.9720 0.0000 -8.2620 0.0000
# 3 12.9841 18.9720 40.5870 0.0000 -6.9727 0.0000
# 4 0.0000 0.0000 0.0000 80.5880 0.0000 -7.1821
# 5 -15.6386 -8.2620 -6.9727 0.0000 25.2227 0.0000
# 6 0.0000 0.0000 0.0000 -7.1821 0.0000 28.6534
#
#
#
# Elastic Compliance Matrix: (Units=1/GPa)
#
#
# Indices 1 2 3 4 5 6 
#
# 1 0.016278 -0.007677 -0.000333 0.000000 0.007486 0.000000
# 2 -0.007677 0.011514 -0.003250 0.000000 -0.001887 0.000000
# 3 -0.000333 -0.003250 0.027345 0.000000 0.006288 0.000000
# 4 0.000000 0.000000 0.000000 0.012692 0.000000 0.003181
# 5 0.007486 -0.001887 0.006288 0.000000 0.045409 0.000000
# 6 0.000000 0.000000 0.000000 0.003181 0.000000 0.035697
#
#
# Mechanical properties :
#
#
# Convention : Reuss Voigt Hill
#
# Bulk Modulus (GPa) = 30.65969 53.28586 41.97277
# Shear Modulus (GPa) = 27.42342 38.75091 33.08717
#
# Velocity S-wave (km/s) = 3.71113 4.41149 4.07638
# Velocity P-wave (km/s) = 5.81042 7.26012 6.57535
#
# Compressibility (1/GPa) = 0.03261612
#
# Stress axis : x y z
#
# Youngs Moduli (GPa) = 61.43323 86.85438 36.57042
#
# Poissons Ratio (x) = 0.66676 0.01218
# Poissons Ratio (y) = 0.47161 0.11886
# Poissons Ratio (z) = 0.02045 0.28229
#
# Static dielectric constant tensor:
#      x y z
#    x 1.698810 0.000000 0.041730 
#    y 0.000000 1.667540 0.000000 
#    z 0.041730 0.000000 1.715840 
# 
# From -- ./inp_files/77813.got.cif
#   From: 2010.05.17/outbox.cif.g08.bks.cpg/sg10_39_cif.got.tgz:77813.got - 2010.06.03 11:33:40.
