data_PCOD9149319
_publ_section_title
;
Structure prediction by ZEFSAII (Michael W. Deem and Ramdas Pophale) SiO2 
 PCOD9149319
Probable space group: P 2/M
;
_chemical_formula_sum "Si O2"
_cell_formula_units_Z 32
_cell_length_a 30.908635
_cell_length_b 7.589401
_cell_length_c 12.842481
_cell_angle_alpha 90.000000
_cell_angle_beta 151.592392
_cell_angle_gamma 90.000000
_cell_volume 1433.200157
_symmetry_space_group_name_H-M "P 2/M"
_symmetry_group_IT_number 10
_symmetry_cell_setting 'monoclinic'
loop_
_space_group_symop_operation_xyz
x,y,z
-x,y,-z
-x,-y,-z
x,-y,z
loop_
_atom_site_type_symbol
_atom_site_label
_atom_site_fract_x
_atom_site_fract_y
_atom_site_fract_z
Si Si1 0.674170 0.794363 0.118562
Si Si2 0.725795 0.703667 0.808550
Si Si3 0.104042 0.213457 0.703950
Si Si4 0.241795 0.283170 0.352028
Si Si5 0.038724 0.710391 0.972774
Si Si6 0.395981 0.286561 0.259801
Si Si7 0.405137 0.704797 0.839162
Si Si8 0.867313 0.212105 0.469624
O O1 0.609102 0.712691 0.067361
O O2 0.777593 0.721688 0.339505
O O3 0.677646 0.000000 0.151555
O O4 0.639058 0.774658 0.926517
O O5 0.697205 0.500000 0.738826
O O6 0.723877 0.777985 0.688606
O O7 0.665281 0.780658 0.773816
O O8 0.828997 0.713437 0.067526
O O9 0.135129 0.272617 0.655150
O O10 0.000000 0.265176 0.500000
O O11 0.108792 0.000000 0.718499
O O12 0.238184 0.500000 0.342299
O O13 0.314292 0.224208 0.591687
O O14 0.139004 0.222219 0.156908
O O15 0.047860 0.500000 0.003569
O O16 0.962161 0.742440 0.723973
O O17 0.000000 0.781474 0.000000
O O18 0.500000 0.236018 0.500000
O O19 0.390708 0.500000 0.246521
O O20 0.407239 0.500000 0.811906
O O21 0.500000 0.783952 0.000000
O O22 0.861079 0.000000 0.453777
#
# Coordination Sequence:
#
# PCOD9149319 Si02
#       8
#     4   4   4   4   4   4   4   4
#     4  11  23  40  61  86 122 156 190 241 293 350
#     4  10  20  35  57  84 116 149 187 241 291 341
#     4  10  20  35  54  78 113 154 193 232 278 338
#     4   9  19  36  56  85 119 148 188 242 296 345
#     4  10  20  34  55  81 111 148 190 239 289 342
#     4  10  22  38  61  89 115 150 197 244 290 347
#     4  10  22  40  66  90 114 153 197 243 293 345
#     4  10  21  36  54  80 113 150 191 233 281 339
#
# _framework density 22.327656999999999
#
# number of rings (size 3 to 8) (size 9 to 14) (size 15 to 20)
#    0.000    2.000    1.250    1.875    1.750    3.500 
#    0.000    1.250    0.000    0.000    0.000    0.000 
#    0.000    0.000    0.000    0.000    0.000    0.000 
#
# Total GULP energy -178831.209946 kJ/mol
# GULP energy per Si atom -5588.475311 kJ/mol
# Density = 2.227684 g / cm^3
# Si number density = 22.327657 Si / 1000 Ang^3
#
#
#
# Elastic Constant Matrix: (Units=GPa)
#
#
# Indices 1 2 3 4 5 6 
#
# 1 141.4723 1.4590 45.5517 0.0000 8.3120 0.0000
# 2 1.4590 46.3119 -2.6529 0.0000 4.4311 0.0000
# 3 45.5517 -2.6529 102.9839 0.0000 12.4378 0.0000
# 4 0.0000 0.0000 0.0000 35.0281 0.0000 -10.3188
# 5 8.3120 4.4311 12.4378 0.0000 42.8553 0.0000
# 6 0.0000 0.0000 0.0000 -10.3188 0.0000 5.6254
#
#
#
# Elastic Compliance Matrix: (Units=1/GPa)
#
#
# Indices 1 2 3 4 5 6 
#
# 1 0.008263 -0.000418 -0.003604 0.000000 -0.000514 0.000000
# 2 -0.000418 0.021904 0.001050 0.000000 -0.002488 0.000000
# 3 -0.003604 0.001050 0.011669 0.000000 -0.002796 0.000000
# 4 0.000000 0.000000 0.000000 0.062112 0.000000 0.113934
# 5 -0.000514 -0.002488 -0.002796 0.000000 0.024503 0.000000
# 6 0.000000 0.000000 0.000000 0.113934 0.000000 0.386759
#
#
# Mechanical properties :
#
#
# Convention : Reuss Voigt Hill
#
# Bulk Modulus (GPa) = 27.86080 42.16485 35.01283
# Shear Modulus (GPa) = 9.37878 33.12910 21.25394
#
# Velocity S-wave (km/s) = 2.05174 3.85615 3.08865
# Velocity P-wave (km/s) = 4.25654 6.22512 5.33246
#
# Compressibility (1/GPa) = 0.03589272
#
# Stress axis : x y z
#
# Youngs Moduli (GPa) = 121.01626 45.65361 85.69708
#
# Poissons Ratio (x) = 0.01907 0.30883
# Poissons Ratio (y) = 0.05054 -0.08994
# Poissons Ratio (z) = 0.43611 -0.04791
#
# Static dielectric constant tensor:
#      x y z
#    x 1.820460 0.000000 0.016470 
#    y 0.000000 1.832830 0.000000 
#    z 0.016470 0.000000 1.783980 
# 
# From -- ./inp_files/58324.got.cif
#   From: 2010.05.17/outbox.cif.g08.bks.cpg/sg10_30_cif.got.tgz:58324.got - 2010.06.03 11:33:40.
