data_PCOD9149345
_publ_section_title
;
Structure prediction by ZEFSAII (Michael W. Deem and Ramdas Pophale) SiO2 
 PCOD9149345
Probable space group: P 2/M
;
_chemical_formula_sum "Si O2"
_cell_formula_units_Z 32
_cell_length_a 14.852082
_cell_length_b 9.610592
_cell_length_c 11.897598
_cell_angle_alpha 90.000000
_cell_angle_beta 94.125474
_cell_angle_gamma 90.000000
_cell_volume 1693.830728
_symmetry_space_group_name_H-M "P 2/M"
_symmetry_group_IT_number 10
_symmetry_cell_setting 'monoclinic'
loop_
_space_group_symop_operation_xyz
x,y,z
-x,y,-z
-x,-y,-z
x,-y,z
loop_
_atom_site_type_symbol
_atom_site_label
_atom_site_fract_x
_atom_site_fract_y
_atom_site_fract_z
Si Si1 0.511744 0.834468 0.371222
Si Si2 0.339785 0.163066 0.196503
Si Si3 0.164189 0.660756 0.564968
Si Si4 0.335996 0.661241 0.741184
Si Si5 0.178563 0.161452 0.350540
Si Si6 0.967966 0.158465 0.310160
Si Si7 0.722618 0.333042 0.011007
Si Si8 0.095433 0.162586 0.950457
O O1 0.500000 0.789201 0.500000
O O2 0.420773 0.812397 0.291227
O O3 0.591751 0.755956 0.315040
O O4 0.530326 0.000000 0.374806
O O5 0.246831 0.186948 0.255481
O O6 0.343149 0.000000 0.162609
O O7 0.339224 0.263894 0.090027
O O8 0.145773 0.500000 0.539494
O O9 0.241955 0.670487 0.665652
O O10 0.196552 0.739502 0.456856
O O11 0.077016 0.737140 0.607079
O O12 0.365735 0.500000 0.740148
O O13 0.317239 0.698461 0.868984
O O14 0.074621 0.180658 0.306224
O O15 0.190528 0.000000 0.385888
O O16 0.921503 0.171229 0.184647
O O17 0.954361 0.000000 0.349724
O O18 0.729612 0.500000 0.999998
O O19 0.821003 0.260383 0.011127
O O20 0.115102 0.000000 0.981453
O O21 0.000000 0.199018 0.000000
#
# Coordination Sequence:
#
# PCOD9149345 Si02
#       8
#     4   4   4   4   4   4   4   4
#     4  10  22  41  67  96 120 149 194 248 303 356
#     4  10  22  41  63  89 121 152 192 248 300 354
#     4  11  22  37  56  82 119 157 198 244 293 350
#     4  10  23  41  60  85 121 162 199 243 298 357
#     4  10  21  38  59  84 117 154 195 244 299 356
#     4  10  20  34  55  83 114 153 198 242 294 353
#     4  11  23  40  60  86 122 161 202 244 294 356
#     4  10  20  36  59  85 115 157 207 253 299 350
#
# _framework density 18.892088999999999
#
# number of rings (size 3 to 8) (size 9 to 14) (size 15 to 20)
#    0.000    1.750    1.250    2.625    0.000    9.000 
#    0.000    3.750    0.000    0.000    0.000    0.000 
#    0.000    0.000    0.000    0.000    0.000    0.000 
#
# Total GULP energy -178817.011575 kJ/mol
# GULP energy per Si atom -5588.031612 kJ/mol
# Density = 1.884909 g / cm^3
# Si number density = 18.892089 Si / 1000 Ang^3
#
#
#
# Elastic Constant Matrix: (Units=GPa)
#
#
# Indices 1 2 3 4 5 6 
#
# 1 80.8110 56.3267 39.1047 0.0000 -12.5106 0.0000
# 2 56.3267 75.1452 56.4405 0.0000 -3.4571 0.0000
# 3 39.1047 56.4405 84.0684 0.0000 7.8711 0.0000
# 4 0.0000 0.0000 0.0000 -7.7986 0.0000 82.8213
# 5 -12.5106 -3.4571 7.8711 0.0000 24.2734 0.0000
# 6 0.0000 0.0000 0.0000 82.8213 0.0000 -153.6059
#
#
#
# Elastic Compliance Matrix: (Units=1/GPa)
#
#
# Indices 1 2 3 4 5 6 
#
# 1 0.029005 -0.020527 -0.000863 0.000000 0.012305 0.000000
# 2 -0.020527 0.043933 -0.020154 0.000000 0.002213 0.000000
# 3 -0.000863 -0.020154 0.026956 0.000000 -0.012056 0.000000
# 4 0.000000 0.000000 0.000000 0.027132 0.000000 0.014629
# 5 0.012305 0.002213 -0.012056 0.000000 0.051764 0.000000
# 6 0.000000 0.000000 0.000000 0.014629 0.000000 0.001377
#
#
# Mechanical properties :
#
#
# Convention : Reuss Voigt Hill
#
# Bulk Modulus (GPa) = 59.50194 60.41871 59.96033
# Shear Modulus (GPa) = 18.59719 -21.54936 -1.47608
#
# Velocity S-wave (km/s) = 3.14090 -3.38102 -0.88488
# Velocity P-wave (km/s) = 6.68713 4.09983 5.54646
#
# Compressibility (1/GPa) = 0.01680617
#
# Stress axis : x y z
#
# Youngs Moduli (GPa) = 34.47709 22.76168 37.09757
#
# Poissons Ratio (x) = 0.46723 0.03200
# Poissons Ratio (y) = 0.70772 0.74767
# Poissons Ratio (z) = 0.02974 0.45874
#
# Static dielectric constant tensor:
#      x y z
#    x 1.642290 0.000000 0.019480 
#    y 0.000000 1.636480 0.000000 
#    z 0.019480 0.000000 1.651010 
# 
# From -- ./inp_files/49943.got.cif
#   From: 2010.05.17/outbox.cif.g08.bks.cpg/sg10_25_cif.got.tgz:49943.got - 2010.06.03 11:33:40.
