data_PCOD9149353
_publ_section_title
;
Structure prediction by ZEFSAII (Michael W. Deem and Ramdas Pophale) SiO2 
 PCOD9149353
Probable space group: P 2/M
;
_chemical_formula_sum "Si O2"
_cell_formula_units_Z 24
_cell_length_a 12.654829
_cell_length_b 7.541825
_cell_length_c 25.290166
_cell_angle_alpha 90.000000
_cell_angle_beta 33.256444
_cell_angle_gamma 90.000000
_cell_volume 1323.645801
_symmetry_space_group_name_H-M "P 2/M"
_symmetry_group_IT_number 10
_symmetry_cell_setting 'monoclinic'
loop_
_space_group_symop_operation_xyz
x,y,z
-x,y,-z
-x,-y,-z
x,-y,z
loop_
_atom_site_type_symbol
_atom_site_label
_atom_site_fract_x
_atom_site_fract_y
_atom_site_fract_z
Si Si1 0.704608 0.706743 0.392644
Si Si2 0.355540 0.213799 0.268395
Si Si3 0.238789 0.201808 0.748908
Si Si4 0.040788 0.500000 0.894952
Si Si5 0.045189 0.214332 0.611369
Si Si6 0.669854 0.785344 0.599741
Si Si7 0.319442 0.500000 0.880535
O O1 0.500000 0.778554 0.500000
O O2 0.674110 0.500000 0.392794
O O3 0.768825 0.794485 0.311309
O O4 0.859737 0.723909 0.374142
O O5 0.294758 0.260110 0.354176
O O6 0.543336 0.327781 0.176849
O O7 0.176061 0.261861 0.306193
O O8 0.387909 0.000000 0.252770
O O9 0.453682 0.267739 0.674270
O O10 0.086522 0.329426 0.840072
O O11 0.219040 0.000000 0.776226
O O12 0.192287 0.500000 0.880284
O O13 0.830317 0.500000 0.008589
O O14 0.176504 0.278970 0.507382
O O15 0.053295 0.000000 0.607791
O O16 0.675006 0.000000 0.594906
#
# Coordination Sequence:
#
# PCOD9149353 Si02
#       7
#     4   4   4   2   4   4   2
#     4  11  22  34  53  85 124 159 195 234 273 332
#     4  10  21  38  58  85 118 155 195 233 284 345
#     4  11  21  37  61  84 118 155 188 234 285 337
#     4  11  24  42  59  89 114 143 196 241 300 347
#     4  10  20  34  55  83 120 161 196 227 272 340
#     4   9  17  32  55  83 118 157 188 224 275 336
#     4  11  24  40  63  84 116 148 184 251 299 341
#
# _framework density 18.131740000000001
#
# number of rings (size 3 to 8) (size 9 to 14) (size 15 to 20)
#    0.000    1.667    4.167    1.000    1.167    3.333 
#    1.500    2.500    0.000    2.000    0.000    3.500 
#    0.000    0.000    0.000    0.000    0.000    0.000 
#
# Total GULP energy -134060.410209 kJ/mol
# GULP energy per Si atom -5585.850425 kJ/mol
# Density = 1.809047 g / cm^3
# Si number density = 18.131740 Si / 1000 Ang^3
#
#
#
# Elastic Constant Matrix: (Units=GPa)
#
#
# Indices 1 2 3 4 5 6 
#
# 1 107.3182 8.6207 32.2867 0.0000 -0.4438 0.0000
# 2 8.6207 75.0528 30.8886 0.0000 4.5508 0.0000
# 3 32.2867 30.8886 86.8190 0.0000 13.4820 0.0000
# 4 0.0000 0.0000 0.0000 29.3642 0.0000 11.4032
# 5 -0.4438 4.5508 13.4820 0.0000 20.6820 0.0000
# 6 0.0000 0.0000 0.0000 11.4032 0.0000 41.7419
#
#
#
# Elastic Compliance Matrix: (Units=1/GPa)
#
#
# Indices 1 2 3 4 5 6 
#
# 1 0.010687 0.000490 -0.004637 0.000000 0.003144 0.000000
# 2 0.000490 0.015633 -0.005799 0.000000 0.000351 0.000000
# 3 -0.004637 -0.005799 0.016826 0.000000 -0.009792 0.000000
# 4 0.000000 0.000000 0.000000 0.038097 0.000000 -0.010407
# 5 0.003144 0.000351 -0.009792 0.000000 0.054725 0.000000
# 6 0.000000 0.000000 0.000000 -0.010407 0.000000 0.026800
#
#
# Mechanical properties :
#
#
# Convention : Reuss Voigt Hill
#
# Bulk Modulus (GPa) = 43.00109 45.86465 44.43287
# Shear Modulus (GPa) = 26.25918 31.51722 28.88820
#
# Velocity S-wave (km/s) = 3.80971 4.17374 3.99587
# Velocity P-wave (km/s) = 6.56652 6.96971 6.77112
#
# Compressibility (1/GPa) = 0.02325523
#
# Stress axis : x y z
#
# Youngs Moduli (GPa) = 93.57412 63.96779 59.43088
#
# Poissons Ratio (x) = -0.03136 0.27557
# Poissons Ratio (y) = -0.04587 0.34462
# Poissons Ratio (z) = 0.43389 0.37093
#
# Static dielectric constant tensor:
#      x y z
#    x 1.613870 0.000000 -0.002250 
#    y 0.000000 1.675970 0.000000 
#    z -0.002250 0.000000 1.586990 
# 
# From -- ./inp_files/45217.got.cif
#   From: 2010.05.17/outbox.cif.g08.bks.cpg/sg10_23_cif.got.tgz:45217.got - 2010.06.03 11:33:40.
