data_PCOD9149109
_publ_section_title
;
Structure prediction by ZEFSAII (Michael W. Deem and Ramdas Pophale) SiO2 
 PCOD9149109
Probable space group: P 2/M
;
_chemical_formula_sum "Si O2"
_cell_formula_units_Z 32
_cell_length_a 34.072741
_cell_length_b 7.992775
_cell_length_c 13.425006
_cell_angle_alpha 90.000000
_cell_angle_beta 25.371711
_cell_angle_gamma 90.000000
_cell_volume 1566.602799
_symmetry_space_group_name_H-M "P 2/M"
_symmetry_group_IT_number 10
_symmetry_cell_setting 'monoclinic'
loop_
_space_group_symop_operation_xyz
x,y,z
-x,y,-z
-x,-y,-z
x,-y,z
loop_
_atom_site_type_symbol
_atom_site_label
_atom_site_fract_x
_atom_site_fract_y
_atom_site_fract_z
Si Si1 0.589618 0.803862 0.168623
Si Si2 0.962952 0.795456 0.975079
Si Si3 0.131872 0.202525 0.459162
Si Si4 0.756618 0.190052 0.422711
Si Si5 0.594469 0.301094 0.478105
Si Si6 0.571745 0.696067 0.753422
Si Si7 0.279038 0.310628 0.286539
Si Si8 0.269182 0.201515 0.984838
O O1 0.481765 0.778369 0.419605
O O2 0.652462 0.743472 0.115458
O O3 0.610069 0.000000 0.110233
O O4 0.625280 0.709589 0.989003
O O5 0.033353 0.744589 0.726719
O O6 0.960374 0.000000 0.984957
O O7 0.859975 0.739943 0.186452
O O8 0.000000 0.742209 0.000000
O O9 0.202944 0.264824 0.379620
O O10 0.133242 0.000000 0.457090
O O11 0.173876 0.255210 0.255955
O O12 0.675208 0.286990 0.555903
O O13 0.729806 0.190719 0.600258
O O14 0.758233 0.000000 0.380210
O O15 0.582520 0.500000 0.504714
O O16 0.574780 0.233469 0.634276
O O17 0.694959 0.263909 0.203423
O O18 0.547993 0.500000 0.798204
O O19 0.500000 0.767401 0.000000
O O20 0.267140 0.500000 0.348867
O O21 0.268834 0.000000 0.981216
#
# Coordination Sequence:
#
# PCOD9149109 Si02
#       8
#     4   4   4   4   4   4   4   4
#     4  10  20  34  53  77 106 140 181 225 270 318
#     4   9  16  30  55  83 113 142 175 223 274 323
#     4   9  17  33  53  76 108 145 178 213 265 320
#     4  11  21  34  56  82 107 143 186 226 271 323
#     4  11  22  35  54  77 104 139 178 224 278 329
#     4  10  23  42  58  75 105 144 183 227 276 320
#     4  11  20  30  47  75 112 146 176 215 264 321
#     4   9  19  33  52  77 107 142 178 219 266 320
#
# _framework density 20.426365000000001
#
# number of rings (size 3 to 8) (size 9 to 14) (size 15 to 20)
#    0.000    2.000    1.250    4.125    0.000    6.250 
#    0.000    1.875    0.000    0.750    0.000    5.250 
#    0.000    0.000    0.000    0.000    0.000    0.000 
#
# Total GULP energy -178474.643176 kJ/mol
# GULP energy per Si atom -5577.332599 kJ/mol
# Density = 2.037987 g / cm^3
# Si number density = 20.426365 Si / 1000 Ang^3
#
#
#
# Elastic Constant Matrix: (Units=GPa)
#
#
# Indices 1 2 3 4 5 6 
#
# 1 50.4038 -0.3465 42.7932 0.0000 8.9582 0.0000
# 2 -0.3465 23.4241 4.3406 0.0000 9.8150 0.0000
# 3 42.7932 4.3406 151.6749 0.0000 13.0849 0.0000
# 4 0.0000 0.0000 0.0000 10.4092 0.0000 2.7151
# 5 8.9582 9.8150 13.0849 0.0000 28.4269 0.0000
# 6 0.0000 0.0000 0.0000 2.7151 0.0000 17.3241
#
#
#
# Elastic Compliance Matrix: (Units=1/GPa)
#
#
# Indices 1 2 3 4 5 6 
#
# 1 0.027218 0.004609 -0.007221 0.000000 -0.006845 0.000000
# 2 0.004609 0.050693 -0.001162 0.000000 -0.018420 0.000000
# 3 -0.007221 -0.001162 0.008781 0.000000 -0.001365 0.000000
# 4 0.000000 0.000000 0.000000 0.100163 0.000000 -0.015698
# 5 -0.006845 -0.018420 -0.001365 0.000000 0.044324 0.000000
# 6 0.000000 0.000000 0.000000 -0.015698 0.000000 0.060183
#
#
# Mechanical properties :
#
#
# Convention : Reuss Voigt Hill
#
# Bulk Modulus (GPa) = 12.63502 35.45305 24.04404
# Shear Modulus (GPa) = 15.37079 23.14641 19.25860
#
# Velocity S-wave (km/s) = 2.74614 3.36990 3.07389
# Velocity P-wave (km/s) = 4.03164 5.70402 4.93913
#
# Compressibility (1/GPa) = 0.07914511
#
# Stress axis : x y z
#
# Youngs Moduli (GPa) = 36.73978 19.72660 113.87790
#
# Poissons Ratio (x) = -0.09092 0.82228
# Poissons Ratio (y) = -0.16933 0.13232
# Poissons Ratio (z) = 0.26529 0.02292
#
# Static dielectric constant tensor:
#      x y z
#    x 1.722560 0.000000 0.017160 
#    y 0.000000 1.733910 0.000000 
#    z 0.017160 0.000000 1.793110 
# 
# From -- ./inp_files/58084.got.cif
#   From: 2010.05.17/outbox.cif.g08.bks.cpg/sg10_30_cif.got.tgz:58084.got - 2010.06.03 11:33:40.
