data_PCOD9149766
_publ_section_title
;
Structure prediction by ZEFSAII (Michael W. Deem and Ramdas Pophale) SiO2 
 PCOD9149766
Probable space group: P 2/M
;
_chemical_formula_sum "Si O2"
_cell_formula_units_Z 26
_cell_length_a 16.283617
_cell_length_b 7.896840
_cell_length_c 14.439402
_cell_angle_alpha 90.000000
_cell_angle_beta 43.298149
_cell_angle_gamma 90.000000
_cell_volume 1273.349550
_symmetry_space_group_name_H-M "P 2/M"
_symmetry_group_IT_number 10
_symmetry_cell_setting 'monoclinic'
loop_
_space_group_symop_operation_xyz
x,y,z
-x,y,-z
-x,-y,-z
x,-y,z
loop_
_atom_site_type_symbol
_atom_site_label
_atom_site_fract_x
_atom_site_fract_y
_atom_site_fract_z
Si Si1 0.721907 0.807617 0.719531
Si Si2 0.500000 0.251211 0.000000
Si Si3 0.657990 0.699694 0.030603
Si Si4 0.104354 0.296654 0.269363
Si Si5 0.324016 0.795679 0.584872
Si Si6 0.161604 0.299931 0.558268
Si Si7 0.582359 0.795153 0.296651
O O1 0.619181 0.688125 0.846295
O O2 0.842502 0.776850 0.679179
O O3 0.750074 0.781563 0.589524
O O4 0.679797 0.000000 0.770447
O O5 0.573229 0.193268 0.031597
O O6 0.636084 0.500000 0.026801
O O7 0.627581 0.729377 0.161794
O O8 0.794640 0.739339 0.890894
O O9 0.098912 0.500000 0.285023
O O10 0.973045 0.236016 0.348923
O O11 0.211525 0.732363 0.619395
O O12 0.446399 0.741867 0.432188
O O13 0.337983 0.742041 0.680166
O O14 0.322324 0.000000 0.585392
O O15 0.162320 0.500000 0.539590
O O16 0.582929 0.000000 0.292995
#
# Coordination Sequence:
#
# PCOD9149766 Si02
#       7
#     4   2   4   4   4   4   4
#     4  11  22  35  54  79 107 140 176 214 258 311
#     4  10  22  36  52  80 114 140 168 210 262 312
#     4  10  20  35  56  78 104 140 178 215 256 308
#     4   9  21  39  53  72 107 144 176 214 261 308
#     4   9  19  36  56  78 106 138 172 213 261 315
#     4  11  22  36  55  78 105 139 177 218 262 306
#     4   9  19  36  56  79 108 138 168 212 269 313
#
# _framework density 20.418588
#
# number of rings (size 3 to 8) (size 9 to 14) (size 15 to 20)
#    0.000    2.154    0.000    3.692    0.000   11.692 
#    0.000    2.308    0.000    4.615    0.000    0.000 
#    0.000    0.000    0.000    0.000    0.000    0.000 
#
# Total GULP energy -144929.805750 kJ/mol
# GULP energy per Si atom -5574.223298 kJ/mol
# Density = 2.037211 g / cm^3
# Si number density = 20.418588 Si / 1000 Ang^3
#
#
#
# Elastic Constant Matrix: (Units=GPa)
#
#
# Indices 1 2 3 4 5 6 
#
# 1 132.2942 14.9651 65.4384 0.0000 -0.9209 0.0000
# 2 14.9651 52.4113 18.9726 0.0000 0.8898 0.0000
# 3 65.4384 18.9726 83.3464 0.0000 13.5245 0.0000
# 4 0.0000 0.0000 0.0000 20.2717 0.0000 12.0489
# 5 -0.9209 0.8898 13.5245 0.0000 40.6419 0.0000
# 6 0.0000 0.0000 0.0000 12.0489 0.0000 32.7967
#
#
#
# Elastic Compliance Matrix: (Units=1/GPa)
#
#
# Indices 1 2 3 4 5 6 
#
# 1 0.012912 0.000158 -0.010804 0.000000 0.003884 0.000000
# 2 0.000158 0.020849 -0.005071 0.000000 0.001234 0.000000
# 3 -0.010804 -0.005071 0.022893 0.000000 -0.007752 0.000000
# 4 0.000000 0.000000 0.000000 0.063111 0.000000 -0.023186
# 5 0.003884 0.001234 -0.007752 0.000000 0.027246 0.000000
# 6 0.000000 0.000000 0.000000 -0.023186 0.000000 0.039009
#
#
# Mechanical properties :
#
#
# Convention : Reuss Voigt Hill
#
# Bulk Modulus (GPa) = 39.64885 51.86713 45.75799
# Shear Modulus (GPa) = 22.13754 29.98711 26.06233
#
# Velocity S-wave (km/s) = 3.29627 3.83641 3.57655
# Velocity P-wave (km/s) = 5.82644 6.71425 6.28604
#
# Compressibility (1/GPa) = 0.02522141
#
# Stress axis : x y z
#
# Youngs Moduli (GPa) = 77.44547 47.96336 43.68128
#
# Poissons Ratio (x) = -0.00759 0.47194
# Poissons Ratio (y) = -0.01226 0.22149
# Poissons Ratio (z) = 0.83674 0.24320
#
# Static dielectric constant tensor:
#      x y z
#    x 1.708790 0.000000 -0.018210 
#    y 0.000000 1.843070 0.000000 
#    z -0.018210 0.000000 1.700180 
# 
# From -- ./inp_files/49496.got.cif
#   From: 2010.05.17/outbox.cif.g08.bks.cpg/sg10_25_cif.got.tgz:49496.got - 2010.06.03 11:33:40.
