data_PCOD9149378
_publ_section_title
;
Structure prediction by ZEFSAII (Michael W. Deem and Ramdas Pophale) SiO2 
 PCOD9149378
Probable space group: P 2/M
;
_chemical_formula_sum "Si O2"
_cell_formula_units_Z 28
_cell_length_a 10.264077
_cell_length_b 7.658512
_cell_length_c 29.259703
_cell_angle_alpha 90.000000
_cell_angle_beta 37.463241
_cell_angle_gamma 90.000000
_cell_volume 1399.000865
_symmetry_space_group_name_H-M "P 2/M"
_symmetry_group_IT_number 10
_symmetry_cell_setting 'monoclinic'
loop_
_space_group_symop_operation_xyz
x,y,z
-x,y,-z
-x,-y,-z
x,-y,z
loop_
_atom_site_type_symbol
_atom_site_label
_atom_site_fract_x
_atom_site_fract_y
_atom_site_fract_z
Si Si1 0.322436 0.292761 0.584972
Si Si2 0.072898 0.208970 0.838487
Si Si3 0.731746 0.500000 0.958260
Si Si4 0.159910 0.788513 0.414854
Si Si5 0.871093 0.298522 0.678571
Si Si6 0.746366 0.500000 0.062339
Si Si7 0.396211 0.803795 0.832797
Si Si8 0.386526 0.789612 0.672149
O O1 0.500000 0.222239 0.500000
O O2 0.306371 0.500000 0.580070
O O3 0.383453 0.268474 0.620665
O O4 0.082992 0.222204 0.643174
O O5 0.250645 0.238074 0.828884
O O6 0.183601 0.260320 0.759615
O O7 0.871215 0.330407 0.905168
O O8 0.026505 0.000000 0.850817
O O9 0.500000 0.500000 0.000000
O O10 0.705478 0.500000 0.020121
O O11 0.089854 0.710390 0.386441
O O12 0.397669 0.730568 0.362601
O O13 0.000000 0.742636 0.500000
O O14 0.160060 0.000000 0.410016
O O15 0.842122 0.500000 0.700982
O O16 0.646153 0.205805 0.750408
O O17 0.652030 0.668019 0.114078
O O18 0.000000 0.500000 0.000000
O O19 0.340811 0.000000 0.862395
O O20 0.392244 0.000000 0.670399
#
# Coordination Sequence:
#
# PCOD9149378 Si02
#       8
#     4   4   2   4   4   2   4   4
#     4  10  23  40  56  84 127 172 216 268 323 373
#     4  10  22  42  68  98 130 167 213 260 315 385
#     4  12  28  46  70 100 135 170 202 254 325 380
#     4  10  20  34  55  87 122 157 207 267 317 367
#     4  11  22  37  60  87 124 164 216 270 309 374
#     4  12  24  44  70 104 133 162 220 256 305 410
#     4  11  22  41  71 100 131 169 211 269 326 371
#     4  10  21  37  60  88 118 163 215 255 309 382
#
# _framework density 20.014285000000001
#
# number of rings (size 3 to 8) (size 9 to 14) (size 15 to 20)
#    0.000    1.429    3.571    1.286    1.000    4.571 
#    0.000    1.429    0.000    0.000    0.000    0.000 
#    0.000    0.000    0.000    0.000    0.000    0.000 
#
# Total GULP energy -156505.708730 kJ/mol
# GULP energy per Si atom -5589.489598 kJ/mol
# Density = 1.996873 g / cm^3
# Si number density = 20.014285 Si / 1000 Ang^3
#
#
#
# Elastic Constant Matrix: (Units=GPa)
#
#
# Indices 1 2 3 4 5 6 
#
# 1 76.5236 14.2784 14.0202 0.0000 2.2354 0.0000
# 2 14.2784 67.2373 40.2911 0.0000 -1.8183 0.0000
# 3 14.0202 40.2911 96.2528 0.0000 11.1169 0.0000
# 4 0.0000 0.0000 0.0000 21.1444 0.0000 13.9512
# 5 2.2354 -1.8183 11.1169 0.0000 38.9881 0.0000
# 6 0.0000 0.0000 0.0000 13.9512 0.0000 16.1124
#
#
#
# Elastic Compliance Matrix: (Units=1/GPa)
#
#
# Indices 1 2 3 4 5 6 
#
# 1 0.013699 -0.002368 -0.000931 0.000000 -0.000630 0.000000
# 2 -0.002368 0.020709 -0.008739 0.000000 0.003593 0.000000
# 3 -0.000931 -0.008739 0.014708 0.000000 -0.004548 0.000000
# 4 0.000000 0.000000 0.000000 0.110320 0.000000 -0.095522
# 5 -0.000630 0.003593 -0.004548 0.000000 0.027149 0.000000
# 6 0.000000 0.000000 0.000000 -0.095522 0.000000 0.144773
#
#
# Mechanical properties :
#
#
# Convention : Reuss Voigt Hill
#
# Bulk Modulus (GPa) = 39.93625 41.91036 40.92331
# Shear Modulus (GPa) = 13.74446 26.67724 20.21085
#
# Velocity S-wave (km/s) = 2.62340 3.65486 3.18122
# Velocity P-wave (km/s) = 5.40125 6.22868 5.82966
#
# Compressibility (1/GPa) = 0.02503990
#
# Stress axis : x y z
#
# Youngs Moduli (GPa) = 72.99935 48.28708 67.98850
#
# Poissons Ratio (x) = 0.11434 0.06332
# Poissons Ratio (y) = 0.17286 0.59415
# Poissons Ratio (z) = 0.06799 0.42198
#
# Static dielectric constant tensor:
#      x y z
#    x 1.668110 0.000000 -0.019480 
#    y 0.000000 1.708150 0.000000 
#    z -0.019480 0.000000 1.684030 
# 
# From -- ./inp_files/92011.got.cif
#   From: 2010.05.17/outbox.cif.g08.bks.cpg/sg10_47_cif.got.tgz:92011.got - 2010.06.03 11:33:40.
