data_PCOD9149570
_publ_section_title
;
Structure prediction by ZEFSAII (Michael W. Deem and Ramdas Pophale) SiO2 
 PCOD9149570
Probable space group: P 2/M
;
_chemical_formula_sum "Si O2"
_cell_formula_units_Z 24
_cell_length_a 12.545176
_cell_length_b 19.591368
_cell_length_c 5.739205
_cell_angle_alpha 90.000000
_cell_angle_beta 74.311272
_cell_angle_gamma 90.000000
_cell_volume 1358.014835
_symmetry_space_group_name_H-M "P 2/M"
_symmetry_group_IT_number 10
_symmetry_cell_setting 'monoclinic'
loop_
_space_group_symop_operation_xyz
x,y,z
-x,y,-z
-x,-y,-z
x,-y,z
loop_
_atom_site_type_symbol
_atom_site_label
_atom_site_fract_x
_atom_site_fract_y
_atom_site_fract_z
Si Si1 0.652079 0.074225 0.281946
Si Si2 0.066484 0.424888 0.711166
Si Si3 0.500000 0.127731 0.000000
Si Si4 0.292232 0.826573 0.375193
Si Si5 0.000000 0.177620 0.000000
Si Si6 0.143052 0.923409 0.195982
Si Si7 0.112662 0.724632 0.592095
O O1 0.656204 0.145013 0.418441
O O2 0.649505 0.000000 0.407251
O O3 0.545549 0.080551 0.179491
O O4 0.763004 0.073654 0.059615
O O5 0.121869 0.500000 0.687978
O O6 0.131093 0.353637 0.653393
O O7 0.000000 0.425781 0.500000
O O8 0.000000 0.420023 0.000000
O O9 0.605806 0.171724 0.861909
O O10 0.205972 0.887729 0.369865
O O11 0.219663 0.758677 0.412496
O O12 0.088575 0.227567 0.829407
O O13 0.950663 0.127730 0.835105
O O14 0.104574 0.000000 0.264447
O O15 0.000000 0.728041 0.500000
#
# Coordination Sequence:
#
# PCOD9149570 Si02
#       7
#     4   4   2   4   2   4   4
#     4  10  20  35  52  69  93 126 173 231 285 325
#     4   9  18  33  55  85 119 152 182 215 265 332
#     4  10  23  36  52  70  93 128 180 232 277 324
#     4  11  21  36  51  73  99 134 178 226 277 324
#     4  12  19  34  49  74 102 144 178 214 265 326
#     4  10  21  33  48  71 100 137 182 224 267 324
#     4  11  21  34  54  79 111 144 173 217 272 329
#
# _framework density 17.672858000000002
#
# number of rings (size 3 to 8) (size 9 to 14) (size 15 to 20)
#    0.000    1.667    4.167    1.500    0.000    2.667 
#    0.000    0.833    0.000    0.000    0.000    0.583 
#    0.000    2.667    0.000    0.167    0.000    0.000 
#
# Total GULP energy -133673.743713 kJ/mol
# GULP energy per Si atom -5569.739321 kJ/mol
# Density = 1.763263 g / cm^3
# Si number density = 17.672858 Si / 1000 Ang^3
#
#
#
# Elastic Constant Matrix: (Units=GPa)
#
#
# Indices 1 2 3 4 5 6 
#
# 1 58.9211 40.0560 14.5500 0.0000 -5.6297 0.0000
# 2 40.0560 166.4379 21.3432 0.0000 -12.5832 0.0000
# 3 14.5500 21.3432 48.9386 0.0000 -1.1396 0.0000
# 4 0.0000 0.0000 0.0000 11.9674 0.0000 -3.8385
# 5 -5.6297 -12.5832 -1.1396 0.0000 31.6861 0.0000
# 6 0.0000 0.0000 0.0000 -3.8385 0.0000 12.2625
#
#
#
# Elastic Compliance Matrix: (Units=1/GPa)
#
#
# Indices 1 2 3 4 5 6 
#
# 1 0.021220 -0.004409 -0.004343 0.000000 0.001863 0.000000
# 2 -0.004409 0.007473 -0.001899 0.000000 0.002116 0.000000
# 3 -0.004343 -0.001899 0.022536 0.000000 -0.000715 0.000000
# 4 0.000000 0.000000 0.000000 0.092886 0.000000 0.029076
# 5 0.001863 0.002116 -0.000715 0.000000 0.032705 0.000000
# 6 0.000000 0.000000 0.000000 0.029076 0.000000 0.090651
#
#
# Mechanical properties :
#
#
# Convention : Reuss Voigt Hill
#
# Bulk Modulus (GPa) = 33.41388 47.35512 40.38450
# Shear Modulus (GPa) = 16.73652 24.40643 20.57147
#
# Velocity S-wave (km/s) = 3.08070 3.72023 3.41547
# Velocity P-wave (km/s) = 5.62159 6.73105 6.20118
#
# Compressibility (1/GPa) = 0.02992768
#
# Stress axis : x y z
#
# Youngs Moduli (GPa) = 47.12616 133.81752 44.37278
#
# Poissons Ratio (x) = 0.59002 0.19269
# Poissons Ratio (y) = 0.20779 0.08426
# Poissons Ratio (z) = 0.20465 0.25411
#
# Static dielectric constant tensor:
#      x y z
#    x 1.629780 0.000000 0.031560 
#    y 0.000000 1.591180 0.000000 
#    z 0.031560 0.000000 1.731610 
# 
# From -- ./inp_files/7409.got.cif
#   From: 2010.05.17/outbox.cif.g08.bks.cpg/sg10_4_cif.got.tgz:7409.got - 2010.06.03 11:33:40.
