data_PCOD9149286
_publ_section_title
;
Structure prediction by ZEFSAII (Michael W. Deem and Ramdas Pophale) SiO2 
 PCOD9149286
Probable space group: P 2/M
;
_chemical_formula_sum "Si O2"
_cell_formula_units_Z 20
_cell_length_a 12.049329
_cell_length_b 14.561544
_cell_length_c 7.202073
_cell_angle_alpha 90.000000
_cell_angle_beta 41.853395
_cell_angle_gamma 90.000000
_cell_volume 843.143232
_symmetry_space_group_name_H-M "P 2/M"
_symmetry_group_IT_number 10
_symmetry_cell_setting 'monoclinic'
loop_
_space_group_symop_operation_xyz
x,y,z
-x,y,-z
-x,-y,-z
x,-y,z
loop_
_atom_site_type_symbol
_atom_site_label
_atom_site_fract_x
_atom_site_fract_y
_atom_site_fract_z
Si Si1 0.797477 0.609032 0.423463
Si Si2 0.513224 0.902042 0.205663
Si Si3 0.881505 0.698285 0.918035
Si Si4 0.097224 0.900844 0.183672
Si Si5 0.517500 0.302176 0.269464
O O1 0.803520 0.500000 0.413901
O O2 0.612103 0.644336 0.696553
O O3 0.949335 0.648794 0.354169
O O4 0.832665 0.649779 0.172829
O O5 0.452760 0.803907 0.353151
O O6 0.435330 0.000000 0.364541
O O7 0.500000 0.898408 0.000000
O O8 0.706433 0.905191 0.018636
O O9 0.926087 0.805356 0.891477
O O10 0.716674 0.695454 0.993272
O O11 0.000000 0.892653 0.500000
O O12 0.047215 0.000000 0.163735
O O13 0.500000 0.339945 0.500000
#
# Coordination Sequence:
#
# PCOD9149286 Si02
#       5
#     4   4   4   4   4
#     4  10  20  34  55  77  99 132 176 219 264 307
#     4   9  18  32  51  77 106 138 173 206 251 312
#     4   9  18  33  51  77 104 133 168 214 256 303
#     4   9  18  32  51  76 106 139 170 204 250 308
#     4   9  19  33  51  79 104 134 172 213 262 306
#
# _framework density 23.720762000000001
#
# number of rings (size 3 to 8) (size 9 to 14) (size 15 to 20)
#    0.000    2.800    0.000    1.200    2.800    4.800 
#    0.000    5.000    0.000    3.000    0.000    0.000 
#    0.000    0.000    0.000    0.000    0.000    0.000 
#
# Total GULP energy -111528.226249 kJ/mol
# GULP energy per Si atom -5576.411312 kJ/mol
# Density = 2.366677 g / cm^3
# Si number density = 23.720762 Si / 1000 Ang^3
#
#
#
# Elastic Constant Matrix: (Units=GPa)
#
#
# Indices 1 2 3 4 5 6 
#
# 1 88.1778 47.4526 36.3366 0.0000 -17.3582 0.0000
# 2 47.4526 227.2836 60.8463 0.0000 -37.5367 0.0000
# 3 36.3366 60.8463 99.4673 0.0000 -23.8698 0.0000
# 4 0.0000 0.0000 0.0000 48.4333 0.0000 16.7012
# 5 -17.3582 -37.5367 -23.8698 0.0000 35.0789 0.0000
# 6 0.0000 0.0000 0.0000 16.7012 0.0000 57.9322
#
#
#
# Elastic Compliance Matrix: (Units=1/GPa)
#
#
# Indices 1 2 3 4 5 6 
#
# 1 0.014209 -0.001525 -0.003540 0.000000 0.002990 0.000000
# 2 -0.001525 0.005973 -0.002084 0.000000 0.004218 0.000000
# 3 -0.003540 -0.002084 0.013943 0.000000 0.005506 0.000000
# 4 0.000000 0.000000 0.000000 0.022926 0.000000 -0.006609
# 5 0.002990 0.004218 0.005506 0.000000 0.038247 0.000000
# 6 0.000000 0.000000 0.000000 -0.006609 0.000000 0.019167
#
#
# Mechanical properties :
#
#
# Convention : Reuss Voigt Hill
#
# Bulk Modulus (GPa) = 50.43935 78.24441 64.34188
# Shear Modulus (GPa) = 36.93510 46.30843 41.62176
#
# Velocity S-wave (km/s) = 3.95026 4.42320 4.19341
# Velocity P-wave (km/s) = 6.48969 7.69048 7.11546
#
# Compressibility (1/GPa) = 0.01982579
#
# Stress axis : x y z
#
# Youngs Moduli (GPa) = 70.37851 167.42407 71.72022
#
# Poissons Ratio (x) = 0.25531 0.25391
# Poissons Ratio (y) = 0.10732 0.14949
# Poissons Ratio (z) = 0.24916 0.34896
#
# Static dielectric constant tensor:
#      x y z
#    x 2.064940 0.000000 0.038570 
#    y 0.000000 1.902230 0.000000 
#    z 0.038570 0.000000 2.015440 
# 
# From -- ./inp_files/24233.got.cif
#   From: 2010.05.17/outbox.cif.g08.bks.cpg/sg10_13_cif.got.tgz:24233.got - 2010.06.03 11:33:40.
