data_PCOD9149212
_publ_section_title
;
Structure prediction by ZEFSAII (Michael W. Deem and Ramdas Pophale) SiO2 
 PCOD9149212
Probable space group: P 2/M
;
_chemical_formula_sum "Si O2"
_cell_formula_units_Z 32
_cell_length_a 11.120784
_cell_length_b 7.591609
_cell_length_c 29.091941
_cell_angle_alpha 90.000000
_cell_angle_beta 34.629490
_cell_angle_gamma 90.000000
_cell_volume 1395.708197
_symmetry_space_group_name_H-M "P 2/M"
_symmetry_group_IT_number 10
_symmetry_cell_setting 'monoclinic'
loop_
_space_group_symop_operation_xyz
x,y,z
-x,y,-z
-x,-y,-z
x,-y,z
loop_
_atom_site_type_symbol
_atom_site_label
_atom_site_fract_x
_atom_site_fract_y
_atom_site_fract_z
Si Si1 0.282631 0.715884 0.043650
Si Si2 0.903973 0.712301 0.228876
Si Si3 0.793626 0.215133 0.629470
Si Si4 0.435540 0.208607 0.385637
Si Si5 0.989157 0.705732 0.304823
Si Si6 0.192110 0.702639 0.969366
Si Si7 0.240323 0.211596 0.535512
Si Si8 0.426237 0.201678 0.212974
O O1 0.289919 0.500000 0.040765
O O2 0.083410 0.771242 0.137270
O O3 0.500000 0.772691 0.000000
O O4 0.250125 0.777284 0.001337
O O5 0.910539 0.500000 0.227548
O O6 0.666198 0.765579 0.292245
O O7 0.944952 0.775653 0.268008
O O8 0.733357 0.278408 0.597951
O O9 0.621239 0.274596 0.721332
O O10 0.023421 0.259705 0.576655
O O11 0.788888 0.000000 0.630649
O O12 0.415211 0.276931 0.444236
O O13 0.394500 0.000000 0.402311
O O14 0.042262 0.500000 0.284337
O O15 0.795883 0.722699 0.401565
O O16 0.196457 0.794934 0.261081
O O17 0.128375 0.500000 0.998721
O O18 0.400570 0.704887 0.872366
O O19 0.000000 0.782857 0.000000
O O20 0.255990 0.000000 0.535589
O O21 0.496914 0.000000 0.195132
#
# Coordination Sequence:
#
# PCOD9149212 Si02
#       8
#     4   4   4   4   4   4   4   4
#     4   9  18  36  59  78 104 146 189 226 273 333
#     4  10  22  37  55  79 107 142 180 225 276 325
#     4   8  16  32  54  78 105 142 182 218 262 320
#     4  10  20  34  54  79 109 145 181 221 268 324
#     4  10  20  36  57  79 105 140 184 227 269 320
#     4  10  21  35  55  84 113 144 184 230 279 333
#     4   9  18  34  56  80 107 142 183 223 268 321
#     4  10  20  35  57  82 109 142 179 223 275 327
#
# _framework density 22.927429
#
# number of rings (size 3 to 8) (size 9 to 14) (size 15 to 20)
#    0.000    2.500    0.000    2.625    1.750    5.750 
#    0.000    5.625    0.000    5.250    0.000    0.000 
#    0.000    0.000    0.000    0.000    0.000    0.000 
#
# Total GULP energy -178671.034536 kJ/mol
# GULP energy per Si atom -5583.469829 kJ/mol
# Density = 2.287525 g / cm^3
# Si number density = 22.927429 Si / 1000 Ang^3
#
#
#
# Elastic Constant Matrix: (Units=GPa)
#
#
# Indices 1 2 3 4 5 6 
#
# 1 120.1435 1.5920 39.5098 0.0000 18.1777 0.0000
# 2 1.5920 50.5865 -5.4137 0.0000 5.4712 0.0000
# 3 39.5098 -5.4137 112.2727 0.0000 23.9800 0.0000
# 4 0.0000 0.0000 0.0000 24.2959 0.0000 2.9214
# 5 18.1777 5.4712 23.9800 0.0000 28.4055 0.0000
# 6 0.0000 0.0000 0.0000 2.9214 0.0000 8.3481
#
#
#
# Elastic Compliance Matrix: (Units=1/GPa)
#
#
# Indices 1 2 3 4 5 6 
#
# 1 0.009789 -0.000147 -0.002586 0.000000 -0.004053 0.000000
# 2 -0.000147 0.020647 0.002289 0.000000 -0.005816 0.000000
# 3 -0.002586 0.002289 0.011795 0.000000 -0.008743 0.000000
# 4 0.000000 0.000000 0.000000 0.042967 0.000000 -0.015036
# 5 -0.004053 -0.005816 -0.008743 0.000000 0.046299 0.000000
# 6 0.000000 0.000000 0.000000 -0.015036 0.000000 0.125049
#
#
# Mechanical properties :
#
#
# Convention : Reuss Voigt Hill
#
# Bulk Modulus (GPa) = 24.18765 39.37544 31.78154
# Shear Modulus (GPa) = 18.43562 28.69756 23.56659
#
# Velocity S-wave (km/s) = 2.83872 3.54173 3.20953
# Velocity P-wave (km/s) = 4.61703 5.82549 5.25611
#
# Compressibility (1/GPa) = 0.04134341
#
# Stress axis : x y z
#
# Youngs Moduli (GPa) = 102.15526 48.43390 84.78303
#
# Poissons Ratio (x) = 0.00710 0.21927
# Poissons Ratio (y) = 0.01497 -0.19409
# Poissons Ratio (z) = 0.26420 -0.11088
#
# Static dielectric constant tensor:
#      x y z
#    x 1.858360 0.000000 0.017620 
#    y 0.000000 1.866160 0.000000 
#    z 0.017620 0.000000 1.835680 
# 
# From -- ./inp_files/49797.got.cif
#   From: 2010.05.17/outbox.cif.g08.bks.cpg/sg10_25_cif.got.tgz:49797.got - 2010.06.03 11:33:40.
