data_PCOD9149142
_publ_section_title
;
Structure prediction by ZEFSAII (Michael W. Deem and Ramdas Pophale) SiO2 
 PCOD9149142
Probable space group: P 2/M
;
_chemical_formula_sum "Si O2"
_cell_formula_units_Z 28
_cell_length_a 10.038114
_cell_length_b 11.899245
_cell_length_c 15.410294
_cell_angle_alpha 90.000000
_cell_angle_beta 58.714737
_cell_angle_gamma 90.000000
_cell_volume 1573.046260
_symmetry_space_group_name_H-M "P 2/M"
_symmetry_group_IT_number 10
_symmetry_cell_setting 'monoclinic'
loop_
_space_group_symop_operation_xyz
x,y,z
-x,y,-z
-x,-y,-z
x,-y,z
loop_
_atom_site_type_symbol
_atom_site_label
_atom_site_fract_x
_atom_site_fract_y
_atom_site_fract_z
Si Si1 0.670594 0.000000 0.829351
Si Si2 0.137863 0.634230 0.813811
Si Si3 0.705397 0.759050 0.084560
Si Si4 0.223085 0.367027 0.112172
Si Si5 0.657554 0.239817 0.758187
Si Si6 0.815829 0.369434 0.549267
Si Si7 0.705613 0.000000 0.017386
Si Si8 0.328323 0.635951 0.583013
O O1 0.708353 0.112913 0.764355
O O2 0.483275 0.000000 0.908826
O O3 0.741710 0.000000 0.902365
O O4 0.157097 0.500000 0.821418
O O5 0.180020 0.697453 0.887736
O O6 0.255548 0.673631 0.698236
O O7 0.962113 0.651398 0.839634
O O8 0.530283 0.759094 0.181571
O O9 0.758814 0.885374 0.044455
O O10 0.696895 0.693413 0.996283
O O11 0.252086 0.500000 0.100917
O O12 0.283231 0.315124 0.181293
O O13 0.728711 0.290704 0.646853
O O14 0.764454 0.500000 0.579665
O O15 0.779345 0.338118 0.462649
O O16 0.000000 0.364984 0.500000
O O17 0.500000 0.677046 0.500000
O O18 0.335648 0.500000 0.587383
#
# Coordination Sequence:
#
# PCOD9149142 Si02
#       8
#     2   4   4   4   4   4   2   4
#     4   9  18  36  56  77 106 141 179 224 277 317
#     4  10  21  36  52  76 113 148 173 211 274 329
#     4  11  21  35  56  79 106 141 185 225 260 319
#     4  11  22  34  50  78 115 146 170 212 276 331
#     4  11  21  35  58  81 104 139 185 229 264 316
#     4  10  20  34  53  80 110 138 173 220 273 322
#     4   9  18  36  56  76 105 142 182 225 272 308
#     4   9  17  31  51  73 100 136 176 214 254 310
#
# _framework density 17.799858
#
# number of rings (size 3 to 8) (size 9 to 14) (size 15 to 20)
#    0.000    1.857    1.429    3.429    0.000    7.429 
#    0.000    2.500    0.000    0.857    0.000    4.000 
#    0.000    0.000    0.000    0.000    0.000    0.000 
#
# Total GULP energy -156329.207587 kJ/mol
# GULP energy per Si atom -5583.185985 kJ/mol
# Density = 1.775934 g / cm^3
# Si number density = 17.799858 Si / 1000 Ang^3
#
#
#
# Elastic Constant Matrix: (Units=GPa)
#
#
# Indices 1 2 3 4 5 6 
#
# 1 49.6705 12.8331 -10.7440 0.0000 11.4511 0.0000
# 2 12.8331 86.6166 18.1160 0.0000 1.9181 0.0000
# 3 -10.7440 18.1160 55.9770 0.0000 3.0821 0.0000
# 4 0.0000 0.0000 0.0000 41.6379 0.0000 -21.2919
# 5 11.4511 1.9181 3.0821 0.0000 26.6974 0.0000
# 6 0.0000 0.0000 0.0000 -21.2919 0.0000 31.1617
#
#
#
# Elastic Compliance Matrix: (Units=1/GPa)
#
#
# Indices 1 2 3 4 5 6 
#
# 1 0.025633 -0.005046 0.007184 0.000000 -0.011461 0.000000
# 2 -0.005046 0.013382 -0.005400 0.000000 0.001827 0.000000
# 3 0.007184 -0.005400 0.021275 0.000000 -0.005150 0.000000
# 4 0.000000 0.000000 0.000000 0.036914 0.000000 0.025223
# 5 -0.011461 0.001827 -0.005150 0.000000 0.042836 0.000000
# 6 0.000000 0.000000 0.000000 0.025223 0.000000 0.049325
#
#
# Mechanical properties :
#
#
# Convention : Reuss Voigt Hill
#
# Bulk Modulus (GPa) = 18.59965 25.85269 22.22617
# Shear Modulus (GPa) = 23.38520 31.37000 27.37760
#
# Velocity S-wave (km/s) = 3.62855 4.20262 3.92609
# Velocity P-wave (km/s) = 5.29407 6.17292 5.75031
#
# Compressibility (1/GPa) = 0.05376445
#
# Stress axis : x y z
#
# Youngs Moduli (GPa) = 39.01254 74.72849 47.00456
#
# Poissons Ratio (x) = 0.37712 -0.33769
# Poissons Ratio (y) = 0.19688 0.25382
# Poissons Ratio (z) = -0.28027 0.40353
#
# Static dielectric constant tensor:
#      x y z
#    x 1.572790 0.000000 -0.017040 
#    y 0.000000 1.594930 0.000000 
#    z -0.017040 0.000000 1.591050 
# 
# From -- ./inp_files/28363.got.cif
#   From: 2010.05.17/outbox.cif.g08.bks.cpg/sg10_15_cif.got.tgz:28363.got - 2010.06.03 11:33:40.
