data_PCOD9149203
_publ_section_title
;
Structure prediction by ZEFSAII (Michael W. Deem and Ramdas Pophale) SiO2 
 PCOD9149203
Probable space group: P 2/M
;
_chemical_formula_sum "Si O2"
_cell_formula_units_Z 24
_cell_length_a 5.087588
_cell_length_b 16.482067
_cell_length_c 16.430030
_cell_angle_alpha 90.000000
_cell_angle_beta 86.072815
_cell_angle_gamma 90.000000
_cell_volume 1374.488144
_symmetry_space_group_name_H-M "P 2/M"
_symmetry_group_IT_number 10
_symmetry_cell_setting 'monoclinic'
loop_
_space_group_symop_operation_xyz
x,y,z
-x,y,-z
-x,-y,-z
x,-y,z
loop_
_atom_site_type_symbol
_atom_site_label
_atom_site_fract_x
_atom_site_fract_y
_atom_site_fract_z
Si Si1 0.767460 0.156789 0.447188
Si Si2 0.523427 0.404502 0.596915
Si Si3 0.762188 0.093194 0.942028
Si Si4 0.424581 0.092255 0.713358
Si Si5 0.907773 0.179200 0.779166
Si Si6 0.021008 0.311294 0.657497
O O1 0.500000 0.178099 0.500000
O O2 0.674593 0.097874 0.377192
O O3 0.000000 0.124443 0.500000
O O4 0.884342 0.236382 0.400918
O O5 0.500000 0.392021 0.500000
O O6 0.569652 0.500000 0.609002
O O7 0.762851 0.351878 0.626026
O O8 0.258293 0.374972 0.646882
O O9 0.789489 0.158039 0.869398
O O10 0.766576 0.000000 0.908736
O O11 0.500000 0.103072 0.000000
O O12 0.000000 0.100760 0.000000
O O13 0.693678 0.141483 0.720982
O O14 0.186492 0.132635 0.768459
O O15 0.465550 0.000000 0.737216
O O16 0.962087 0.269994 0.746104
#
# Coordination Sequence:
#
# PCOD9149203 Si02
#       6
#     4   4   4   4   4   4
#     4  11  21  33  49  68  94 134 180 221 259 296
#     4  11  22  35  54  79 106 136 171 215 264 314
#     4  10  20  34  54  79 107 137 169 212 262 311
#     4  11  22  34  49  69  97 136 178 221 260 294
#     4  11  22  36  54  76 103 137 175 212 259 318
#     4  11  21  35  53  73 102 135 170 210 257 314
#
# _framework density 17.461044000000001
#
# number of rings (size 3 to 8) (size 9 to 14) (size 15 to 20)
#    0.000    1.167    0.000   10.000    0.000    3.333 
#    0.000    0.000    0.000    0.000    0.000    0.000 
#    0.000   13.333    0.000    0.000    0.000    0.000 
#
# Total GULP energy -134116.741580 kJ/mol
# GULP energy per Si atom -5588.197566 kJ/mol
# Density = 1.742130 g / cm^3
# Si number density = 17.461044 Si / 1000 Ang^3
#
#
#
# Elastic Constant Matrix: (Units=GPa)
#
#
# Indices 1 2 3 4 5 6 
#
# 1 106.0505 21.8708 27.9916 0.0000 -3.9566 0.0000
# 2 21.8708 77.7679 38.8341 0.0000 -3.8914 0.0000
# 3 27.9916 38.8341 88.9559 0.0000 -2.2411 0.0000
# 4 0.0000 0.0000 0.0000 23.1489 0.0000 -1.5280
# 5 -3.9566 -3.8914 -2.2411 0.0000 22.1037 0.0000
# 6 0.0000 0.0000 0.0000 -1.5280 0.0000 17.9677
#
#
#
# Elastic Compliance Matrix: (Units=1/GPa)
#
#
# Indices 1 2 3 4 5 6 
#
# 1 0.010487 -0.001600 -0.002568 0.000000 0.001335 0.000000
# 2 -0.001600 0.016792 -0.006777 0.000000 0.001983 0.000000
# 3 -0.002568 -0.006777 0.015005 0.000000 -0.000131 0.000000
# 4 0.000000 0.000000 0.000000 0.043442 0.000000 0.003694
# 5 0.001335 0.001983 -0.000131 0.000000 0.045816 0.000000
# 6 0.000000 0.000000 0.000000 0.003694 0.000000 0.055970
#
#
# Mechanical properties :
#
#
# Convention : Reuss Voigt Hill
#
# Bulk Modulus (GPa) = 49.03468 50.01860 49.52664
# Shear Modulus (GPa) = 23.12666 24.91591 24.02128
#
# Velocity S-wave (km/s) = 3.64328 3.78159 3.71308
# Velocity P-wave (km/s) = 6.77062 6.91196 6.84165
#
# Compressibility (1/GPa) = 0.02039373
#
# Stress axis : x y z
#
# Youngs Moduli (GPa) = 95.35575 59.55103 66.64524
#
# Poissons Ratio (x) = 0.09530 0.17112
# Poissons Ratio (y) = 0.15260 0.45167
# Poissons Ratio (z) = 0.24484 0.40359
#
# Static dielectric constant tensor:
#      x y z
#    x 1.595360 0.000000 -0.005240 
#    y 0.000000 1.585810 0.000000 
#    z -0.005240 0.000000 1.620840 
# 
# From -- ./inp_files/59039.got.cif
#   From: 2010.05.17/outbox.cif.g08.bks.cpg/sg10_30_cif.got.tgz:59039.got - 2010.06.03 11:33:40.
