data_PCOD9149531
_publ_section_title
;
Structure prediction by ZEFSAII (Michael W. Deem and Ramdas Pophale) SiO2 
 PCOD9149531
Probable space group: P 2/M
;
_chemical_formula_sum "Si O2"
_cell_formula_units_Z 24
_cell_length_a 21.780109
_cell_length_b 7.920308
_cell_length_c 11.148929
_cell_angle_alpha 90.000000
_cell_angle_beta 33.381278
_cell_angle_gamma 90.000000
_cell_volume 1058.186223
_symmetry_space_group_name_H-M "P 2/M"
_symmetry_group_IT_number 10
_symmetry_cell_setting 'monoclinic'
loop_
_space_group_symop_operation_xyz
x,y,z
-x,y,-z
-x,-y,-z
x,-y,z
loop_
_atom_site_type_symbol
_atom_site_label
_atom_site_fract_x
_atom_site_fract_y
_atom_site_fract_z
Si Si1 0.752719 0.201857 0.349991
Si Si2 0.623422 0.205193 0.323775
Si Si3 0.029577 0.692705 0.130845
Si Si4 0.831243 0.701885 0.596673
Si Si5 0.372472 0.203704 0.210165
Si Si6 0.156344 0.801250 0.157810
O O1 0.679601 0.263968 0.355972
O O2 0.696291 0.269655 0.562423
O O3 0.742183 0.000000 0.370387
O O4 0.882144 0.236424 0.108262
O O5 0.500000 0.269884 0.500000
O O6 0.616651 0.000000 0.342262
O O7 0.713421 0.243034 0.074279
O O8 0.011049 0.500000 0.126785
O O9 0.090706 0.703561 0.161305
O O10 0.910212 0.772057 0.360345
O O11 0.841167 0.500000 0.581593
O O12 0.704112 0.750593 0.777856
O O13 0.871916 0.767715 0.658786
O O14 0.376954 0.000000 0.209182
O O15 0.500000 0.264824 0.000000
O O16 0.141483 0.000000 0.155007
#
# Coordination Sequence:
#
# PCOD9149531 Si02
#       6
#     4   4   4   4   4   4
#     4   9  19  36  58  85 114 146 190 242 287 335
#     4   8  15  28  52  82 110 142 179 226 282 335
#     4  10  21  38  59  84 118 156 191 234 291 348
#     4  11  24  39  57  83 118 159 196 234 287 347
#     4  10  23  41  62  86 114 151 195 242 290 341
#     4  10  20  34  58  89 118 150 190 239 290 341
#
# _framework density 22.680318
#
# number of rings (size 3 to 8) (size 9 to 14) (size 15 to 20)
#    0.000    2.333    0.000    3.000    2.333    6.333 
#    0.000    3.333    0.000    2.500    0.000    0.000 
#    0.000    0.000    0.000    0.000    0.000    0.000 
#
# Total GULP energy -134026.699634 kJ/mol
# GULP energy per Si atom -5584.445818 kJ/mol
# Density = 2.262870 g / cm^3
# Si number density = 22.680318 Si / 1000 Ang^3
#
#
#
# Elastic Constant Matrix: (Units=GPa)
#
#
# Indices 1 2 3 4 5 6 
#
# 1 73.6027 -4.6984 43.6981 0.0000 -1.7235 0.0000
# 2 -4.6984 29.5740 3.6125 0.0000 1.9273 0.0000
# 3 43.6981 3.6125 117.6308 0.0000 -4.7416 0.0000
# 4 0.0000 0.0000 0.0000 58.5903 0.0000 9.2618
# 5 -1.7235 1.9273 -4.7416 0.0000 47.2988 0.0000
# 6 0.0000 0.0000 0.0000 9.2618 0.0000 10.0825
#
#
#
# Elastic Compliance Matrix: (Units=1/GPa)
#
#
# Indices 1 2 3 4 5 6 
#
# 1 0.017817 0.003665 -0.006738 0.000000 -0.000176 0.000000
# 2 0.003665 0.034800 -0.002492 0.000000 -0.001534 0.000000
# 3 -0.006738 -0.002492 0.011120 0.000000 0.000971 0.000000
# 4 0.000000 0.000000 0.000000 0.019967 0.000000 -0.018342
# 5 -0.000176 -0.001534 0.000971 0.000000 0.021296 0.000000
# 6 0.000000 0.000000 0.000000 -0.018342 0.000000 0.116031
#
#
# Mechanical properties :
#
#
# Convention : Reuss Voigt Hill
#
# Bulk Modulus (GPa) = 19.00907 34.00354 26.50631
# Shear Modulus (GPa) = 20.02427 35.07401 27.54914
#
# Velocity S-wave (km/s) = 2.97457 3.93676 3.48900
# Velocity P-wave (km/s) = 4.49410 5.97404 5.28612
#
# Compressibility (1/GPa) = 0.05260646
#
# Stress axis : x y z
#
# Youngs Moduli (GPa) = 56.12651 28.73545 89.92773
#
# Poissons Ratio (x) = -0.10532 0.60596
# Poissons Ratio (y) = -0.20571 0.22411
# Poissons Ratio (z) = 0.37820 0.07161
#
# Static dielectric constant tensor:
#      x y z
#    x 1.841990 0.000000 0.000170 
#    y 0.000000 1.814110 0.000000 
#    z 0.000170 0.000000 1.880440 
# 
# From -- ./inp_files/56533.got.cif
#   From: 2010.05.17/outbox.cif.g08.bks.cpg/sg10_29_cif.got.tgz:56533.got - 2010.06.03 11:33:40.
