data_PCOD9149952
_publ_section_title
;
Structure prediction by ZEFSAII (Michael W. Deem and Ramdas Pophale) SiO2 
 PCOD9149952
Probable space group: P 2/M
;
_chemical_formula_sum "Si O2"
_cell_formula_units_Z 32
_cell_length_a 24.136049
_cell_length_b 8.075739
_cell_length_c 14.893239
_cell_angle_alpha 90.000000
_cell_angle_beta 150.895542
_cell_angle_gamma 90.000000
_cell_volume 1411.998328
_symmetry_space_group_name_H-M "P 2/M"
_symmetry_group_IT_number 10
_symmetry_cell_setting 'monoclinic'
loop_
_space_group_symop_operation_xyz
x,y,z
-x,y,-z
-x,-y,-z
x,-y,z
loop_
_atom_site_type_symbol
_atom_site_label
_atom_site_fract_x
_atom_site_fract_y
_atom_site_fract_z
Si Si1 0.206531 0.810942 0.572383
Si Si2 0.581455 0.311636 0.030034
Si Si3 0.114196 0.691132 0.946096
Si Si4 0.110044 0.690982 0.270405
Si Si5 0.754030 0.810502 0.706069
Si Si6 0.115990 0.799479 0.620410
Si Si7 0.508073 0.299672 0.290554
Si Si8 0.261873 0.301457 0.991751
O O1 0.317653 0.801898 0.791488
O O2 0.207623 0.703562 0.484834
O O3 0.116311 0.745347 0.517329
O O4 0.185433 0.000000 0.515826
O O5 0.624640 0.500000 0.074342
O O6 0.500000 0.319772 0.000000
O O7 0.517656 0.255916 0.849924
O O8 0.084929 0.500000 0.884668
O O9 0.209914 0.699539 0.158895
O O10 0.173300 0.766120 0.940870
O O11 0.001157 0.762104 0.835394
O O12 0.087850 0.500000 0.215395
O O13 0.156719 0.779068 0.248470
O O14 0.626836 0.772733 0.492109
O O15 0.762161 0.000000 0.746399
O O16 0.000000 0.741229 0.500000
O O17 0.119335 0.000000 0.623521
O O18 0.215379 0.739260 0.826840
O O19 0.516851 0.500000 0.307594
O O20 0.393901 0.246398 0.182843
O O21 0.263809 0.500000 0.005236
#
# Coordination Sequence:
#
# PCOD9149952 Si02
#       8
#     4   4   4   4   4   4   4   4
#     4  11  22  35  56  88 123 159 197 240 294 356
#     4  10  20  35  57  84 116 158 203 245 294 354
#     4  10  23  43  66  92 121 158 206 259 314 367
#     4  11  23  41  65  91 123 161 204 257 311 368
#     4  12  26  42  64  92 122 159 204 257 316 376
#     4  10  21  36  55  84 125 167 200 239 297 359
#     4  10  21  39  62  89 125 165 207 256 306 361
#     4  10  21  39  64  92 121 160 210 258 302 357
#
# _framework density 22.662917
#
# number of rings (size 3 to 8) (size 9 to 14) (size 15 to 20)
#    0.000    1.500    1.250    3.750    0.000    6.500 
#    0.000    2.500    0.000    0.000    0.000    0.000 
#    0.000    0.000    0.000    0.000    0.000    0.000 
#
# Total GULP energy -178767.498309 kJ/mol
# GULP energy per Si atom -5586.484322 kJ/mol
# Density = 2.261133 g / cm^3
# Si number density = 22.662917 Si / 1000 Ang^3
#
#
#
# Elastic Constant Matrix: (Units=GPa)
#
#
# Indices 1 2 3 4 5 6 
#
# 1 88.2062 2.4005 6.5435 0.0000 3.3878 0.0000
# 2 2.4005 36.3025 1.1413 0.0000 6.3231 0.0000
# 3 6.5435 1.1413 74.9055 0.0000 1.7826 0.0000
# 4 0.0000 0.0000 0.0000 29.4442 0.0000 -8.4017
# 5 3.3878 6.3231 1.7826 0.0000 36.5860 0.0000
# 6 0.0000 0.0000 0.0000 -8.4017 0.0000 14.4813
#
#
#
# Elastic Compliance Matrix: (Units=1/GPa)
#
#
# Indices 1 2 3 4 5 6 
#
# 1 0.011460 -0.000568 -0.000971 0.000000 -0.000916 0.000000
# 2 -0.000568 0.028437 -0.000268 0.000000 -0.004849 0.000000
# 3 -0.000971 -0.000268 0.013451 0.000000 -0.000519 0.000000
# 4 0.000000 0.000000 0.000000 0.040701 0.000000 0.023614
# 5 -0.000916 -0.004849 -0.000519 0.000000 0.028281 0.000000
# 6 0.000000 0.000000 0.000000 0.023614 0.000000 0.082754
#
#
# Mechanical properties :
#
#
# Convention : Reuss Voigt Hill
#
# Bulk Modulus (GPa) = 20.10675 24.39832 22.25253
# Shear Modulus (GPa) = 22.19504 28.72421 25.45963
#
# Velocity S-wave (km/s) = 3.13286 3.56399 3.35536
# Velocity P-wave (km/s) = 4.68804 5.26547 4.98513
#
# Compressibility (1/GPa) = 0.04973455
#
# Stress axis : x y z
#
# Youngs Moduli (GPa) = 87.26231 35.16564 74.34173
#
# Poissons Ratio (x) = 0.01997 0.07216
# Poissons Ratio (y) = 0.04954 0.01995
# Poissons Ratio (z) = 0.08470 0.00943
#
# Static dielectric constant tensor:
#      x y z
#    x 1.907950 0.000000 0.063400 
#    y 0.000000 1.807340 0.000000 
#    z 0.063400 0.000000 1.885990 
# 
# From -- ./inp_files/71628.got.cif
#   From: 2010.05.17/outbox.cif.g08.bks.cpg/sg10_36_cif.got.tgz:71628.got - 2010.06.03 11:33:40.
