data_PCOD9149867
_publ_section_title
;
Structure prediction by ZEFSAII (Michael W. Deem and Ramdas Pophale) SiO2 
 PCOD9149867
Probable space group: P 2/M
;
_chemical_formula_sum "Si O2"
_cell_formula_units_Z 32
_cell_length_a 13.125922
_cell_length_b 8.805997
_cell_length_c 14.527594
_cell_angle_alpha 90.000000
_cell_angle_beta 76.430915
_cell_angle_gamma 90.000000
_cell_volume 1632.328299
_symmetry_space_group_name_H-M "P 2/M"
_symmetry_group_IT_number 10
_symmetry_cell_setting 'monoclinic'
loop_
_space_group_symop_operation_xyz
x,y,z
-x,y,-z
-x,-y,-z
x,-y,z
loop_
_atom_site_type_symbol
_atom_site_label
_atom_site_fract_x
_atom_site_fract_y
_atom_site_fract_z
Si Si1 0.416762 0.679908 0.439518
Si Si2 0.039414 0.671256 0.595133
Si Si3 0.716174 0.682458 0.881005
Si Si4 0.756787 0.825011 0.405581
Si Si5 0.347356 0.183263 0.916149
Si Si6 0.175151 0.817040 0.806863
Si Si7 0.437544 0.818338 0.234143
Si Si8 0.048907 0.322050 0.192386
O O1 0.500000 0.725437 0.500000
O O2 0.423495 0.500000 0.423302
O O3 0.308182 0.725590 0.509838
O O4 0.434652 0.762476 0.339523
O O5 0.085257 0.500000 0.600339
O O6 0.123152 0.802531 0.591773
O O7 0.000000 0.676019 0.500000
O O8 0.956293 0.689133 0.694987
O O9 0.717118 0.500000 0.876511
O O10 0.837458 0.736663 0.861877
O O11 0.656166 0.740035 0.983988
O O12 0.656640 0.746300 0.804647
O O13 0.758573 0.772508 0.298748
O O14 0.722900 0.000000 0.417175
O O15 0.243755 0.228395 0.880190
O O16 0.451945 0.223382 0.837366
O O17 0.346353 0.000000 0.926791
O O18 0.057152 0.753806 0.824052
O O19 0.168628 0.000000 0.806271
O O20 0.428609 0.000000 0.233601
O O21 0.042776 0.500000 0.169533
#
# Coordination Sequence:
#
# PCOD9149867 Si02
#       8
#     4   4   4   4   4   4   4   4
#     4  11  24  40  60  88 121 157 196 239 291 354
#     4   9  18  33  55  79 109 154 195 233 288 347
#     4  11  24  40  60  88 123 159 198 247 300 356
#     4  10  20  35  56  85 117 151 193 240 290 346
#     4  10  22  41  63  86 115 154 201 250 305 359
#     4   9  19  37  61  87 117 155 198 249 298 351
#     4  11  24  42  64  89 119 157 199 248 302 354
#     4   9  20  37  55  83 120 156 194 242 297 353
#
# _framework density 19.603899999999999
#
# number of rings (size 3 to 8) (size 9 to 14) (size 15 to 20)
#    0.000    2.000    0.000    2.625    1.750    7.250 
#    0.000    2.500    0.000    0.000    0.000    0.000 
#    0.000    0.000    0.000    0.000    0.000    0.000 
#
# Total GULP energy -178599.093999 kJ/mol
# GULP energy per Si atom -5581.221687 kJ/mol
# Density = 1.955928 g / cm^3
# Si number density = 19.603900 Si / 1000 Ang^3
#
#
#
# Elastic Constant Matrix: (Units=GPa)
#
#
# Indices 1 2 3 4 5 6 
#
# 1 69.6456 21.5052 40.5544 0.0000 -4.4427 0.0000
# 2 21.5052 24.2969 28.6059 0.0000 1.8214 0.0000
# 3 40.5544 28.6059 97.6932 0.0000 -1.2810 0.0000
# 4 0.0000 0.0000 0.0000 32.4928 0.0000 0.7012
# 5 -4.4427 1.8214 -1.2810 0.0000 32.1692 0.0000
# 6 0.0000 0.0000 0.0000 0.7012 0.0000 26.0880
#
#
#
# Elastic Compliance Matrix: (Units=1/GPa)
#
#
# Indices 1 2 3 4 5 6 
#
# 1 0.021681 -0.013607 -0.004969 0.000000 0.003567 0.000000
# 2 -0.013607 0.071948 -0.015505 0.000000 -0.006570 0.000000
# 3 -0.004969 -0.015505 0.016850 0.000000 0.000863 0.000000
# 4 0.000000 0.000000 0.000000 0.030794 0.000000 -0.000828
# 5 0.003567 -0.006570 0.000863 0.000000 0.031985 0.000000
# 6 0.000000 0.000000 0.000000 -0.000828 0.000000 0.038354
#
#
# Mechanical properties :
#
#
# Convention : Reuss Voigt Hill
#
# Bulk Modulus (GPa) = 23.63092 41.44076 32.53584
# Shear Modulus (GPa) = 17.01374 24.88137 20.94756
#
# Velocity S-wave (km/s) = 2.94917 3.56646 3.27240
# Velocity P-wave (km/s) = 4.86592 6.17612 5.55975
#
# Compressibility (1/GPa) = 0.04231743
#
# Stress axis : x y z
#
# Youngs Moduli (GPa) = 46.12340 13.89887 59.34580
#
# Poissons Ratio (x) = 0.18912 0.29490
# Poissons Ratio (y) = 0.62759 0.92017
# Poissons Ratio (z) = 0.22920 0.21550
#
# Static dielectric constant tensor:
#      x y z
#    x 1.164660 0.000000 0.211440 
#    y 0.000000 1.674380 0.000000 
#    z 0.211440 0.000000 1.602250 
# 
# From -- ./inp_files/66491.got.cif
#   From: 2010.05.17/outbox.cif.g08.bks.cpg/sg10_34_cif.got.tgz:66491.got - 2010.06.03 11:33:40.
