data_PCOD9149620
_publ_section_title
;
Structure prediction by ZEFSAII (Michael W. Deem and Ramdas Pophale) SiO2 
 PCOD9149620
Probable space group: P 2/M
;
_chemical_formula_sum "Si O2"
_cell_formula_units_Z 32
_cell_length_a 26.220526
_cell_length_b 7.525256
_cell_length_c 19.389884
_cell_angle_alpha 90.000000
_cell_angle_beta 157.347835
_cell_angle_gamma 90.000000
_cell_volume 1473.505182
_symmetry_space_group_name_H-M "P 2/M"
_symmetry_group_IT_number 10
_symmetry_cell_setting 'monoclinic'
loop_
_space_group_symop_operation_xyz
x,y,z
-x,y,-z
-x,-y,-z
x,-y,z
loop_
_atom_site_type_symbol
_atom_site_label
_atom_site_fract_x
_atom_site_fract_y
_atom_site_fract_z
Si Si1 0.874690 0.296673 0.885975
Si Si2 0.923756 0.793893 0.101717
Si Si3 0.574045 0.283763 0.521807
Si Si4 0.135229 0.793599 0.627848
Si Si5 0.669902 0.714834 0.875997
Si Si6 0.870967 0.791880 0.531908
Si Si7 0.635245 0.297224 0.985480
Si Si8 0.565150 0.716136 0.154386
O O1 0.861660 0.500000 0.843947
O O2 0.724519 0.219037 0.697011
O O3 0.910122 0.297175 0.011061
O O4 0.000000 0.218111 0.000000
O O5 0.037823 0.717546 0.293825
O O6 0.953451 0.000000 0.123500
O O7 0.787491 0.784088 0.974626
O O8 0.500000 0.224847 0.500000
O O9 0.582686 0.500000 0.537717
O O10 0.472516 0.239714 0.333976
O O11 0.110655 0.715414 0.521693
O O12 0.244801 0.701838 0.810891
O O13 0.000000 0.791064 0.500000
O O14 0.178587 0.000000 0.673912
O O15 0.683881 0.500000 0.891343
O O16 0.676930 0.779555 0.963797
O O17 0.715544 0.774221 0.349970
O O18 0.909226 0.000000 0.575333
O O19 0.595574 0.500000 0.920145
O O20 0.517242 0.216323 0.882928
O O21 0.560608 0.500000 0.148158
O O22 0.500000 0.773225 0.000000
#
# Coordination Sequence:
#
# PCOD9149620 Si02
#       8
#     4   4   4   4   4   4   4   4
#     4  10  21  38  63  92 119 154 199 237 283 351
#     4  11  23  39  58  84 120 152 189 240 292 339
#     4   9  16  32  59  85 112 147 189 236 282 339
#     4  10  20  35  54  75 105 146 190 230 273 333
#     4  10  20  36  59  84 112 148 192 238 289 344
#     4  10  22  37  55  79 108 152 196 229 279 345
#     4  10  21  35  54  83 112 140 181 236 292 336
#     4  10  20  36  56  79 110 145 185 237 290 339
#
# _framework density 21.716923999999999
#
# number of rings (size 3 to 8) (size 9 to 14) (size 15 to 20)
#    0.000    2.000    2.500    1.125    0.000    4.750 
#    0.000    3.750    0.000    0.000    0.000    0.000 
#    0.000    0.000    0.000    0.000    0.000    0.000 
#
# Total GULP energy -178633.696207 kJ/mol
# GULP energy per Si atom -5582.303006 kJ/mol
# Density = 2.166750 g / cm^3
# Si number density = 21.716924 Si / 1000 Ang^3
#
#
#
# Elastic Constant Matrix: (Units=GPa)
#
#
# Indices 1 2 3 4 5 6 
#
# 1 116.1597 -4.3745 44.8230 0.0000 10.8718 0.0000
# 2 -4.3745 56.1918 -7.3618 0.0000 0.1302 0.0000
# 3 44.8230 -7.3618 142.7539 0.0000 3.3643 0.0000
# 4 0.0000 0.0000 0.0000 7.2182 0.0000 -10.6177
# 5 10.8718 0.1302 3.3643 0.0000 36.9432 0.0000
# 6 0.0000 0.0000 0.0000 -10.6177 0.0000 -7.4618
#
#
#
# Elastic Compliance Matrix: (Units=1/GPa)
#
#
# Indices 1 2 3 4 5 6 
#
# 1 0.010061 0.000387 -0.003076 0.000000 -0.002682 0.000000
# 2 0.000387 0.017933 0.000809 0.000000 -0.000251 0.000000
# 3 -0.003076 0.000809 0.008009 0.000000 0.000173 0.000000
# 4 0.000000 0.000000 0.000000 0.044790 0.000000 -0.063733
# 5 -0.002682 -0.000251 0.000173 0.000000 0.027843 0.000000
# 6 0.000000 0.000000 0.000000 -0.063733 0.000000 -0.043328
#
#
# Mechanical properties :
#
#
# Convention : Reuss Voigt Hill
#
# Bulk Modulus (GPa) = 31.01497 42.36431 36.68964
# Shear Modulus (GPa) = 62.64428 26.14118 44.39273
#
# Velocity S-wave (km/s) = 5.37666 3.47324 4.52614
# Velocity P-wave (km/s) = 7.27029 5.96945 6.65175
#
# Compressibility (1/GPa) = 0.03224250
#
# Stress axis : x y z
#
# Youngs Moduli (GPa) = 99.39000 55.76345 124.86655
#
# Poissons Ratio (x) = -0.02155 0.38409
# Poissons Ratio (y) = -0.03841 -0.10106
# Poissons Ratio (z) = 0.30572 -0.04513
#
# Static dielectric constant tensor:
#      x y z
#    x 1.793470 0.000000 0.017930 
#    y 0.000000 1.880410 0.000000 
#    z 0.017930 0.000000 1.803450 
# 
# From -- ./inp_files/86931.got.cif
#   From: 2010.05.17/outbox.cif.g08.bks.cpg/sg10_44_cif.got.tgz:86931.got - 2010.06.03 11:33:40.
