data_PCOD9149724
_publ_section_title
;
Structure prediction by ZEFSAII (Michael W. Deem and Ramdas Pophale) SiO2 
 PCOD9149724
Probable space group: P 2/M
;
_chemical_formula_sum "Si O2"
_cell_formula_units_Z 28
_cell_length_a 9.171838
_cell_length_b 21.559263
_cell_length_c 15.405279
_cell_angle_alpha 90.000000
_cell_angle_beta 30.352131
_cell_angle_gamma 90.000000
_cell_volume 1539.289509
_symmetry_space_group_name_H-M "P 2/M"
_symmetry_group_IT_number 10
_symmetry_cell_setting 'monoclinic'
loop_
_space_group_symop_operation_xyz
x,y,z
-x,y,-z
-x,-y,-z
x,-y,z
loop_
_atom_site_type_symbol
_atom_site_label
_atom_site_fract_x
_atom_site_fract_y
_atom_site_fract_z
Si Si1 0.172556 0.000000 0.640714
Si Si2 0.361551 0.799091 0.165292
Si Si3 0.672104 0.118238 0.135585
Si Si4 0.295632 0.652801 0.185517
Si Si5 0.279372 0.572756 0.536304
Si Si6 0.649267 0.568657 0.689091
Si Si7 0.645985 0.000000 0.023196
Si Si8 0.870276 0.892484 0.474494
O O1 0.500000 0.000000 0.500000
O O2 0.109092 0.941652 0.612355
O O3 0.979915 0.000000 0.825069
O O4 0.592060 0.821526 0.119100
O O5 0.288627 0.726453 0.202543
O O6 0.068605 0.835480 0.341363
O O7 0.500000 0.815175 0.000000
O O8 0.459804 0.119329 0.328013
O O9 0.595982 0.060424 0.109376
O O10 0.000000 0.114277 0.000000
O O11 0.424489 0.620509 0.204624
O O12 0.988216 0.619849 0.326286
O O13 0.500000 0.639661 0.000000
O O14 0.500000 0.583389 0.500000
O O15 0.180324 0.500000 0.590050
O O16 0.447677 0.579980 0.358871
O O17 0.560806 0.500000 0.763757
O O18 0.000000 0.568314 0.500000
O O19 0.500000 0.000000 0.000000
O O20 0.000000 0.915085 0.500000
#
# Coordination Sequence:
#
# PCOD9149724 Si02
#       8
#     2   4   4   4   4   4   2   4
#     4  12  22  34  54  82 108 135 176 223 272 325
#     4  10  22  40  56  76 109 148 189 227 273 336
#     4  11  22  38  58  84 112 139 181 236 284 327
#     4  10  20  35  55  80 109 144 188 231 273 333
#     4   9  18  34  56  83 114 146 183 230 279 326
#     4   8  15  29  52  78 105 140 178 215 261 322
#     4  12  22  36  60  82 111 149 178 223 286 339
#     4  10  21  37  57  78 104 141 180 217 271 334
#
# _framework density 18.190211000000001
#
# number of rings (size 3 to 8) (size 9 to 14) (size 15 to 20)
#    0.000    2.000    0.000    6.000    0.000    6.286 
#    0.000    7.143    0.000    2.571    0.000    0.000 
#    0.000    0.000    0.000    0.000    0.000    0.000 
#
# Total GULP energy -156090.422660 kJ/mol
# GULP energy per Si atom -5574.657952 kJ/mol
# Density = 1.814881 g / cm^3
# Si number density = 18.190211 Si / 1000 Ang^3
#
#
#
# Elastic Constant Matrix: (Units=GPa)
#
#
# Indices 1 2 3 4 5 6 
#
# 1 98.9414 57.9786 35.9620 0.0000 5.4519 0.0000
# 2 57.9786 94.5087 53.1688 0.0000 11.0518 0.0000
# 3 35.9620 53.1688 111.4206 0.0000 9.7297 0.0000
# 4 0.0000 0.0000 0.0000 29.2536 0.0000 9.1579
# 5 5.4519 11.0518 9.7297 0.0000 32.6244 0.0000
# 6 0.0000 0.0000 0.0000 9.1579 0.0000 18.4051
#
#
#
# Elastic Compliance Matrix: (Units=1/GPa)
#
#
# Indices 1 2 3 4 5 6 
#
# 1 0.015831 -0.009416 -0.000682 0.000000 0.000747 0.000000
# 2 -0.009416 0.020340 -0.006368 0.000000 -0.003417 0.000000
# 3 -0.000682 -0.006368 0.012358 0.000000 -0.001414 0.000000
# 4 0.000000 0.000000 0.000000 0.040491 0.000000 -0.020147
# 5 0.000747 -0.003417 -0.001414 0.000000 0.032106 0.000000
# 6 0.000000 0.000000 0.000000 -0.020147 0.000000 0.064357
#
#
# Mechanical properties :
#
#
# Convention : Reuss Voigt Hill
#
# Bulk Modulus (GPa) = 64.11776 66.56550 65.34163
# Shear Modulus (GPa) = 22.35994 26.57405 24.46699
#
# Velocity S-wave (km/s) = 3.50984 3.82632 3.67149
# Velocity P-wave (km/s) = 7.19377 7.49630 7.34659
#
# Compressibility (1/GPa) = 0.01559630
#
# Stress axis : x y z
#
# Youngs Moduli (GPa) = 63.16626 49.16447 80.92244
#
# Poissons Ratio (x) = 0.46293 0.05517
# Poissons Ratio (y) = 0.59477 0.51535
# Poissons Ratio (z) = 0.04306 0.31310
#
# Static dielectric constant tensor:
#      x y z
#    x 1.648990 0.000000 -0.006170 
#    y 0.000000 1.625240 0.000000 
#    z -0.006170 0.000000 1.634380 
# 
# From -- ./inp_files/62587.got.cif
#   From: 2010.05.17/outbox.cif.g08.bks.cpg/sg10_32_cif.got.tgz:62587.got - 2010.06.03 11:33:40.
