data_PCOD9149871
_publ_section_title
;
Structure prediction by ZEFSAII (Michael W. Deem and Ramdas Pophale) SiO2 
 PCOD9149871
Probable space group: P 2/M
;
_chemical_formula_sum "Si O2"
_cell_formula_units_Z 28
_cell_length_a 15.438558
_cell_length_b 15.204006
_cell_length_c 6.945386
_cell_angle_alpha 90.000000
_cell_angle_beta 119.628340
_cell_angle_gamma 90.000000
_cell_volume 1417.118298
_symmetry_space_group_name_H-M "P 2/M"
_symmetry_group_IT_number 10
_symmetry_cell_setting 'monoclinic'
loop_
_space_group_symop_operation_xyz
x,y,z
-x,y,-z
-x,-y,-z
x,-y,z
loop_
_atom_site_type_symbol
_atom_site_label
_atom_site_fract_x
_atom_site_fract_y
_atom_site_fract_z
Si Si1 0.742771 0.670783 0.942280
Si Si2 0.106432 0.790675 0.125077
Si Si3 0.925309 0.098510 0.272258
Si Si4 0.716225 0.397741 0.510823
Si Si5 0.890798 0.603902 0.431308
Si Si6 0.383024 0.749209 0.852194
Si Si7 0.769634 0.896830 0.421119
O O1 0.807060 0.738324 0.887742
O O2 0.703572 0.609486 0.726725
O O3 0.817751 0.623146 0.172612
O O4 0.664030 0.719329 0.993919
O O5 0.154745 0.841108 0.359655
O O6 0.079209 0.864438 0.940907
O O7 0.000000 0.738461 0.000000
O O8 0.821068 0.099911 0.267871
O O9 0.000000 0.146858 0.500000
O O10 0.963461 0.000000 0.291482
O O11 0.703172 0.500000 0.438687
O O12 0.827038 0.368462 0.550977
O O13 0.642796 0.331157 0.321408
O O14 0.904459 0.500000 0.470918
O O15 0.000000 0.641760 0.500000
O O16 0.327883 0.836451 0.711104
O O17 0.500000 0.762376 0.000000
O O18 0.756756 0.000000 0.467694
#
# Coordination Sequence:
#
# PCOD9149871 Si02
#       7
#     4   4   4   4   4   4   4
#     4  11  23  38  61  90 127 163 207 259 307 372
#     4  12  23  34  59  94 128 168 204 246 302 373
#     4  10  20  35  56  85 123 164 202 245 300 365
#     4  10  22  42  66  93 127 161 203 258 317 373
#     4   9  20  36  57  88 128 171 209 243 292 369
#     4  11  25  46  68  90 119 160 214 269 321 370
#     4  11  23  41  62  89 127 165 208 258 310 368
#
# _framework density 19.758407999999999
#
# number of rings (size 3 to 8) (size 9 to 14) (size 15 to 20)
#    0.000    1.429    4.286    0.857    2.000    2.857 
#    0.000    2.857    0.000    0.857    0.000    0.000 
#    0.000    0.000    0.000    0.000    0.000    0.000 
#
# Total GULP energy -156003.739071 kJ/mol
# GULP energy per Si atom -5571.562110 kJ/mol
# Density = 1.971344 g / cm^3
# Si number density = 19.758408 Si / 1000 Ang^3
#
#
#
# Elastic Constant Matrix: (Units=GPa)
#
#
# Indices 1 2 3 4 5 6 
#
# 1 84.8167 14.9907 51.8785 0.0000 20.2648 0.0000
# 2 14.9907 64.6407 12.6319 0.0000 14.2665 0.0000
# 3 51.8785 12.6319 89.8362 0.0000 -1.6534 0.0000
# 4 0.0000 0.0000 0.0000 31.1897 0.0000 -2.4171
# 5 20.2648 14.2665 -1.6534 0.0000 40.1504 0.0000
# 6 0.0000 0.0000 0.0000 -2.4171 0.0000 19.1629
#
#
#
# Elastic Compliance Matrix: (Units=1/GPa)
#
#
# Indices 1 2 3 4 5 6 
#
# 1 0.022917 -0.000011 -0.013456 0.000000 -0.012117 0.000000
# 2 -0.000011 0.017354 -0.002549 0.000000 -0.006266 0.000000
# 3 -0.013456 -0.002549 0.019417 0.000000 0.008497 0.000000
# 4 0.000000 0.000000 0.000000 0.032378 0.000000 0.004084
# 5 -0.012117 -0.006266 0.008497 0.000000 0.033598 0.000000
# 6 0.000000 0.000000 0.000000 0.004084 0.000000 0.052699
#
#
# Mechanical properties :
#
#
# Convention : Reuss Voigt Hill
#
# Bulk Modulus (GPa) = 36.15847 44.25509 40.20678
# Shear Modulus (GPa) = 22.76722 28.75345 25.76034
#
# Velocity S-wave (km/s) = 3.39821 3.81891 3.61469
# Velocity P-wave (km/s) = 5.80837 6.47242 6.14936
#
# Compressibility (1/GPa) = 0.02765604
#
# Stress axis : x y z
#
# Youngs Moduli (GPa) = 43.63493 57.62474 51.50233
#
# Poissons Ratio (x) = 0.00063 0.69300
# Poissons Ratio (y) = 0.00048 0.13128
# Poissons Ratio (z) = 0.58714 0.14689
#
# Static dielectric constant tensor:
#      x y z
#    x 1.733010 0.000000 -0.022520 
#    y 0.000000 1.735680 0.000000 
#    z -0.022520 0.000000 1.769130 
# 
# From -- ./inp_files/9757.got.cif
#   From: 2010.05.17/outbox.cif.g08.bks.cpg/sg10_5_cif.got.tgz:9757.got - 2010.06.03 11:33:40.
