data_PCOD9149883
_publ_section_title
;
Structure prediction by ZEFSAII (Michael W. Deem and Ramdas Pophale) SiO2 
 PCOD9149883
Probable space group: P 2/M
;
_chemical_formula_sum "Si O2"
_cell_formula_units_Z 18
_cell_length_a 16.523788
_cell_length_b 11.591256
_cell_length_c 18.290434
_cell_angle_alpha 90.000000
_cell_angle_beta 163.380136
_cell_angle_gamma 90.000000
_cell_volume 1001.985474
_symmetry_space_group_name_H-M "P 2/M"
_symmetry_group_IT_number 10
_symmetry_cell_setting 'monoclinic'
loop_
_space_group_symop_operation_xyz
x,y,z
-x,y,-z
-x,-y,-z
x,-y,z
loop_
_atom_site_type_symbol
_atom_site_label
_atom_site_fract_x
_atom_site_fract_y
_atom_site_fract_z
Si Si1 0.323654 0.640375 0.276227
Si Si2 0.150468 0.750799 0.770048
Si Si3 0.319534 0.368680 0.717146
Si Si4 0.299147 0.367187 0.533801
Si Si5 0.163119 0.000000 0.718371
O O1 0.500000 0.676457 0.500000
O O2 0.315738 0.500000 0.269403
O O3 0.490065 0.672611 0.346579
O O4 0.000000 0.680624 0.000000
O O5 0.999470 0.673931 0.576059
O O6 0.096818 0.882659 0.703945
O O7 0.974309 0.711944 0.689188
O O8 0.475583 0.717058 0.062531
O O9 0.333572 0.500000 0.756368
O O10 0.434484 0.369105 0.732141
O O11 0.210952 0.500000 0.441751
O O12 0.000000 0.000000 0.500000
O O13 0.500000 0.000000 0.000000
#
# Coordination Sequence:
#
# PCOD9149883 Si02
#       5
#     4   4   4   4   2
#     4   9  17  25  38  68 109 144 171 205 257 308
#     4  10  20  35  57  80 103 140 181 214 263 322
#     4   9  17  31  56  82 107 133 175 221 260 308
#     4   8  17  30  52  76 107 142 177 218 257 308
#     4  12  26  44  62  80 108 137 170 225 278 320
#
# _framework density 17.964333
#
# number of rings (size 3 to 8) (size 9 to 14) (size 15 to 20)
#    1.333    1.333    0.000    2.667    3.111    0.000 
#    0.000    0.000    0.000   22.667    0.000    1.556 
#    0.000    0.000    0.000    0.000    0.000    0.000 
#
# Total GULP energy -100245.578539 kJ/mol
# GULP energy per Si atom -5569.198808 kJ/mol
# Density = 1.792345 g / cm^3
# Si number density = 17.964333 Si / 1000 Ang^3
#
#
#
# Elastic Constant Matrix: (Units=GPa)
#
#
# Indices 1 2 3 4 5 6 
#
# 1 80.1888 12.1698 36.6937 0.0000 15.1077 0.0000
# 2 12.1698 91.5631 26.9297 0.0000 -1.0435 0.0000
# 3 36.6937 26.9297 124.9964 0.0000 -1.2805 0.0000
# 4 0.0000 0.0000 0.0000 20.8024 0.0000 -2.9593
# 5 15.1077 -1.0435 -1.2805 0.0000 30.3118 0.0000
# 6 0.0000 0.0000 0.0000 -2.9593 0.0000 8.7331
#
#
#
# Elastic Compliance Matrix: (Units=1/GPa)
#
#
# Indices 1 2 3 4 5 6 
#
# 1 0.016326 -0.000887 -0.004687 0.000000 -0.008366 0.000000
# 2 -0.000887 0.011711 -0.002255 0.000000 0.000750 0.000000
# 3 -0.004687 -0.002255 0.009890 0.000000 0.002676 0.000000
# 4 0.000000 0.000000 0.000000 0.050506 0.000000 0.017114
# 5 -0.008366 0.000750 0.002676 0.000000 0.037299 0.000000
# 6 0.000000 0.000000 0.000000 0.017114 0.000000 0.120307
#
#
# Mechanical properties :
#
#
# Convention : Reuss Voigt Hill
#
# Bulk Modulus (GPa) = 44.90654 49.81496 47.36075
# Shear Modulus (GPa) = 18.57910 26.69978 22.63944
#
# Velocity S-wave (km/s) = 3.21942 3.85939 3.55384
# Velocity P-wave (km/s) = 6.23470 6.90290 6.57729
#
# Compressibility (1/GPa) = 0.02226847
#
# Stress axis : x y z
#
# Youngs Moduli (GPa) = 61.25150 85.38926 101.11734
#
# Poissons Ratio (x) = 0.07571 0.47397
# Poissons Ratio (y) = 0.05431 0.22803
# Poissons Ratio (z) = 0.28711 0.19256
#
# Static dielectric constant tensor:
#      x y z
#    x 1.669430 0.000000 0.024360 
#    y 0.000000 1.593350 0.000000 
#    z 0.024360 0.000000 1.622650 
# 
# From -- ./inp_files/78056.got.cif
#   From: 2010.05.17/outbox.cif.g08.bks.cpg/sg10_40_cif.got.tgz:78056.got - 2010.06.03 11:33:40.
