data_PCOD9149763
_publ_section_title
;
Structure prediction by ZEFSAII (Michael W. Deem and Ramdas Pophale) SiO2 
 PCOD9149763
Probable space group: P 2/M
;
_chemical_formula_sum "Si O2"
_cell_formula_units_Z 32
_cell_length_a 27.571245
_cell_length_b 7.807100
_cell_length_c 21.951824
_cell_angle_alpha 90.000000
_cell_angle_beta 159.572782
_cell_angle_gamma 90.000000
_cell_volume 1649.163195
_symmetry_space_group_name_H-M "P 2/M"
_symmetry_group_IT_number 10
_symmetry_cell_setting 'monoclinic'
loop_
_space_group_symop_operation_xyz
x,y,z
-x,y,-z
-x,-y,-z
x,-y,z
loop_
_atom_site_type_symbol
_atom_site_label
_atom_site_fract_x
_atom_site_fract_y
_atom_site_fract_z
Si Si1 0.002196 0.294271 0.681985
Si Si2 0.702361 0.705536 0.016912
Si Si3 0.105392 0.290653 0.932684
Si Si4 0.612115 0.799502 0.582741
Si Si5 0.922344 0.698746 0.966520
Si Si6 0.421068 0.206043 0.997996
Si Si7 0.591102 0.707152 0.757822
Si Si8 0.707108 0.205924 0.278376
O O1 0.011391 0.500000 0.694707
O O2 0.857194 0.251387 0.480402
O O3 0.139292 0.231646 0.807133
O O4 0.018539 0.234720 0.771311
O O5 0.707255 0.500000 0.018115
O O6 0.638159 0.747624 0.006237
O O7 0.612259 0.764041 0.852536
O O8 0.103395 0.500000 0.931910
O O9 0.056250 0.226962 0.940611
O O10 0.266021 0.243188 0.108774
O O11 0.500000 0.733749 0.500000
O O12 0.758079 0.706414 0.760673
O O13 0.539885 0.778419 0.432336
O O14 0.636603 0.000000 0.624111
O O15 0.967817 0.500000 0.023584
O O16 0.000000 0.778590 0.000000
O O17 0.578157 0.266566 0.168527
O O18 0.423584 0.000000 0.998199
O O19 0.325971 0.266584 0.829354
O O20 0.582467 0.500000 0.746308
O O21 0.700138 0.000000 0.268934
#
# Coordination Sequence:
#
# PCOD9149763 Si02
#       8
#     4   4   4   4   4   4   4   4
#     4   9  18  33  53  77 104 134 168 213 263 305
#     4   9  19  34  53  80 107 130 168 217 260 304
#     4   8  15  31  53  74 100 133 168 210 257 302
#     4  11  22  34  52  79 107 136 173 216 259 306
#     4  10  20  35  56  78 101 136 179 217 257 308
#     4   9  19  36  55  73 103 141 173 210 252 298
#     4   9  17  33  56  76  99 136 176 212 253 306
#     4   9  19  36  54  74 101 139 181 208 240 306
#
# _framework density 19.403780000000001
#
# number of rings (size 3 to 8) (size 9 to 14) (size 15 to 20)
#    0.000    2.750    1.250    2.625    0.000    3.250 
#    2.250    6.250    0.000    0.000    0.000    0.000 
#    0.000    0.000    0.000    0.000    0.000    0.000 
#
# Total GULP energy -178430.100060 kJ/mol
# GULP energy per Si atom -5575.940627 kJ/mol
# Density = 1.935962 g / cm^3
# Si number density = 19.403780 Si / 1000 Ang^3
#
#
#
# Elastic Constant Matrix: (Units=GPa)
#
#
# Indices 1 2 3 4 5 6 
#
# 1 186.4195 3.2972 61.0988 0.0000 -12.3620 0.0000
# 2 3.2972 23.2429 -6.6749 0.0000 -0.1285 0.0000
# 3 61.0988 -6.6749 93.7471 0.0000 -15.6053 0.0000
# 4 0.0000 0.0000 0.0000 466.5243 0.0000 -466.0929
# 5 -12.3620 -0.1285 -15.6053 0.0000 19.1472 0.0000
# 6 0.0000 0.0000 0.0000 -466.0929 0.0000 506.8131
#
#
#
# Elastic Compliance Matrix: (Units=1/GPa)
#
#
# Indices 1 2 3 4 5 6 
#
# 1 0.006952 -0.002294 -0.004570 0.000000 0.000749 0.000000
# 2 -0.002294 0.044859 0.005198 0.000000 0.003056 0.000000
# 3 -0.004570 0.005198 0.015654 0.000000 0.009843 0.000000
# 4 0.000000 0.000000 0.000000 0.026399 0.000000 0.024278
# 5 0.000749 0.003056 0.009843 0.000000 0.060753 0.000000
# 6 0.000000 0.000000 0.000000 0.024278 0.000000 0.024301
#
#
# Mechanical properties :
#
#
# Convention : Reuss Voigt Hill
#
# Bulk Modulus (GPa) = 15.59259 46.53907 31.06583
# Shear Modulus (GPa) = 24.55463 214.87615 119.71539
#
# Velocity S-wave (km/s) = 3.56118 10.53469 7.86326
# Velocity P-wave (km/s) = 4.99627 13.11524 9.92402
#
# Compressibility (1/GPa) = 0.06413305
#
# Stress axis : x y z
#
# Youngs Moduli (GPa) = 143.83893 22.29201 63.88203
#
# Poissons Ratio (x) = 0.05115 0.29193
# Poissons Ratio (y) = 0.33003 -0.33207
# Poissons Ratio (z) = 0.65731 -0.11588
#
# Static dielectric constant tensor:
#      x y z
#    x 1.696350 0.000000 -0.012700 
#    y 0.000000 1.721320 0.000000 
#    z -0.012700 0.000000 1.656980 
# 
# From -- ./inp_files/86951.got.cif
#   From: 2010.05.17/outbox.cif.g08.bks.cpg/sg10_44_cif.got.tgz:86951.got - 2010.06.03 11:33:40.
