data_PCOD9149581
_publ_section_title
;
Structure prediction by ZEFSAII (Michael W. Deem and Ramdas Pophale) SiO2 
 PCOD9149581
Probable space group: P 2/M
;
_chemical_formula_sum "Si O2"
_cell_formula_units_Z 32
_cell_length_a 9.137451
_cell_length_b 14.191893
_cell_length_c 23.789454
_cell_angle_alpha 90.000000
_cell_angle_beta 145.630766
_cell_angle_gamma 90.000000
_cell_volume 1741.534844
_symmetry_space_group_name_H-M "P 2/M"
_symmetry_group_IT_number 10
_symmetry_cell_setting 'monoclinic'
loop_
_space_group_symop_operation_xyz
x,y,z
-x,y,-z
-x,-y,-z
x,-y,z
loop_
_atom_site_type_symbol
_atom_site_label
_atom_site_fract_x
_atom_site_fract_y
_atom_site_fract_z
Si Si1 0.375026 0.397117 0.399585
Si Si2 0.939541 0.390161 0.540989
Si Si3 0.169744 0.111479 0.216086
Si Si4 0.808343 0.608718 0.087614
Si Si5 0.235783 0.110616 0.616721
Si Si6 0.701779 0.263867 0.270164
Si Si7 0.036219 0.745496 0.762413
Si Si8 0.903240 0.258382 0.906061
O O1 0.500000 0.403732 0.500000
O O2 0.244570 0.500000 0.347303
O O3 0.629402 0.387428 0.442992
O O4 0.210868 0.303052 0.344496
O O5 0.015920 0.500000 0.566773
O O6 0.098185 0.340294 0.640839
O O7 0.000000 0.346670 0.500000
O O8 0.480410 0.126230 0.320761
O O9 0.090562 0.168427 0.134324
O O10 0.026952 0.159514 0.223795
O O11 0.119671 0.000000 0.195756
O O12 0.893711 0.500000 0.113733
O O13 0.907517 0.668278 0.171871
O O14 0.918150 0.662617 0.067535
O O15 0.500000 0.609789 0.000000
O O16 0.233691 0.171486 0.672653
O O17 0.000000 0.132517 0.500000
O O18 0.217925 0.000000 0.624768
O O19 0.753225 0.248153 0.220317
O O20 0.400416 0.288356 0.186174
O O21 0.000000 0.238724 0.000000
#
# Coordination Sequence:
#
# PCOD9149581 Si02
#       8
#     4   4   4   4   4   4   4   4
#     4  10  20  35  52  77 114 153 192 229 273 329
#     4  10  22  35  52  79 113 150 191 233 272 327
#     4   9  21  39  59  85 112 147 189 235 288 343
#     4  10  22  40  61  85 116 151 187 230 282 339
#     4   9  19  36  56  79 111 148 187 234 286 342
#     4  11  22  35  57  83 113 148 188 236 281 338
#     4  11  22  35  58  83 114 152 189 236 281 337
#     4  10  22  40  62  86 113 146 187 236 286 340
#
# _framework density 18.374596
#
# number of rings (size 3 to 8) (size 9 to 14) (size 15 to 20)
#    0.000    2.000    1.250    1.500    7.000    2.000 
#    0.000    0.000    0.000   15.375    0.000    0.000 
#    0.000    0.000    0.000    0.000    0.000    0.000 
#
# Total GULP energy -178284.758082 kJ/mol
# GULP energy per Si atom -5571.398690 kJ/mol
# Density = 1.833277 g / cm^3
# Si number density = 18.374596 Si / 1000 Ang^3
#
#
#
# Elastic Constant Matrix: (Units=GPa)
#
#
# Indices 1 2 3 4 5 6 
#
# 1 127.5788 46.9318 16.5483 0.0000 -6.8105 0.0000
# 2 46.9318 110.1503 23.3081 0.0000 5.2195 0.0000
# 3 16.5483 23.3081 53.7336 0.0000 -4.6674 0.0000
# 4 0.0000 0.0000 0.0000 12.9312 0.0000 -10.0571
# 5 -6.8105 5.2195 -4.6674 0.0000 20.3516 0.0000
# 6 0.0000 0.0000 0.0000 -10.0571 0.0000 32.2998
#
#
#
# Elastic Compliance Matrix: (Units=1/GPa)
#
#
# Indices 1 2 3 4 5 6 
#
# 1 0.009692 -0.004150 -0.000827 0.000000 0.004118 0.000000
# 2 -0.004150 0.012043 -0.004423 0.000000 -0.005491 0.000000
# 3 -0.000827 -0.004423 0.021282 0.000000 0.005738 0.000000
# 4 0.000000 0.000000 0.000000 0.102044 0.000000 0.031773
# 5 0.004118 -0.005491 0.005738 0.000000 0.053239 0.000000
# 6 0.000000 0.000000 0.000000 0.031773 0.000000 0.040853
#
#
# Mechanical properties :
#
#
# Convention : Reuss Voigt Hill
#
# Bulk Modulus (GPa) = 41.29252 51.67102 46.48177
# Shear Modulus (GPa) = 18.79536 26.76148 22.77842
#
# Velocity S-wave (km/s) = 3.20175 3.82047 3.52471
# Velocity P-wave (km/s) = 6.01578 6.90241 6.47429
#
# Compressibility (1/GPa) = 0.02421746
#
# Stress axis : x y z
#
# Youngs Moduli (GPa) = 103.17926 83.03876 46.98810
#
# Poissons Ratio (x) = 0.34457 0.03887
# Poissons Ratio (y) = 0.42814 0.20782
# Poissons Ratio (z) = 0.08535 0.36726
#
# Static dielectric constant tensor:
#      x y z
#    x 1.624480 0.000000 -0.008860 
#    y 0.000000 1.630790 0.000000 
#    z -0.008860 0.000000 1.633950 
# 
# From -- ./inp_files/65145.got.cif
#   From: 2010.05.17/outbox.cif.g08.bks.cpg/sg10_33_cif.got.tgz:65145.got - 2010.06.03 11:33:40.
