data_PCOD9149434
_publ_section_title
;
Structure prediction by ZEFSAII (Michael W. Deem and Ramdas Pophale) SiO2 
 PCOD9149434
Probable space group: P 2/M
;
_chemical_formula_sum "Si O2"
_cell_formula_units_Z 32
_cell_length_a 13.913092
_cell_length_b 9.627862
_cell_length_c 23.292507
_cell_angle_alpha 90.000000
_cell_angle_beta 149.225540
_cell_angle_gamma 90.000000
_cell_volume 1596.434676
_symmetry_space_group_name_H-M "P 2/M"
_symmetry_group_IT_number 10
_symmetry_cell_setting 'monoclinic'
loop_
_space_group_symop_operation_xyz
x,y,z
-x,y,-z
-x,-y,-z
x,-y,z
loop_
_atom_site_type_symbol
_atom_site_label
_atom_site_fract_x
_atom_site_fract_y
_atom_site_fract_z
Si Si1 0.695523 0.153615 0.807437
Si Si2 0.047537 0.159746 0.262953
Si Si3 0.389114 0.846743 0.992646
Si Si4 0.728349 0.652220 0.303762
Si Si5 0.688393 0.276199 0.925542
Si Si6 0.099514 0.342129 0.177886
Si Si7 0.245056 0.840385 0.576646
Si Si8 0.033703 0.335114 0.371909
O O1 0.736476 0.181402 0.895502
O O2 0.787052 0.270907 0.815336
O O3 0.470765 0.156779 0.684941
O O4 0.765135 0.000000 0.826588
O O5 0.120313 0.245438 0.244948
O O6 0.824838 0.148241 0.137614
O O7 0.068312 0.249695 0.331403
O O8 0.120336 0.000000 0.304350
O O9 0.476054 0.000000 0.041277
O O10 0.500000 0.765461 0.000000
O O11 0.383643 0.797194 0.054247
O O12 0.799524 0.500000 0.359199
O O13 0.502239 0.645435 0.189638
O O14 0.787392 0.773589 0.377338
O O15 0.821498 0.676460 0.289129
O O16 0.881740 0.345583 0.045214
O O17 0.159376 0.500000 0.220094
O O18 0.157443 0.738413 0.484580
O O19 0.177876 0.000000 0.537540
O O20 0.072714 0.500000 0.384827
#
# Coordination Sequence:
#
# PCOD9149434 Si02
#       8
#     4   4   4   4   4   4   4   4
#     4  10  22  39  59  83 112 147 189 238 290 340
#     4  10  21  37  57  80 110 148 189 233 280 334
#     4   9  17  30  50  79 114 150 188 229 272 321
#     4  10  21  36  55  84 121 156 188 226 276 333
#     4  10  20  34  56  84 118 154 191 228 273 331
#     4  11  23  38  58  84 114 148 188 235 285 336
#     4  10  22  39  59  84 113 147 190 238 285 335
#     4  11  22  37  59  85 115 151 189 232 282 334
#
# _framework density 20.044667
#
# number of rings (size 3 to 8) (size 9 to 14) (size 15 to 20)
#    0.000    1.875    0.000    3.750    0.000    8.500 
#    0.000    0.625    0.000    9.750    0.000    0.000 
#    0.000    0.000    0.000    0.000    0.000    0.000 
#
# Total GULP energy -178387.906885 kJ/mol
# GULP energy per Si atom -5574.622090 kJ/mol
# Density = 1.999904 g / cm^3
# Si number density = 20.044667 Si / 1000 Ang^3
#
#
#
# Elastic Constant Matrix: (Units=GPa)
#
#
# Indices 1 2 3 4 5 6 
#
# 1 124.2812 64.7827 18.9182 0.0000 -19.8974 0.0000
# 2 64.7827 158.7753 31.3177 0.0000 -17.5457 0.0000
# 3 18.9182 31.3177 40.7649 0.0000 -18.7086 0.0000
# 4 0.0000 0.0000 0.0000 15.7653 0.0000 -22.3852
# 5 -19.8974 -17.5457 -18.7086 0.0000 29.0390 0.0000
# 6 0.0000 0.0000 0.0000 -22.3852 0.0000 78.1258
#
#
#
# Elastic Compliance Matrix: (Units=1/GPa)
#
#
# Indices 1 2 3 4 5 6 
#
# 1 0.010891 -0.003936 0.000430 0.000000 0.005361 0.000000
# 2 -0.003936 0.008873 -0.005349 0.000000 -0.000782 0.000000
# 3 0.000430 -0.005349 0.038466 0.000000 0.021845 0.000000
# 4 0.000000 0.000000 0.000000 0.106937 0.000000 0.030640
# 5 0.005361 -0.000782 0.021845 0.000000 0.051711 0.000000
# 6 0.000000 0.000000 0.000000 0.030640 0.000000 0.021579
#
#
# Mechanical properties :
#
#
# Convention : Reuss Voigt Hill
#
# Bulk Modulus (GPa) = 24.67892 61.53984 43.10938
# Shear Modulus (GPa) = 18.54099 38.50622 28.52361
#
# Velocity S-wave (km/s) = 3.04465 4.38770 3.77636
# Velocity P-wave (km/s) = 4.96977 7.51247 6.36929
#
# Compressibility (1/GPa) = 0.04052042
#
# Stress axis : x y z
#
# Youngs Moduli (GPa) = 91.82060 112.70450 25.99698
#
# Poissons Ratio (x) = 0.44360 -0.01118
# Poissons Ratio (y) = 0.36141 0.13905
# Poissons Ratio (z) = -0.03950 0.60283
#
# Static dielectric constant tensor:
#      x y z
#    x 1.748630 0.000000 0.008640 
#    y 0.000000 1.732740 0.000000 
#    z 0.008640 0.000000 1.718350 
# 
# From -- ./inp_files/89622.got.cif
#   From: 2010.05.17/outbox.cif.g08.bks.cpg/sg10_45_cif.got.tgz:89622.got - 2010.06.03 11:33:40.
