data_PCOD9149903
_publ_section_title
;
Structure prediction by ZEFSAII (Michael W. Deem and Ramdas Pophale) SiO2 
 PCOD9149903
Probable space group: P 2/M
;
_chemical_formula_sum "Si O2"
_cell_formula_units_Z 32
_cell_length_a 12.155769
_cell_length_b 8.971920
_cell_length_c 32.597516
_cell_angle_alpha 90.000000
_cell_angle_beta 150.031031
_cell_angle_gamma 90.000000
_cell_volume 1775.884392
_symmetry_space_group_name_H-M "P 2/M"
_symmetry_group_IT_number 10
_symmetry_cell_setting 'monoclinic'
loop_
_space_group_symop_operation_xyz
x,y,z
-x,y,-z
-x,-y,-z
x,-y,z
loop_
_atom_site_type_symbol
_atom_site_label
_atom_site_fract_x
_atom_site_fract_y
_atom_site_fract_z
Si Si1 0.193856 0.328646 0.528360
Si Si2 0.700664 0.677872 0.225480
Si Si3 0.316509 0.169588 0.991807
Si Si4 0.812545 0.177341 0.174719
Si Si5 0.876288 0.177942 0.363875
Si Si6 0.241427 0.172954 0.064829
Si Si7 0.496874 0.822806 0.308491
Si Si8 0.044823 0.675734 0.177132
O O1 0.251717 0.500000 0.537907
O O2 0.391450 0.242182 0.614244
O O3 0.000000 0.330369 0.500000
O O4 0.087697 0.245574 0.455374
O O5 0.711864 0.500000 0.228330
O O6 0.790179 0.745751 0.211692
O O7 0.831263 0.744872 0.306096
O O8 0.446656 0.732096 0.146991
O O9 0.163399 0.282216 0.918256
O O10 0.277897 0.000000 0.963976
O O11 0.576884 0.200700 0.075723
O O12 0.254448 0.172951 0.019780
O O13 0.997764 0.247258 0.205736
O O14 0.839099 0.000000 0.188378
O O15 0.666065 0.207122 0.325829
O O16 0.897166 0.000000 0.366327
O O17 0.268403 0.000000 0.087337
O O18 0.000000 0.225078 0.000000
O O19 0.262842 0.745015 0.227519
O O20 0.470174 0.000000 0.303070
O O21 0.067096 0.500000 0.188968
#
# Coordination Sequence:
#
# PCOD9149903 Si02
#       8
#     4   4   4   4   4   4   4   4
#     4   9  17  32  54  81 113 142 172 219 275 321
#     4  11  22  35  54  81 110 139 178 227 276 318
#     4   9  19  35  54  76 102 140 186 226 267 322
#     4  10  21  40  60  76 101 142 189 228 269 324
#     4  10  20  35  57  82 110 147 187 219 257 323
#     4   9  19  35  53  73 104 146 184 220 266 323
#     4  10  21  36  55  80 111 147 184 219 263 323
#     4  12  24  35  53  81 112 141 177 230 281 320
#
# _framework density 18.019189999999998
#
# number of rings (size 3 to 8) (size 9 to 14) (size 15 to 20)
#    0.000    2.000    0.000    4.875    1.750    7.250 
#    0.000    0.000    0.000    0.750    0.000    5.250 
#    0.000    0.000    0.000    0.000    0.000    0.000 
#
# Total GULP energy -178711.650155 kJ/mol
# GULP energy per Si atom -5584.739067 kJ/mol
# Density = 1.797818 g / cm^3
# Si number density = 18.019190 Si / 1000 Ang^3
#
#
#
# Elastic Constant Matrix: (Units=GPa)
#
#
# Indices 1 2 3 4 5 6 
#
# 1 19.4601 20.5989 10.4881 0.0000 -2.7868 0.0000
# 2 20.5989 109.4059 41.9280 0.0000 -13.2123 0.0000
# 3 10.4881 41.9280 50.6089 0.0000 -24.5593 0.0000
# 4 0.0000 0.0000 0.0000 -116.3717 0.0000 -74.8600
# 5 -2.7868 -13.2123 -24.5593 0.0000 22.5732 0.0000
# 6 0.0000 0.0000 0.0000 -74.8600 0.0000 -13.5207
#
#
#
# Elastic Compliance Matrix: (Units=1/GPa)
#
#
# Indices 1 2 3 4 5 6 
#
# 1 0.065570 -0.009727 -0.009247 0.000000 -0.007659 0.000000
# 2 -0.009727 0.015750 -0.015131 0.000000 -0.008444 0.000000
# 3 -0.009247 -0.015131 0.062199 0.000000 0.057673 0.000000
# 4 0.000000 0.000000 0.000000 0.003355 0.000000 -0.018573
# 5 -0.007659 -0.008444 0.057673 0.000000 0.101160 0.000000
# 6 0.000000 0.000000 0.000000 -0.018573 0.000000 0.028872
#
#
# Mechanical properties :
#
#
# Convention : Reuss Voigt Hill
#
# Bulk Modulus (GPa) = 13.27835 36.16721 24.72278
# Shear Modulus (GPa) = 13.50555 -14.36652 -0.43048
#
# Velocity S-wave (km/s) = 2.74069 -2.82670 -0.48931
# Velocity P-wave (km/s) = 4.17135 3.07595 3.66481
#
# Compressibility (1/GPa) = 0.07531054
#
# Stress axis : x y z
#
# Youngs Moduli (GPa) = 15.25088 63.49023 16.07754
#
# Poissons Ratio (x) = 0.61755 0.14867
# Poissons Ratio (y) = 0.14834 0.24326
# Poissons Ratio (z) = 0.14102 0.96065
#
# Static dielectric constant tensor:
#      x y z
#    x 1.618180 0.000000 -0.001570 
#    y 0.000000 1.599000 0.000000 
#    z -0.001570 0.000000 1.604590 
# 
# From -- ./inp_files/55302.got.cif
#   From: 2010.05.17/outbox.cif.g08.bks.cpg/sg10_28_cif.got.tgz:55302.got - 2010.06.03 11:33:40.
