data_PCOD9149920
_publ_section_title
;
Structure prediction by ZEFSAII (Michael W. Deem and Ramdas Pophale) SiO2 
 PCOD9149920
Probable space group: P 2/M
;
_chemical_formula_sum "Si O2"
_cell_formula_units_Z 32
_cell_length_a 29.769957
_cell_length_b 8.368336
_cell_length_c 11.985129
_cell_angle_alpha 90.000000
_cell_angle_beta 148.387845
_cell_angle_gamma 90.000000
_cell_volume 1565.054120
_symmetry_space_group_name_H-M "P 2/M"
_symmetry_group_IT_number 10
_symmetry_cell_setting 'monoclinic'
loop_
_space_group_symop_operation_xyz
x,y,z
-x,y,-z
-x,-y,-z
x,-y,z
loop_
_atom_site_type_symbol
_atom_site_label
_atom_site_fract_x
_atom_site_fract_y
_atom_site_fract_z
Si Si1 0.584893 0.304828 0.247956
Si Si2 0.655780 0.307457 0.006930
Si Si3 0.739158 0.693080 0.420616
Si Si4 0.075601 0.190524 0.242700
Si Si5 0.302181 0.189590 0.133957
Si Si6 0.956293 0.686789 0.575370
Si Si7 0.539577 0.307863 0.398722
Si Si8 0.121522 0.810422 0.817643
O O1 0.585108 0.500000 0.246805
O O2 0.672743 0.253288 0.375363
O O3 0.574037 0.251699 0.351784
O O4 0.500000 0.256094 0.000000
O O5 0.656502 0.500000 0.999302
O O6 0.709197 0.237090 0.018523
O O7 0.557406 0.250338 0.789765
O O8 0.694471 0.266147 0.208264
O O9 0.746347 0.500000 0.441196
O O10 0.833269 0.765653 0.618559
O O11 0.068264 0.262820 0.351644
O O12 0.068479 0.000000 0.239282
O O13 0.000000 0.246665 0.000000
O O14 0.391588 0.260412 0.364135
O O15 0.305677 0.000000 0.150836
O O16 0.219857 0.245767 0.029980
O O17 0.937676 0.500000 0.520964
O O18 0.909571 0.780276 0.375687
O O19 0.056508 0.721044 0.762019
O O20 0.534694 0.500000 0.385593
O O21 0.116696 0.000000 0.829690
#
# Coordination Sequence:
#
# PCOD9149920 Si02
#       8
#     4   4   4   4   4   4   4   4
#     4   9  16  33  60  87 115 145 185 235 289 345
#     4  10  20  35  57  84 114 149 191 237 288 344
#     4  10  20  36  63  93 116 146 192 246 294 345
#     4  11  25  43  60  82 119 163 198 237 295 362
#     4  11  24  37  52  79 116 155 193 234 281 338
#     4  11  22  38  64  92 115 143 192 251 295 342
#     4  10  20  35  57  83 113 152 191 234 287 343
#     4  10  21  39  61  85 118 159 193 230 291 360
#
# _framework density 20.446577000000001
#
# number of rings (size 3 to 8) (size 9 to 14) (size 15 to 20)
#    0.000    1.750    1.250    4.125    0.000    8.500 
#    0.000    3.125    0.000    0.750    0.000    0.000 
#    0.000    0.000    0.000    0.000    0.000    0.000 
#
# Total GULP energy -178806.529393 kJ/mol
# GULP energy per Si atom -5587.704044 kJ/mol
# Density = 2.040004 g / cm^3
# Si number density = 20.446577 Si / 1000 Ang^3
#
#
#
# Elastic Constant Matrix: (Units=GPa)
#
#
# Indices 1 2 3 4 5 6 
#
# 1 104.1069 1.1935 14.0698 0.0000 18.1690 0.0000
# 2 1.1935 11.0177 0.1632 0.0000 1.2185 0.0000
# 3 14.0698 0.1632 59.5827 0.0000 27.0117 0.0000
# 4 0.0000 0.0000 0.0000 10.5776 0.0000 21.0395
# 5 18.1690 1.2185 27.0117 0.0000 36.2812 0.0000
# 6 0.0000 0.0000 0.0000 21.0395 0.0000 45.9332
#
#
#
# Elastic Compliance Matrix: (Units=1/GPa)
#
#
# Indices 1 2 3 4 5 6 
#
# 1 0.010530 -0.000570 -0.000156 0.000000 -0.005138 0.000000
# 2 -0.000570 0.091248 0.001728 0.000000 -0.004065 0.000000
# 3 -0.000156 0.001728 0.025369 0.000000 -0.018867 0.000000
# 4 0.000000 0.000000 0.000000 1.063261 0.000000 -0.487022
# 5 -0.005138 -0.004065 -0.018867 0.000000 0.044319 0.000000
# 6 0.000000 0.000000 0.000000 -0.487022 0.000000 0.244849
#
#
# Mechanical properties :
#
#
# Convention : Reuss Voigt Hill
#
# Bulk Modulus (GPa) = 7.74286 22.84005 15.29146
# Shear Modulus (GPa) = 3.28813 29.17712 16.23262
#
# Velocity S-wave (km/s) = 1.26951 3.78165 2.82069
# Velocity P-wave (km/s) = 2.43802 5.50116 4.25480
#
# Compressibility (1/GPa) = 0.12915124
#
# Stress axis : x y z
#
# Youngs Moduli (GPa) = 94.96854 10.95909 39.41834
#
# Poissons Ratio (x) = 0.00625 0.00613
# Poissons Ratio (y) = 0.05414 -0.06810
# Poissons Ratio (z) = 0.01477 -0.01893
#
# Static dielectric constant tensor:
#      x y z
#    x 1.716280 0.000000 0.017210 
#    y 0.000000 1.705430 0.000000 
#    z 0.017210 0.000000 1.732040 
# 
# From -- ./inp_files/58243.got.cif
#   From: 2010.05.17/outbox.cif.g08.bks.cpg/sg10_30_cif.got.tgz:58243.got - 2010.06.03 11:33:40.
