data_PCOD9149497
_publ_section_title
;
Structure prediction by ZEFSAII (Michael W. Deem and Ramdas Pophale) SiO2 
 PCOD9149497
Probable space group: P 2/M
;
_chemical_formula_sum "Si O2"
_cell_formula_units_Z 28
_cell_length_a 9.771095
_cell_length_b 7.829139
_cell_length_c 35.746800
_cell_angle_alpha 90.000000
_cell_angle_beta 150.091827
_cell_angle_gamma 90.000000
_cell_volume 1363.504603
_symmetry_space_group_name_H-M "P 2/M"
_symmetry_group_IT_number 10
_symmetry_cell_setting 'monoclinic'
loop_
_space_group_symop_operation_xyz
x,y,z
-x,y,-z
-x,-y,-z
x,-y,z
loop_
_atom_site_type_symbol
_atom_site_label
_atom_site_fract_x
_atom_site_fract_y
_atom_site_fract_z
Si Si1 0.339355 0.206337 0.307405
Si Si2 0.775058 0.500000 0.524861
Si Si3 0.332600 0.296961 0.223200
Si Si4 0.743889 0.810682 0.466365
Si Si5 0.707582 0.204333 0.162459
Si Si6 0.297553 0.296713 0.920340
Si Si7 0.888995 0.500000 0.634073
Si Si8 0.273203 0.198676 0.750379
O O1 0.443411 0.263769 0.291427
O O2 0.507969 0.263134 0.383465
O O3 0.025256 0.263410 0.237088
O O4 0.349867 0.000000 0.310406
O O5 0.833858 0.676000 0.518141
O O6 0.945075 0.500000 0.603118
O O7 0.440532 0.500000 0.445373
O O8 0.330645 0.500000 0.216238
O O9 0.510559 0.216379 0.232183
O O10 0.015851 0.231081 0.149565
O O11 0.000000 0.831248 0.500000
O O12 0.665998 0.000000 0.462451
O O13 0.591827 0.268916 0.095614
O O14 0.601713 0.245854 0.179019
O O15 0.703318 0.000000 0.158469
O O16 0.277306 0.500000 0.920782
O O17 0.500000 0.226838 0.000000
O O18 0.027662 0.331373 0.684181
O O19 0.180308 0.000000 0.730660
#
# Coordination Sequence:
#
# PCOD9149497 Si02
#       8
#     4   2   4   4   4   4   2   4
#     4   9  18  34  55  81 110 144 194 246 293 349
#     4  11  25  42  58  82 119 151 200 247 292 366
#     4  10  20  34  57  88 119 154 199 243 292 352
#     4  10  22  37  58  85 115 152 193 243 304 355
#     4   9  19  35  57  84 111 150 197 239 286 341
#     4   9  19  36  59  89 124 159 192 234 290 348
#     4  11  26  42  60  86 111 158 202 239 300 360
#     4  11  23  40  62  87 119 153 197 250 296 346
#
# _framework density 20.535316999999999
#
# number of rings (size 3 to 8) (size 9 to 14) (size 15 to 20)
#    0.000    2.143    0.714    1.500    4.000    3.143 
#    0.000    2.143    0.000    4.286    0.000    0.000 
#    0.000    0.000    0.000    0.000    0.000    0.000 
#
# Total GULP energy -156167.609363 kJ/mol
# GULP energy per Si atom -5577.414620 kJ/mol
# Density = 2.048858 g / cm^3
# Si number density = 20.535317 Si / 1000 Ang^3
#
#
#
# Elastic Constant Matrix: (Units=GPa)
#
#
# Indices 1 2 3 4 5 6 
#
# 1 81.7373 14.3557 10.7476 0.0000 -25.0548 0.0000
# 2 14.3557 74.2193 25.1882 0.0000 -11.6212 0.0000
# 3 10.7476 25.1882 82.0300 0.0000 -29.6600 0.0000
# 4 0.0000 0.0000 0.0000 52.4392 0.0000 11.8191
# 5 -25.0548 -11.6212 -29.6600 0.0000 33.6527 0.0000
# 6 0.0000 0.0000 0.0000 11.8191 0.0000 37.4840
#
#
#
# Elastic Compliance Matrix: (Units=1/GPa)
#
#
# Indices 1 2 3 4 5 6 
#
# 1 0.016769 -0.002212 0.003993 0.000000 0.015240 0.000000
# 2 -0.002212 0.015395 -0.004566 0.000000 -0.000355 0.000000
# 3 0.003993 -0.004566 0.019923 0.000000 0.018955 0.000000
# 4 0.000000 0.000000 0.000000 0.020529 0.000000 -0.006473
# 5 0.015240 -0.000355 0.018955 0.000000 0.057645 0.000000
# 6 0.000000 0.000000 0.000000 -0.006473 0.000000 0.028719
#
#
# Mechanical properties :
#
#
# Convention : Reuss Voigt Hill
#
# Bulk Modulus (GPa) = 21.49747 37.61885 29.55816
# Shear Modulus (GPa) = 27.76885 37.22817 32.49851
#
# Velocity S-wave (km/s) = 3.68128 4.26242 3.98246
# Velocity P-wave (km/s) = 5.34419 6.52558 5.96421
#
# Compressibility (1/GPa) = 0.04651710
#
# Stress axis : x y z
#
# Youngs Moduli (GPa) = 59.63266 64.95419 50.19255
#
# Poissons Ratio (x) = 0.14370 -0.20040
# Poissons Ratio (y) = 0.13193 0.22916
# Poissons Ratio (z) = -0.23809 0.29656
#
# Static dielectric constant tensor:
#      x y z
#    x 1.772540 0.000000 0.004230 
#    y 0.000000 1.780900 0.000000 
#    z 0.004230 0.000000 1.748750 
# 
# From -- ./inp_files/94552.got.cif
#   From: 2010.05.17/outbox.cif.g08.bks.cpg/sg10_48_cif.got.tgz:94552.got - 2010.06.03 11:33:40.
