data_PCOD9149050
_publ_section_title
;
Structure prediction by ZEFSAII (Michael W. Deem and Ramdas Pophale) SiO2 
 PCOD9149050
Probable space group: P 2/M
;
_chemical_formula_sum "Si O2"
_cell_formula_units_Z 24
_cell_length_a 15.615198
_cell_length_b 16.266503
_cell_length_c 8.072272
_cell_angle_alpha 90.000000
_cell_angle_beta 37.501905
_cell_angle_gamma 90.000000
_cell_volume 1248.255320
_symmetry_space_group_name_H-M "P 2/M"
_symmetry_group_IT_number 10
_symmetry_cell_setting 'monoclinic'
loop_
_space_group_symop_operation_xyz
x,y,z
-x,y,-z
-x,-y,-z
x,-y,z
loop_
_atom_site_type_symbol
_atom_site_label
_atom_site_fract_x
_atom_site_fract_y
_atom_site_fract_z
Si Si1 0.166422 0.908480 0.274496
Si Si2 0.654633 0.908719 0.674144
Si Si3 0.357991 0.741801 0.491633
Si Si4 0.839815 0.588374 0.804053
Si Si5 0.326669 0.254518 0.935649
Si Si6 0.837920 0.406836 0.206986
O O1 0.221764 0.909291 0.378621
O O2 0.000000 0.895867 0.500000
O O3 0.200734 0.000000 0.154500
O O4 0.253483 0.833063 0.068847
O O5 0.683263 0.831241 0.513282
O O6 0.651894 0.000000 0.598665
O O7 0.500000 0.899797 0.000000
O O8 0.524084 0.737143 0.203817
O O9 0.345374 0.737473 0.709715
O O10 0.264956 0.665099 0.571926
O O11 0.777918 0.500000 0.845106
O O12 0.000000 0.589815 0.500000
O O13 0.766221 0.670480 0.856210
O O14 0.831223 0.590393 0.017019
O O15 0.805472 0.500000 0.316994
O O16 0.000000 0.388420 0.000000
#
# Coordination Sequence:
#
# PCOD9149050 Si02
#       6
#     4   4   4   4   4   4
#     4  10  21  37  57  80 108 144 182 223 272 324
#     4  10  20  37  57  78 107 144 182 221 272 328
#     4  10  21  34  54  82 107 142 182 222 273 328
#     4   9  18  33  53  76 103 139 179 217 263 320
#     4  10  20  34  52  80 112 139 178 225 273 321
#     4   9  19  36  55  76 107 144 180 222 273 325
#
# _framework density 19.226834
#
# number of rings (size 3 to 8) (size 9 to 14) (size 15 to 20)
#    0.000    2.333    1.667    0.500    0.000    5.333 
#    0.000    5.000    0.000    4.000    0.000    0.000 
#    0.000    0.000    0.000    0.000    0.000    0.000 
#
# Total GULP energy -133681.831705 kJ/mol
# GULP energy per Si atom -5570.076321 kJ/mol
# Density = 1.918307 g / cm^3
# Si number density = 19.226834 Si / 1000 Ang^3
#
#
#
# Elastic Constant Matrix: (Units=GPa)
#
#
# Indices 1 2 3 4 5 6 
#
# 1 59.4399 44.2779 18.5546 0.0000 -29.9917 0.0000
# 2 44.2779 203.2728 74.6608 0.0000 -37.1529 0.0000
# 3 18.5546 74.6608 57.0802 0.0000 -26.8380 0.0000
# 4 0.0000 0.0000 0.0000 34.7950 0.0000 -7.1426
# 5 -29.9917 -37.1529 -26.8380 0.0000 27.4027 0.0000
# 6 0.0000 0.0000 0.0000 -7.1426 0.0000 31.0061
#
#
#
# Elastic Compliance Matrix: (Units=1/GPa)
#
#
# Indices 1 2 3 4 5 6 
#
# 1 0.049875 -0.008079 0.027563 0.000000 0.070629 0.000000
# 2 -0.008079 0.010802 -0.016264 0.000000 -0.010124 0.000000
# 3 0.027563 -0.016264 0.062369 0.000000 0.069200 0.000000
# 4 0.000000 0.000000 0.000000 0.030166 0.000000 0.006949
# 5 0.070629 -0.010124 0.069200 0.000000 0.167842 0.000000
# 6 0.000000 0.000000 0.000000 0.006949 0.000000 0.033853
#
#
# Mechanical properties :
#
#
# Convention : Reuss Voigt Hill
#
# Bulk Modulus (GPa) = 7.72275 66.08662 36.90469
# Shear Modulus (GPa) = 12.76717 30.79405 21.78061
#
# Velocity S-wave (km/s) = 2.57967 4.00636 3.36940
# Velocity P-wave (km/s) = 3.59142 7.47315 5.86286
#
# Compressibility (1/GPa) = 0.12948751
#
# Stress axis : x y z
#
# Youngs Moduli (GPa) = 20.05001 92.57331 16.03360
#
# Poissons Ratio (x) = 0.74785 -0.44193
# Poissons Ratio (y) = 0.16197 0.26076
# Poissons Ratio (z) = -0.55263 1.50558
#
# Static dielectric constant tensor:
#      x y z
#    x 1.693040 0.000000 0.000430 
#    y 0.000000 1.704800 0.000000 
#    z 0.000430 0.000000 1.690190 
# 
# From -- ./inp_files/29291.got.cif
#   From: 2010.05.17/outbox.cif.g08.bks.cpg/sg10_15_cif.got.tgz:29291.got - 2010.06.03 11:33:40.
