data_PCOD9149791
_publ_section_title
;
Structure prediction by ZEFSAII (Michael W. Deem and Ramdas Pophale) SiO2 
 PCOD9149791
Probable space group: P 2/M
;
_chemical_formula_sum "Si O2"
_cell_formula_units_Z 32
_cell_length_a 11.775048
_cell_length_b 7.454971
_cell_length_c 20.638181
_cell_angle_alpha 90.000000
_cell_angle_beta 126.666590
_cell_angle_gamma 90.000000
_cell_volume 1453.187214
_symmetry_space_group_name_H-M "P 2/M"
_symmetry_group_IT_number 10
_symmetry_cell_setting 'monoclinic'
loop_
_space_group_symop_operation_xyz
x,y,z
-x,y,-z
-x,-y,-z
x,-y,z
loop_
_atom_site_type_symbol
_atom_site_label
_atom_site_fract_x
_atom_site_fract_y
_atom_site_fract_z
Si Si1 0.998658 0.703809 0.760729
Si Si2 0.393810 0.217335 0.559014
Si Si3 0.765101 0.716477 0.930534
Si Si4 0.507869 0.708697 0.928817
Si Si5 0.312069 0.217189 0.384254
Si Si6 0.155633 0.219827 0.579292
Si Si7 0.758267 0.202239 0.248725
Si Si8 0.041577 0.282700 0.111220
O O1 0.054081 0.500000 0.784136
O O2 0.098542 0.799451 0.743992
O O3 0.837513 0.703036 0.683726
O O4 0.991668 0.787472 0.829317
O O5 0.346372 0.264318 0.470186
O O6 0.557887 0.274534 0.617524
O O7 0.279887 0.277847 0.572607
O O8 0.394474 0.000000 0.562602
O O9 0.748529 0.500000 0.918816
O O10 0.628952 0.786212 0.922512
O O11 0.817079 0.781672 0.877571
O O12 0.902883 0.750681 0.021306
O O13 0.547592 0.500000 0.951592
O O14 0.362040 0.715872 0.838716
O O15 0.500000 0.783606 0.000000
O O16 0.302337 0.000000 0.377874
O O17 0.199515 0.280303 0.666655
O O18 0.000000 0.275558 0.500000
O O19 0.151283 0.000000 0.579061
O O20 0.708093 0.000000 0.244151
O O21 0.055007 0.500000 0.121234
#
# Coordination Sequence:
#
# PCOD9149791 Si02
#       8
#     4   4   4   4   4   4   4   4
#     4  11  21  33  50  73 102 132 166 210 261 312
#     4   8  15  30  52  76 101 132 171 210 251 305
#     4   8  14  28  50  73  97 127 167 207 242 293
#     4  10  20  35  56  80 108 143 176 209 256 312
#     4   9  17  31  53  77  99 128 168 211 254 304
#     4   9  17  31  53  78 104 137 177 218 258 305
#     4  11  23  36  53  78 105 137 179 222 261 307
#     4   8  15  28  48  73  97 126 165 206 247 296
#
# _framework density 22.020562000000002
#
# number of rings (size 3 to 8) (size 9 to 14) (size 15 to 20)
#    0.000    2.750    0.000    3.750    0.000    5.250 
#    0.000    1.250    0.000    8.250    0.000    5.250 
#    0.000    0.000    0.000    0.000    0.000    0.000 
#
# Total GULP energy -178451.257695 kJ/mol
# GULP energy per Si atom -5576.601803 kJ/mol
# Density = 2.197044 g / cm^3
# Si number density = 22.020562 Si / 1000 Ang^3
#
#
#
# Elastic Constant Matrix: (Units=GPa)
#
#
# Indices 1 2 3 4 5 6 
#
# 1 210.1989 2.7166 72.4510 0.0000 -10.2158 0.0000
# 2 2.7166 63.4264 -1.9781 0.0000 -4.1386 0.0000
# 3 72.4510 -1.9781 84.0790 0.0000 -12.4719 0.0000
# 4 0.0000 0.0000 0.0000 6.7641 0.0000 9.5857
# 5 -10.2158 -4.1386 -12.4719 0.0000 35.7671 0.0000
# 6 0.0000 0.0000 0.0000 9.5857 0.0000 3.4206
#
#
#
# Elastic Compliance Matrix: (Units=1/GPa)
#
#
# Indices 1 2 3 4 5 6 
#
# 1 0.006782 -0.000485 -0.005881 0.000000 -0.000170 0.000000
# 2 -0.000485 0.015958 0.001104 0.000000 0.002093 0.000000
# 3 -0.005881 0.001104 0.017671 0.000000 0.004610 0.000000
# 4 0.000000 0.000000 0.000000 -0.049756 0.000000 0.139433
# 5 -0.000170 0.002093 0.004610 0.000000 0.029760 0.000000
# 6 0.000000 0.000000 0.000000 0.139433 0.000000 -0.098391
#
#
# Mechanical properties :
#
#
# Convention : Reuss Voigt Hill
#
# Bulk Modulus (GPa) = 33.45920 56.00926 44.73423
# Shear Modulus (GPa) = -86.97364 28.15804 -29.40780
#
# Velocity S-wave (km/s) = -6.29145 3.57979 -3.65837
# Velocity P-wave (km/s) = 6.12771 6.52509 1.58554
#
# Compressibility (1/GPa) = 0.02988715
#
# Stress axis : x y z
#
# Youngs Moduli (GPa) = 147.43834 62.66423 56.58973
#
# Poissons Ratio (x) = 0.03039 0.33281
# Poissons Ratio (y) = 0.07151 -0.06246
# Poissons Ratio (z) = 0.86709 -0.06917
#
# Static dielectric constant tensor:
#      x y z
#    x 1.808880 0.000000 -0.018970 
#    y 0.000000 1.898650 0.000000 
#    z -0.018970 0.000000 1.794890 
# 
# From -- ./inp_files/83643.got.cif
#   From: 2010.05.17/outbox.cif.g08.bks.cpg/sg10_42_cif.got.tgz:83643.got - 2010.06.03 11:33:40.
