data_PCOD9149233
_publ_section_title
;
Structure prediction by ZEFSAII (Michael W. Deem and Ramdas Pophale) SiO2 
 PCOD9149233
Probable space group: P 2/M
;
_chemical_formula_sum "Si O2"
_cell_formula_units_Z 28
_cell_length_a 9.060138
_cell_length_b 20.979256
_cell_length_c 15.229787
_cell_angle_alpha 90.000000
_cell_angle_beta 151.879000
_cell_angle_gamma 90.000000
_cell_volume 1364.421543
_symmetry_space_group_name_H-M "P 2/M"
_symmetry_group_IT_number 10
_symmetry_cell_setting 'monoclinic'
loop_
_space_group_symop_operation_xyz
x,y,z
-x,y,-z
-x,-y,-z
x,-y,z
loop_
_atom_site_type_symbol
_atom_site_label
_atom_site_fract_x
_atom_site_fract_y
_atom_site_fract_z
Si Si1 0.393000 0.697262 0.543672
Si Si2 0.232843 0.692489 0.705066
Si Si3 0.616703 0.073063 0.302346
Si Si4 0.358778 0.827255 0.829870
Si Si5 0.340839 0.430908 0.319619
Si Si6 0.405500 0.429044 0.052720
Si Si7 0.607581 0.837896 0.455296
O O1 0.500000 0.699042 0.500000
O O2 0.535836 0.633486 0.660448
O O3 0.488277 0.766912 0.628467
O O4 0.019271 0.689571 0.348316
O O5 0.412825 0.758589 0.812862
O O6 0.437258 0.629572 0.815116
O O7 0.000000 0.696837 0.500000
O O8 0.520101 0.116948 0.169750
O O9 0.509965 0.107387 0.336178
O O10 0.000000 0.073188 0.500000
O O11 0.513708 0.000000 0.242690
O O12 0.985029 0.835503 0.646600
O O13 0.500000 0.828563 0.000000
O O14 0.500000 0.432268 0.500000
O O15 0.414706 0.500000 0.316643
O O16 0.968776 0.426292 0.134877
O O17 0.508526 0.500000 0.136031
O O18 0.500000 0.423512 0.000000
O O19 0.500000 0.846766 0.500000
#
# Coordination Sequence:
#
# PCOD9149233 Si02
#       7
#     4   4   4   4   4   4   4
#     4   9  17  31  53  76 103 141 183 224 269 326
#     4  11  22  36  55  80 112 146 185 236 286 332
#     4   9  18  35  58  82 112 149 185 222 272 337
#     4  10  20  35  57  83 110 144 188 234 281 335
#     4   9  17  30  50  76 105 139 181 229 277 326
#     4  10  20  34  54  81 110 143 189 236 277 331
#     4   9  18  33  54  82 112 146 188 227 271 331
#
# _framework density 20.521518
#
# number of rings (size 3 to 8) (size 9 to 14) (size 15 to 20)
#    0.000    2.429    0.000    4.286    0.000    6.000 
#    0.000    1.429    0.000   11.143    0.000    0.000 
#    0.000    0.000    0.000    0.000    0.000    0.000 
#
# Total GULP energy -156167.058078 kJ/mol
# GULP energy per Si atom -5577.394931 kJ/mol
# Density = 2.047481 g / cm^3
# Si number density = 20.521518 Si / 1000 Ang^3
#
#
#
# Elastic Constant Matrix: (Units=GPa)
#
#
# Indices 1 2 3 4 5 6 
#
# 1 78.3934 63.1682 15.8661 0.0000 -16.4176 0.0000
# 2 63.1682 249.7084 63.4404 0.0000 -25.1533 0.0000
# 3 15.8661 63.4404 52.0046 0.0000 -25.1424 0.0000
# 4 0.0000 0.0000 0.0000 17.3788 0.0000 0.6116
# 5 -16.4176 -25.1533 -25.1424 0.0000 30.0492 0.0000
# 6 0.0000 0.0000 0.0000 0.6116 0.0000 46.0751
#
#
#
# Elastic Compliance Matrix: (Units=1/GPa)
#
#
# Indices 1 2 3 4 5 6 
#
# 1 0.017668 -0.004816 0.005379 0.000000 0.010122 0.000000
# 2 -0.004816 0.007174 -0.009490 0.000000 -0.004567 0.000000
# 3 0.005379 -0.009490 0.044913 0.000000 0.032574 0.000000
# 4 0.000000 0.000000 0.000000 0.057568 0.000000 -0.000764
# 5 0.010122 -0.004567 0.032574 0.000000 0.062241 0.000000
# 6 0.000000 0.000000 0.000000 -0.000764 0.000000 0.021714
#
#
# Mechanical properties :
#
#
# Convention : Reuss Voigt Hill
#
# Bulk Modulus (GPa) = 19.26768 73.89508 46.58138
# Shear Modulus (GPa) = 20.28933 34.54274 27.41603
#
# Velocity S-wave (km/s) = 3.14775 4.10719 3.65905
# Velocity P-wave (km/s) = 4.75610 7.65368 6.37178
#
# Compressibility (1/GPa) = 0.05190039
#
# Stress axis : x y z
#
# Youngs Moduli (GPa) = 56.59825 139.39055 22.26510
#
# Poissons Ratio (x) = 0.67137 -0.11976
# Poissons Ratio (y) = 0.27260 0.21130
# Poissons Ratio (z) = -0.30443 1.32282
#
# Static dielectric constant tensor:
#      x y z
#    x 1.789930 0.000000 -0.005000 
#    y 0.000000 1.784620 0.000000 
#    z -0.005000 0.000000 1.712040 
# 
# From -- ./inp_files/62614.got.cif
#   From: 2010.05.17/outbox.cif.g08.bks.cpg/sg10_32_cif.got.tgz:62614.got - 2010.06.03 11:33:40.
