data_PCOD9149507
_publ_section_title
;
Structure prediction by ZEFSAII (Michael W. Deem and Ramdas Pophale) SiO2 
 PCOD9149507
Probable space group: P 2/M
;
_chemical_formula_sum "Si O2"
_cell_formula_units_Z 28
_cell_length_a 10.152119
_cell_length_b 16.791416
_cell_length_c 7.476217
_cell_angle_alpha 90.000000
_cell_angle_beta 72.785382
_cell_angle_gamma 90.000000
_cell_volume 1217.367058
_symmetry_space_group_name_H-M "P 2/M"
_symmetry_group_IT_number 10
_symmetry_cell_setting 'monoclinic'
loop_
_space_group_symop_operation_xyz
x,y,z
-x,y,-z
-x,-y,-z
x,-y,z
loop_
_atom_site_type_symbol
_atom_site_label
_atom_site_fract_x
_atom_site_fract_y
_atom_site_fract_z
Si Si1 0.837267 0.089374 0.537733
Si Si2 0.664520 0.912140 0.970610
Si Si3 0.369314 0.411515 0.857998
Si Si4 0.627687 0.676581 0.777238
Si Si5 0.188389 0.267312 0.585554
Si Si6 0.083220 0.586652 0.782343
Si Si7 0.576118 0.799260 0.296548
O O1 0.751817 0.104118 0.756277
O O2 0.830109 0.172418 0.431725
O O3 0.000000 0.081302 0.500000
O O4 0.789594 0.000000 0.491425
O O5 0.708848 0.000000 0.012696
O O6 0.500000 0.915263 0.000000
O O7 0.671381 0.851945 0.131768
O O8 0.370175 0.500000 0.938293
O O9 0.345277 0.349410 0.030857
O O10 0.524205 0.389352 0.735710
O O11 0.245169 0.414493 0.768913
O O12 0.766146 0.691112 0.616141
O O13 0.541139 0.757737 0.776842
O O14 0.069125 0.325297 0.703736
O O15 0.325674 0.266387 0.654507
O O16 0.051613 0.500000 0.705827
O O17 0.000000 0.586601 0.000000
O O18 0.500000 0.839225 0.500000
#
# Coordination Sequence:
#
# PCOD9149507 Si02
#       7
#     4   4   4   4   4   4   4
#     4  10  24  45  65  91 126 167 219 268 314 380
#     4  10  21  37  61  88 118 161 204 254 319 382
#     4  10  21  37  59  85 120 164 206 259 314 368
#     4  10  20  34  57  90 119 153 203 257 310 373
#     4  11  23  37  62  90 122 161 200 256 324 371
#     4  10  23  42  60  86 126 170 216 262 310 376
#     4  10  21  34  54  91 125 155 199 256 319 378
#
# _framework density 23.000457000000001
#
# number of rings (size 3 to 8) (size 9 to 14) (size 15 to 20)
#    0.000    1.857    1.429    2.571    6.000    4.286 
#    0.000    1.429    0.000    6.000    0.000    0.000 
#    0.000    0.000    0.000    0.000    0.000    0.000 
#
# Total GULP energy -155955.866351 kJ/mol
# GULP energy per Si atom -5569.852370 kJ/mol
# Density = 2.294811 g / cm^3
# Si number density = 23.000457 Si / 1000 Ang^3
#
#
#
# Elastic Constant Matrix: (Units=GPa)
#
#
# Indices 1 2 3 4 5 6 
#
# 1 38.9452 1.4367 9.6559 0.0000 -8.8983 0.0000
# 2 1.4367 159.4904 71.2267 0.0000 -4.6141 0.0000
# 3 9.6559 71.2267 73.3242 0.0000 -9.1519 0.0000
# 4 0.0000 0.0000 0.0000 230.8261 0.0000 2.1403
# 5 -8.8983 -4.6141 -9.1519 0.0000 25.4351 0.0000
# 6 0.0000 0.0000 0.0000 2.1403 0.0000 15.0254
#
#
#
# Elastic Compliance Matrix: (Units=1/GPa)
#
#
# Indices 1 2 3 4 5 6 
#
# 1 0.028775 0.002117 -0.004755 0.000000 0.008740 0.000000
# 2 0.002117 0.011323 -0.011443 0.000000 -0.001323 0.000000
# 3 -0.004755 -0.011443 0.026085 0.000000 0.005646 0.000000
# 4 0.000000 0.000000 0.000000 0.004338 0.000000 -0.000618
# 5 0.008740 -0.001323 0.005646 0.000000 0.044165 0.000000
# 6 0.000000 0.000000 0.000000 -0.000618 0.000000 0.066642
#
#
# Mechanical properties :
#
#
# Convention : Reuss Voigt Hill
#
# Bulk Modulus (GPa) = 26.30139 48.48869 37.39504
# Shear Modulus (GPa) = 22.50602 66.88667 44.69635
#
# Velocity S-wave (km/s) = 3.13150 5.39849 4.41305
# Velocity P-wave (km/s) = 4.95328 7.74504 6.50080
#
# Compressibility (1/GPa) = 0.03802080
#
# Stress axis : x y z
#
# Youngs Moduli (GPa) = 34.75250 88.31648 38.33687
#
# Poissons Ratio (x) = -0.18699 0.18230
# Poissons Ratio (y) = -0.07358 0.43868
# Poissons Ratio (z) = 0.16525 1.01060
#
# Static dielectric constant tensor:
#      x y z
#    x 1.907740 0.000000 0.037970 
#    y 0.000000 1.989580 0.000000 
#    z 0.037970 0.000000 1.916420 
# 
# From -- ./inp_files/25217.got.cif
#   From: 2010.05.17/outbox.cif.g08.bks.cpg/sg10_13_cif.got.tgz:25217.got - 2010.06.03 11:33:40.
