data_PCOD9149852
_publ_section_title
;
Structure prediction by ZEFSAII (Michael W. Deem and Ramdas Pophale) SiO2 
 PCOD9149852
Probable space group: P 2/M
;
_chemical_formula_sum "Si O2"
_cell_formula_units_Z 28
_cell_length_a 15.850940
_cell_length_b 8.002359
_cell_length_c 19.878361
_cell_angle_alpha 90.000000
_cell_angle_beta 33.819259
_cell_angle_gamma 90.000000
_cell_volume 1403.386347
_symmetry_space_group_name_H-M "P 2/M"
_symmetry_group_IT_number 10
_symmetry_cell_setting 'monoclinic'
loop_
_space_group_symop_operation_xyz
x,y,z
-x,y,-z
-x,-y,-z
x,-y,z
loop_
_atom_site_type_symbol
_atom_site_label
_atom_site_fract_x
_atom_site_fract_y
_atom_site_fract_z
Si Si1 0.212069 0.298106 0.411913
Si Si2 0.345833 0.297695 0.064385
Si Si3 0.239193 0.800237 0.987452
Si Si4 0.058019 0.697477 0.887731
Si Si5 0.399657 0.200879 0.629154
Si Si6 0.118344 0.703689 0.327368
Si Si7 0.518073 0.199532 0.280165
O O1 0.214538 0.500000 0.410895
O O2 0.203602 0.245697 0.339441
O O3 0.357871 0.233969 0.352845
O O4 0.055313 0.242777 0.550321
O O5 0.350180 0.500000 0.060936
O O6 0.206970 0.240122 0.203235
O O7 0.500000 0.242191 0.000000
O O8 0.313358 0.242904 0.010016
O O9 0.350247 0.733634 0.855453
O O10 0.230045 0.000000 0.989158
O O11 0.073052 0.731823 0.080148
O O12 0.077211 0.500000 0.883259
O O13 0.219685 0.764562 0.754494
O O14 0.000000 0.764371 0.000000
O O15 0.500000 0.265179 0.500000
O O16 0.468474 0.266729 0.653597
O O17 0.414877 0.000000 0.617734
O O18 0.117996 0.500000 0.327166
O O19 0.539267 0.000000 0.269594
#
# Coordination Sequence:
#
# PCOD9149852 Si02
#       7
#     4   4   4   4   4   4   4
#     4   9  17  32  56  78 103 144 188 226 275 343
#     4  10  20  35  56  83 117 151 189 241 291 339
#     4  11  23  38  59  84 114 155 196 239 293 356
#     4  11  23  40  64  91 118 151 198 252 299 355
#     4  10  22  41  63  86 118 158 194 237 298 362
#     4   8  16  32  52  78 109 143 183 229 282 333
#     4  10  21  36  54  80 111 142 184 235 285 341
#
# _framework density 19.951740999999998
#
# number of rings (size 3 to 8) (size 9 to 14) (size 15 to 20)
#    0.000    2.143    1.429    2.571    0.000    5.143 
#    0.000    5.714    0.000    0.000    0.000    0.000 
#    0.000    0.000    0.000    0.000    0.000    0.000 
#
# Total GULP energy -156255.415775 kJ/mol
# GULP energy per Si atom -5580.550563 kJ/mol
# Density = 1.990633 g / cm^3
# Si number density = 19.951741 Si / 1000 Ang^3
#
#
#
# Elastic Constant Matrix: (Units=GPa)
#
#
# Indices 1 2 3 4 5 6 
#
# 1 108.7303 -4.6013 81.2342 0.0000 -2.7719 0.0000
# 2 -4.6013 11.3016 4.7949 0.0000 8.5256 0.0000
# 3 81.2342 4.7949 137.4623 0.0000 13.9896 0.0000
# 4 0.0000 0.0000 0.0000 22.5169 0.0000 -5.9419
# 5 -2.7719 8.5256 13.9896 0.0000 39.2612 0.0000
# 6 0.0000 0.0000 0.0000 -5.9419 0.0000 27.2384
#
#
#
# Elastic Compliance Matrix: (Units=1/GPa)
#
#
# Indices 1 2 3 4 5 6 
#
# 1 0.018263 0.009861 -0.011466 0.000000 0.003234 0.000000
# 2 0.009861 0.111402 -0.007598 0.000000 -0.020788 0.000000
# 3 -0.011466 -0.007598 0.014765 0.000000 -0.004421 0.000000
# 4 0.000000 0.000000 0.000000 0.047124 0.000000 0.010280
# 5 0.003234 -0.020788 -0.004421 0.000000 0.031788 0.000000
# 6 0.000000 0.000000 0.000000 0.010280 0.000000 0.038955
#
#
# Mechanical properties :
#
#
# Convention : Reuss Voigt Hill
#
# Bulk Modulus (GPa) = 7.93490 46.70555 27.32022
# Shear Modulus (GPa) = 15.49372 29.54107 22.51740
#
# Velocity S-wave (km/s) = 2.78971 3.85206 3.36310
# Velocity P-wave (km/s) = 3.78976 6.57606 5.36688
#
# Compressibility (1/GPa) = 0.12602556
#
# Stress axis : x y z
#
# Youngs Moduli (GPa) = 54.75552 8.97648 67.72606
#
# Poissons Ratio (x) = -0.08851 0.77653
# Poissons Ratio (y) = -0.53993 0.51456
# Poissons Ratio (z) = 0.62781 0.06820
#
# Static dielectric constant tensor:
#      x y z
#    x 1.684260 0.000000 0.018690 
#    y 0.000000 1.725090 0.000000 
#    z 0.018690 0.000000 1.707210 
# 
# From -- ./inp_files/68717.got.cif
#   From: 2010.05.17/outbox.cif.g08.bks.cpg/sg10_35_cif.got.tgz:68717.got - 2010.06.03 11:33:40.
