data_PCOD9149321
_publ_section_title
;
Structure prediction by ZEFSAII (Michael W. Deem and Ramdas Pophale) SiO2 
 PCOD9149321
Probable space group: P 2/M
;
_chemical_formula_sum "Si O2"
_cell_formula_units_Z 14
_cell_length_a 9.780875
_cell_length_b 16.096546
_cell_length_c 5.171383
_cell_angle_alpha 90.000000
_cell_angle_beta 118.376482
_cell_angle_gamma 90.000000
_cell_volume 716.345684
_symmetry_space_group_name_H-M "P 2/M"
_symmetry_group_IT_number 10
_symmetry_cell_setting 'monoclinic'
loop_
_space_group_symop_operation_xyz
x,y,z
-x,y,-z
-x,-y,-z
x,-y,z
loop_
_atom_site_type_symbol
_atom_site_label
_atom_site_fract_x
_atom_site_fract_y
_atom_site_fract_z
Si Si1 0.331481 0.094609 0.258266
Si Si2 0.891556 0.000000 0.648008
Si Si3 0.111080 0.589041 0.849545
Si Si4 0.888737 0.228315 0.151975
O O1 0.500000 0.123019 0.500000
O O2 0.222416 0.077724 0.411117
O O3 0.347541 0.000000 0.161021
O O4 0.239654 0.157429 0.995987
O O5 0.000000 0.000000 0.500000
O O6 0.000000 0.000000 0.000000
O O7 0.198443 0.500000 0.929820
O O8 0.188865 0.679603 0.913456
O O9 0.000000 0.588377 0.500000
O O10 0.000000 0.589165 0.000000
O O11 0.000000 0.218811 0.500000
O O12 0.000000 0.224462 0.000000
#
# Coordination Sequence:
#
# PCOD9149321 Si02
#       4
#     4   2   4   4
#     4   9  21  40  56  80 114 150 183 231 282 333
#     4  10  21  38  59  78  99 136 189 232 265 320
#     4   8  14  26  46  74 106 134 169 220 269 314
#     4  10  20  34  55  82 106 141 187 226 269 322
#
# _framework density 19.543637
#
# number of rings (size 3 to 8) (size 9 to 14) (size 15 to 20)
#    0.857    2.000    0.000    0.857    0.000    5.143 
#    0.000    7.143    0.000    0.857    0.000    0.000 
#    0.000   22.857    0.000    0.000    0.000   12.857 
#
# Total GULP energy -77954.369181 kJ/mol
# GULP energy per Si atom -5568.169227 kJ/mol
# Density = 1.949915 g / cm^3
# Si number density = 19.543637 Si / 1000 Ang^3
#
#
#
# Elastic Constant Matrix: (Units=GPa)
#
#
# Indices 1 2 3 4 5 6 
#
# 1 77.8679 8.2105 63.0792 0.0000 -7.1758 0.0000
# 2 8.2105 177.6672 66.8791 0.0000 17.3221 0.0000
# 3 63.0792 66.8791 121.5913 0.0000 -8.4965 0.0000
# 4 0.0000 0.0000 0.0000 22.4572 0.0000 -6.9103
# 5 -7.1758 17.3221 -8.4965 0.0000 38.4555 0.0000
# 6 0.0000 0.0000 0.0000 -6.9103 0.0000 5.9679
#
#
#
# Elastic Compliance Matrix: (Units=1/GPa)
#
#
# Indices 1 2 3 4 5 6 
#
# 1 0.024931 0.004842 -0.015666 0.000000 -0.000990 0.000000
# 2 0.004842 0.008746 -0.007653 0.000000 -0.004727 0.000000
# 3 -0.015666 -0.007653 0.020920 0.000000 0.005146 0.000000
# 4 0.000000 0.000000 0.000000 0.069176 0.000000 0.080099
# 5 -0.000990 -0.004727 0.005146 0.000000 0.029086 0.000000
# 6 0.000000 0.000000 0.000000 0.080099 0.000000 0.260309
#
#
# Mechanical properties :
#
#
# Convention : Reuss Voigt Hill
#
# Bulk Modulus (GPa) = 56.67833 72.60710 64.64272
# Shear Modulus (GPa) = 10.96481 29.30665 20.13573
#
# Velocity S-wave (km/s) = 2.37120 3.87660 3.21330
# Velocity P-wave (km/s) = 6.04654 7.56765 6.84945
#
# Compressibility (1/GPa) = 0.01764343
#
# Stress axis : x y z
#
# Youngs Moduli (GPa) = 40.11032 114.33298 47.80033
#
# Poissons Ratio (x) = -0.55354 0.74884
# Poissons Ratio (y) = -0.19419 0.36581
# Poissons Ratio (z) = 0.62837 0.87497
#
# Static dielectric constant tensor:
#      x y z
#    x 1.677660 0.000000 -0.031280 
#    y 0.000000 1.823880 0.000000 
#    z -0.031280 0.000000 1.687250 
# 
# From -- ./inp_files/7117.got.cif
#   From: 2010.05.17/outbox.cif.g08.bks.cpg/sg10_4_cif.got.tgz:7117.got - 2010.06.03 11:33:40.
