data_PCOD9149658
_publ_section_title
;
Structure prediction by ZEFSAII (Michael W. Deem and Ramdas Pophale) SiO2 
 PCOD9149658
Probable space group: P 2/M
;
_chemical_formula_sum "Si O2"
_cell_formula_units_Z 32
_cell_length_a 12.557440
_cell_length_b 8.753112
_cell_length_c 29.991582
_cell_angle_alpha 90.000000
_cell_angle_beta 148.858397
_cell_angle_gamma 90.000000
_cell_volume 1704.840077
_symmetry_space_group_name_H-M "P 2/M"
_symmetry_group_IT_number 10
_symmetry_cell_setting 'monoclinic'
loop_
_space_group_symop_operation_xyz
x,y,z
-x,y,-z
-x,-y,-z
x,-y,z
loop_
_atom_site_type_symbol
_atom_site_label
_atom_site_fract_x
_atom_site_fract_y
_atom_site_fract_z
Si Si1 0.379377 0.818051 0.551839
Si Si2 0.029857 0.316104 0.365092
Si Si3 0.193676 0.315372 0.326811
Si Si4 0.604128 0.317563 0.253880
Si Si5 0.618129 0.315048 0.972007
Si Si6 0.196954 0.314392 0.867382
Si Si7 0.228806 0.817025 0.067002
Si Si8 0.235799 0.816645 0.596661
O O1 0.177470 0.754082 0.455217
O O2 0.582935 0.749895 0.602934
O O3 0.367378 0.780256 0.599858
O O4 0.378887 0.000000 0.547354
O O5 0.042601 0.500000 0.372644
O O6 0.111987 0.269861 0.346196
O O7 0.793499 0.273937 0.289116
O O8 0.204590 0.500000 0.329692
O O9 0.022785 0.263886 0.229789
O O10 0.579292 0.500000 0.243412
O O11 0.396651 0.239641 0.162799
O O12 0.677082 0.266271 0.328882
O O13 0.621427 0.500000 0.969659
O O14 0.383971 0.269626 0.901345
O O15 0.703548 0.247283 0.956977
O O16 0.749874 0.269211 0.063017
O O17 0.198132 0.500000 0.867551
O O18 0.230674 0.000000 0.065657
O O19 0.000000 0.767091 0.000000
O O20 0.000000 0.775040 0.500000
O O21 0.238885 0.000000 0.605401
#
# Coordination Sequence:
#
# PCOD9149658 Si02
#       8
#     4   4   4   4   4   4   4   4
#     4  11  23  37  55  80 112 152 194 234 279 337
#     4  10  21  37  58  84 114 147 186 236 289 339
#     4  10  20  35  54  80 117 153 186 228 288 345
#     4  11  23  39  65  93 113 144 197 250 289 339
#     4   9  17  35  63  88 111 144 192 240 284 340
#     4   8  16  33  59  87 114 146 183 235 295 344
#     4  11  25  42  58  82 121 161 192 233 292 352
#     4  10  21  40  61  82 116 158 192 233 292 347
#
# _framework density 18.770088999999999
#
# number of rings (size 3 to 8) (size 9 to 14) (size 15 to 20)
#    0.000    2.000    1.250    3.000    0.000    7.750 
#    0.000    6.250    0.000    0.000    0.000    0.000 
#    0.000    0.000    0.000    0.000    0.000    0.000 
#
# Total GULP energy -178706.048041 kJ/mol
# GULP energy per Si atom -5584.564001 kJ/mol
# Density = 1.872737 g / cm^3
# Si number density = 18.770089 Si / 1000 Ang^3
#
#
#
# Elastic Constant Matrix: (Units=GPa)
#
#
# Indices 1 2 3 4 5 6 
#
# 1 85.1062 27.6561 64.8803 0.0000 0.5894 0.0000
# 2 27.6561 17.5560 29.4066 0.0000 3.3620 0.0000
# 3 64.8803 29.4066 109.0449 0.0000 13.3237 0.0000
# 4 0.0000 0.0000 0.0000 21.2184 0.0000 -3.5507
# 5 0.5894 3.3620 13.3237 0.0000 24.8273 0.0000
# 6 0.0000 0.0000 0.0000 -3.5507 0.0000 -42.0628
#
#
#
# Elastic Compliance Matrix: (Units=1/GPa)
#
#
# Indices 1 2 3 4 5 6 
#
# 1 0.029753 -0.031184 -0.010405 0.000000 0.009100 0.000000
# 2 -0.031184 0.136597 -0.017243 0.000000 -0.008503 0.000000
# 3 -0.010405 -0.017243 0.021078 0.000000 -0.008730 0.000000
# 4 0.000000 0.000000 0.000000 0.046472 0.000000 -0.003923
# 5 0.009100 -0.008503 -0.008730 0.000000 0.045899 0.000000
# 6 0.000000 0.000000 0.000000 -0.003923 0.000000 -0.023443
#
#
# Mechanical properties :
#
#
# Convention : Reuss Voigt Hill
#
# Bulk Modulus (GPa) = 14.33432 50.62146 32.47789
# Shear Modulus (GPa) = 12.58575 6.78084 9.68329
#
# Velocity S-wave (km/s) = 2.59225 1.90274 2.27378
# Velocity P-wave (km/s) = 4.07591 5.64402 4.92281
#
# Compressibility (1/GPa) = 0.06976262
#
# Stress axis : x y z
#
# Youngs Moduli (GPa) = 33.61044 7.32082 47.44282
#
# Poissons Ratio (x) = 0.22829 0.49363
# Poissons Ratio (y) = 1.04811 0.81808
# Poissons Ratio (z) = 0.34971 0.12624
#
# Static dielectric constant tensor:
#      x y z
#    x 1.640710 0.000000 -0.002350 
#    y 0.000000 1.634580 0.000000 
#    z -0.002350 0.000000 1.634740 
# 
# From -- ./inp_files/95085.got.cif
#   From: 2010.05.17/outbox.cif.g08.bks.cpg/sg10_48_cif.got.tgz:95085.got - 2010.06.03 11:33:40.
