data_PCOD9149800
_publ_section_title
;
Structure prediction by ZEFSAII (Michael W. Deem and Ramdas Pophale) SiO2 
 PCOD9149800
Probable space group: P 2/M
;
_chemical_formula_sum "Si O2"
_cell_formula_units_Z 32
_cell_length_a 14.394121
_cell_length_b 15.199918
_cell_length_c 19.475448
_cell_angle_alpha 90.000000
_cell_angle_beta 19.763154
_cell_angle_gamma 90.000000
_cell_volume 1440.791482
_symmetry_space_group_name_H-M "P 2/M"
_symmetry_group_IT_number 10
_symmetry_cell_setting 'monoclinic'
loop_
_space_group_symop_operation_xyz
x,y,z
-x,y,-z
-x,-y,-z
x,-y,z
loop_
_atom_site_type_symbol
_atom_site_label
_atom_site_fract_x
_atom_site_fract_y
_atom_site_fract_z
Si Si1 0.767470 0.851843 0.221648
Si Si2 0.305695 0.096163 0.440960
Si Si3 0.674410 0.598420 0.486130
Si Si4 0.780061 0.095321 0.992706
Si Si5 0.112504 0.721576 0.541034
Si Si6 0.648434 0.711758 0.078057
Si Si7 0.377102 0.401746 0.160648
Si Si8 0.821109 0.660428 0.230325
O O1 0.495654 0.890876 0.376331
O O2 0.699131 0.756388 0.298625
O O3 0.000000 0.843200 0.000000
O O4 0.930643 0.902204 0.167721
O O5 0.533604 0.096827 0.220905
O O6 0.097709 0.176729 0.574722
O O7 0.175363 0.000000 0.532500
O O8 0.768234 0.500000 0.436984
O O9 0.787997 0.664994 0.463033
O O10 0.766404 0.626038 0.345412
O O11 0.342190 0.601007 0.709651
O O12 0.750408 0.192581 0.980011
O O13 0.759309 0.000000 0.970879
O O14 0.355178 0.721273 0.316984
O O15 0.858872 0.671415 0.683352
O O16 0.610707 0.638346 0.046864
O O17 0.855477 0.678678 0.993251
O O18 0.287986 0.500000 0.245448
O O19 0.500000 0.409923 0.000000
#
# Coordination Sequence:
#
# PCOD9149800 Si02
#       8
#     4   4   4   4   4   4   4   4
#     4   9  15  27  52  83 116 153 194 235 277 324
#     4   9  16  29  52  84 118 151 187 229 280 339
#     4  11  23  38  55  78 114 163 200 229 284 357
#     4   8  15  28  51  85 120 152 186 226 277 339
#     4  11  22  39  62  88 117 145 190 246 294 334
#     4  10  22  37  62  91 116 146 188 246 295 328
#     4  11  25  45  66  84 108 150 198 237 288 355
#     4  10  20  35  56  80 119 155 193 232 281 346
#
# _framework density 22.210014000000001
#
# number of rings (size 3 to 8) (size 9 to 14) (size 15 to 20)
#    0.000    2.125    1.250    3.375    0.000    5.000 
#    0.000    1.250    0.000   12.000    0.000    0.000 
#    0.000    0.000    0.000    0.000    0.000    0.000 
#
# Total GULP energy -178543.697404 kJ/mol
# GULP energy per Si atom -5579.490544 kJ/mol
# Density = 2.215946 g / cm^3
# Si number density = 22.210014 Si / 1000 Ang^3
#
#
#
# Elastic Constant Matrix: (Units=GPa)
#
#
# Indices 1 2 3 4 5 6 
#
# 1 56.0519 28.2913 -1.6325 0.0000 -8.5959 0.0000
# 2 28.2913 189.4438 16.4330 0.0000 -11.5591 0.0000
# 3 -1.6325 16.4330 40.6225 0.0000 -15.7055 0.0000
# 4 0.0000 0.0000 0.0000 18.1223 0.0000 2.3741
# 5 -8.5959 -11.5591 -15.7055 0.0000 27.4830 0.0000
# 6 0.0000 0.0000 0.0000 2.3741 0.0000 13.1825
#
#
#
# Elastic Compliance Matrix: (Units=1/GPa)
#
#
# Indices 1 2 3 4 5 6 
#
# 1 0.020799 -0.003060 0.005251 0.000000 0.008219 0.000000
# 2 -0.003060 0.005959 -0.002483 0.000000 0.000130 0.000000
# 3 0.005251 -0.002483 0.033455 0.000000 0.019717 0.000000
# 4 0.000000 0.000000 0.000000 0.056514 0.000000 -0.010178
# 5 0.008219 0.000130 0.019717 0.000000 0.050279 0.000000
# 6 0.000000 0.000000 0.000000 -0.010178 0.000000 0.077691
#
#
# Mechanical properties :
#
#
# Convention : Reuss Voigt Hill
#
# Bulk Modulus (GPa) = 16.77034 41.36686 29.06860
# Shear Modulus (GPa) = 18.85675 27.95931 23.40803
#
# Velocity S-wave (km/s) = 2.91696 3.55189 3.24997
# Velocity P-wave (km/s) = 4.34880 5.95710 5.21532
#
# Compressibility (1/GPa) = 0.05962907
#
# Stress axis : x y z
#
# Youngs Moduli (GPa) = 48.08030 167.81512 29.89057
#
# Poissons Ratio (x) = 0.51352 -0.15697
# Poissons Ratio (y) = 0.14713 0.07423
# Poissons Ratio (z) = -0.25249 0.41673
#
# Static dielectric constant tensor:
#      x y z
#    x 1.805740 0.000000 0.025830 
#    y 0.000000 1.869630 0.000000 
#    z 0.025830 0.000000 1.876860 
# 
# From -- ./inp_files/85397.got.cif
#   From: 2010.05.17/outbox.cif.g08.bks.cpg/sg10_43_cif.got.tgz:85397.got - 2010.06.03 11:33:40.
