data_PCOD9149452
_publ_section_title
;
Structure prediction by ZEFSAII (Michael W. Deem and Ramdas Pophale) SiO2 
 PCOD9149452
Probable space group: P 2/M
;
_chemical_formula_sum "Si O2"
_cell_formula_units_Z 28
_cell_length_a 9.851346
_cell_length_b 8.482062
_cell_length_c 28.642504
_cell_angle_alpha 90.000000
_cell_angle_beta 139.956779
_cell_angle_gamma 90.000000
_cell_volume 1539.804645
_symmetry_space_group_name_H-M "P 2/M"
_symmetry_group_IT_number 10
_symmetry_cell_setting 'monoclinic'
loop_
_space_group_symop_operation_xyz
x,y,z
-x,y,-z
-x,-y,-z
x,-y,z
loop_
_atom_site_type_symbol
_atom_site_label
_atom_site_fract_x
_atom_site_fract_y
_atom_site_fract_z
Si Si1 0.340366 0.685789 0.416228
Si Si2 0.825575 0.811800 0.991891
Si Si3 0.648686 0.687966 0.144041
Si Si4 0.323022 0.809032 0.559774
Si Si5 0.117883 0.808783 0.601889
Si Si6 0.755190 0.683221 0.073058
Si Si7 0.876746 0.185882 0.294573
O O1 0.500000 0.731138 0.500000
O O2 0.292646 0.500000 0.407873
O O3 0.471303 0.723963 0.404419
O O4 0.126930 0.783852 0.360187
O O5 0.589784 0.752869 0.917738
O O6 0.825855 0.000000 0.989851
O O7 0.858328 0.763071 0.054878
O O8 0.000000 0.754021 0.000000
O O9 0.633533 0.500000 0.134484
O O10 0.776267 0.747650 0.131487
O O11 0.767389 0.730089 0.222610
O O12 0.264761 0.766097 0.597299
O O13 0.120254 0.760993 0.474862
O O14 0.343868 0.000000 0.561996
O O15 0.189605 0.753973 0.671483
O O16 0.111969 0.000000 0.601778
O O17 0.818272 0.500000 0.088472
O O18 0.500000 0.690503 0.000000
O O19 0.832235 0.000000 0.279340
#
# Coordination Sequence:
#
# PCOD9149452 Si02
#       7
#     4   4   4   4   4   4   4
#     4  11  22  34  49  75 107 137 174 222 268 316
#     4  10  20  34  56  87 115 140 177 220 255 302
#     4  10  21  37  55  79 111 144 178 217 266 321
#     4   9  16  32  54  74  97 129 173 221 269 318
#     4   8  16  30  52  77  99 128 171 221 268 317
#     4   8  16  32  54  78 106 141 177 212 255 309
#     4  11  21  35  56  79 104 139 180 223 272 321
#
# _framework density 18.184125000000002
#
# number of rings (size 3 to 8) (size 9 to 14) (size 15 to 20)
#    0.000    2.429    1.429    3.429    0.000    4.857 
#    0.000    4.286    0.000    1.714    0.000    0.000 
#    0.000    0.000    0.000    0.000    0.000    0.000 
#
# Total GULP energy -156050.444606 kJ/mol
# GULP energy per Si atom -5573.230165 kJ/mol
# Density = 1.814274 g / cm^3
# Si number density = 18.184125 Si / 1000 Ang^3
#
#
#
# Elastic Constant Matrix: (Units=GPa)
#
#
# Indices 1 2 3 4 5 6 
#
# 1 134.4158 18.5266 47.1315 0.0000 -26.6046 0.0000
# 2 18.5266 28.6306 13.5697 0.0000 -5.2961 0.0000
# 3 47.1315 13.5697 75.1035 0.0000 -31.3677 0.0000
# 4 0.0000 0.0000 0.0000 8.8209 0.0000 -17.8777
# 5 -26.6046 -5.2961 -31.3677 0.0000 30.0503 0.0000
# 6 0.0000 0.0000 0.0000 -17.8777 0.0000 8.9700
#
#
#
# Elastic Compliance Matrix: (Units=1/GPa)
#
#
# Indices 1 2 3 4 5 6 
#
# 1 0.010197 -0.003960 -0.003909 0.000000 0.004250 0.000000
# 2 -0.003960 0.039748 -0.005736 0.000000 -0.002488 0.000000
# 3 -0.003909 -0.005736 0.026482 0.000000 0.023172 0.000000
# 4 0.000000 0.000000 0.000000 -0.037299 0.000000 -0.074339
# 5 0.004250 -0.002488 0.023172 0.000000 0.060789 0.000000
# 6 0.000000 0.000000 0.000000 -0.074339 0.000000 -0.036679
#
#
# Mechanical properties :
#
#
# Convention : Reuss Voigt Hill
#
# Bulk Modulus (GPa) = 20.31737 44.06727 32.19232
# Shear Modulus (GPa) = 46.79347 20.16308 33.47827
#
# Velocity S-wave (km/s) = 5.07829 3.33352 4.29543
# Velocity P-wave (km/s) = 6.75150 6.25324 6.50714
#
# Compressibility (1/GPa) = 0.04921898
#
# Stress axis : x y z
#
# Youngs Moduli (GPa) = 98.06701 25.15832 37.76140
#
# Poissons Ratio (x) = 0.09962 0.14760
# Poissons Ratio (y) = 0.38832 0.21659
# Poissons Ratio (z) = 0.38333 0.14430
#
# Static dielectric constant tensor:
#      x y z
#    x 1.665360 0.000000 -0.037850 
#    y 0.000000 1.625260 0.000000 
#    z -0.037850 0.000000 1.614600 
# 
# From -- ./inp_files/85649.got.cif
#   From: 2010.05.17/outbox.cif.g08.bks.cpg/sg10_43_cif.got.tgz:85649.got - 2010.06.03 11:33:40.
