data_PCOD9149122
_publ_section_title
;
Structure prediction by ZEFSAII (Michael W. Deem and Ramdas Pophale) SiO2 
 PCOD9149122
Probable space group: P 2/M
;
_chemical_formula_sum "Si O2"
_cell_formula_units_Z 28
_cell_length_a 10.372729
_cell_length_b 7.416629
_cell_length_c 25.885810
_cell_angle_alpha 90.000000
_cell_angle_beta 140.153643
_cell_angle_gamma 90.000000
_cell_volume 1275.960254
_symmetry_space_group_name_H-M "P 2/M"
_symmetry_group_IT_number 10
_symmetry_cell_setting 'monoclinic'
loop_
_space_group_symop_operation_xyz
x,y,z
-x,y,-z
-x,-y,-z
x,-y,z
loop_
_atom_site_type_symbol
_atom_site_label
_atom_site_fract_x
_atom_site_fract_y
_atom_site_fract_z
Si Si1 0.474972 0.289908 0.748254
Si Si2 0.503710 0.718119 0.060324
Si Si3 0.937632 0.280420 0.231994
Si Si4 0.603127 0.719756 0.477759
Si Si5 0.225055 0.208932 0.067576
Si Si6 0.966004 0.279769 0.358380
Si Si7 0.668932 0.720635 0.702680
O O1 0.440982 0.500000 0.726105
O O2 0.615130 0.283645 0.842001
O O3 0.252190 0.214657 0.690135
O O4 0.589513 0.215362 0.733511
O O5 0.501912 0.500000 0.059803
O O6 0.713417 0.779285 0.149820
O O7 0.320322 0.775187 0.040107
O O8 0.500000 0.778099 0.000000
O O9 0.934943 0.500000 0.230517
O O10 0.994466 0.226715 0.307419
O O11 0.106293 0.221850 0.243386
O O12 0.500000 0.776040 0.500000
O O13 0.598958 0.500000 0.476679
O O14 0.478117 0.775978 0.389225
O O15 0.836380 0.775815 0.549549
O O16 0.207636 0.000000 0.076424
O O17 0.000000 0.287838 0.000000
O O18 0.962267 0.500000 0.357735
O O19 0.672702 0.500000 0.704405
#
# Coordination Sequence:
#
# PCOD9149122 Si02
#       7
#     4   4   4   4   4   4   4
#     4  10  20  34  53  78 106 137 177 225 269 313
#     4  10  21  36  59  88 111 136 174 224 277 325
#     4   9  15  27  45  71 105 135 170 211 256 313
#     4   9  14  22  38  66 106 145 172 204 264 324
#     4  11  25  42  57  76 108 147 182 221 270 325
#     4   9  15  25  44  68 102 140 171 212 260 313
#     4   9  17  26  43  74 108 141 174 212 263 319
#
# _framework density 21.944258999999999
#
# number of rings (size 3 to 8) (size 9 to 14) (size 15 to 20)
#    0.000    2.429    2.857    0.429    2.000    2.000 
#    0.000    2.857    0.000    0.000    0.000    2.000 
#    0.000    2.286    0.000    0.000    0.000    0.000 
#
# Total GULP energy -156390.593650 kJ/mol
# GULP energy per Si atom -5585.378345 kJ/mol
# Density = 2.189431 g / cm^3
# Si number density = 21.944259 Si / 1000 Ang^3
#
#
#
# Elastic Constant Matrix: (Units=GPa)
#
#
# Indices 1 2 3 4 5 6 
#
# 1 168.7906 -6.5131 50.2909 0.0000 24.3466 0.0000
# 2 -6.5131 66.8200 -8.5729 0.0000 3.4828 0.0000
# 3 50.2909 -8.5729 96.2106 0.0000 28.6829 0.0000
# 4 0.0000 0.0000 0.0000 -10.5483 0.0000 29.5049
# 5 24.3466 3.4828 28.6829 0.0000 44.0582 0.0000
# 6 0.0000 0.0000 0.0000 29.5049 0.0000 -28.9260
#
#
#
# Elastic Compliance Matrix: (Units=1/GPa)
#
#
# Indices 1 2 3 4 5 6 
#
# 1 0.007151 0.000398 -0.003121 0.000000 -0.001952 0.000000
# 2 0.000398 0.015400 0.001976 0.000000 -0.002724 0.000000
# 3 -0.003121 0.001976 0.014559 0.000000 -0.007910 0.000000
# 4 0.000000 0.000000 0.000000 0.051158 0.000000 0.052182
# 5 -0.001952 -0.002724 -0.007910 0.000000 0.029141 0.000000
# 6 0.000000 0.000000 0.000000 0.052182 0.000000 0.018656
#
#
# Mechanical properties :
#
#
# Convention : Reuss Voigt Hill
#
# Bulk Modulus (GPa) = 28.07570 44.69233 36.38402
# Shear Modulus (GPa) = 33.46035 20.69121 27.07578
#
# Velocity S-wave (km/s) = 3.90909 3.07400 3.51642
# Velocity P-wave (km/s) = 5.76164 5.74541 5.75353
#
# Compressibility (1/GPa) = 0.03561799
#
# Stress axis : x y z
#
# Youngs Moduli (GPa) = 139.83694 64.93541 68.68397
#
# Poissons Ratio (x) = -0.02587 0.21434
# Poissons Ratio (y) = -0.05571 -0.13572
# Poissons Ratio (z) = 0.43639 -0.12832
#
# Static dielectric constant tensor:
#      x y z
#    x 1.773580 0.000000 0.021660 
#    y 0.000000 1.873060 0.000000 
#    z 0.021660 0.000000 1.767860 
# 
# From -- ./inp_files/92107.got.cif
#   From: 2010.05.17/outbox.cif.g08.bks.cpg/sg10_47_cif.got.tgz:92107.got - 2010.06.03 11:33:40.
