data_PCOD9149446
_publ_section_title
;
Structure prediction by ZEFSAII (Michael W. Deem and Ramdas Pophale) SiO2 
 PCOD9149446
Probable space group: P 2/M
;
_chemical_formula_sum "Si O2"
_cell_formula_units_Z 32
_cell_length_a 14.735830
_cell_length_b 7.610865
_cell_length_c 25.377740
_cell_angle_alpha 90.000000
_cell_angle_beta 150.507115
_cell_angle_gamma 90.000000
_cell_volume 1401.215886
_symmetry_space_group_name_H-M "P 2/M"
_symmetry_group_IT_number 10
_symmetry_cell_setting 'monoclinic'
loop_
_space_group_symop_operation_xyz
x,y,z
-x,y,-z
-x,-y,-z
x,-y,z
loop_
_atom_site_type_symbol
_atom_site_label
_atom_site_fract_x
_atom_site_fract_y
_atom_site_fract_z
Si Si1 0.788191 0.214229 0.882039
Si Si2 0.537513 0.203430 0.850833
Si Si3 0.197518 0.701752 0.615174
Si Si4 0.557385 0.205275 0.085273
Si Si5 0.658860 0.787907 0.701225
Si Si6 0.268126 0.789860 0.537209
Si Si7 0.979420 0.706986 0.308279
Si Si8 0.293182 0.294390 0.388954
O O1 0.663128 0.280149 0.867513
O O2 0.733012 0.272680 0.795398
O O3 0.767631 0.000000 0.870725
O O4 0.000000 0.255798 0.000000
O O5 0.328303 0.209198 0.723391
O O6 0.533316 0.282388 0.907314
O O7 0.593864 0.000000 0.884302
O O8 0.169265 0.500000 0.617361
O O9 0.297754 0.709743 0.609475
O O10 0.000000 0.782188 0.500000
O O11 0.777993 0.212681 0.202681
O O12 0.502358 0.000000 0.056423
O O13 0.500000 0.283446 0.000000
O O14 0.442765 0.736929 0.590249
O O15 0.754074 0.720499 0.696667
O O16 0.670227 0.000000 0.705835
O O17 0.078755 0.732810 0.414679
O O18 0.270347 0.000000 0.543697
O O19 0.955011 0.500000 0.286674
O O20 0.129878 0.780184 0.342627
O O21 0.500000 0.216776 0.500000
O O22 0.306154 0.500000 0.409941
#
# Coordination Sequence:
#
# PCOD9149446 Si02
#       8
#     4   4   4   4   4   4   4   4
#     4   9  18  35  59  87 117 151 192 237 289 348
#     4  10  20  38  61  86 118 155 194 241 297 353
#     4  11  23  36  54  84 118 155 199 243 293 356
#     4  10  23  42  64  90 119 156 202 252 302 348
#     4  10  20  34  56  86 114 149 196 243 291 347
#     4  11  21  35  57  86 119 152 193 245 300 355
#     4  11  23  39  60  87 120 161 203 245 299 359
#     4  10  21  37  56  81 117 161 198 237 297 357
#
# _framework density 22.837309000000001
#
# number of rings (size 3 to 8) (size 9 to 14) (size 15 to 20)
#    0.000    1.750    2.500    1.875    0.000    6.500 
#    0.000    2.500    0.000    1.500    0.000    0.000 
#    0.000    0.000    0.000    0.000    0.000    0.000 
#
# Total GULP energy -178783.523251 kJ/mol
# GULP energy per Si atom -5586.985102 kJ/mol
# Density = 2.278533 g / cm^3
# Si number density = 22.837309 Si / 1000 Ang^3
#
#
#
# Elastic Constant Matrix: (Units=GPa)
#
#
# Indices 1 2 3 4 5 6 
#
# 1 140.2907 0.8656 51.4033 0.0000 -27.9032 0.0000
# 2 0.8656 54.4648 -7.9642 0.0000 -0.5232 0.0000
# 3 51.4033 -7.9642 104.9674 0.0000 -23.6557 0.0000
# 4 0.0000 0.0000 0.0000 9.1274 0.0000 -5.0796
# 5 -27.9032 -0.5232 -23.6557 0.0000 38.4630 0.0000
# 6 0.0000 0.0000 0.0000 -5.0796 0.0000 16.6010
#
#
#
# Elastic Compliance Matrix: (Units=1/GPa)
#
#
# Indices 1 2 3 4 5 6 
#
# 1 0.009360 -0.000632 -0.003603 0.000000 0.004566 0.000000
# 2 -0.000632 0.018665 0.001950 0.000000 0.000995 0.000000
# 3 -0.003603 0.001950 0.012603 0.000000 0.005164 0.000000
# 4 0.000000 0.000000 0.000000 0.132046 0.000000 0.040404
# 5 0.004566 0.000995 0.005164 0.000000 0.032501 0.000000
# 6 0.000000 0.000000 0.000000 0.040404 0.000000 0.072600
#
#
# Mechanical properties :
#
#
# Convention : Reuss Voigt Hill
#
# Bulk Modulus (GPa) = 27.73251 43.14804 35.44027
# Shear Modulus (GPa) = 16.98577 29.86616 23.42596
#
# Velocity S-wave (km/s) = 2.73018 3.62025 3.20625
# Velocity P-wave (km/s) = 4.70195 6.03404 5.40916
#
# Compressibility (1/GPa) = 0.03605877
#
# Stress axis : x y z
#
# Youngs Moduli (GPa) = 106.83588 53.57573 79.34806
#
# Poissons Ratio (x) = 0.03384 0.28586
# Poissons Ratio (y) = 0.06749 -0.15471
# Poissons Ratio (z) = 0.38489 -0.10446
#
# Static dielectric constant tensor:
#      x y z
#    x 1.908240 0.000000 -0.003780 
#    y 0.000000 1.849990 0.000000 
#    z -0.003780 0.000000 1.820510 
# 
# From -- ./inp_files/89596.got.cif
#   From: 2010.05.17/outbox.cif.g08.bks.cpg/sg10_45_cif.got.tgz:89596.got - 2010.06.03 11:33:40.
