data_PCOD9149155
_publ_section_title
;
Structure prediction by ZEFSAII (Michael W. Deem and Ramdas Pophale) SiO2 
 PCOD9149155
Probable space group: P 2/M
;
_chemical_formula_sum "Si O2"
_cell_formula_units_Z 32
_cell_length_a 23.738227
_cell_length_b 7.543350
_cell_length_c 15.738949
_cell_angle_alpha 90.000000
_cell_angle_beta 30.633197
_cell_angle_gamma 90.000000
_cell_volume 1436.040154
_symmetry_space_group_name_H-M "P 2/M"
_symmetry_group_IT_number 10
_symmetry_cell_setting 'monoclinic'
loop_
_space_group_symop_operation_xyz
x,y,z
-x,y,-z
-x,-y,-z
x,-y,z
loop_
_atom_site_type_symbol
_atom_site_label
_atom_site_fract_x
_atom_site_fract_y
_atom_site_fract_z
Si Si1 0.243819 0.213880 0.988364
Si Si2 0.987952 0.293556 0.770601
Si Si3 0.911139 0.717512 0.186000
Si Si4 0.075140 0.286157 0.480272
Si Si5 0.515571 0.213823 0.383308
Si Si6 0.472873 0.297364 0.129003
Si Si7 0.338979 0.288758 0.464682
Si Si8 0.292028 0.791119 0.111362
O O1 0.363864 0.273185 0.803063
O O2 0.238960 0.000000 0.991774
O O3 0.144002 0.281741 0.061361
O O4 0.235012 0.271478 0.097971
O O5 0.019688 0.500000 0.728595
O O6 0.040905 0.219869 0.786300
O O7 0.031185 0.215354 0.626407
O O8 0.910382 0.500000 0.183495
O O9 0.782935 0.775328 0.349521
O O10 0.000000 0.774475 0.000000
O O11 0.066226 0.500000 0.491627
O O12 0.202332 0.239129 0.300309
O O13 0.000000 0.218922 0.500000
O O14 0.500000 0.277614 0.500000
O O15 0.424580 0.260770 0.430852
O O16 0.516793 0.000000 0.384301
O O17 0.435694 0.500000 0.160158
O O18 0.388455 0.219925 0.309722
O O19 0.500000 0.216937 0.000000
O O20 0.591506 0.297946 0.021689
O O21 0.330167 0.500000 0.463757
O O22 0.315090 0.000000 0.072391
#
# Coordination Sequence:
#
# PCOD9149155 Si02
#       8
#     4   4   4   4   4   4   4   4
#     4  10  21  37  56  82 117 149 185 236 288 340
#     4  10  21  36  59  84 111 151 193 233 280 340
#     4   9  20  38  58  83 115 148 186 239 291 330
#     4  10  20  34  53  81 114 147 185 228 275 335
#     4  10  22  40  61  84 115 155 189 231 293 348
#     4  10  22  38  59  84 113 153 194 237 286 342
#     4  10  21  38  61  89 117 148 193 242 287 343
#     4  11  22  36  56  81 115 153 187 232 288 342
#
# _framework density 22.283501000000001
#
# number of rings (size 3 to 8) (size 9 to 14) (size 15 to 20)
#    0.000    2.000    2.500    0.375    3.500    2.250 
#    0.000    0.625    0.000    0.750    0.000    0.000 
#    0.000    0.000    0.000    0.000    0.000    0.000 
#
# Total GULP energy -178687.345666 kJ/mol
# GULP energy per Si atom -5583.979552 kJ/mol
# Density = 2.223278 g / cm^3
# Si number density = 22.283501 Si / 1000 Ang^3
#
#
#
# Elastic Constant Matrix: (Units=GPa)
#
#
# Indices 1 2 3 4 5 6 
#
# 1 93.0324 -7.2671 75.7382 0.0000 16.5869 0.0000
# 2 -7.2671 56.4105 -1.9298 0.0000 9.8662 0.0000
# 3 75.7382 -1.9298 191.5919 0.0000 5.7677 0.0000
# 4 0.0000 0.0000 0.0000 6.8854 0.0000 -18.2560
# 5 16.5869 9.8662 5.7677 0.0000 37.1412 0.0000
# 6 0.0000 0.0000 0.0000 -18.2560 0.0000 61.2095
#
#
#
# Elastic Compliance Matrix: (Units=1/GPa)
#
#
# Indices 1 2 3 4 5 6 
#
# 1 0.017997 0.003465 -0.006842 0.000000 -0.007895 0.000000
# 2 0.003465 0.019280 -0.000980 0.000000 -0.006517 0.000000
# 3 -0.006842 -0.000980 0.007851 0.000000 0.002097 0.000000
# 4 0.000000 0.000000 0.000000 0.694242 0.000000 0.207061
# 5 -0.007895 -0.006517 0.002097 0.000000 0.031856 0.000000
# 6 0.000000 0.000000 0.000000 0.207061 0.000000 0.078094
#
#
# Mechanical properties :
#
#
# Convention : Reuss Voigt Hill
#
# Bulk Modulus (GPa) = 27.46026 52.67972 40.06999
# Shear Modulus (GPa) = 5.74599 39.34678 22.54638
#
# Velocity S-wave (km/s) = 1.60754 4.20662 3.18433
# Velocity P-wave (km/s) = 3.97435 6.87650 5.61613
#
# Compressibility (1/GPa) = 0.03641626
#
# Stress axis : x y z
#
# Youngs Moduli (GPa) = 55.56356 51.86743 127.37000
#
# Poissons Ratio (x) = -0.17974 0.87146
# Poissons Ratio (y) = -0.19255 0.12476
# Poissons Ratio (z) = 0.38016 0.05080
#
# Static dielectric constant tensor:
#      x y z
#    x 1.790570 0.000000 0.037790 
#    y 0.000000 1.874560 0.000000 
#    z 0.037790 0.000000 1.832730 
# 
# From -- ./inp_files/71516.got.cif
#   From: 2010.05.17/outbox.cif.g08.bks.cpg/sg10_36_cif.got.tgz:71516.got - 2010.06.03 11:33:40.
