data_PCOD9149059
_publ_section_title
;
Structure prediction by ZEFSAII (Michael W. Deem and Ramdas Pophale) SiO2 
 PCOD9149059
Probable space group: P 2/M
;
_chemical_formula_sum "Si O2"
_cell_formula_units_Z 32
_cell_length_a 5.418058
_cell_length_b 17.857590
_cell_length_c 21.869658
_cell_angle_alpha 90.000000
_cell_angle_beta 121.954061
_cell_angle_gamma 90.000000
_cell_volume 1795.338587
_symmetry_space_group_name_H-M "P 2/M"
_symmetry_group_IT_number 10
_symmetry_cell_setting 'monoclinic'
loop_
_space_group_symop_operation_xyz
x,y,z
-x,y,-z
-x,-y,-z
x,-y,z
loop_
_atom_site_type_symbol
_atom_site_label
_atom_site_fract_x
_atom_site_fract_y
_atom_site_fract_z
Si Si1 0.586374 0.635818 0.657019
Si Si2 0.938755 0.583344 0.588232
Si Si3 0.324571 0.829018 0.128973
Si Si4 0.276574 0.910854 0.914441
Si Si5 0.292041 0.728686 0.519491
Si Si6 0.539432 0.289657 0.076453
Si Si7 0.177195 0.296407 0.188164
Si Si8 0.231263 0.586263 0.085794
O O1 0.288402 0.592114 0.634575
O O2 0.469574 0.705453 0.601971
O O3 0.740510 0.666419 0.737331
O O4 0.798415 0.593534 0.637154
O O5 0.863970 0.500000 0.555156
O O6 0.811123 0.650645 0.528979
O O7 0.567391 0.880426 0.127392
O O8 0.294704 0.762533 0.074748
O O9 0.382312 0.773665 0.194872
O O10 0.034003 0.875173 0.106731
O O11 0.241734 0.000000 0.904796
O O12 0.500000 0.895510 0.000000
O O13 0.500000 0.769514 0.500000
O O14 0.000000 0.769026 0.500000
O O15 0.513298 0.375616 0.093307
O O16 0.850795 0.264445 0.142044
O O17 0.500000 0.284039 0.000000
O O18 0.175866 0.362429 0.137295
O O19 0.259153 0.500000 0.105428
O O20 0.000000 0.593635 0.000000
#
# Coordination Sequence:
#
# PCOD9149059 Si02
#       8
#     4   4   4   4   4   4   4   4
#     4  10  22  34  49  72 100 126 166 221 264 309
#     4  10  20  34  53  73  98 133 171 214 274 343
#     4  11  23  37  58  80 108 142 176 210 262 323
#     4  11  23  37  58  88 116 137 167 216 268 313
#     4   8  16  31  49  70  93 125 162 200 256 323
#     4  11  22  37  57  74  93 136 185 232 272 333
#     4  11  24  38  54  75 103 136 185 226 276 326
#     4  10  22  37  51  68  91 125 176 239 294 331
#
# _framework density 17.823934999999999
#
# number of rings (size 3 to 8) (size 9 to 14) (size 15 to 20)
#    0.000    1.750    2.500    1.500    5.250    7.250 
#    0.000    0.000    0.000    0.000    0.000    0.000 
#    0.000    0.000    0.000    0.000    0.000  112.500 
#
# Total GULP energy -178193.391436 kJ/mol
# GULP energy per Si atom -5568.543482 kJ/mol
# Density = 1.778337 g / cm^3
# Si number density = 17.823935 Si / 1000 Ang^3
#
#
#
# Elastic Constant Matrix: (Units=GPa)
#
#
# Indices 1 2 3 4 5 6 
#
# 1 134.6788 36.1444 30.3936 0.0000 -6.6848 0.0000
# 2 36.1444 86.2777 18.3263 0.0000 -8.2493 0.0000
# 3 30.3936 18.3263 81.6961 0.0000 -11.6274 0.0000
# 4 0.0000 0.0000 0.0000 -42.5787 0.0000 23.5434
# 5 -6.6848 -8.2493 -11.6274 0.0000 19.3090 0.0000
# 6 0.0000 0.0000 0.0000 23.5434 0.0000 14.6677
#
#
#
# Elastic Compliance Matrix: (Units=1/GPa)
#
#
# Indices 1 2 3 4 5 6 
#
# 1 0.008858 -0.003149 -0.002564 0.000000 0.000177 0.000000
# 2 -0.003149 0.013563 -0.001314 0.000000 0.003913 0.000000
# 3 -0.002564 -0.001314 0.014528 0.000000 0.007299 0.000000
# 4 0.000000 0.000000 0.000000 -0.012443 0.000000 0.019972
# 5 0.000177 0.003913 0.007299 0.000000 0.057918 0.000000
# 6 0.000000 0.000000 0.000000 0.019972 0.000000 0.036120
#
#
# Mechanical properties :
#
#
# Convention : Reuss Voigt Hill
#
# Bulk Modulus (GPa) = 43.67793 52.48679 48.08236
# Shear Modulus (GPa) = 35.65601 12.79880 24.22741
#
# Velocity S-wave (km/s) = 4.47750 2.68259 3.69082
# Velocity P-wave (km/s) = 7.16164 6.25350 6.72292
#
# Compressibility (1/GPa) = 0.02289486
#
# Stress axis : x y z
#
# Youngs Moduli (GPa) = 112.89744 73.72984 68.83314
#
# Poissons Ratio (x) = 0.23219 0.17646
# Poissons Ratio (y) = 0.35554 0.09044
# Poissons Ratio (z) = 0.28943 0.09688
#
# Static dielectric constant tensor:
#      x y z
#    x 1.739060 0.000000 0.003740 
#    y 0.000000 1.620700 0.000000 
#    z 0.003740 0.000000 1.590980 
# 
# From -- ./inp_files/81480.got.cif
#   From: 2010.05.17/outbox.cif.g08.bks.cpg/sg10_41_cif.got.tgz:81480.got - 2010.06.03 11:33:40.
