data_PCOD9149084
_publ_section_title
;
Structure prediction by ZEFSAII (Michael W. Deem and Ramdas Pophale) SiO2 
 PCOD9149084
Probable space group: P 2/M
;
_chemical_formula_sum "Si O2"
_cell_formula_units_Z 28
_cell_length_a 25.077159
_cell_length_b 9.195421
_cell_length_c 9.432492
_cell_angle_alpha 90.000000
_cell_angle_beta 138.942366
_cell_angle_gamma 90.000000
_cell_volume 1428.635216
_symmetry_space_group_name_H-M "P 2/M"
_symmetry_group_IT_number 10
_symmetry_cell_setting 'monoclinic'
loop_
_space_group_symop_operation_xyz
x,y,z
-x,y,-z
-x,-y,-z
x,-y,z
loop_
_atom_site_type_symbol
_atom_site_label
_atom_site_fract_x
_atom_site_fract_y
_atom_site_fract_z
Si Si1 0.253359 0.327441 0.077924
Si Si2 0.755770 0.332064 0.606638
Si Si3 0.491336 0.331373 0.151712
Si Si4 0.580288 0.172365 0.566455
Si Si5 0.920584 0.329384 0.756782
Si Si6 0.833630 0.831569 0.336899
Si Si7 0.669163 0.832936 0.192975
O O1 0.257511 0.500000 0.061163
O O2 0.238582 0.302367 0.215599
O O3 0.339684 0.252523 0.218141
O O4 0.184483 0.256389 0.842203
O O5 0.727163 0.500000 0.531217
O O6 0.843369 0.320027 0.707167
O O7 0.697151 0.226601 0.401817
O O8 0.498460 0.500000 0.206976
O O9 0.557507 0.238800 0.368448
O O10 0.500000 0.319926 0.000000
O O11 0.403008 0.266661 0.008307
O O12 0.500000 0.197843 0.500000
O O13 0.594973 0.000000 0.590532
O O14 0.931582 0.500000 0.742849
O O15 0.899059 0.240980 0.572338
O O16 0.000000 0.278370 0.000000
O O17 0.748655 0.825254 0.254085
O O18 0.852121 0.000000 0.346070
O O19 0.641468 0.000000 0.143806
#
# Coordination Sequence:
#
# PCOD9149084 Si02
#       7
#     4   4   4   4   4   4   4
#     4  11  22  36  55  79 108 142 180 221 266 317
#     4   9  19  35  55  81 110 139 175 220 266 314
#     4  11  23  36  51  74 103 136 177 224 271 318
#     4  11  24  39  54  75 105 141 182 228 274 318
#     4   9  18  36  62  87 110 139 175 214 259 313
#     4  10  21  36  55  80 109 140 175 215 259 312
#     4  10  20  34  53  76 101 135 179 222 266 316
#
# _framework density 19.599125000000001
#
# number of rings (size 3 to 8) (size 9 to 14) (size 15 to 20)
#    0.000    1.857    0.000    3.857    0.000   12.286 
#    0.000    0.714    0.000    4.286    0.000    0.000 
#    0.000    0.000    0.000    0.000    0.000    0.000 
#
# Total GULP energy -156510.040271 kJ/mol
# GULP energy per Si atom -5589.644295 kJ/mol
# Density = 1.955452 g / cm^3
# Si number density = 19.599125 Si / 1000 Ang^3
#
#
#
# Elastic Constant Matrix: (Units=GPa)
#
#
# Indices 1 2 3 4 5 6 
#
# 1 16.3158 18.5517 4.9519 0.0000 -15.5002 0.0000
# 2 18.5517 72.0937 44.0976 0.0000 -18.5669 0.0000
# 3 4.9519 44.0976 123.7918 0.0000 -10.3794 0.0000
# 4 0.0000 0.0000 0.0000 39.9853 0.0000 -22.1875
# 5 -15.5002 -18.5669 -10.3794 0.0000 28.4055 0.0000
# 6 0.0000 0.0000 0.0000 -22.1875 0.0000 48.4766
#
#
#
# Elastic Compliance Matrix: (Units=1/GPa)
#
#
# Indices 1 2 3 4 5 6 
#
# 1 0.158499 -0.028325 0.009748 0.000000 0.071537 0.000000
# 2 -0.028325 0.025742 -0.008172 0.000000 -0.001617 0.000000
# 3 0.009748 -0.008172 0.010932 0.000000 0.003972 0.000000
# 4 0.000000 0.000000 0.000000 0.033523 0.000000 0.015343
# 5 0.071537 -0.001617 0.003972 0.000000 0.074635 0.000000
# 6 0.000000 0.000000 0.000000 0.015343 0.000000 0.027651
#
#
# Mechanical properties :
#
#
# Convention : Reuss Voigt Hill
#
# Bulk Modulus (GPa) = 7.05846 38.60042 22.82944
# Shear Modulus (GPa) = 11.58193 33.01350 22.29771
#
# Velocity S-wave (km/s) = 2.43357 4.10864 3.37662
# Velocity P-wave (km/s) = 3.39198 6.49967 5.18417
#
# Compressibility (1/GPa) = 0.14167406
#
# Stress axis : x y z
#
# Youngs Moduli (GPa) = 6.30919 38.84673 91.47104
#
# Poissons Ratio (x) = 1.10034 -0.89165
# Poissons Ratio (y) = 0.17871 0.74754
# Poissons Ratio (z) = -0.06150 0.31747
#
# Static dielectric constant tensor:
#      x y z
#    x 1.702210 0.000000 -0.009340 
#    y 0.000000 1.662770 0.000000 
#    z -0.009340 0.000000 1.679260 
# 
# From -- ./inp_files/36794.got.cif
#   From: 2010.05.17/outbox.cif.g08.bks.cpg/sg10_19_cif.got.tgz:36794.got - 2010.06.03 11:33:40.
