data_PCOD9149704
_publ_section_title
;
Structure prediction by ZEFSAII (Michael W. Deem and Ramdas Pophale) SiO2 
 PCOD9149704
Probable space group: P 2/M
;
_chemical_formula_sum "Si O2"
_cell_formula_units_Z 24
_cell_length_a 8.634063
_cell_length_b 21.820505
_cell_length_c 8.455428
_cell_angle_alpha 90.000000
_cell_angle_beta 59.298710
_cell_angle_gamma 90.000000
_cell_volume 1369.725823
_symmetry_space_group_name_H-M "P 2/M"
_symmetry_group_IT_number 10
_symmetry_cell_setting 'monoclinic'
loop_
_space_group_symop_operation_xyz
x,y,z
-x,y,-z
-x,-y,-z
x,-y,z
loop_
_atom_site_type_symbol
_atom_site_label
_atom_site_fract_x
_atom_site_fract_y
_atom_site_fract_z
Si Si1 0.038854 0.330162 0.794651
Si Si2 0.188211 0.430376 0.499999
Si Si3 0.665911 0.000000 0.795607
Si Si4 0.187428 0.100598 0.500000
Si Si5 0.038484 0.000000 0.795606
Si Si6 0.333505 0.669840 0.205349
Si Si7 0.684561 0.237112 0.499999
O O1 0.144539 0.390641 0.678392
O O2 0.160341 0.272933 0.677164
O O3 0.851470 0.327524 0.797061
O O4 0.000000 0.330984 0.000000
O O5 0.245469 0.500000 0.499993
O O6 0.322929 0.390638 0.321613
O O7 0.000000 0.432305 0.500000
O O8 0.678947 0.940285 0.677104
O O9 0.500000 0.000000 0.000000
O O10 0.849276 0.000000 0.801449
O O11 0.143953 0.059715 0.677102
O O12 0.261597 0.167068 0.500003
O O13 0.000000 0.106277 0.500000
O O14 0.000000 0.000000 0.000000
O O15 0.337504 0.727070 0.322833
O O16 0.500000 0.669017 0.000000
O O17 0.500000 0.241244 0.500000
#
# Coordination Sequence:
#
# PCOD9149704 Si02
#       7
#     4   4   2   4   2   4   4
#     4  10  20  35  55  78 107 141 176 218 264 313
#     4   8  16  32  53  77 106 139 174 214 262 313
#     4   9  19  35  56  78 104 137 171 211 257 308
#     4   9  19  37  55  75 106 141 172 208 261 315
#     4   9  19  35  56  78 104 137 171 211 257 308
#     4  10  20  35  55  78 107 141 176 218 264 313
#     4  11  22  36  55  79 106 139 179 221 265 313
#
# _framework density 17.521754999999999
#
# number of rings (size 3 to 8) (size 9 to 14) (size 15 to 20)
#    0.000    2.500    0.000    4.500    0.000    3.333 
#    0.000    5.000    0.000   17.000    0.000    0.000 
#    0.000    0.000    0.000    0.000    0.000    0.000 
#
# Total GULP energy -133905.278233 kJ/mol
# GULP energy per Si atom -5579.386593 kJ/mol
# Density = 1.748187 g / cm^3
# Si number density = 17.521755 Si / 1000 Ang^3
#
#
#
# Elastic Constant Matrix: (Units=GPa)
#
#
# Indices 1 2 3 4 5 6 
#
# 1 66.9213 53.2492 54.0211 0.0000 4.3832 0.0000
# 2 53.2492 192.7936 108.5216 0.0000 4.9449 0.0000
# 3 54.0211 108.5216 201.5415 0.0000 7.6626 0.0000
# 4 0.0000 0.0000 0.0000 5.0017 0.0000 -1.0172
# 5 4.3832 4.9449 7.6626 0.0000 31.2346 0.0000
# 6 0.0000 0.0000 0.0000 -1.0172 0.0000 16.3698
#
#
#
# Elastic Compliance Matrix: (Units=1/GPa)
#
#
# Indices 1 2 3 4 5 6 
#
# 1 0.020858 -0.003742 -0.003520 0.000000 -0.001471 0.000000
# 2 -0.003742 0.008115 -0.003369 0.000000 0.000067 0.000000
# 3 -0.003520 -0.003369 0.007753 0.000000 -0.000875 0.000000
# 4 0.000000 0.000000 0.000000 0.202493 0.000000 0.012583
# 5 -0.001471 0.000067 -0.000875 0.000000 0.032426 0.000000
# 6 0.000000 0.000000 0.000000 0.012583 0.000000 0.061870
#
#
# Mechanical properties :
#
#
# Convention : Reuss Voigt Hill
#
# Bulk Modulus (GPa) = 64.66737 99.20447 81.93592
# Shear Modulus (GPa) = 13.89150 26.88552 20.38851
#
# Velocity S-wave (km/s) = 2.81875 3.92140 3.41488
# Velocity P-wave (km/s) = 6.89789 8.78886 7.90015
#
# Compressibility (1/GPa) = 0.01546375
#
# Stress axis : x y z
#
# Youngs Moduli (GPa) = 47.94287 123.22556 128.98678
#
# Poissons Ratio (x) = 0.46109 0.45404
# Poissons Ratio (y) = 0.17939 0.43459
# Poissons Ratio (z) = 0.16876 0.41518
#
# Static dielectric constant tensor:
#      x y z
#    x 1.587970 0.000000 -0.001450 
#    y 0.000000 1.583130 0.000000 
#    z -0.001450 0.000000 1.571800 
# 
# From -- ./inp_files/20157.got.cif
#   From: 2010.05.17/outbox.cif.g08.bks.cpg/sg10_11_cif.got.tgz:20157.got - 2010.06.03 11:33:40.
