data_PCOD9149324
_publ_section_title
;
Structure prediction by ZEFSAII (Michael W. Deem and Ramdas Pophale) SiO2 
 PCOD9149324
Probable space group: P 2/M
;
_chemical_formula_sum "Si O2"
_cell_formula_units_Z 32
_cell_length_a 33.802298
_cell_length_b 7.533899
_cell_length_c 12.867999
_cell_angle_alpha 90.000000
_cell_angle_beta 25.868594
_cell_angle_gamma 90.000000
_cell_volume 1429.785382
_symmetry_space_group_name_H-M "P 2/M"
_symmetry_group_IT_number 10
_symmetry_cell_setting 'monoclinic'
loop_
_space_group_symop_operation_xyz
x,y,z
-x,y,-z
-x,-y,-z
x,-y,z
loop_
_atom_site_type_symbol
_atom_site_label
_atom_site_fract_x
_atom_site_fract_y
_atom_site_fract_z
Si Si1 0.600934 0.784183 0.532817
Si Si2 0.400149 0.795144 0.057590
Si Si3 0.912117 0.289668 0.478740
Si Si4 0.601335 0.783809 0.295974
Si Si5 0.110052 0.701977 0.246479
Si Si6 0.733465 0.213829 0.800085
Si Si7 0.116530 0.281300 0.002525
Si Si8 0.700202 0.704444 0.506674
O O1 0.622115 0.729027 0.364855
O O2 0.665176 0.717187 0.471904
O O3 0.604227 0.000000 0.528833
O O4 0.499132 0.719924 0.801173
O O5 0.319956 0.721080 0.175130
O O6 0.369411 0.790853 0.249118
O O7 0.409337 0.000000 0.003336
O O8 0.922115 0.500000 0.474110
O O9 0.873287 0.214016 0.680207
O O10 0.837564 0.266149 0.567249
O O11 0.014224 0.224950 0.217070
O O12 0.500000 0.729412 0.500000
O O13 0.600933 0.000000 0.296157
O O14 0.674990 0.724588 0.037836
O O15 0.145686 0.500000 0.162896
O O16 0.137198 0.781583 0.071806
O O17 0.000000 0.694049 0.500000
O O18 0.733488 0.000000 0.800358
O O19 0.118476 0.500000 0.999787
O O20 0.197389 0.222958 0.736603
O O21 0.703159 0.500000 0.531329
#
# Coordination Sequence:
#
# PCOD9149324 Si02
#       8
#     4   4   4   4   4   4   4   4
#     4  10  20  36  59  82 106 140 179 216 262 326
#     4  10  21  39  58  75 103 145 186 217 258 322
#     4   9  17  31  54  78 103 140 180 214 258 321
#     4   9  16  32  57  82 107 139 178 216 259 318
#     4   7  11  23  45  69  94 128 167 203 242 299
#     4  10  20  34  55  82 110 139 175 221 268 314
#     4   8  16  32  50  73 105 141 179 215 258 315
#     4  11  23  36  55  81 109 139 178 229 272 305
#
# _framework density 22.380980999999998
#
# number of rings (size 3 to 8) (size 9 to 14) (size 15 to 20)
#    0.000    2.750    1.250    2.250    1.750    2.500 
#    0.000    1.875    0.000    7.875    0.000    0.000 
#    0.000    0.000    0.000    0.000    0.000    0.000 
#
# Total GULP energy -178569.690028 kJ/mol
# GULP energy per Si atom -5580.302813 kJ/mol
# Density = 2.233004 g / cm^3
# Si number density = 22.380981 Si / 1000 Ang^3
#
#
#
# Elastic Constant Matrix: (Units=GPa)
#
#
# Indices 1 2 3 4 5 6 
#
# 1 80.5011 -8.1151 27.4773 0.0000 -11.4872 0.0000
# 2 -8.1151 55.2946 2.9416 0.0000 -0.2300 0.0000
# 3 27.4773 2.9416 55.0724 0.0000 -9.0028 0.0000
# 4 0.0000 0.0000 0.0000 -2.2851 0.0000 -8.9601
# 5 -11.4872 -0.2300 -9.0028 0.0000 33.7046 0.0000
# 6 0.0000 0.0000 0.0000 -8.9601 0.0000 14.5427
#
#
#
# Elastic Compliance Matrix: (Units=1/GPa)
#
#
# Indices 1 2 3 4 5 6 
#
# 1 0.015717 0.002716 -0.007432 0.000000 0.003390 0.000000
# 2 0.002716 0.018607 -0.002276 0.000000 0.000445 0.000000
# 3 -0.007432 -0.002276 0.022556 0.000000 0.003476 0.000000
# 4 0.000000 0.000000 0.000000 -0.128112 0.000000 -0.078933
# 5 0.003390 0.000445 0.003476 0.000000 0.031756 0.000000
# 6 0.000000 0.000000 0.000000 -0.078933 0.000000 0.020130
#
#
# Mechanical properties :
#
#
# Convention : Reuss Voigt Hill
#
# Bulk Modulus (GPa) = 23.31335 26.16397 24.73866
# Shear Modulus (GPa) = 559.46668 20.43004 289.94836
#
# Velocity S-wave (km/s) = 15.82772 3.02459 11.39441
# Velocity P-wave (km/s) = 18.55968 4.89011 13.57157
#
# Compressibility (1/GPa) = 0.04289387
#
# Stress axis : x y z
#
# Youngs Moduli (GPa) = 63.62702 53.74459 44.33398
#
# Poissons Ratio (x) = -0.14597 0.32951
# Poissons Ratio (y) = -0.17282 0.10092
# Poissons Ratio (z) = 0.47290 0.12234
#
# Static dielectric constant tensor:
#      x y z
#    x 1.819150 0.000000 -0.006580 
#    y 0.000000 1.874240 0.000000 
#    z -0.006580 0.000000 1.816930 
# 
# From -- ./inp_files/58075.got.cif
#   From: 2010.05.17/outbox.cif.g08.bks.cpg/sg10_30_cif.got.tgz:58075.got - 2010.06.03 11:33:40.
