data_PCOD9149821
_publ_section_title
;
Structure prediction by ZEFSAII (Michael W. Deem and Ramdas Pophale) SiO2 
 PCOD9149821
Probable space group: P 2/M
;
_chemical_formula_sum "Si O2"
_cell_formula_units_Z 22
_cell_length_a 11.814528
_cell_length_b 15.463031
_cell_length_c 4.926764
_cell_angle_alpha 90.000000
_cell_angle_beta 100.657153
_cell_angle_gamma 90.000000
_cell_volume 884.537844
_symmetry_space_group_name_H-M "P 2/M"
_symmetry_group_IT_number 10
_symmetry_cell_setting 'monoclinic'
loop_
_space_group_symop_operation_xyz
x,y,z
-x,y,-z
-x,-y,-z
x,-y,z
loop_
_atom_site_type_symbol
_atom_site_label
_atom_site_fract_x
_atom_site_fract_y
_atom_site_fract_z
Si Si1 0.578463 0.667150 0.298277
Si Si2 0.220112 0.902842 0.396828
Si Si3 0.879083 0.365472 0.867551
Si Si4 0.828523 0.739864 0.340237
Si Si5 0.376856 0.098100 0.982024
Si Si6 0.689515 0.500000 0.648682
O O1 0.500000 0.707845 0.500000
O O2 0.690185 0.724929 0.285755
O O3 0.624280 0.576645 0.443710
O O4 0.500000 0.650616 0.000000
O O5 0.141716 0.830616 0.505392
O O6 0.281480 0.868827 0.150871
O O7 0.171359 0.000000 0.330530
O O8 0.320214 0.910769 0.664875
O O9 0.869673 0.283057 0.060411
O O10 0.877418 0.334561 0.558047
O O11 0.767230 0.425345 0.845269
O O12 0.000000 0.407390 0.000000
O O13 0.399501 0.000000 0.100398
O O14 0.500000 0.142625 0.000000
#
# Coordination Sequence:
#
# PCOD9149821 Si02
#       6
#     4   4   4   4   4   2
#     4  11  23  39  60  91 134 175 203 238 291 365
#     4  10  20  35  56  81 117 165 210 259 310 356
#     4  11  24  44  68  92 122 156 201 267 328 375
#     4  11  24  41  61  92 126 165 213 256 310 376
#     4   9  17  29  48  78 113 153 204 254 297 346
#     4  10  23  42  68  98 124 160 209 248 304 386
#
# _framework density 24.871745000000001
#
# number of rings (size 3 to 8) (size 9 to 14) (size 15 to 20)
#    0.000    1.636    0.000    5.182    0.000   10.182 
#    0.000    4.545    0.000    3.273    0.000    0.000 
#    0.000    0.000    0.000    0.000    0.000    0.000 
#
# Total GULP energy -122481.614484 kJ/mol
# GULP energy per Si atom -5567.346113 kJ/mol
# Density = 2.481514 g / cm^3
# Si number density = 24.871745 Si / 1000 Ang^3
#
#
#
# Elastic Constant Matrix: (Units=GPa)
#
#
# Indices 1 2 3 4 5 6 
#
# 1 87.7482 22.4091 34.1747 0.0000 4.7782 0.0000
# 2 22.4091 115.9182 -2.3477 0.0000 0.0814 0.0000
# 3 34.1747 -2.3477 112.4543 0.0000 14.0700 0.0000
# 4 0.0000 0.0000 0.0000 327.6228 0.0000 -165.8971
# 5 4.7782 0.0814 14.0700 0.0000 42.6714 0.0000
# 6 0.0000 0.0000 0.0000 -165.8971 0.0000 91.5117
#
#
#
# Elastic Compliance Matrix: (Units=1/GPa)
#
#
# Indices 1 2 3 4 5 6 
#
# 1 0.013747 -0.002743 -0.004217 0.000000 -0.000144 0.000000
# 2 -0.002743 0.009178 0.001031 0.000000 -0.000050 0.000000
# 3 -0.004217 0.001031 0.010573 0.000000 -0.003016 0.000000
# 4 0.000000 0.000000 0.000000 0.037208 0.000000 0.067452
# 5 -0.000144 -0.000050 -0.003016 0.000000 0.024446 0.000000
# 6 0.000000 0.000000 0.000000 0.067452 0.000000 0.133208
#
#
# Mechanical properties :
#
#
# Convention : Reuss Voigt Hill
#
# Bulk Modulus (GPa) = 46.20837 47.17700 46.69268
# Shear Modulus (GPa) = 20.20782 109.82017 65.01400
#
# Velocity S-wave (km/s) = 2.85350 6.65210 5.11825
# Velocity P-wave (km/s) = 5.42914 8.83232 7.33094
#
# Compressibility (1/GPa) = 0.02164110
#
# Stress axis : x y z
#
# Youngs Moduli (GPa) = 72.74387 108.95696 94.58146
#
# Poissons Ratio (x) = 0.29885 0.39884
# Poissons Ratio (y) = 0.19952 -0.09756
# Poissons Ratio (z) = 0.30676 -0.11239
#
# Static dielectric constant tensor:
#      x y z
#    x 2.065690 0.000000 -0.009130 
#    y 0.000000 2.139580 0.000000 
#    z -0.009130 0.000000 1.875870 
# 
# From -- ./inp_files/7278.got.cif
#   From: 2010.05.17/outbox.cif.g08.bks.cpg/sg10_4_cif.got.tgz:7278.got - 2010.06.03 11:33:40.
