data_PCOD9149351
_publ_section_title
;
Structure prediction by ZEFSAII (Michael W. Deem and Ramdas Pophale) SiO2 
 PCOD9149351
Probable space group: P 2/M
;
_chemical_formula_sum "Si O2"
_cell_formula_units_Z 30
_cell_length_a 5.442154
_cell_length_b 13.599157
_cell_length_c 21.715249
_cell_angle_alpha 90.000000
_cell_angle_beta 108.522936
_cell_angle_gamma 90.000000
_cell_volume 1523.863278
_symmetry_space_group_name_H-M "P 2/M"
_symmetry_group_IT_number 10
_symmetry_cell_setting 'monoclinic'
loop_
_space_group_symop_operation_xyz
x,y,z
-x,y,-z
-x,-y,-z
x,-y,z
loop_
_atom_site_type_symbol
_atom_site_label
_atom_site_fract_x
_atom_site_fract_y
_atom_site_fract_z
Si Si1 0.274266 0.206592 0.431696
Si Si2 0.531281 0.886509 0.250537
Si Si3 0.198568 0.117721 0.960437
Si Si4 0.036539 0.388114 0.251120
Si Si5 0.808483 0.000000 0.541680
Si Si6 0.929151 0.815898 0.184179
Si Si7 0.033007 0.607176 0.605102
Si Si8 0.490207 0.287343 0.670045
O O1 0.500000 0.200429 0.500000
O O2 0.358651 0.226256 0.369058
O O3 0.113607 0.302416 0.435944
O O4 0.136188 0.101826 0.420454
O O5 0.706644 0.876028 0.203175
O O6 0.646686 0.799977 0.303354
O O7 0.224421 0.856441 0.219708
O O8 0.544778 0.000000 0.273123
O O9 0.120286 0.172782 0.891982
O O10 0.174499 0.000000 0.947444
O O11 0.500000 0.137375 0.000000
O O12 0.000000 0.141928 0.000000
O O13 0.991774 0.500000 0.226257
O O14 0.903307 0.297349 0.205574
O O15 0.984571 0.387698 0.321081
O O16 0.336333 0.354101 0.271664
O O17 0.500000 0.000000 0.500000
O O18 0.000000 0.000000 0.500000
O O19 0.951866 0.500000 0.578311
O O20 0.330017 0.633566 0.618321
#
# Coordination Sequence:
#
# PCOD9149351 Si02
#       8
#     4   4   4   4   2   4   4   4
#     4  10  24  41  60  85 117 155 202 246 303 369
#     4  11  22  36  57  87 123 155 193 248 304 354
#     4  10  20  34  55  83 119 162 199 235 286 345
#     4   9  19  37  58  84 115 153 198 246 302 355
#     4  10  24  44  66  86 114 156 198 242 284 357
#     4  11  21  38  59  89 120 158 203 245 292 351
#     4  10  20  38  62  86 116 151 195 254 306 362
#     4  10  21  37  57  88 117 152 194 249 303 369
#
# _framework density 19.686806000000001
#
# number of rings (size 3 to 8) (size 9 to 14) (size 15 to 20)
#    0.000    1.867    1.333    2.400    4.667    1.867 
#    1.200    0.667    0.000    0.800    0.000    0.000 
#    0.000    0.000    0.000    0.000    0.000    0.000 
#
# Total GULP energy -167145.696768 kJ/mol
# GULP energy per Si atom -5571.523226 kJ/mol
# Density = 1.964200 g / cm^3
# Si number density = 19.686806 Si / 1000 Ang^3
#
#
#
# Elastic Constant Matrix: (Units=GPa)
#
#
# Indices 1 2 3 4 5 6 
#
# 1 77.2786 27.3175 9.0607 0.0000 -10.6251 0.0000
# 2 27.3175 173.0509 24.3741 0.0000 2.1313 0.0000
# 3 9.0607 24.3741 39.7950 0.0000 -2.5063 0.0000
# 4 0.0000 0.0000 0.0000 31.4422 0.0000 2.3389
# 5 -10.6251 2.1313 -2.5063 0.0000 27.3632 0.0000
# 6 0.0000 0.0000 0.0000 2.3389 0.0000 -1.4051
#
#
#
# Elastic Compliance Matrix: (Units=1/GPa)
#
#
# Indices 1 2 3 4 5 6 
#
# 1 0.014683 -0.002154 -0.001664 0.000000 0.005717 0.000000
# 2 -0.002154 0.006660 -0.003695 0.000000 -0.001694 0.000000
# 3 -0.001664 -0.003695 0.027909 0.000000 0.002198 0.000000
# 4 0.000000 0.000000 0.000000 0.028300 0.000000 0.047109
# 5 0.005717 -0.001694 0.002198 0.000000 0.039098 0.000000
# 6 0.000000 0.000000 0.000000 0.047109 0.000000 -0.633292
#
#
# Mechanical properties :
#
#
# Convention : Reuss Voigt Hill
#
# Bulk Modulus (GPa) = 29.21756 45.73655 37.47705
# Shear Modulus (GPa) = -10.19977 26.77154 8.28588
#
# Velocity S-wave (km/s) = -2.27865 3.69165 2.05377
# Velocity P-wave (km/s) = 2.81964 6.43844 4.97011
#
# Compressibility (1/GPa) = 0.03422599
#
# Stress axis : x y z
#
# Youngs Moduli (GPa) = 68.10774 150.14993 35.83011
#
# Poissons Ratio (x) = 0.32340 0.05961
# Poissons Ratio (y) = 0.14669 0.13241
# Poissons Ratio (z) = 0.11331 0.55487
#
# Static dielectric constant tensor:
#      x y z
#    x 1.838870 0.000000 0.076990 
#    y 0.000000 2.312010 0.000000 
#    z 0.076990 0.000000 1.767540 
# 
# From -- ./inp_files/13136.got.cif
#   From: 2010.05.17/outbox.cif.g08.bks.cpg/sg10_7_cif.got.tgz:13136.got - 2010.06.03 11:33:40.
