data_PCOD9149239
_publ_section_title
;
Structure prediction by ZEFSAII (Michael W. Deem and Ramdas Pophale) SiO2 
 PCOD9149239
Probable space group: P 2/M
;
_chemical_formula_sum "Si O2"
_cell_formula_units_Z 32
_cell_length_a 16.451517
_cell_length_b 8.942063
_cell_length_c 23.655793
_cell_angle_alpha 90.000000
_cell_angle_beta 30.201740
_cell_angle_gamma 90.000000
_cell_volume 1750.608586
_symmetry_space_group_name_H-M "P 2/M"
_symmetry_group_IT_number 10
_symmetry_cell_setting 'monoclinic'
loop_
_space_group_symop_operation_xyz
x,y,z
-x,y,-z
-x,-y,-z
x,-y,z
loop_
_atom_site_type_symbol
_atom_site_label
_atom_site_fract_x
_atom_site_fract_y
_atom_site_fract_z
Si Si1 0.322620 0.324826 0.980472
Si Si2 0.174480 0.681348 0.376619
Si Si3 0.678704 0.830113 0.364667
Si Si4 0.191835 0.676775 0.606678
Si Si5 0.503194 0.820231 0.359985
Si Si6 0.143377 0.824623 0.184363
Si Si7 0.668029 0.325053 0.834773
Si Si8 0.494250 0.681100 0.762820
O O1 0.276649 0.500000 0.008656
O O2 0.490297 0.312422 0.914922
O O3 0.369831 0.281229 0.888185
O O4 0.191577 0.229865 0.092768
O O5 0.172552 0.500000 0.381397
O O6 0.213972 0.715524 0.287983
O O7 0.326643 0.728615 0.323351
O O8 0.000000 0.738445 0.500000
O O9 0.500000 0.836787 0.500000
O O10 0.776972 0.722803 0.346682
O O11 0.641654 0.781902 0.322980
O O12 0.744550 0.000000 0.326677
O O13 0.198968 0.500000 0.594860
O O14 0.334311 0.752232 0.484397
O O15 0.015870 0.739684 0.698314
O O16 0.539847 0.756024 0.276415
O O17 0.489923 0.000000 0.367568
O O18 0.288312 0.776458 0.138801
O O19 0.116264 0.000000 0.201811
O O20 0.690495 0.500000 0.837139
O O21 0.494741 0.500000 0.757408
#
# Coordination Sequence:
#
# PCOD9149239 Si02
#       8
#     4   4   4   4   4   4   4   4
#     4   9  19  37  55  74 103 139 183 225 263 303
#     4   8  15  28  47  72 102 135 172 212 255 298
#     4   8  16  33  53  75 108 142 166 200 255 313
#     4  11  22  35  54  79 106 137 174 216 262 308
#     4  10  20  34  54  81 114 143 167 204 256 316
#     4  12  24  35  51  76 106 137 175 222 271 319
#     4   9  18  33  53  75 100 136 179 220 260 306
#     4   9  18  32  53  79 103 136 180 220 251 299
#
# _framework density 18.279358999999999
#
# number of rings (size 3 to 8) (size 9 to 14) (size 15 to 20)
#    0.000    2.500    0.000    5.250    1.750    5.250 
#    0.000    1.875    0.000    1.500    0.000    5.250 
#    0.000    0.000    0.000    0.000    0.000    0.000 
#
# Total GULP energy -178490.374102 kJ/mol
# GULP energy per Si atom -5577.824191 kJ/mol
# Density = 1.823775 g / cm^3
# Si number density = 18.279359 Si / 1000 Ang^3
#
#
#
# Elastic Constant Matrix: (Units=GPa)
#
#
# Indices 1 2 3 4 5 6 
#
# 1 68.8170 22.0103 2.2189 0.0000 26.0844 0.0000
# 2 22.0103 58.5057 15.4854 0.0000 7.0648 0.0000
# 3 2.2189 15.4854 34.1518 0.0000 10.9369 0.0000
# 4 0.0000 0.0000 0.0000 23.2605 0.0000 -3.1082
# 5 26.0844 7.0648 10.9369 0.0000 21.8040 0.0000
# 6 0.0000 0.0000 0.0000 -3.1082 0.0000 31.4485
#
#
#
# Elastic Compliance Matrix: (Units=1/GPa)
#
#
# Indices 1 2 3 4 5 6 
#
# 1 0.036885 -0.013018 0.019403 0.000000 -0.049641 0.000000
# 2 -0.013018 0.024110 -0.014978 0.000000 0.015274 0.000000
# 3 0.019403 -0.014978 0.048478 0.000000 -0.042676 0.000000
# 4 0.000000 0.000000 0.000000 0.043567 0.000000 0.004306
# 5 -0.049641 0.015274 -0.042676 0.000000 0.121706 0.000000
# 6 0.000000 0.000000 0.000000 0.004306 0.000000 0.032224
#
#
# Mechanical properties :
#
#
# Convention : Reuss Voigt Hill
#
# Bulk Modulus (GPa) = 10.83557 26.76706 18.80132
# Shear Modulus (GPa) = 14.08783 23.41994 18.75389
#
# Velocity S-wave (km/s) = 2.77915 3.58330 3.20654
# Velocity P-wave (km/s) = 4.02975 5.63872 4.90072
#
# Compressibility (1/GPa) = 0.09228860
#
# Stress axis : x y z
#
# Youngs Moduli (GPa) = 27.11128 41.47729 20.62780
#
# Poissons Ratio (x) = 0.53994 -0.40025
# Poissons Ratio (y) = 0.35293 0.30895
# Poissons Ratio (z) = -0.52605 0.62123
#
# Static dielectric constant tensor:
#      x y z
#    x 1.652510 0.000000 0.004170 
#    y 0.000000 1.607810 0.000000 
#    z 0.004170 0.000000 1.637230 
# 
# From -- ./inp_files/89933.got.cif
#   From: 2010.05.17/outbox.cif.g08.bks.cpg/sg10_45_cif.got.tgz:89933.got - 2010.06.03 11:33:40.
