data_PCOD9149667
_publ_section_title
;
Structure prediction by ZEFSAII (Michael W. Deem and Ramdas Pophale) SiO2 
 PCOD9149667
Probable space group: P 2/M
;
_chemical_formula_sum "Si O2"
_cell_formula_units_Z 28
_cell_length_a 10.074620
_cell_length_b 7.525218
_cell_length_c 28.425445
_cell_angle_alpha 90.000000
_cell_angle_beta 140.956331
_cell_angle_gamma 90.000000
_cell_volume 1357.485737
_symmetry_space_group_name_H-M "P 2/M"
_symmetry_group_IT_number 10
_symmetry_cell_setting 'monoclinic'
loop_
_space_group_symop_operation_xyz
x,y,z
-x,y,-z
-x,-y,-z
x,-y,z
loop_
_atom_site_type_symbol
_atom_site_label
_atom_site_fract_x
_atom_site_fract_y
_atom_site_fract_z
Si Si1 0.305610 0.294968 0.720010
Si Si2 0.676873 0.294292 0.681380
Si Si3 0.892454 0.284450 0.019343
Si Si4 0.339561 0.000000 0.571274
Si Si5 0.876108 0.214670 0.229406
Si Si6 0.083864 0.000000 0.598840
Si Si7 0.765702 0.715134 0.812219
Si Si8 0.445112 0.792799 0.934166
O O1 0.289359 0.500000 0.700537
O O2 0.243347 0.278221 0.757118
O O3 0.546839 0.236942 0.777478
O O4 0.153571 0.170504 0.647971
O O5 0.612132 0.500000 0.667338
O O6 0.746445 0.228640 0.752760
O O7 0.884329 0.277684 0.706795
O O8 0.490105 0.171201 0.611713
O O9 0.887463 0.500000 0.018091
O O10 0.035360 0.222622 0.102688
O O11 0.654845 0.220666 0.960527
O O12 0.000000 0.229324 0.000000
O O13 0.160367 0.000000 0.482364
O O14 0.218358 0.000000 0.587814
O O15 0.750370 0.281723 0.148816
O O16 0.874113 0.000000 0.229112
O O17 0.779180 0.500000 0.815640
O O18 0.394807 0.000000 0.928369
O O19 0.500000 0.711899 0.000000
#
# Coordination Sequence:
#
# PCOD9149667 Si02
#       8
#     4   4   4   2   4   2   4   4
#     4  11  22  41  65  94 128 165 209 255 308 371
#     4  11  22  40  64  94 125 164 208 250 307 366
#     4  10  20  35  54  81 117 156 204 259 307 352
#     4  11  24  43  69 101 131 156 198 252 303 375
#     4  11  22  38  62  88 127 170 213 263 311 366
#     4  11  24  43  69 103 129 159 198 243 315 375
#     4   9  19  35  58  86 118 159 210 257 304 366
#     4  10  22  38  54  85 123 162 210 259 311 362
#
# _framework density 20.626369
#
# number of rings (size 3 to 8) (size 9 to 14) (size 15 to 20)
#    0.000    1.571    2.857    2.143    0.000    3.429 
#    2.571    2.857    0.000    1.714    0.000    0.000 
#    0.000    0.000    0.000    0.000    0.000    0.000 
#
# Total GULP energy -156573.822946 kJ/mol
# GULP energy per Si atom -5591.922248 kJ/mol
# Density = 2.057942 g / cm^3
# Si number density = 20.626369 Si / 1000 Ang^3
#
#
#
# Elastic Constant Matrix: (Units=GPa)
#
#
# Indices 1 2 3 4 5 6 
#
# 1 56.8628 -12.7007 -11.5464 0.0000 11.3475 0.0000
# 2 -12.7007 90.9522 28.3265 0.0000 0.7178 0.0000
# 3 -11.5464 28.3265 105.3122 0.0000 17.1766 0.0000
# 4 0.0000 0.0000 0.0000 255.1340 0.0000 33.1723
# 5 11.3475 0.7178 17.1766 0.0000 28.2875 0.0000
# 6 0.0000 0.0000 0.0000 33.1723 0.0000 39.8383
#
#
#
# Elastic Compliance Matrix: (Units=1/GPa)
#
#
# Indices 1 2 3 4 5 6 
#
# 1 0.020818 0.001905 0.003485 0.000000 -0.010516 0.000000
# 2 0.001905 0.012261 -0.003234 0.000000 0.000889 0.000000
# 3 0.003485 -0.003234 0.012167 0.000000 -0.008704 0.000000
# 4 0.000000 0.000000 0.000000 0.004395 0.000000 -0.003660
# 5 -0.010516 0.000889 -0.008704 0.000000 0.044833 0.000000
# 6 0.000000 0.000000 0.000000 -0.003660 0.000000 0.028149
#
#
# Mechanical properties :
#
#
# Convention : Reuss Voigt Hill
#
# Bulk Modulus (GPa) = 20.17850 29.03178 24.60514
# Shear Modulus (GPa) = 37.08359 81.25514 59.16936
#
# Velocity S-wave (km/s) = 4.24473 6.28326 5.36177
# Velocity P-wave (km/s) = 5.81617 8.16975 7.09128
#
# Compressibility (1/GPa) = 0.04955770
#
# Stress axis : x y z
#
# Youngs Moduli (GPa) = 48.03575 81.55975 82.18780
#
# Poissons Ratio (x) = -0.15533 -0.28645
# Poissons Ratio (y) = -0.09149 0.26580
# Poissons Ratio (z) = -0.16742 0.26377
#
# Static dielectric constant tensor:
#      x y z
#    x 1.719990 0.000000 -0.016360 
#    y 0.000000 1.772040 0.000000 
#    z -0.016360 0.000000 1.701630 
# 
# From -- ./inp_files/92116.got.cif
#   From: 2010.05.17/outbox.cif.g08.bks.cpg/sg10_47_cif.got.tgz:92116.got - 2010.06.03 11:33:40.
