data_PCOD9149585
_publ_section_title
;
Structure prediction by ZEFSAII (Michael W. Deem and Ramdas Pophale) SiO2 
 PCOD9149585
Probable space group: P 2/M
;
_chemical_formula_sum "Si O2"
_cell_formula_units_Z 28
_cell_length_a 16.425133
_cell_length_b 13.907075
_cell_length_c 7.424381
_cell_angle_alpha 90.000000
_cell_angle_beta 132.689128
_cell_angle_gamma 90.000000
_cell_volume 1246.573368
_symmetry_space_group_name_H-M "P 2/M"
_symmetry_group_IT_number 10
_symmetry_cell_setting 'monoclinic'
loop_
_space_group_symop_operation_xyz
x,y,z
-x,y,-z
-x,-y,-z
x,-y,z
loop_
_atom_site_type_symbol
_atom_site_label
_atom_site_fract_x
_atom_site_fract_y
_atom_site_fract_z
Si Si1 0.752030 0.391997 0.832782
Si Si2 0.000000 0.385894 0.700967
Si Si3 0.370468 0.000000 0.770346
Si Si4 0.247969 0.391996 0.576690
Si Si5 0.000000 0.888167 0.780879
Si Si6 0.629532 0.000000 0.658943
Si Si7 0.240065 0.812393 0.138968
Si Si8 0.759935 0.812393 0.418771
O O1 0.736388 0.500000 0.888782
O O2 0.711243 0.397925 0.566864
O O3 0.712994 0.290819 0.855603
O O4 0.884357 0.370091 0.027692
O O5 1.000000 0.500000 0.679641
O O6 0.000000 0.343686 0.500000
O O7 0.884358 0.370090 0.625383
O O8 0.351877 0.000000 0.527816
O O9 0.312742 0.097208 0.750464
O O10 0.500000 0.000000 0.000000
O O11 0.263610 0.500000 0.679616
O O12 0.287004 0.290819 0.716619
O O13 0.886622 0.836402 0.554723
O O14 0.000001 0.000000 0.725356
O O15 0.113378 0.836402 0.894858
O O16 0.000000 0.887857 0.000000
O O17 0.500000 0.000000 0.500000
O O18 0.687258 0.097208 0.812239
O O19 0.241412 0.808636 0.362119
#
# Coordination Sequence:
#
# PCOD9149585 Si02
#       8
#     4   4   2   4   4   2   4   4
#     4   9  16  26  42  65  91 118 151 192 232 269
#     4   9  16  25  37  58  93 133 162 181 212 267
#     4  10  20  35  53  71  91 118 155 194 232 276
#     4   9  16  26  42  65  91 118 151 192 232 269
#     4   9  13  20  37  65  95 117 142 181 225 265
#     4  10  20  35  53  71  91 118 155 194 232 276
#     4   9  16  27  46  71  95 119 150 189 232 274
#     4   9  16  27  46  71  95 119 150 189 232 274
#
# _framework density 22.461573000000001
#
# number of rings (size 3 to 8) (size 9 to 14) (size 15 to 20)
#    0.000    2.857    1.429    1.286    0.000    4.000 
#    0.000    1.429    0.000    0.857    0.000    2.000 
#    0.000    0.000    0.000    0.000    0.000    0.000 
#
# Total GULP energy -155992.868714 kJ/mol
# GULP energy per Si atom -5571.173883 kJ/mol
# Density = 2.241045 g / cm^3
# Si number density = 22.461573 Si / 1000 Ang^3
#
#
#
# Elastic Constant Matrix: (Units=GPa)
#
#
# Indices 1 2 3 4 5 6 
#
# 1 66.7427 33.3974 5.2165 0.0000 -2.6821 0.0000
# 2 33.3974 288.3389 41.4272 0.0000 26.1348 0.0000
# 3 5.2165 41.4272 65.9272 0.0000 0.0459 0.0000
# 4 0.0000 0.0000 0.0000 -3.5228 0.0000 2.9455
# 5 -2.6821 26.1348 0.0459 0.0000 39.2226 0.0000
# 6 0.0000 0.0000 0.0000 2.9455 0.0000 -4.4283
#
#
#
# Elastic Compliance Matrix: (Units=1/GPa)
#
#
# Indices 1 2 3 4 5 6 
#
# 1 0.016132 -0.002101 0.000042 0.000000 0.002503 0.000000
# 2 -0.002101 0.004357 -0.002569 0.000000 -0.003044 0.000000
# 3 0.000042 -0.002569 0.016778 0.000000 0.001695 0.000000
# 4 0.000000 0.000000 0.000000 -0.639530 0.000000 -0.425378
# 5 0.002503 -0.003044 0.001695 0.000000 0.027693 0.000000
# 6 0.000000 0.000000 0.000000 -0.425378 0.000000 -0.508755
#
#
# Mechanical properties :
#
#
# Convention : Reuss Voigt Hill
#
# Bulk Modulus (GPa) = 35.70171 64.56565 50.13368
# Shear Modulus (GPa) = -4.69601 28.98547 12.14473
#
# Velocity S-wave (km/s) = -1.44749 3.59618 2.32780
# Velocity P-wave (km/s) = 3.62429 6.78606 5.43995
#
# Compressibility (1/GPa) = 0.02800986
#
# Stress axis : x y z
#
# Youngs Moduli (GPa) = 61.98950 229.54014 59.60144
#
# Poissons Ratio (x) = 0.48237 -0.00252
# Poissons Ratio (y) = 0.13027 0.15313
# Poissons Ratio (z) = -0.00263 0.58972
#
# Static dielectric constant tensor:
#      x y z
#    x 1.861890 0.000000 -0.044150 
#    y 0.000000 1.922220 0.000000 
#    z -0.044150 0.000000 1.848330 
# 
# From -- ./inp_files/32871.got.cif
#   From: 2010.05.17/outbox.cif.g08.bks.cpg/sg10_17_cif.got.tgz:32871.got - 2010.06.03 11:33:40.
