data_PCOD9149411
_publ_section_title
;
Structure prediction by ZEFSAII (Michael W. Deem and Ramdas Pophale) SiO2 
 PCOD9149411
Probable space group: P 2/M
;
_chemical_formula_sum "Si O2"
_cell_formula_units_Z 32
_cell_length_a 28.320934
_cell_length_b 7.511037
_cell_length_c 12.154570
_cell_angle_alpha 90.000000
_cell_angle_beta 146.288167
_cell_angle_gamma 90.000000
_cell_volume 1435.002836
_symmetry_space_group_name_H-M "P 2/M"
_symmetry_group_IT_number 10
_symmetry_cell_setting 'monoclinic'
loop_
_space_group_symop_operation_xyz
x,y,z
-x,y,-z
-x,-y,-z
x,-y,z
loop_
_atom_site_type_symbol
_atom_site_label
_atom_site_fract_x
_atom_site_fract_y
_atom_site_fract_z
Si Si1 0.418127 0.713934 0.414527
Si Si2 0.733299 0.782249 0.485305
Si Si3 0.609626 0.205558 0.060595
Si Si4 0.876257 0.214781 0.315931
Si Si5 0.049784 0.783046 0.769128
Si Si6 0.079862 0.782083 0.078839
Si Si7 0.312643 0.706215 0.014761
Si Si8 0.424109 0.793832 0.678679
O O1 0.500000 0.760507 0.500000
O O2 0.417101 0.500000 0.426013
O O3 0.420587 0.788586 0.540597
O O4 0.339274 0.773549 0.186674
O O5 0.687888 0.722524 0.284139
O O6 0.829038 0.722616 0.696065
O O7 0.663251 0.723174 0.439617
O O8 0.739400 0.000000 0.497432
O O9 0.635888 0.208525 0.984479
O O10 0.602060 0.000000 0.079342
O O11 0.515344 0.286266 0.891299
O O12 0.889700 0.273542 0.215091
O O13 0.787379 0.275246 0.191976
O O14 0.956070 0.270634 0.545142
O O15 0.876798 0.000000 0.316263
O O16 0.051713 0.000000 0.774619
O O17 0.070217 0.724683 0.932459
O O18 0.079273 0.000000 0.077142
O O19 0.000000 0.727168 0.000000
O O20 0.337705 0.500000 0.059673
O O21 0.426186 0.000000 0.716883
#
# Coordination Sequence:
#
# PCOD9149411 Si02
#       8
#     4   4   4   4   4   4   4   4
#     4  10  21  38  54  72 107 147 178 214 265 319
#     4   9  19  33  51  80 113 142 172 220 275 316
#     4  10  20  35  55  79 109 144 180 221 269 317
#     4   9  18  33  55  80 107 138 174 222 268 314
#     4   8  16  31  50  78 111 138 171 216 268 319
#     4   9  17  28  46  75 110 142 171 208 261 323
#     4  11  23  36  53  78 108 143 182 222 265 319
#     4  10  20  34  56  83 109 137 178 226 270 320
#
# _framework density 22.299606000000001
#
# number of rings (size 3 to 8) (size 9 to 14) (size 15 to 20)
#    0.000    2.500    1.250    1.500    3.500    2.750 
#    0.000    1.875    0.000    1.500    0.000    0.875 
#    0.000    0.000    0.000    0.000    0.000    0.000 
#
# Total GULP energy -178614.486393 kJ/mol
# GULP energy per Si atom -5581.702700 kJ/mol
# Density = 2.224885 g / cm^3
# Si number density = 22.299606 Si / 1000 Ang^3
#
#
#
# Elastic Constant Matrix: (Units=GPa)
#
#
# Indices 1 2 3 4 5 6 
#
# 1 112.5636 5.3558 83.0728 0.0000 5.8947 0.0000
# 2 5.3558 56.4350 6.3249 0.0000 -2.0664 0.0000
# 3 83.0728 6.3249 165.9852 0.0000 5.0165 0.0000
# 4 0.0000 0.0000 0.0000 -110.4860 0.0000 -185.8750
# 5 5.8947 -2.0664 5.0165 0.0000 44.8848 0.0000
# 6 0.0000 0.0000 0.0000 -185.8750 0.0000 -224.2029
#
#
#
# Elastic Compliance Matrix: (Units=1/GPa)
#
#
# Indices 1 2 3 4 5 6 
#
# 1 0.014158 -0.000596 -0.007030 0.000000 -0.001101 0.000000
# 2 -0.000596 0.017857 -0.000411 0.000000 0.000946 0.000000
# 3 -0.007030 -0.000411 0.009564 0.000000 -0.000165 0.000000
# 4 0.000000 0.000000 0.000000 0.022929 0.000000 -0.019009
# 5 -0.001101 0.000946 -0.000165 0.000000 0.022486 0.000000
# 6 0.000000 0.000000 0.000000 -0.019009 0.000000 0.011299
#
#
# Mechanical properties :
#
#
# Convention : Reuss Voigt Hill
#
# Bulk Modulus (GPa) = 39.20790 58.27674 48.74232
# Shear Modulus (GPa) = 40.69445 -41.94545 -0.62550
#
# Velocity S-wave (km/s) = 4.27651 -4.34175 -0.53020
# Velocity P-wave (km/s) = 6.48115 1.02756 4.64010
#
# Compressibility (1/GPa) = 0.02550506
#
# Stress axis : x y z
#
# Youngs Moduli (GPa) = 70.63167 56.00125 104.56353
#
# Poissons Ratio (x) = 0.03338 0.73506
# Poissons Ratio (y) = 0.04210 0.04294
# Poissons Ratio (z) = 0.49653 0.02300
#
# Static dielectric constant tensor:
#      x y z
#    x 1.777370 0.000000 -0.002690 
#    y 0.000000 1.842680 0.000000 
#    z -0.002690 0.000000 1.832480 
# 
# From -- ./inp_files/58312.got.cif
#   From: 2010.05.17/outbox.cif.g08.bks.cpg/sg10_30_cif.got.tgz:58312.got - 2010.06.03 11:33:40.
