data_PCOD9149868
_publ_section_title
;
Structure prediction by ZEFSAII (Michael W. Deem and Ramdas Pophale) SiO2 
 PCOD9149868
Probable space group: P 2/M
;
_chemical_formula_sum "Si O2"
_cell_formula_units_Z 24
_cell_length_a 15.671386
_cell_length_b 10.958710
_cell_length_c 14.814245
_cell_angle_alpha 90.000000
_cell_angle_beta 150.283781
_cell_angle_gamma 90.000000
_cell_volume 1261.157301
_symmetry_space_group_name_H-M "P 2/M"
_symmetry_group_IT_number 10
_symmetry_cell_setting 'monoclinic'
loop_
_space_group_symop_operation_xyz
x,y,z
-x,y,-z
-x,-y,-z
x,-y,z
loop_
_atom_site_type_symbol
_atom_site_label
_atom_site_fract_x
_atom_site_fract_y
_atom_site_fract_z
Si Si1 0.801398 0.363063 0.234242
Si Si2 0.694719 0.853082 0.667655
Si Si3 0.733006 0.144733 0.905587
Si Si4 0.443893 0.636694 0.163192
Si Si5 0.810615 0.704563 0.434565
Si Si6 0.104642 0.856263 0.321327
O O1 0.767370 0.500000 0.238788
O O2 0.780223 0.273786 0.300090
O O3 0.001231 0.358225 0.388412
O O4 0.672375 0.343541 0.033395
O O5 0.500000 0.807158 0.500000
O O6 0.781106 0.836151 0.844627
O O7 0.790440 0.802496 0.667692
O O8 0.683666 0.000000 0.645845
O O9 0.596658 0.247184 0.810409
O O10 0.680637 0.000000 0.866587
O O11 0.903147 0.168127 0.120540
O O12 0.399860 0.500000 0.158224
O O13 0.642830 0.636998 0.317368
O O14 0.832072 0.815113 0.523351
O O15 0.123377 0.000000 0.332699
#
# Coordination Sequence:
#
# PCOD9149868 Si02
#       6
#     4   4   4   4   4   4
#     4  10  21  38  57  81 111 147 197 243 282 341
#     4   9  17  31  55  84 111 146 192 236 278 336
#     4  10  20  37  59  85 118 154 192 235 284 342
#     4  11  22  37  60  88 117 150 193 241 288 340
#     4  11  20  35  58  83 111 148 190 239 286 336
#     4  10  20  35  56  85 117 152 192 235 286 343
#
# _framework density 19.030141
#
# number of rings (size 3 to 8) (size 9 to 14) (size 15 to 20)
#    0.000    1.833    1.667    4.000    0.000    5.333 
#    0.000    2.500    0.000   10.500    0.000    0.000 
#    0.000    0.000    0.000    0.000    0.000    0.000 
#
# Total GULP energy -133668.026947 kJ/mol
# GULP energy per Si atom -5569.501123 kJ/mol
# Density = 1.898683 g / cm^3
# Si number density = 19.030141 Si / 1000 Ang^3
#
#
#
# Elastic Constant Matrix: (Units=GPa)
#
#
# Indices 1 2 3 4 5 6 
#
# 1 92.3205 36.5165 18.1850 0.0000 17.5821 0.0000
# 2 36.5165 39.0539 19.3729 0.0000 19.6912 0.0000
# 3 18.1850 19.3729 60.8968 0.0000 1.6246 0.0000
# 4 0.0000 0.0000 0.0000 6.9819 0.0000 8.3185
# 5 17.5821 19.6912 1.6246 0.0000 15.6788 0.0000
# 6 0.0000 0.0000 0.0000 8.3185 0.0000 5.7811
#
#
#
# Elastic Compliance Matrix: (Units=1/GPa)
#
#
# Indices 1 2 3 4 5 6 
#
# 1 0.017234 -0.017947 0.000479 0.000000 0.003165 0.000000
# 2 -0.017947 0.125341 -0.030938 0.000000 -0.134086 0.000000
# 3 0.000479 -0.030938 0.025168 0.000000 0.035711 0.000000
# 4 0.000000 0.000000 0.000000 -0.200489 0.000000 0.288488
# 5 0.003165 -0.134086 0.035711 0.000000 0.224932 0.000000
# 6 0.000000 0.000000 0.000000 0.288488 0.000000 -0.242134
#
#
# Mechanical properties :
#
#
# Convention : Reuss Voigt Hill
#
# Bulk Modulus (GPa) = 14.09845 37.82444 25.96144
# Shear Modulus (GPa) = 70.91450 13.56813 42.24132
#
# Velocity S-wave (km/s) = 6.11107 2.67307 4.71649
# Velocity P-wave (km/s) = 7.56427 5.42644 6.58272
#
# Compressibility (1/GPa) = 0.07092981
#
# Stress axis : x y z
#
# Youngs Moduli (GPa) = 58.02609 7.97824 39.73343
#
# Poissons Ratio (x) = 0.14319 -0.01902
# Poissons Ratio (y) = 1.04141 1.22927
# Poissons Ratio (z) = -0.02778 0.24683
#
# Static dielectric constant tensor:
#      x y z
#    x 1.700890 0.000000 0.016380 
#    y 0.000000 1.657580 0.000000 
#    z 0.016380 0.000000 1.699770 
# 
# From -- ./inp_files/67417.got.cif
#   From: 2010.05.17/outbox.cif.g08.bks.cpg/sg10_34_cif.got.tgz:67417.got - 2010.06.03 11:33:40.
