data_PCOD9149823
_publ_section_title
;
Structure prediction by ZEFSAII (Michael W. Deem and Ramdas Pophale) SiO2 
 PCOD9149823
Probable space group: P 2/M
;
_chemical_formula_sum "Si O2"
_cell_formula_units_Z 28
_cell_length_a 9.432736
_cell_length_b 7.906271
_cell_length_c 30.171110
_cell_angle_alpha 90.000000
_cell_angle_beta 37.668311
_cell_angle_gamma 90.000000
_cell_volume 1375.008464
_symmetry_space_group_name_H-M "P 2/M"
_symmetry_group_IT_number 10
_symmetry_cell_setting 'monoclinic'
loop_
_space_group_symop_operation_xyz
x,y,z
-x,y,-z
-x,-y,-z
x,-y,z
loop_
_atom_site_type_symbol
_atom_site_label
_atom_site_fract_x
_atom_site_fract_y
_atom_site_fract_z
Si Si1 0.325000 0.799577 0.729950
Si Si2 0.681400 0.697024 0.991434
Si Si3 0.520055 0.196825 0.126407
Si Si4 0.410420 0.706420 0.569564
Si Si5 0.996350 0.698875 0.730578
Si Si6 0.736702 0.704749 0.570115
Si Si7 0.793574 0.198394 0.143681
O O1 0.586538 0.769443 0.648501
O O2 0.283505 0.730955 0.789580
O O3 0.152266 0.719811 0.736305
O O4 0.276181 0.000000 0.741750
O O5 0.721398 0.500000 0.970903
O O6 0.930628 0.784484 0.928459
O O7 0.500000 0.765534 0.000000
O O8 0.575389 0.713198 0.066552
O O9 0.248054 0.210414 0.204230
O O10 0.666637 0.268816 0.131524
O O11 0.584790 0.000000 0.104048
O O12 0.500000 0.765993 0.500000
O O13 0.403603 0.500000 0.570133
O O14 0.593331 0.755129 0.562028
O O15 0.158761 0.760673 0.649853
O O16 0.949935 0.500000 0.735950
O O17 0.737030 0.500000 0.572487
O O18 0.000000 0.762817 0.500000
O O19 0.729802 0.000000 0.160226
#
# Coordination Sequence:
#
# PCOD9149823 Si02
#       7
#     4   4   4   4   4   4   4
#     4  10  20  36  57  79 108 147 186 223 269 325
#     4  11  24  40  60  86 112 140 179 224 267 317
#     4  11  23  39  58  81 112 145 179 221 269 322
#     4   8  15  29  49  73 102 136 174 218 267 317
#     4  10  20  35  56  82 110 141 183 229 271 322
#     4   9  18  32  51  76 106 140 181 228 273 319
#     4  10  23  40  57  81 112 146 182 221 268 322
#
# _framework density 20.363510999999999
#
# number of rings (size 3 to 8) (size 9 to 14) (size 15 to 20)
#    0.000    2.143    0.000    3.857    0.000    8.857 
#    0.000    1.429    0.000   10.714    0.000    0.000 
#    0.000    0.000    0.000    0.000    0.000    0.000 
#
# Total GULP energy -156353.643830 kJ/mol
# GULP energy per Si atom -5584.058708 kJ/mol
# Density = 2.031716 g / cm^3
# Si number density = 20.363511 Si / 1000 Ang^3
#
#
#
# Elastic Constant Matrix: (Units=GPa)
#
#
# Indices 1 2 3 4 5 6 
#
# 1 110.2509 -8.3541 79.7802 0.0000 7.1829 0.0000
# 2 -8.3541 23.4664 -16.0154 0.0000 4.9145 0.0000
# 3 79.7802 -16.0154 156.6568 0.0000 12.8329 0.0000
# 4 0.0000 0.0000 0.0000 23.3374 0.0000 -3.8755
# 5 7.1829 4.9145 12.8329 0.0000 37.4111 0.0000
# 6 0.0000 0.0000 0.0000 -3.8755 0.0000 17.6268
#
#
#
# Elastic Compliance Matrix: (Units=1/GPa)
#
#
# Indices 1 2 3 4 5 6 
#
# 1 0.014367 0.000214 -0.007271 0.000000 -0.000292 0.000000
# 2 0.000214 0.048166 0.005491 0.000000 -0.008252 0.000000
# 3 -0.007271 0.005491 0.010898 0.000000 -0.003064 0.000000
# 4 0.000000 0.000000 0.000000 0.044473 0.000000 0.009778
# 5 -0.000292 -0.008252 -0.003064 0.000000 0.028921 0.000000
# 6 0.000000 0.000000 0.000000 0.009778 0.000000 0.058882
#
#
# Mechanical properties :
#
#
# Convention : Reuss Voigt Hill
#
# Bulk Modulus (GPa) = 14.22477 44.57727 29.40102
# Shear Modulus (GPa) = 21.52646 31.33929 26.43287
#
# Velocity S-wave (km/s) = 3.25485 3.92726 3.60676
# Velocity P-wave (km/s) = 4.59630 6.51941 5.64042
#
# Compressibility (1/GPa) = 0.07029992
#
# Stress axis : x y z
#
# Youngs Moduli (GPa) = 69.60525 20.76150 91.75593
#
# Poissons Ratio (x) = -0.00444 0.66713
# Poissons Ratio (y) = -0.01488 -0.50386
# Poissons Ratio (z) = 0.50608 -0.11401
#
# Static dielectric constant tensor:
#      x y z
#    x 1.705310 0.000000 0.017950 
#    y 0.000000 1.732330 0.000000 
#    z 0.017950 0.000000 1.704890 
# 
# From -- ./inp_files/91993.got.cif
#   From: 2010.05.17/outbox.cif.g08.bks.cpg/sg10_46_cif.got.tgz:91993.got - 2010.06.03 11:33:40.
