data_PCOD9149349
_publ_section_title
;
Structure prediction by ZEFSAII (Michael W. Deem and Ramdas Pophale) SiO2 
 PCOD9149349
Probable space group: P 2/M
;
_chemical_formula_sum "Si O2"
_cell_formula_units_Z 32
_cell_length_a 12.867627
_cell_length_b 8.882599
_cell_length_c 32.401598
_cell_angle_alpha 90.000000
_cell_angle_beta 153.304621
_cell_angle_gamma 90.000000
_cell_volume 1663.757714
_symmetry_space_group_name_H-M "P 2/M"
_symmetry_group_IT_number 10
_symmetry_cell_setting 'monoclinic'
loop_
_space_group_symop_operation_xyz
x,y,z
-x,y,-z
-x,-y,-z
x,-y,z
loop_
_atom_site_type_symbol
_atom_site_label
_atom_site_fract_x
_atom_site_fract_y
_atom_site_fract_z
Si Si1 0.566641 0.171610 0.150156
Si Si2 0.573611 0.681293 0.288985
Si Si3 0.922859 0.320244 0.567753
Si Si4 0.752549 0.680210 0.897360
Si Si5 0.369985 0.678269 0.911520
Si Si6 0.175892 0.321103 0.293187
Si Si7 0.427867 0.179580 0.620925
Si Si8 0.119611 0.825536 0.360010
O O1 0.432613 0.278069 0.133702
O O2 0.530151 0.226378 0.090678
O O3 0.841052 0.179245 0.255686
O O4 0.491134 0.000000 0.129390
O O5 0.563072 0.500000 0.291231
O O6 0.353469 0.732354 0.183782
O O7 0.583134 0.759934 0.336436
O O8 0.806646 0.712096 0.345377
O O9 0.893145 0.500000 0.558065
O O10 0.779501 0.249512 0.479497
O O11 0.837331 0.251557 0.580715
O O12 0.770185 0.500000 0.900428
O O13 0.000000 0.740327 0.000000
O O14 0.402054 0.500000 0.914349
O O15 0.093396 0.704322 0.814272
O O16 0.500000 0.713556 0.000000
O O17 0.219807 0.500000 0.307852
O O18 0.340983 0.237406 0.319789
O O19 0.215174 0.258958 0.353532
O O20 0.415799 0.000000 0.615961
O O21 0.193132 0.000000 0.386305
#
# Coordination Sequence:
#
# PCOD9149349 Si02
#       8
#     4   4   4   4   4   4   4   4
#     4  10  20  34  55  83 118 153 187 237 296 352
#     4  10  22  41  63  87 118 157 202 249 294 350
#     4  11  22  39  65  91 116 154 204 249 294 354
#     4  10  21  38  61  88 117 154 200 246 292 345
#     4   9  19  36  60  86 112 150 199 245 290 347
#     4  10  21  39  61  85 118 157 200 246 296 353
#     4  12  26  41  59  86 123 161 197 246 304 360
#     4  10  20  36  60  89 120 153 192 241 297 354
#
# _framework density 19.233568000000002
#
# number of rings (size 3 to 8) (size 9 to 14) (size 15 to 20)
#    0.000    1.750    1.250    3.000    0.000    6.500 
#    0.000    7.500    0.000    0.000    0.000    0.000 
#    0.000    0.000    0.000    0.000    0.000    0.000 
#
# Total GULP energy -178784.196957 kJ/mol
# GULP energy per Si atom -5587.006155 kJ/mol
# Density = 1.918979 g / cm^3
# Si number density = 19.233568 Si / 1000 Ang^3
#
#
#
# Elastic Constant Matrix: (Units=GPa)
#
#
# Indices 1 2 3 4 5 6 
#
# 1 59.9218 17.9490 29.9293 0.0000 -20.7374 0.0000
# 2 17.9490 41.6215 36.7338 0.0000 -12.1357 0.0000
# 3 29.9293 36.7338 100.7776 0.0000 -27.9681 0.0000
# 4 0.0000 0.0000 0.0000 -259.0624 0.0000 611.2201
# 5 -20.7374 -12.1357 -27.9681 0.0000 31.3507 0.0000
# 6 0.0000 0.0000 0.0000 611.2201 0.0000-1320.2257
#
#
#
# Elastic Compliance Matrix: (Units=1/GPa)
#
#
# Indices 1 2 3 4 5 6 
#
# 1 0.023152 -0.004962 -0.001794 0.000000 0.011793 0.000000
# 2 -0.004962 0.036686 -0.011786 0.000000 0.000404 0.000000
# 3 -0.001794 -0.011786 0.017485 0.000000 0.009849 0.000000
# 4 0.000000 0.000000 0.000000 0.041820 0.000000 0.019361
# 5 0.011793 0.000404 0.009849 0.000000 0.048641 0.000000
# 6 0.000000 0.000000 0.000000 0.019361 0.000000 0.008206
#
#
# Mechanical properties :
#
#
# Convention : Reuss Voigt Hill
#
# Bulk Modulus (GPa) = 24.85224 41.28278 33.06751
# Shear Modulus (GPa) = 22.07612 -301.74021 -139.83205
#
# Velocity S-wave (km/s) = 3.39158 -12.53885 -8.53580
# Velocity P-wave (km/s) = 5.31850 13.71567 8.93961
#
# Compressibility (1/GPa) = 0.04023782
#
# Stress axis : x y z
#
# Youngs Moduli (GPa) = 43.19248 27.25831 57.19067
#
# Poissons Ratio (x) = 0.13526 0.10262
# Poissons Ratio (y) = 0.21433 0.67407
# Poissons Ratio (z) = 0.07750 0.32128
#
# Static dielectric constant tensor:
#      x y z
#    x 1.632420 0.000000 0.013620 
#    y 0.000000 1.646190 0.000000 
#    z 0.013620 0.000000 1.687630 
# 
# From -- ./inp_files/58305.got.cif
#   From: 2010.05.17/outbox.cif.g08.bks.cpg/sg10_30_cif.got.tgz:58305.got - 2010.06.03 11:33:40.
