data_PCOD9149876
_publ_section_title
;
Structure prediction by ZEFSAII (Michael W. Deem and Ramdas Pophale) SiO2 
 PCOD9149876
Probable space group: P 2/M
;
_chemical_formula_sum "Si O2"
_cell_formula_units_Z 32
_cell_length_a 14.876372
_cell_length_b 11.175115
_cell_length_c 14.577330
_cell_angle_alpha 90.000000
_cell_angle_beta 39.033137
_cell_angle_gamma 90.000000
_cell_volume 1526.190729
_symmetry_space_group_name_H-M "P 2/M"
_symmetry_group_IT_number 10
_symmetry_cell_setting 'monoclinic'
loop_
_space_group_symop_operation_xyz
x,y,z
-x,y,-z
-x,-y,-z
x,-y,z
loop_
_atom_site_type_symbol
_atom_site_label
_atom_site_fract_x
_atom_site_fract_y
_atom_site_fract_z
Si Si1 0.373158 0.218844 0.541605
Si Si2 0.106186 0.641074 0.834237
Si Si3 0.453123 0.635159 0.130545
Si Si4 0.823602 0.872608 0.458709
Si Si5 0.833923 0.638291 0.930877
Si Si6 0.155824 0.134598 0.200217
Si Si7 0.842844 0.279849 0.619298
Si Si8 0.448567 0.359789 0.750621
O O1 0.500000 0.158550 0.500000
O O2 0.253274 0.289768 0.696400
O O3 0.277492 0.142253 0.548127
O O4 0.467388 0.302852 0.399734
O O5 0.137351 0.500000 0.825596
O O6 0.997855 0.648564 0.833132
O O7 0.000000 0.683786 0.000000
O O8 0.512506 0.500000 0.082820
O O9 0.283806 0.632295 0.258344
O O10 0.497017 0.688156 0.193609
O O11 0.500000 0.699440 0.000000
O O12 0.812762 0.769466 0.542031
O O13 0.990280 0.874529 0.301601
O O14 0.790030 0.000000 0.530741
O O15 0.815991 0.500000 0.911848
O O16 0.794370 0.745942 0.893314
O O17 0.723064 0.651469 0.104185
O O18 0.159085 0.171888 0.304754
O O19 0.218056 0.000000 0.136403
O O20 0.000000 0.333254 0.500000
O O21 0.481836 0.500000 0.721270
#
# Coordination Sequence:
#
# PCOD9149876 Si02
#       8
#     4   4   4   4   4   4   4   4
#     4  12  23  38  62  90 121 164 203 254 315 380
#     4  10  21  38  61  91 123 157 204 260 313 372
#     4  10  20  35  56  86 129 171 203 246 311 374
#     4  10  21  40  61  85 120 160 207 264 314 364
#     4  10  20  37  62  90 124 163 208 259 311 366
#     4  10  20  37  64  93 123 162 210 258 313 372
#     4  10  20  36  60  88 116 159 208 254 303 367
#     4  10  21  37  58  88 127 167 205 250 312 376
#
# _framework density 20.967234000000001
#
# number of rings (size 3 to 8) (size 9 to 14) (size 15 to 20)
#    0.000    1.750    2.500    2.250    0.000    5.500 
#    0.000    2.500    0.000    4.500    0.000    0.000 
#    0.000    0.000    0.000    0.000    0.000    0.000 
#
# Total GULP energy -178229.397679 kJ/mol
# GULP energy per Si atom -5569.668677 kJ/mol
# Density = 2.091951 g / cm^3
# Si number density = 20.967234 Si / 1000 Ang^3
#
#
#
# Elastic Constant Matrix: (Units=GPa)
#
#
# Indices 1 2 3 4 5 6 
#
# 1 113.0300 10.0823 26.1913 0.0000 -16.1311 0.0000
# 2 10.0823 62.6624 22.9841 0.0000 4.3585 0.0000
# 3 26.1913 22.9841 99.5988 0.0000 -7.8342 0.0000
# 4 0.0000 0.0000 0.0000 7.0400 0.0000 -1.3025
# 5 -16.1311 4.3585 -7.8342 0.0000 40.0034 0.0000
# 6 0.0000 0.0000 0.0000 -1.3025 0.0000 7.6337
#
#
#
# Elastic Compliance Matrix: (Units=1/GPa)
#
#
# Indices 1 2 3 4 5 6 
#
# 1 0.009958 -0.001102 -0.002071 0.000000 0.003730 0.000000
# 2 -0.001102 0.017855 -0.004081 0.000000 -0.003189 0.000000
# 3 -0.002071 -0.004081 0.011676 0.000000 0.001896 0.000000
# 4 0.000000 0.000000 0.000000 0.146675 0.000000 0.025027
# 5 0.003730 -0.003189 0.001896 0.000000 0.027221 0.000000
# 6 0.000000 0.000000 0.000000 0.025027 0.000000 0.135269
#
#
# Mechanical properties :
#
#
# Convention : Reuss Voigt Hill
#
# Bulk Modulus (GPa) = 40.03237 43.75629 41.89433
# Shear Modulus (GPa) = 13.45938 25.33765 19.39852
#
# Velocity S-wave (km/s) = 2.53637 3.48003 3.04498
# Velocity P-wave (km/s) = 5.26420 6.08783 5.69094
#
# Compressibility (1/GPa) = 0.02497978
#
# Stress axis : x y z
#
# Youngs Moduli (GPa) = 100.42498 56.00776 85.64700
#
# Poissons Ratio (x) = 0.06172 0.17736
# Poissons Ratio (y) = 0.11067 0.34955
# Poissons Ratio (z) = 0.20797 0.22859
#
# Static dielectric constant tensor:
#      x y z
#    x 1.831650 0.000000 0.011000 
#    y 0.000000 1.740230 0.000000 
#    z 0.011000 0.000000 1.773500 
# 
# From -- ./inp_files/67342.got.cif
#   From: 2010.05.17/outbox.cif.g08.bks.cpg/sg10_34_cif.got.tgz:67342.got - 2010.06.03 11:33:40.
