data_PCOD9149013
_publ_section_title
;
Structure prediction by ZEFSAII (Michael W. Deem and Ramdas Pophale) SiO2 
 PCOD9149013
Probable space group: P 2/M
;
_chemical_formula_sum "Si O2"
_cell_formula_units_Z 32
_cell_length_a 11.488902
_cell_length_b 7.510930
_cell_length_c 14.497017
_cell_angle_alpha 90.000000
_cell_angle_beta 83.525588
_cell_angle_gamma 90.000000
_cell_volume 1243.003132
_symmetry_space_group_name_H-M "P 2/M"
_symmetry_group_IT_number 10
_symmetry_cell_setting 'monoclinic'
loop_
_space_group_symop_operation_xyz
x,y,z
-x,y,-z
-x,-y,-z
x,-y,z
loop_
_atom_site_type_symbol
_atom_site_label
_atom_site_fract_x
_atom_site_fract_y
_atom_site_fract_z
Si Si1 0.705885 0.716316 0.085504
Si Si2 0.223286 0.719285 0.715986
Si Si3 0.910653 0.793049 0.934080
Si Si4 0.202604 0.795143 0.230518
Si Si5 0.726329 0.791990 0.573983
Si Si6 0.455051 0.702742 0.151239
Si Si7 0.529715 0.298059 0.360293
Si Si8 0.921109 0.699719 0.427962
O O1 0.703076 0.500000 0.084736
O O2 0.763543 0.770015 0.178509
O O3 0.570571 0.776063 0.091052
O O4 0.787525 0.784570 0.998012
O O5 0.224220 0.500000 0.713574
O O6 0.341858 0.785797 0.654516
O O7 0.109837 0.779272 0.668618
O O8 0.888107 0.713417 0.834609
O O9 0.944948 0.000000 0.918050
O O10 0.000000 0.710282 0.000000
O O11 0.227043 0.721359 0.330533
O O12 0.329977 0.793727 0.169599
O O13 0.168992 0.000000 0.247734
O O14 0.585826 0.779093 0.582558
O O15 0.795550 0.691301 0.489248
O O16 0.755273 0.000000 0.564402
O O17 0.434090 0.500000 0.120808
O O18 0.497448 0.696180 0.254184
O O19 0.541212 0.500000 0.392124
O O20 0.968541 0.500000 0.408927
O O21 0.000000 0.788131 0.500000
#
# Coordination Sequence:
#
# PCOD9149013 Si02
#       8
#     4   4   4   4   4   4   4   4
#     4   9  18  34  55  78 103 130 163 206 254 298
#     4   8  16  33  55  77 103 133 163 202 252 300
#     4  10  22  38  52  70  99 135 175 211 244 292
#     4   9  19  35  53  73 101 136 167 200 248 301
#     4  10  20  34  52  75 104 133 163 206 254 295
#     4   8  15  29  51  78 103 126 158 203 251 300
#     4   8  14  29  53  76  99 130 165 198 243 305
#     4  10  21  36  53  74 100 133 174 211 244 293
#
# _framework density 25.744105999999999
#
# number of rings (size 3 to 8) (size 9 to 14) (size 15 to 20)
#    0.000    3.000    0.000    1.875    0.000    4.000 
#    0.000    8.125    0.000    0.000    0.000    0.000 
#    0.000    0.000    0.000    0.000    0.000    0.000 
#
# Total GULP energy -178691.141490 kJ/mol
# GULP energy per Si atom -5584.098172 kJ/mol
# Density = 2.568551 g / cm^3
# Si number density = 25.744106 Si / 1000 Ang^3
#
#
#
# Elastic Constant Matrix: (Units=GPa)
#
#
# Indices 1 2 3 4 5 6 
#
# 1 51.1480 2.8087 52.4277 0.0000 15.8852 0.0000
# 2 2.8087 80.3653 -3.8873 0.0000 3.6084 0.0000
# 3 52.4277 -3.8873 106.7016 0.0000 36.4429 0.0000
# 4 0.0000 0.0000 0.0000 1.9492 0.0000 -7.2847
# 5 15.8852 3.6084 36.4429 0.0000 57.8050 0.0000
# 6 0.0000 0.0000 0.0000 -7.2847 0.0000 10.9871
#
#
#
# Elastic Compliance Matrix: (Units=1/GPa)
#
#
# Indices 1 2 3 4 5 6 
#
# 1 0.040013 -0.002480 -0.020452 0.000000 0.002053 0.000000
# 2 -0.002480 0.012703 0.002191 0.000000 -0.001493 0.000000
# 3 -0.020452 0.002191 0.022465 0.000000 -0.008680 0.000000
# 4 0.000000 0.000000 0.000000 -0.347128 0.000000 -0.230156
# 5 0.002053 -0.001493 -0.008680 0.000000 0.022301 0.000000
# 6 0.000000 0.000000 0.000000 -0.230156 0.000000 -0.061584
#
#
# Mechanical properties :
#
#
# Convention : Reuss Voigt Hill
#
# Bulk Modulus (GPa) = 29.67347 37.87921 33.77634
# Shear Modulus (GPa) = -19.34125 26.60598 3.63237
#
# Velocity S-wave (km/s) = -2.74394 3.21826 1.18912
# Velocity P-wave (km/s) = 1.22980 5.34372 3.87735
#
# Compressibility (1/GPa) = 0.03370013
#
# Stress axis : x y z
#
# Youngs Moduli (GPa) = 24.99162 78.72240 44.51330
#
# Poissons Ratio (x) = 0.19522 0.91038
# Poissons Ratio (y) = 0.06198 -0.09754
# Poissons Ratio (z) = 0.51113 -0.17249
#
# Static dielectric constant tensor:
#      x y z
#    x 2.063140 0.000000 0.056120 
#    y 0.000000 1.994410 0.000000 
#    z 0.056120 0.000000 2.056810 
# 
# From -- ./inp_files/63848.got.cif
#   From: 2010.05.17/outbox.cif.g08.bks.cpg/sg10_32_cif.got.tgz:63848.got - 2010.06.03 11:33:40.
