data_PCOD9149012
_publ_section_title
;
Structure prediction by ZEFSAII (Michael W. Deem and Ramdas Pophale) SiO2 
 PCOD9149012
Probable space group: P 2/M
;
_chemical_formula_sum "Si O2"
_cell_formula_units_Z 28
_cell_length_a 13.438664
_cell_length_b 9.915946
_cell_length_c 10.628942
_cell_angle_alpha 90.000000
_cell_angle_beta 70.412485
_cell_angle_gamma 90.000000
_cell_volume 1334.416372
_symmetry_space_group_name_H-M "P 2/M"
_symmetry_group_IT_number 10
_symmetry_cell_setting 'monoclinic'
loop_
_space_group_symop_operation_xyz
x,y,z
-x,y,-z
-x,-y,-z
x,-y,z
loop_
_atom_site_type_symbol
_atom_site_label
_atom_site_fract_x
_atom_site_fract_y
_atom_site_fract_z
Si Si1 0.262688 0.854254 0.188087
Si Si2 0.068893 0.337646 0.587423
Si Si3 0.777789 0.650260 0.133923
Si Si4 0.700278 0.662527 0.434801
Si Si5 0.582673 0.732106 0.066469
Si Si6 0.904104 0.663271 0.853281
Si Si7 0.427107 0.153625 0.340773
O O1 0.182843 0.732034 0.200015
O O2 0.325649 0.848334 0.290918
O O3 0.208860 0.000000 0.199205
O O4 0.353326 0.841734 0.042588
O O5 0.060781 0.500000 0.586086
O O6 0.192438 0.309511 0.532672
O O7 0.000000 0.283645 0.500000
O O8 0.015213 0.299041 0.743365
O O9 0.813991 0.500000 0.155183
O O10 0.732688 0.710555 0.281133
O O11 0.676630 0.643699 0.084100
O O12 0.870852 0.709612 0.007616
O O13 0.679789 0.500000 0.442870
O O14 0.604741 0.745085 0.534989
O O15 0.518951 0.791699 0.210923
O O16 0.500000 0.670708 0.000000
O O17 0.894740 0.500000 0.856863
O O18 0.448014 0.000000 0.372310
#
# Coordination Sequence:
#
# PCOD9149012 Si02
#       7
#     4   4   4   4   4   4   4
#     4   9  17  31  52  78 105 131 164 210 259 303
#     4   9  17  30  51  78 103 131 169 208 249 300
#     4   9  19  34  51  76 105 133 170 212 253 297
#     4  10  21  36  52  72 104 140 171 209 254 298
#     4   9  18  33  53  75 100 132 169 209 254 305
#     4   9  17  31  52  76 103 133 168 208 249 301
#     4  10  20  34  52  75 103 135 173 212 251 301
#
# _framework density 20.982956999999999
#
# number of rings (size 3 to 8) (size 9 to 14) (size 15 to 20)
#    0.000    2.714    0.000    1.286    0.000    5.429 
#    0.000   12.143    0.000    2.571    0.000    5.000 
#    0.000    0.000    0.000    0.000    0.000    0.000 
#
# Total GULP energy -155970.572802 kJ/mol
# GULP energy per Si atom -5570.377600 kJ/mol
# Density = 2.093520 g / cm^3
# Si number density = 20.982957 Si / 1000 Ang^3
#
#
#
# Elastic Constant Matrix: (Units=GPa)
#
#
# Indices 1 2 3 4 5 6 
#
# 1 56.8990 12.7206 29.2117 0.0000 -8.7551 0.0000
# 2 12.7206 51.0895 38.1926 0.0000 -13.7481 0.0000
# 3 29.2117 38.1926 138.0424 0.0000 -24.0139 0.0000
# 4 0.0000 0.0000 0.0000 -12.0797 0.0000 -6.3002
# 5 -8.7551 -13.7481 -24.0139 0.0000 38.3905 0.0000
# 6 0.0000 0.0000 0.0000 -6.3002 0.0000 0.8653
#
#
#
# Elastic Compliance Matrix: (Units=1/GPa)
#
#
# Indices 1 2 3 4 5 6 
#
# 1 0.020025 -0.001988 -0.003385 0.000000 0.001737 0.000000
# 2 -0.001988 0.025807 -0.005824 0.000000 0.005145 0.000000
# 3 -0.003385 -0.005824 0.010183 0.000000 0.003512 0.000000
# 4 0.000000 0.000000 0.000000 -0.017257 0.000000 -0.125639
# 5 0.001737 0.005145 0.003512 0.000000 0.030484 0.000000
# 6 0.000000 0.000000 0.000000 -0.125639 0.000000 0.240894
#
#
# Mechanical properties :
#
#
# Convention : Reuss Voigt Hill
#
# Bulk Modulus (GPa) = 29.74428 45.14230 37.44329
# Shear Modulus (GPa) = 14.54599 16.49562 15.52081
#
# Velocity S-wave (km/s) = 2.63578 2.80687 2.72267
# Velocity P-wave (km/s) = 4.84452 5.66261 5.26946
#
# Compressibility (1/GPa) = 0.03361991
#
# Stress axis : x y z
#
# Youngs Moduli (GPa) = 49.93826 38.74905 98.20364
#
# Poissons Ratio (x) = 0.07702 0.33246
# Poissons Ratio (y) = 0.09926 0.57198
# Poissons Ratio (z) = 0.16906 0.22569
#
# Static dielectric constant tensor:
#      x y z
#    x 1.789030 0.000000 0.016520 
#    y 0.000000 1.721430 0.000000 
#    z 0.016520 0.000000 1.807420 
# 
# From -- ./inp_files/28183.got.cif
#   From: 2010.05.17/outbox.cif.g08.bks.cpg/sg10_15_cif.got.tgz:28183.got - 2010.06.03 11:33:40.
