data_PCOD9149076
_publ_section_title
;
Structure prediction by ZEFSAII (Michael W. Deem and Ramdas Pophale) SiO2 
 PCOD9149076
Probable space group: P 2/M
;
_chemical_formula_sum "Si O2"
_cell_formula_units_Z 32
_cell_length_a 26.381182
_cell_length_b 8.778260
_cell_length_c 16.170288
_cell_angle_alpha 90.000000
_cell_angle_beta 30.028096
_cell_angle_gamma 90.000000
_cell_volume 1873.954772
_symmetry_space_group_name_H-M "P 2/M"
_symmetry_group_IT_number 10
_symmetry_cell_setting 'monoclinic'
loop_
_space_group_symop_operation_xyz
x,y,z
-x,y,-z
-x,-y,-z
x,-y,z
loop_
_atom_site_type_symbol
_atom_site_label
_atom_site_fract_x
_atom_site_fract_y
_atom_site_fract_z
Si Si1 0.056757 0.816696 0.546392
Si Si2 0.431226 0.179364 0.406348
Si Si3 0.920035 0.315471 0.307369
Si Si4 0.348700 0.317227 0.872319
Si Si5 0.618793 0.672485 0.355230
Si Si6 0.084372 0.673675 0.953387
Si Si7 0.843630 0.183659 0.765810
Si Si8 0.242488 0.684672 0.600874
O O1 0.086440 0.743234 0.590902
O O2 0.128398 0.773855 0.367975
O O3 0.942181 0.774831 0.681358
O O4 0.059866 0.000000 0.548958
O O5 0.543567 0.250671 0.250362
O O6 0.380761 0.221241 0.566157
O O7 0.355273 0.251446 0.446653
O O8 0.438812 0.000000 0.385253
O O9 0.924295 0.500000 0.300126
O O10 0.824824 0.271912 0.383735
O O11 0.023772 0.257691 0.116184
O O12 0.356010 0.500000 0.862277
O O13 0.330382 0.272942 0.801557
O O14 0.256817 0.259891 0.057550
O O15 0.500000 0.661725 0.500000
O O16 0.652850 0.500000 0.328253
O O17 0.111478 0.500000 0.938240
O O18 0.179951 0.741189 0.770415
O O19 0.000000 0.664837 0.000000
O O20 0.833491 0.000000 0.783192
O O21 0.244564 0.500000 0.601136
#
# Coordination Sequence:
#
# PCOD9149076 Si02
#       8
#     4   4   4   4   4   4   4   4
#     4   9  19  35  53  73 101 132 158 194 248 303
#     4  11  21  31  47  72 102 136 171 204 240 289
#     4   9  17  30  51  76  99 129 170 209 245 289
#     4  10  20  34  53  75  98 128 166 208 251 291
#     4   8  16  31  47  65  93 127 162 199 240 283
#     4   7  12  25  44  65  90 123 161 197 234 276
#     4   9  19  36  54  73  99 131 162 194 244 304
#     4   9  17  31  49  69 100 138 171 206 245 285
#
# _framework density 17.076186
#
# number of rings (size 3 to 8) (size 9 to 14) (size 15 to 20)
#    0.000    3.000    0.000    4.500    0.000    5.250 
#    0.000    5.625    0.000    3.000    0.000    5.250 
#    0.000    0.000    0.000    0.000    0.000    0.000 
#
# Total GULP energy -178217.583523 kJ/mol
# GULP energy per Si atom -5569.299485 kJ/mol
# Density = 1.703732 g / cm^3
# Si number density = 17.076186 Si / 1000 Ang^3
#
#
#
# Elastic Constant Matrix: (Units=GPa)
#
#
# Indices 1 2 3 4 5 6 
#
# 1 101.6570 34.7315 70.4785 0.0000 5.2282 0.0000
# 2 34.7315 33.5254 34.9039 0.0000 -0.3655 0.0000
# 3 70.4785 34.9039 126.9967 0.0000 1.1519 0.0000
# 4 0.0000 0.0000 0.0000 29.2209 0.0000 4.0739
# 5 5.2282 -0.3655 1.1519 0.0000 22.9348 0.0000
# 6 0.0000 0.0000 0.0000 4.0739 0.0000 24.6396
#
#
#
# Elastic Compliance Matrix: (Units=1/GPa)
#
#
# Indices 1 2 3 4 5 6 
#
# 1 0.019387 -0.012565 -0.007267 0.000000 -0.004255 0.000000
# 2 -0.012565 0.049963 -0.006795 0.000000 0.004002 0.000000
# 3 -0.007267 -0.006795 0.013767 0.000000 0.000857 0.000000
# 4 0.000000 0.000000 0.000000 0.035030 0.000000 -0.005792
# 5 -0.004255 0.004002 0.000857 0.000000 0.044592 0.000000
# 6 0.000000 0.000000 0.000000 -0.005792 0.000000 0.041543
#
#
# Mechanical properties :
#
#
# Convention : Reuss Voigt Hill
#
# Bulk Modulus (GPa) = 33.48644 60.26743 46.87694
# Shear Modulus (GPa) = 18.69227 23.49675 21.09451
#
# Velocity S-wave (km/s) = 3.31212 3.71347 3.51852
# Velocity P-wave (km/s) = 5.85487 7.33187 6.63460
#
# Compressibility (1/GPa) = 0.02986283
#
# Stress axis : x y z
#
# Youngs Moduli (GPa) = 51.58131 20.01475 72.63733
#
# Poissons Ratio (x) = 0.25148 0.52786
# Poissons Ratio (y) = 0.64811 0.49359
# Poissons Ratio (z) = 0.37485 0.13600
#
# Static dielectric constant tensor:
#      x y z
#    x 1.588670 0.000000 -0.004140 
#    y 0.000000 1.581060 0.000000 
#    z -0.004140 0.000000 1.588180 
# 
# From -- ./inp_files/72190.got.cif
#   From: 2010.05.17/outbox.cif.g08.bks.cpg/sg10_37_cif.got.tgz:72190.got - 2010.06.03 11:33:40.
