data_PCOD9149014
_publ_section_title
;
Structure prediction by ZEFSAII (Michael W. Deem and Ramdas Pophale) SiO2 
 PCOD9149014
Probable space group: P 2/M
;
_chemical_formula_sum "Si O2"
_cell_formula_units_Z 32
_cell_length_a 14.235526
_cell_length_b 8.991047
_cell_length_c 35.179641
_cell_angle_alpha 90.000000
_cell_angle_beta 23.817005
_cell_angle_gamma 90.000000
_cell_volume 1818.275169
_symmetry_space_group_name_H-M "P 2/M"
_symmetry_group_IT_number 10
_symmetry_cell_setting 'monoclinic'
loop_
_space_group_symop_operation_xyz
x,y,z
-x,y,-z
-x,-y,-z
x,-y,z
loop_
_atom_site_type_symbol
_atom_site_label
_atom_site_fract_x
_atom_site_fract_y
_atom_site_fract_z
Si Si1 0.684469 0.320976 0.963139
Si Si2 0.814705 0.178084 0.220191
Si Si3 0.428481 0.322421 0.220376
Si Si4 0.693637 0.321889 0.046457
Si Si5 0.804555 0.822001 0.136590
Si Si6 0.448400 0.178538 0.607948
Si Si7 0.240053 0.330568 0.614261
Si Si8 0.052570 0.177693 0.610935
O O1 0.697785 0.500000 0.955918
O O2 0.939475 0.254506 0.862069
O O3 0.500000 0.269256 0.000000
O O4 0.619250 0.282637 0.030969
O O5 0.747099 0.214695 0.201937
O O6 0.627126 0.218689 0.321571
O O7 0.847287 0.000000 0.209592
O O8 0.418771 0.500000 0.228118
O O9 0.507687 0.287831 0.147807
O O10 0.623172 0.255141 0.175856
O O11 0.177967 0.251050 0.320338
O O12 0.737074 0.500000 0.031300
O O13 0.934805 0.238816 0.966212
O O14 0.799622 0.000000 0.133522
O O15 0.275745 0.255478 0.641800
O O16 0.712812 0.219046 0.499029
O O17 0.430026 0.000000 0.610141
O O18 0.500000 0.333626 0.500000
O O19 0.154947 0.500000 0.648734
O O20 0.089935 0.237946 0.639904
O O21 0.032997 0.000000 0.618353
#
# Coordination Sequence:
#
# PCOD9149014 Si02
#       8
#     4   4   4   4   4   4   4   4
#     4   9  18  33  52  76 106 136 166 202 246 300
#     4   9  19  35  54  76 101 132 171 212 254 302
#     4  11  22  35  52  74 103 136 169 211 261 307
#     4   9  19  35  53  74 102 135 167 202 251 308
#     4  10  20  35  55  77 100 128 168 215 259 307
#     4   9  18  34  54  75 102 137 173 208 250 302
#     4   9  17  30  49  73 101 132 166 205 247 292
#     4  10  20  34  52  75 104 136 171 211 253 299
#
# _framework density 17.599097
#
# number of rings (size 3 to 8) (size 9 to 14) (size 15 to 20)
#    0.000    2.500    0.000    1.875    0.000    6.750 
#    0.000    1.875    0.000    3.750    0.000    0.000 
#    0.000    0.000    0.000    0.000    0.000    0.000 
#
# Total GULP energy -178503.465215 kJ/mol
# GULP energy per Si atom -5578.233288 kJ/mol
# Density = 1.755904 g / cm^3
# Si number density = 17.599097 Si / 1000 Ang^3
#
#
#
# Elastic Constant Matrix: (Units=GPa)
#
#
# Indices 1 2 3 4 5 6 
#
# 1 102.3660 38.6972 59.1497 0.0000 -10.9474 0.0000
# 2 38.6972 38.4023 36.1687 0.0000 -0.0839 0.0000
# 3 59.1497 36.1687 83.7216 0.0000 9.5170 0.0000
# 4 0.0000 0.0000 0.0000 25.5827 0.0000 -6.0349
# 5 -10.9474 -0.0839 9.5170 0.0000 24.0777 0.0000
# 6 0.0000 0.0000 0.0000 -6.0349 0.0000 27.3753
#
#
#
# Elastic Compliance Matrix: (Units=1/GPa)
#
#
# Indices 1 2 3 4 5 6 
#
# 1 0.023515 -0.010597 -0.013869 0.000000 0.016137 0.000000
# 2 -0.010597 0.050207 -0.014318 0.000000 0.001016 0.000000
# 3 -0.013869 -0.014318 0.029999 0.000000 -0.018213 0.000000
# 4 0.000000 0.000000 0.000000 0.041233 0.000000 0.009090
# 5 0.016137 0.001016 -0.018213 0.000000 0.056072 0.000000
# 6 0.000000 0.000000 0.000000 0.009090 0.000000 0.038533
#
#
# Mechanical properties :
#
#
# Convention : Reuss Voigt Hill
#
# Bulk Modulus (GPa) = 38.24020 54.72457 46.48239
# Shear Modulus (GPa) = 15.34471 21.43877 18.39174
#
# Velocity S-wave (km/s) = 2.95600 3.49402 3.23621
# Velocity P-wave (km/s) = 5.78155 6.88768 6.35871
#
# Compressibility (1/GPa) = 0.02615049
#
# Stress axis : x y z
#
# Youngs Moduli (GPa) = 42.52639 19.91773 33.33424
#
# Poissons Ratio (x) = 0.21108 0.46233
# Poissons Ratio (y) = 0.45067 0.47729
# Poissons Ratio (z) = 0.58982 0.28519
#
# Static dielectric constant tensor:
#      x y z
#    x 1.590690 0.000000 0.020160 
#    y 0.000000 1.588740 0.000000 
#    z 0.020160 0.000000 1.589820 
# 
# From -- ./inp_files/71558.got.cif
#   From: 2010.05.17/outbox.cif.g08.bks.cpg/sg10_36_cif.got.tgz:71558.got - 2010.06.03 11:33:40.
