data_PCOD9149449
_publ_section_title
;
Structure prediction by ZEFSAII (Michael W. Deem and Ramdas Pophale) SiO2 
 PCOD9149449
Probable space group: P 2/M
;
_chemical_formula_sum "Si O2"
_cell_formula_units_Z 30
_cell_length_a 25.675591
_cell_length_b 11.912746
_cell_length_c 25.755426
_cell_angle_alpha 90.000000
_cell_angle_beta 168.557014
_cell_angle_gamma 90.000000
_cell_volume 1562.884281
_symmetry_space_group_name_H-M "P 2/M"
_symmetry_group_IT_number 10
_symmetry_cell_setting 'monoclinic'
loop_
_space_group_symop_operation_xyz
x,y,z
-x,y,-z
-x,-y,-z
x,-y,z
loop_
_atom_site_type_symbol
_atom_site_label
_atom_site_fract_x
_atom_site_fract_y
_atom_site_fract_z
Si Si1 0.778271 0.632643 0.243612
Si Si2 0.144570 0.366427 0.085256
Si Si3 0.230819 0.000000 0.267486
Si Si4 0.319439 0.768615 0.414405
Si Si5 0.268279 0.872110 0.589610
Si Si6 0.648373 0.234780 0.435353
Si Si7 0.171782 0.628151 0.926109
Si Si8 0.254659 0.738955 0.901277
O O1 0.825360 0.500000 0.280359
O O2 0.000000 0.674041 0.500000
O O3 0.500000 0.644865 0.000000
O O4 0.777791 0.693454 0.188056
O O5 0.195358 0.500000 0.126427
O O6 0.416102 0.294757 0.348009
O O7 0.000000 0.354624 0.000000
O O8 0.928245 0.315899 0.834213
O O9 0.500000 0.000000 0.500000
O O10 0.236035 0.116397 0.304419
O O11 0.000000 0.000000 0.000000
O O12 0.374665 0.801169 0.527973
O O13 0.350856 0.856660 0.609852
O O14 0.463471 0.794366 0.813276
O O15 0.293976 0.000000 0.630409
O O16 0.973172 0.828542 0.308787
O O17 0.418215 0.321014 0.196744
O O18 0.920840 0.299363 0.695110
O O19 0.129963 0.500000 0.898398
O O20 0.221896 0.643927 0.913452
#
# Coordination Sequence:
#
# PCOD9149449 Si02
#       8
#     4   4   2   4   4   4   4   4
#     4  10  20  34  56  86 119 152 187 236 290 340
#     4  11  24  42  64  89 119 157 198 240 288 355
#     4  12  26  44  66  88 116 156 194 244 294 348
#     4  12  24  41  64  91 120 154 195 246 300 353
#     4  10  21  38  60  79 111 149 194 242 279 344
#     4  10  23  36  56  88 113 148 188 230 292 336
#     4  10  20  36  56  83 121 154 185 229 280 352
#     4  10  20  36  57  85 110 153 198 233 287 337
#
# _framework density 19.195278999999999
#
# number of rings (size 3 to 8) (size 9 to 14) (size 15 to 20)
#    0.000    1.467    0.000    5.600    0.933    4.267 
#    0.000    4.000    0.000    8.000    0.000    0.000 
#    0.000    0.000    0.000    0.000    0.000    0.000 
#
# Total GULP energy -167599.239997 kJ/mol
# GULP energy per Si atom -5586.641333 kJ/mol
# Density = 1.915159 g / cm^3
# Si number density = 19.195279 Si / 1000 Ang^3
#
#
#
# Elastic Constant Matrix: (Units=GPa)
#
#
# Indices 1 2 3 4 5 6 
#
# 1 112.3198 28.1105 9.3639 0.0000 -31.4967 0.0000
# 2 28.1105 82.3843 23.8153 0.0000 -4.0394 0.0000
# 3 9.3639 23.8153 120.7353 0.0000 -17.4589 0.0000
# 4 0.0000 0.0000 0.0000 12.6446 0.0000 1.0156
# 5 -31.4967 -4.0394 -17.4589 0.0000 28.3682 0.0000
# 6 0.0000 0.0000 0.0000 1.0156 0.0000 1.1250
#
#
#
# Elastic Compliance Matrix: (Units=1/GPa)
#
#
# Indices 1 2 3 4 5 6 
#
# 1 0.014702 -0.004840 0.002278 0.000000 0.017036 0.000000
# 2 -0.004840 0.014468 -0.003246 0.000000 -0.005311 0.000000
# 3 0.002278 -0.003246 0.009929 0.000000 0.008177 0.000000
# 4 0.000000 0.000000 0.000000 0.085268 0.000000 -0.076977
# 5 0.017036 -0.005311 0.008177 0.000000 0.058442 0.000000
# 6 0.000000 0.000000 0.000000 -0.076977 0.000000 0.958347
#
#
# Mechanical properties :
#
#
# Convention : Reuss Voigt Hill
#
# Bulk Modulus (GPa) = 36.38790 48.66873 42.52832
# Shear Modulus (GPa) = 4.30318 25.37087 14.83703
#
# Velocity S-wave (km/s) = 1.49889 3.63950 2.78322
# Velocity P-wave (km/s) = 4.68971 6.56284 5.70369
#
# Compressibility (1/GPa) = 0.02748166
#
# Stress axis : x y z
#
# Youngs Moduli (GPa) = 68.01972 69.11993 100.71743
#
# Poissons Ratio (x) = 0.33451 -0.22942
# Poissons Ratio (y) = 0.32919 0.32697
# Poissons Ratio (z) = -0.15494 0.22439
#
# Static dielectric constant tensor:
#      x y z
#    x 1.672190 0.000000 -0.007840 
#    y 0.000000 1.653420 0.000000 
#    z -0.007840 0.000000 1.636140 
# 
# From -- ./inp_files/94091.got.cif
#   From: 2010.05.17/outbox.cif.g08.bks.cpg/sg10_48_cif.got.tgz:94091.got - 2010.06.03 11:33:40.
