data_PCOD9149015
_publ_section_title
;
Structure prediction by ZEFSAII (Michael W. Deem and Ramdas Pophale) SiO2 
 PCOD9149015
Probable space group: P 2/M
;
_chemical_formula_sum "Si O2"
_cell_formula_units_Z 30
_cell_length_a 27.376503
_cell_length_b 14.508824
_cell_length_c 10.607698
_cell_angle_alpha 90.000000
_cell_angle_beta 17.840729
_cell_angle_gamma 90.000000
_cell_volume 1290.863970
_symmetry_space_group_name_H-M "P 2/M"
_symmetry_group_IT_number 10
_symmetry_cell_setting 'monoclinic'
loop_
_space_group_symop_operation_xyz
x,y,z
-x,y,-z
-x,-y,-z
x,-y,z
loop_
_atom_site_type_symbol
_atom_site_label
_atom_site_fract_x
_atom_site_fract_y
_atom_site_fract_z
Si Si1 0.362517 0.598206 0.084541
Si Si2 0.146543 0.247906 0.719265
Si Si3 0.811573 0.279947 0.113707
Si Si4 0.743894 0.893922 0.139097
Si Si5 0.719357 0.608963 0.100584
Si Si6 0.639121 0.892964 0.891308
Si Si7 0.500000 0.348336 0.000000
Si Si8 0.691160 0.787475 0.019014
O O1 0.299451 0.500000 0.195126
O O2 0.231618 0.676631 0.420272
O O3 0.528821 0.616430 0.603040
O O4 0.414510 0.593809 0.103229
O O5 0.099737 0.290112 0.970353
O O6 0.274668 0.166883 0.427326
O O7 0.000000 0.211437 0.000000
O O8 0.836789 0.178618 0.996997
O O9 0.815503 0.352782 0.987861
O O10 0.628582 0.290270 0.608407
O O11 0.757298 0.853992 0.965469
O O12 0.790931 0.000000 0.035319
O O13 0.553013 0.887013 0.637887
O O14 0.750773 0.500000 0.001139
O O15 0.745938 0.683380 0.923515
O O16 0.680946 0.000000 0.784645
O O17 0.706154 0.842866 0.851995
O O18 0.500000 0.782766 0.500000
#
# Coordination Sequence:
#
# PCOD9149015 Si02
#       8
#     4   4   4   4   4   4   2   4
#     4   9  16  28  47  72 100 128 160 197 243 298
#     4  11  23  36  49  68  98 141 185 221 250 287
#     4   9  17  30  47  71 102 131 166 210 255 303
#     4   9  16  28  51  79 101 124 156 203 264 319
#     4   9  17  30  54  84 109 132 158 200 259 314
#     4  10  20  34  52  75 104 137 170 207 255 307
#     4   8  13  24  43  68  98 126 153 192 243 296
#     4   9  16  29  49  78 111 134 156 193 250 318
#
# _framework density 23.24025
#
# number of rings (size 3 to 8) (size 9 to 14) (size 15 to 20)
#    0.000    2.667    0.000    4.600    0.000    6.133 
#    0.000    2.333    0.000    3.200    0.000    5.600 
#    0.000    0.000    0.000    0.000    0.000    0.000 
#
# Total GULP energy -167277.636958 kJ/mol
# GULP energy per Si atom -5575.921232 kJ/mol
# Density = 2.318735 g / cm^3
# Si number density = 23.240250 Si / 1000 Ang^3
#
#
#
# Elastic Constant Matrix: (Units=GPa)
#
#
# Indices 1 2 3 4 5 6 
#
# 1 72.5324 28.5566 7.1721 0.0000 -3.3676 0.0000
# 2 28.5566 171.6495 25.5382 0.0000 11.5247 0.0000
# 3 7.1721 25.5382 59.2330 0.0000 7.5387 0.0000
# 4 0.0000 0.0000 0.0000 -25.0898 0.0000 -1.0327
# 5 -3.3676 11.5247 7.5387 0.0000 14.3686 0.0000
# 6 0.0000 0.0000 0.0000 -1.0327 0.0000 5.5158
#
#
#
# Elastic Compliance Matrix: (Units=1/GPa)
#
#
# Indices 1 2 3 4 5 6 
#
# 1 0.015333 -0.002771 -0.001502 0.000000 0.006604 0.000000
# 2 -0.002771 0.006930 -0.001996 0.000000 -0.005161 0.000000
# 3 -0.001502 -0.001996 0.019037 0.000000 -0.008740 0.000000
# 4 0.000000 0.000000 0.000000 -0.039552 0.000000 -0.007405
# 5 0.006604 -0.005161 -0.008740 0.000000 0.079869 0.000000
# 6 0.000000 0.000000 0.000000 -0.007405 0.000000 0.179910
#
#
# Mechanical properties :
#
#
# Convention : Reuss Voigt Hill
#
# Bulk Modulus (GPa) = 34.76738 47.32764 41.04751
# Shear Modulus (GPa) = 17.62721 15.10213 16.36467
#
# Velocity S-wave (km/s) = 2.75703 2.55193 2.65646
# Velocity P-wave (km/s) = 5.01273 5.39369 5.20669
#
# Compressibility (1/GPa) = 0.02876259
#
# Stress axis : x y z
#
# Youngs Moduli (GPa) = 65.21878 144.29597 52.52893
#
# Poissons Ratio (x) = 0.39981 0.07892
# Poissons Ratio (y) = 0.18071 0.10483
# Poissons Ratio (z) = 0.09799 0.28796
#
# Static dielectric constant tensor:
#      x y z
#    x 1.926650 0.000000 0.008080 
#    y 0.000000 1.895200 0.000000 
#    z 0.008080 0.000000 1.905710 
# 
# From -- ./inp_files/57785.got.cif
#   From: 2010.05.17/outbox.cif.g08.bks.cpg/sg10_29_cif.got.tgz:57785.got - 2010.06.03 11:33:40.
