data_PCOD9149177
_publ_section_title
;
Structure prediction by ZEFSAII (Michael W. Deem and Ramdas Pophale) SiO2 
 PCOD9149177
Probable space group: P 2/M
;
_chemical_formula_sum "Si O2"
_cell_formula_units_Z 28
_cell_length_a 9.500235
_cell_length_b 7.418560
_cell_length_c 30.535269
_cell_angle_alpha 90.000000
_cell_angle_beta 142.352798
_cell_angle_gamma 90.000000
_cell_volume 1314.477277
_symmetry_space_group_name_H-M "P 2/M"
_symmetry_group_IT_number 10
_symmetry_cell_setting 'monoclinic'
loop_
_space_group_symop_operation_xyz
x,y,z
-x,y,-z
-x,-y,-z
x,-y,z
loop_
_atom_site_type_symbol
_atom_site_label
_atom_site_fract_x
_atom_site_fract_y
_atom_site_fract_z
Si Si1 0.323564 0.280323 0.367461
Si Si2 0.849730 0.279448 0.504234
Si Si3 0.979339 0.280530 0.359423
Si Si4 0.928963 0.719771 0.206733
Si Si5 0.951061 0.792917 0.939913
Si Si6 0.581827 0.717913 0.198229
Si Si7 0.247119 0.709547 0.928842
O O1 0.327588 0.500000 0.367896
O O2 0.585877 0.219999 0.434103
O O3 0.181601 0.227669 0.375742
O O4 0.168848 0.221839 0.288029
O O5 0.847387 0.500000 0.504427
O O6 0.000000 0.223311 0.500000
O O7 0.962707 0.220117 0.577658
O O8 0.975843 0.500000 0.359002
O O9 0.739104 0.224331 0.278072
O O10 0.937466 0.500000 0.209169
O O11 0.722097 0.770933 0.188950
O O12 0.878305 0.784205 0.145270
O O13 0.678187 0.783885 0.864809
O O14 0.091288 0.714854 0.933704
O O15 0.027912 0.000000 0.960805
O O16 0.000000 0.711541 0.000000
O O17 0.572638 0.500000 0.196122
O O18 0.287019 0.500000 0.927528
O O19 0.500000 0.789225 0.000000
#
# Coordination Sequence:
#
# PCOD9149177 Si02
#       7
#     4   4   4   4   4   4   4
#     4   8  13  22  36  55  87 126 155 186 233 286
#     4   9  15  20  29  52  89 128 159 188 228 278
#     4   8  14  24  39  60  86 120 158 192 231 279
#     4   8  15  28  47  72  97 123 160 204 246 286
#     4  11  24  38  51  71 100 131 161 195 238 288
#     4   9  17  32  54  75  96 124 161 204 244 285
#     4  10  20  34  54  77  99 126 162 202 242 286
#
# _framework density 21.301242999999999
#
# number of rings (size 3 to 8) (size 9 to 14) (size 15 to 20)
#    0.000    3.000    0.000    3.429    0.000    5.429 
#    0.000    5.000    0.000    0.000    0.000    0.000 
#    0.000   14.286    0.000    0.000    0.000    0.000 
#
# Total GULP energy -156291.732154 kJ/mol
# GULP energy per Si atom -5581.847577 kJ/mol
# Density = 2.125276 g / cm^3
# Si number density = 21.301243 Si / 1000 Ang^3
#
#
#
# Elastic Constant Matrix: (Units=GPa)
#
#
# Indices 1 2 3 4 5 6 
#
# 1 133.1805 -7.6919 134.3502 0.0000 -15.7316 0.0000
# 2 -7.6919 63.8720 -3.1321 0.0000 -5.9597 0.0000
# 3 134.3502 -3.1321 208.1228 0.0000 -18.0213 0.0000
# 4 0.0000 0.0000 0.0000 -4.6412 0.0000 136.9270
# 5 -15.7316 -5.9597 -18.0213 0.0000 42.1730 0.0000
# 6 0.0000 0.0000 0.0000 136.9270 0.0000 115.3537
#
#
#
# Elastic Compliance Matrix: (Units=1/GPa)
#
#
# Indices 1 2 3 4 5 6 
#
# 1 0.022022 0.002206 -0.013961 0.000000 0.002561 0.000000
# 2 0.002206 0.016127 -0.000948 0.000000 0.002697 0.000000
# 3 -0.013961 -0.000948 0.013853 0.000000 0.000578 0.000000
# 4 0.000000 0.000000 0.000000 -0.005982 0.000000 0.007100
# 5 0.002561 0.002697 0.000578 0.000000 0.025295 0.000000
# 6 0.000000 0.000000 0.000000 0.007100 0.000000 0.000241
#
#
# Mechanical properties :
#
#
# Convention : Reuss Voigt Hill
#
# Bulk Modulus (GPa) = 37.59850 72.46974 55.03412
# Shear Modulus (GPa) = 47.24644 49.35371 48.30007
#
# Velocity S-wave (km/s) = 4.71469 4.81868 4.76697
# Velocity P-wave (km/s) = 6.87945 8.06566 7.49606
#
# Compressibility (1/GPa) = 0.02659681
#
# Stress axis : x y z
#
# Youngs Moduli (GPa) = 45.40836 62.00714 72.18621
#
# Poissons Ratio (x) = -0.13681 1.00781
# Poissons Ratio (y) = -0.10019 0.06844
# Poissons Ratio (z) = 0.63396 0.05879
#
# Static dielectric constant tensor:
#      x y z
#    x 1.704460 0.000000 -0.020550 
#    y 0.000000 1.803550 0.000000 
#    z -0.020550 0.000000 1.760940 
# 
# From -- ./inp_files/37011.got.cif
#   From: 2010.05.17/outbox.cif.g08.bks.cpg/sg10_19_cif.got.tgz:37011.got - 2010.06.03 11:33:40.
