data_PCOD9149361
_publ_section_title
;
Structure prediction by ZEFSAII (Michael W. Deem and Ramdas Pophale) SiO2 
 PCOD9149361
Probable space group: P 2/M
;
_chemical_formula_sum "Si O2"
_cell_formula_units_Z 28
_cell_length_a 15.187680
_cell_length_b 22.150552
_cell_length_c 9.176050
_cell_angle_alpha 90.000000
_cell_angle_beta 28.687021
_cell_angle_gamma 90.000000
_cell_volume 1481.819917
_symmetry_space_group_name_H-M "P 2/M"
_symmetry_group_IT_number 10
_symmetry_cell_setting 'monoclinic'
loop_
_space_group_symop_operation_xyz
x,y,z
-x,y,-z
-x,-y,-z
x,-y,z
loop_
_atom_site_type_symbol
_atom_site_label
_atom_site_fract_x
_atom_site_fract_y
_atom_site_fract_z
Si Si1 0.304440 0.148048 0.196780
Si Si2 0.299260 0.712813 0.220412
Si Si3 0.545378 0.500000 0.261772
Si Si4 0.835175 0.500000 0.356866
Si Si5 0.151875 0.069662 0.665043
Si Si6 0.035263 0.371964 0.778176
Si Si7 0.462340 0.930450 0.722148
Si Si8 0.798655 0.614792 0.864220
O O1 0.252035 0.217797 0.257234
O O2 0.169806 0.110811 0.497185
O O3 0.500000 0.147223 0.000000
O O4 0.333756 0.113908 0.001408
O O5 0.158043 0.681665 0.537070
O O6 0.285642 0.671983 0.095905
O O7 0.500000 0.709930 0.000000
O O8 0.500000 0.500000 0.500000
O O9 0.357364 0.500000 0.445128
O O10 0.665608 0.558234 0.047484
O O11 0.864055 0.436620 0.396829
O O12 0.000000 0.500000 0.000000
O O13 0.344926 0.069733 0.470725
O O14 0.111214 0.000000 0.683646
O O15 0.000000 0.090732 0.000000
O O16 0.846065 0.373522 0.963944
O O17 0.000000 0.366098 0.000000
O O18 0.500000 0.913136 0.500000
O O19 0.393757 0.000000 0.822416
O O20 0.000000 0.603975 0.500000
#
# Coordination Sequence:
#
# PCOD9149361 Si02
#       8
#     4   4   2   2   4   4   4   4
#     4   9  18  34  54  76 105 144 184 221 264 322
#     4  10  21  37  54  76 107 144 186 225 269 324
#     4  12  21  34  60  89 111 139 180 224 276 329
#     4  10  20  34  55  85 113 137 173 226 279 323
#     4   9  17  31  53  81 109 138 175 219 269 324
#     4  10  20  38  58  79 109 142 179 224 272 322
#     4   9  17  32  54  79 106 138 177 222 271 320
#     4  10  22  39  57  81 113 145 180 224 276 329
#
# _framework density 18.895682999999998
#
# number of rings (size 3 to 8) (size 9 to 14) (size 15 to 20)
#    0.000    2.286    0.000    3.643    0.000    4.000 
#    0.000   13.571    0.000    3.429    0.000    0.000 
#    0.000    0.000    0.000    0.000    0.000    0.000 
#
# Total GULP energy -156274.876466 kJ/mol
# GULP energy per Si atom -5581.245588 kJ/mol
# Density = 1.885268 g / cm^3
# Si number density = 18.895683 Si / 1000 Ang^3
#
#
#
# Elastic Constant Matrix: (Units=GPa)
#
#
# Indices 1 2 3 4 5 6 
#
# 1 114.9771 65.3500 31.6457 0.0000 20.1015 0.0000
# 2 65.3500 168.8582 80.4100 0.0000 30.5095 0.0000
# 3 31.6457 80.4100 79.6438 0.0000 14.1932 0.0000
# 4 0.0000 0.0000 0.0000 13.5973 0.0000 -2.4819
# 5 20.1015 30.5095 14.1932 0.0000 35.3908 0.0000
# 6 0.0000 0.0000 0.0000 -2.4819 0.0000 11.8474
#
#
#
# Elastic Compliance Matrix: (Units=1/GPa)
#
#
# Indices 1 2 3 4 5 6 
#
# 1 0.011445 -0.003773 -0.000171 0.000000 -0.003179 0.000000
# 2 -0.003773 0.013790 -0.011509 0.000000 -0.005129 0.000000
# 3 -0.000171 -0.011509 0.024187 0.000000 0.000319 0.000000
# 4 0.000000 0.000000 0.000000 0.076468 0.000000 0.016019
# 5 -0.003179 -0.005129 0.000319 0.000000 0.034355 0.000000
# 6 0.000000 0.000000 0.000000 0.016019 0.000000 0.087762
#
#
# Mechanical properties :
#
#
# Convention : Reuss Voigt Hill
#
# Bulk Modulus (GPa) = 54.01303 79.81004 66.91153
# Shear Modulus (GPa) = 17.53855 24.57201 21.05528
#
# Velocity S-wave (km/s) = 3.04991 3.61002 3.34172
# Velocity P-wave (km/s) = 6.40699 7.72692 7.09770
#
# Compressibility (1/GPa) = 0.01851405
#
# Stress axis : x y z
#
# Youngs Moduli (GPa) = 87.37430 72.51743 41.34453
#
# Poissons Ratio (x) = 0.27363 0.00709
# Poissons Ratio (y) = 0.32969 0.47584
# Poissons Ratio (z) = 0.01498 0.83461
#
# Static dielectric constant tensor:
#      x y z
#    x 1.667040 0.000000 0.003030 
#    y 0.000000 1.646040 0.000000 
#    z 0.003030 0.000000 1.653370 
# 
# From -- ./inp_files/30437.got.cif
#   From: 2010.05.17/outbox.cif.g08.bks.cpg/sg10_16_cif.got.tgz:30437.got - 2010.06.03 11:33:40.
