data_PCOD9149835
_publ_section_title
;
Structure prediction by ZEFSAII (Michael W. Deem and Ramdas Pophale) SiO2 
 PCOD9149835
Probable space group: P 2/M
;
_chemical_formula_sum "Si O2"
_cell_formula_units_Z 32
_cell_length_a 14.768234
_cell_length_b 8.785196
_cell_length_c 12.726218
_cell_angle_alpha 90.000000
_cell_angle_beta 90.152935
_cell_angle_gamma 90.000000
_cell_volume 1651.116934
_symmetry_space_group_name_H-M "P 2/M"
_symmetry_group_IT_number 10
_symmetry_cell_setting 'monoclinic'
loop_
_space_group_symop_operation_xyz
x,y,z
-x,y,-z
-x,-y,-z
x,-y,z
loop_
_atom_site_type_symbol
_atom_site_label
_atom_site_fract_x
_atom_site_fract_y
_atom_site_fract_z
Si Si1 0.973693 0.184999 0.882060
Si Si2 0.444137 0.171131 0.893229
Si Si3 0.726840 0.675870 0.039347
Si Si4 0.514512 0.178383 0.337292
Si Si5 0.317350 0.183928 0.397467
Si Si6 0.710371 0.680624 0.384845
Si Si7 0.843990 0.180575 0.212450
Si Si8 0.768138 0.183492 0.826988
O O1 0.051862 0.231039 0.800165
O O2 0.873124 0.227917 0.845800
O O3 0.975312 0.000000 0.885721
O O4 0.000000 0.238255 0.000000
O O5 0.366052 0.295137 0.898962
O O6 0.502279 0.187461 0.788295
O O7 0.402432 0.000000 0.887191
O O8 0.500000 0.178706 0.000000
O O9 0.752586 0.500000 0.041473
O O10 0.799881 0.777784 0.100012
O O11 0.715191 0.736350 0.921500
O O12 0.423312 0.232410 0.393405
O O13 0.608944 0.261014 0.357958
O O14 0.527633 0.000000 0.364087
O O15 0.270999 0.255642 0.498694
O O16 0.269181 0.224356 0.287735
O O17 0.316537 0.000000 0.405712
O O18 0.711600 0.500000 0.383393
O O19 0.782961 0.742222 0.301184
O O20 0.840672 0.000000 0.228624
O O21 0.759940 0.000000 0.838202
#
# Coordination Sequence:
#
# PCOD9149835 Si02
#       8
#     4   4   4   4   4   4   4   4
#     4   9  17  33  62  95 118 144 192 247 296 340
#     4  10  20  35  56  82 114 157 200 239 288 346
#     4  12  23  34  53  86 124 158 190 234 295 354
#     4  10  20  36  59  85 114 152 200 245 284 343
#     4  10  22  40  63  88 114 153 202 245 290 347
#     4  12  25  40  59  85 119 157 198 246 298 350
#     4  11  21  38  63  87 115 152 196 246 291 344
#     4  10  20  39  64  89 118 154 197 245 292 353
#
# _framework density 19.38082
#
# number of rings (size 3 to 8) (size 9 to 14) (size 15 to 20)
#    0.000    1.500    2.500    3.750    0.000    4.750 
#    0.000    3.750    0.000    3.750    0.000    0.000 
#    0.000    0.000    0.000    0.000    0.000    0.000 
#
# Total GULP energy -178741.843097 kJ/mol
# GULP energy per Si atom -5585.682597 kJ/mol
# Density = 1.933671 g / cm^3
# Si number density = 19.380820 Si / 1000 Ang^3
#
#
#
# Elastic Constant Matrix: (Units=GPa)
#
#
# Indices 1 2 3 4 5 6 
#
# 1 82.2805 22.6229 31.2204 0.0000 -15.9002 0.0000
# 2 22.6229 43.3131 26.9214 0.0000 -8.7587 0.0000
# 3 31.2204 26.9214 118.4289 0.0000 -16.4661 0.0000
# 4 0.0000 0.0000 0.0000 -3.8671 0.0000 -2.1134
# 5 -15.9002 -8.7587 -16.4661 0.0000 24.7756 0.0000
# 6 0.0000 0.0000 0.0000 -2.1134 0.0000 -7.2460
#
#
#
# Elastic Compliance Matrix: (Units=1/GPa)
#
#
# Indices 1 2 3 4 5 6 
#
# 1 0.015758 -0.005656 -0.001918 0.000000 0.006839 0.000000
# 2 -0.005656 0.029750 -0.004754 0.000000 0.003729 0.000000
# 3 -0.001918 -0.004754 0.010605 0.000000 0.004137 0.000000
# 4 0.000000 0.000000 0.000000 -0.307629 0.000000 0.089725
# 5 0.006839 0.003729 0.004137 0.000000 0.048819 0.000000
# 6 0.000000 0.000000 0.000000 0.089725 0.000000 -0.164177
#
#
# Mechanical properties :
#
#
# Convention : Reuss Voigt Hill
#
# Bulk Modulus (GPa) = 31.78654 45.06132 38.42393
# Shear Modulus (GPa) = -15.07231 13.61637 -0.72797
#
# Velocity S-wave (km/s) = -2.79174 2.65348 -0.61354
# Velocity P-wave (km/s) = 2.45864 5.71742 4.40078
#
# Compressibility (1/GPa) = 0.03145985
#
# Stress axis : x y z
#
# Youngs Moduli (GPa) = 63.46094 33.61315 94.29339
#
# Poissons Ratio (x) = 0.19010 0.18081
# Poissons Ratio (y) = 0.35891 0.44823
# Poissons Ratio (z) = 0.12169 0.15978
#
# Static dielectric constant tensor:
#      x y z
#    x 1.694980 0.000000 0.003030 
#    y 0.000000 1.650000 0.000000 
#    z 0.003030 0.000000 1.681180 
# 
# From -- ./inp_files/49814.got.cif
#   From: 2010.05.17/outbox.cif.g08.bks.cpg/sg10_25_cif.got.tgz:49814.got - 2010.06.03 11:33:40.
