data_PCOD9149127
_publ_section_title
;
Structure prediction by ZEFSAII (Michael W. Deem and Ramdas Pophale) SiO2 
 PCOD9149127
Probable space group: P 2/M
;
_chemical_formula_sum "Si O2"
_cell_formula_units_Z 24
_cell_length_a 19.587089
_cell_length_b 12.302938
_cell_length_c 12.342631
_cell_angle_alpha 90.000000
_cell_angle_beta 26.514832
_cell_angle_gamma 90.000000
_cell_volume 1327.820382
_symmetry_space_group_name_H-M "P 2/M"
_symmetry_group_IT_number 10
_symmetry_cell_setting 'monoclinic'
loop_
_space_group_symop_operation_xyz
x,y,z
-x,y,-z
-x,-y,-z
x,-y,z
loop_
_atom_site_type_symbol
_atom_site_label
_atom_site_fract_x
_atom_site_fract_y
_atom_site_fract_z
Si Si1 0.261426 0.500000 0.382893
Si Si2 0.553639 0.500000 0.108797
Si Si3 0.069279 0.312540 0.562691
Si Si4 0.759391 0.869324 0.329956
Si Si5 0.563470 0.128946 0.287278
Si Si6 0.991596 0.130125 0.190578
Si Si7 0.244385 0.685814 0.089154
O O1 0.377447 0.500000 0.319739
O O2 0.155917 0.393478 0.521299
O O3 0.356673 0.500000 0.134161
O O4 0.616161 0.602985 0.087635
O O5 0.173527 0.293430 0.308905
O O6 0.037592 0.197174 0.661561
O O7 0.904209 0.360455 0.762569
O O8 0.583066 0.840697 0.578595
O O9 0.855731 0.842618 0.299111
O O10 0.763703 0.000000 0.316366
O O11 0.853528 0.833076 0.090482
O O12 0.500000 0.143807 0.500000
O O13 0.601273 0.000000 0.223161
O O14 0.696004 0.208500 0.059362
O O15 0.996127 0.000000 0.199946
#
# Coordination Sequence:
#
# PCOD9149127 Si02
#       7
#     2   2   4   4   4   4   4
#     4   9  19  35  57  77  99 141 180 213 264 318
#     4   9  19  37  56  76 103 135 180 223 259 316
#     4  10  20  34  54  80 108 138 175 219 263 317
#     4   8  16  31  50  73 103 142 183 213 246 305
#     4  10  20  34  53  78 109 144 179 213 257 317
#     4   9  17  31  53  79 107 140 175 215 262 312
#     4  10  21  35  54  80 108 139 175 219 268 309
#
# _framework density 18.074733999999999
#
# number of rings (size 3 to 8) (size 9 to 14) (size 15 to 20)
#    0.000    2.667    0.000    2.500    2.333    4.667 
#    0.000    2.083    0.000    6.000    0.000    0.000 
#    0.000    0.000    0.000    0.000    0.000    0.000 
#
# Total GULP energy -133648.119228 kJ/mol
# GULP energy per Si atom -5568.671634 kJ/mol
# Density = 1.803359 g / cm^3
# Si number density = 18.074734 Si / 1000 Ang^3
#
#
#
# Elastic Constant Matrix: (Units=GPa)
#
#
# Indices 1 2 3 4 5 6 
#
# 1 74.1960 44.6825 42.0865 0.0000 -17.2038 0.0000
# 2 44.6825 87.5749 44.1973 0.0000 -2.2034 0.0000
# 3 42.0865 44.1973 73.5266 0.0000 -21.1531 0.0000
# 4 0.0000 0.0000 0.0000 -23.4122 0.0000 -39.0720
# 5 -17.2038 -2.2034 -21.1531 0.0000 24.4126 0.0000
# 6 0.0000 0.0000 0.0000 -39.0720 0.0000 -3.7658
#
#
#
# Elastic Compliance Matrix: (Units=1/GPa)
#
#
# Indices 1 2 3 4 5 6 
#
# 1 0.025228 -0.010236 -0.004580 0.000000 0.012886 0.000000
# 2 -0.010236 0.022342 -0.012076 0.000000 -0.015661 0.000000
# 3 -0.004580 -0.012076 0.029624 0.000000 0.021351 0.000000
# 4 0.000000 0.000000 0.000000 0.002618 0.000000 -0.027162
# 5 0.012886 -0.015661 0.021351 0.000000 0.067130 0.000000
# 6 0.000000 0.000000 0.000000 -0.027162 0.000000 0.016276
#
#
# Mechanical properties :
#
#
# Convention : Reuss Voigt Hill
#
# Bulk Modulus (GPa) = 42.71948 55.24779 48.98363
# Shear Modulus (GPa) = 22.24128 6.40232 14.32180
#
# Velocity S-wave (km/s) = 3.51168 1.88410 2.81795
# Velocity P-wave (km/s) = 6.33473 5.94691 6.14388
#
# Compressibility (1/GPa) = 0.02340853
#
# Stress axis : x y z
#
# Youngs Moduli (GPa) = 39.63812 44.75847 33.75627
#
# Poissons Ratio (x) = 0.45815 0.15462
# Poissons Ratio (y) = 0.40574 0.40766
# Poissons Ratio (z) = 0.18156 0.54052
#
# Static dielectric constant tensor:
#      x y z
#    x 1.664300 0.000000 -0.052980 
#    y 0.000000 1.605010 0.000000 
#    z -0.052980 0.000000 1.633060 
# 
# From -- ./inp_files/53598.got.cif
#   From: 2010.05.17/outbox.cif.g08.bks.cpg/sg10_27_cif.got.tgz:53598.got - 2010.06.03 11:33:40.
