data_PCOD9149370
_publ_section_title
;
Structure prediction by ZEFSAII (Michael W. Deem and Ramdas Pophale) SiO2 
 PCOD9149370
Probable space group: P 2/M
;
_chemical_formula_sum "Si O2"
_cell_formula_units_Z 28
_cell_length_a 9.649736
_cell_length_b 11.182571
_cell_length_c 14.227162
_cell_angle_alpha 90.000000
_cell_angle_beta 68.351471
_cell_angle_gamma 90.000000
_cell_volume 1426.947884
_symmetry_space_group_name_H-M "P 2/M"
_symmetry_group_IT_number 10
_symmetry_cell_setting 'monoclinic'
loop_
_space_group_symop_operation_xyz
x,y,z
-x,y,-z
-x,-y,-z
x,-y,z
loop_
_atom_site_type_symbol
_atom_site_label
_atom_site_fract_x
_atom_site_fract_y
_atom_site_fract_z
Si Si1 0.401903 0.742362 0.292264
Si Si2 0.410365 0.368066 0.607190
Si Si3 0.830089 0.639816 0.796013
Si Si4 0.159757 0.862657 0.485995
Si Si5 0.298006 0.134180 0.841252
Si Si6 0.868337 0.209030 0.296712
Si Si7 0.823264 0.365747 0.021197
O O1 0.488026 0.638705 0.326606
O O2 0.308162 0.692154 0.228553
O O3 0.287612 0.796986 0.396632
O O4 0.532546 0.837083 0.234530
O O5 0.500000 0.304545 0.500000
O O6 0.377931 0.500000 0.581606
O O7 0.254297 0.312415 0.671204
O O8 0.860194 0.500000 0.761574
O O9 0.970567 0.728778 0.745566
O O10 0.801028 0.639151 0.914855
O O11 0.163052 0.858381 0.597885
O O12 0.000000 0.807110 0.500000
O O13 0.161852 0.000000 0.453735
O O14 0.180685 0.136920 0.783501
O O15 0.253816 0.249815 0.914322
O O16 0.291948 0.000000 0.884810
O O17 0.774259 0.500000 0.066403
O O18 0.000000 0.358262 0.000000
#
# Coordination Sequence:
#
# PCOD9149370 Si02
#       7
#     4   4   4   4   4   4   4
#     4  11  23  41  60  92 132 167 212 259 316 382
#     4  10  20  34  55  85 123 165 205 253 306 366
#     4  11  23  41  66  95 125 165 213 267 327 390
#     4  11  22  38  59  85 123 169 212 254 312 381
#     4  11  25  43  67  98 131 168 216 272 328 381
#     4  11  21  39  61  92 124 164 213 262 313 382
#     4  10  22  44  71  97 126 165 215 270 329 393
#
# _framework density 19.622299000000002
#
# number of rings (size 3 to 8) (size 9 to 14) (size 15 to 20)
#    0.000    1.286    4.286    1.714    0.000    3.714 
#    0.000    6.429    0.000    0.000    0.000    0.000 
#    0.000    0.000    0.000    0.000    0.000    0.000 
#
# Total GULP energy -156083.681930 kJ/mol
# GULP energy per Si atom -5574.417212 kJ/mol
# Density = 1.957764 g / cm^3
# Si number density = 19.622299 Si / 1000 Ang^3
#
#
#
# Elastic Constant Matrix: (Units=GPa)
#
#
# Indices 1 2 3 4 5 6 
#
# 1 114.0148 18.3286 23.6102 0.0000 11.8520 0.0000
# 2 18.3286 105.2014 32.2487 0.0000 -12.5463 0.0000
# 3 23.6102 32.2487 67.2335 0.0000 9.1395 0.0000
# 4 0.0000 0.0000 0.0000 58.5122 0.0000 4.6797
# 5 11.8520 -12.5463 9.1395 0.0000 36.1473 0.0000
# 6 0.0000 0.0000 0.0000 4.6797 0.0000 -18.6666
#
#
#
# Elastic Compliance Matrix: (Units=1/GPa)
#
#
# Indices 1 2 3 4 5 6 
#
# 1 0.009799 -0.001346 -0.002377 0.000000 -0.003079 0.000000
# 2 -0.001346 0.012452 -0.006366 0.000000 0.006373 0.000000
# 3 -0.002377 -0.006366 0.019631 0.000000 -0.006394 0.000000
# 4 0.000000 0.000000 0.000000 0.016755 0.000000 0.004200
# 5 -0.003079 0.006373 -0.006394 0.000000 0.032503 0.000000
# 6 0.000000 0.000000 0.000000 0.004200 0.000000 -0.052519
#
#
# Mechanical properties :
#
#
# Convention : Reuss Voigt Hill
#
# Bulk Modulus (GPa) = 46.07476 48.31385 47.19431
# Shear Modulus (GPa) = 75.71952 29.34941 52.53447
#
# Velocity S-wave (km/s) = 6.21870 3.87165 5.17986
# Velocity P-wave (km/s) = 8.66573 6.68293 7.73810
#
# Compressibility (1/GPa) = 0.02170385
#
# Stress axis : x y z
#
# Youngs Moduli (GPa) = 102.04624 80.31146 50.93994
#
# Poissons Ratio (x) = 0.10808 0.12109
# Poissons Ratio (y) = 0.13734 0.32429
# Poissons Ratio (z) = 0.24258 0.51127
#
# Static dielectric constant tensor:
#      x y z
#    x 1.693930 0.000000 0.017250 
#    y 0.000000 1.703560 0.000000 
#    z 0.017250 0.000000 1.741380 
# 
# From -- ./inp_files/28493.got.cif
#   From: 2010.05.17/outbox.cif.g08.bks.cpg/sg10_15_cif.got.tgz:28493.got - 2010.06.03 11:33:40.
