data_PCOD9149623
_publ_section_title
;
Structure prediction by ZEFSAII (Michael W. Deem and Ramdas Pophale) SiO2 
 PCOD9149623
Probable space group: P 2/M
;
_chemical_formula_sum "Si O2"
_cell_formula_units_Z 32
_cell_length_a 25.193381
_cell_length_b 17.256843
_cell_length_c 12.003771
_cell_angle_alpha 90.000000
_cell_angle_beta 159.606244
_cell_angle_gamma 90.000000
_cell_volume 1818.573160
_symmetry_space_group_name_H-M "P 2/M"
_symmetry_group_IT_number 10
_symmetry_cell_setting 'monoclinic'
loop_
_space_group_symop_operation_xyz
x,y,z
-x,y,-z
-x,-y,-z
x,-y,z
loop_
_atom_site_type_symbol
_atom_site_label
_atom_site_fract_x
_atom_site_fract_y
_atom_site_fract_z
Si Si1 0.943924 0.908696 0.263122
Si Si2 0.445217 0.266742 0.272824
Si Si3 0.751038 0.408453 0.050506
Si Si4 0.065938 0.591240 0.806859
Si Si5 0.710771 0.809716 0.668465
Si Si6 0.470567 0.087050 0.072669
Si Si7 0.967240 0.288646 0.064965
Si Si8 0.795898 0.180281 0.348659
O O1 0.000000 0.897264 0.500000
O O2 0.084766 0.881604 0.463943
O O3 0.906823 0.000000 0.174977
O O4 0.808074 0.851336 0.957696
O O5 0.500000 0.236580 0.500000
O O6 0.588671 0.252389 0.474518
O O7 0.382980 0.353699 0.169399
O O8 0.302864 0.218939 0.944076
O O9 0.712893 0.500000 0.974108
O O10 0.809351 0.384736 0.041318
O O11 0.900743 0.398817 0.422871
O O12 0.086871 0.500000 0.867112
O O13 0.068696 0.638511 0.926138
O O14 0.612603 0.875165 0.414781
O O15 0.826557 0.769648 0.810208
O O16 0.445606 0.000000 0.064826
O O17 0.500000 0.085663 0.000000
O O18 0.323745 0.138169 0.808286
O O19 0.112380 0.245862 0.404881
O O20 0.000000 0.305129 0.000000
#
# Coordination Sequence:
#
# PCOD9149623 Si02
#       8
#     4   4   4   4   4   4   4   4
#     4  10  20  35  54  76 105 143 180 220 270 323
#     4  11  20  33  53  81 112 141 172 215 274 326
#     4   9  18  34  57  83 112 140 172 219 269 318
#     4   9  18  34  57  84 109 139 179 220 263 313
#     4  10  22  35  51  80 111 138 176 226 269 320
#     4  10  20  36  56  75 100 138 180 224 272 316
#     4  11  21  36  56  79 108 146 186 224 263 312
#     4  10  21  35  52  78 107 139 180 226 265 318
#
# _framework density 17.596212000000001
#
# number of rings (size 3 to 8) (size 9 to 14) (size 15 to 20)
#    0.000    2.000    1.250    3.750    0.000    1.500 
#    0.000    0.625    0.000   12.000    0.000    1.750 
#    0.000    0.000    0.000    0.000    0.000    0.000 
#
# Total GULP energy -178517.480498 kJ/mol
# GULP energy per Si atom -5578.671266 kJ/mol
# Density = 1.755616 g / cm^3
# Si number density = 17.596212 Si / 1000 Ang^3
#
#
#
# Elastic Constant Matrix: (Units=GPa)
#
#
# Indices 1 2 3 4 5 6 
#
# 1 84.2726 39.3966 21.8652 0.0000 -2.9971 0.0000
# 2 39.3966 84.0456 31.8450 0.0000 7.9604 0.0000
# 3 21.8652 31.8450 80.7896 0.0000 8.9599 0.0000
# 4 0.0000 0.0000 0.0000 22.7915 0.0000 -1.3379
# 5 -2.9971 7.9604 8.9599 0.0000 19.7074 0.0000
# 6 0.0000 0.0000 0.0000 -1.3379 0.0000 32.6872
#
#
#
# Elastic Compliance Matrix: (Units=1/GPa)
#
#
# Indices 1 2 3 4 5 6 
#
# 1 0.016079 -0.007318 -0.002176 0.000000 0.006391 0.000000
# 2 -0.007318 0.017526 -0.004233 0.000000 -0.006268 0.000000
# 3 -0.002176 -0.004233 0.015251 0.000000 -0.005555 0.000000
# 4 0.000000 0.000000 0.000000 0.043982 0.000000 0.001800
# 5 0.006391 -0.006268 -0.005555 0.000000 0.056772 0.000000
# 6 0.000000 0.000000 0.000000 0.001800 0.000000 0.030667
#
#
# Mechanical properties :
#
#
# Convention : Reuss Voigt Hill
#
# Bulk Modulus (GPa) = 46.72146 48.36904 47.54525
# Shear Modulus (GPa) = 23.27054 25.43727 24.35391
#
# Velocity S-wave (km/s) = 3.64053 3.80624 3.72431
# Velocity P-wave (km/s) = 6.65439 6.84578 6.75076
#
# Compressibility (1/GPa) = 0.02140344
#
# Stress axis : x y z
#
# Youngs Moduli (GPa) = 62.19229 57.05803 65.56869
#
# Poissons Ratio (x) = 0.41755 0.14267
# Poissons Ratio (y) = 0.45512 0.27752
# Poissons Ratio (z) = 0.13532 0.24150
#
# Static dielectric constant tensor:
#      x y z
#    x 1.223450 0.000000 -0.252570 
#    y 0.000000 1.596070 0.000000 
#    z -0.252570 0.000000 1.420820 
# 
# From -- ./inp_files/57110.got.cif
#   From: 2010.05.17/outbox.cif.g08.bks.cpg/sg10_29_cif.got.tgz:57110.got - 2010.06.03 11:33:40.
