data_PCOD9149255
_publ_section_title
;
Structure prediction by ZEFSAII (Michael W. Deem and Ramdas Pophale) SiO2 
 PCOD9149255
Probable space group: P 2/M
;
_chemical_formula_sum "Si O2"
_cell_formula_units_Z 28
_cell_length_a 15.773948
_cell_length_b 8.027071
_cell_length_c 18.739531
_cell_angle_alpha 90.000000
_cell_angle_beta 143.976459
_cell_angle_gamma 90.000000
_cell_volume 1395.469678
_symmetry_space_group_name_H-M "P 2/M"
_symmetry_group_IT_number 10
_symmetry_cell_setting 'monoclinic'
loop_
_space_group_symop_operation_xyz
x,y,z
-x,y,-z
-x,-y,-z
x,-y,z
loop_
_atom_site_type_symbol
_atom_site_label
_atom_site_fract_x
_atom_site_fract_y
_atom_site_fract_z
Si Si1 0.651273 0.692790 0.131279
Si Si2 0.775526 0.702658 0.827409
Si Si3 0.833212 0.199938 0.392697
Si Si4 0.477362 0.700824 0.565691
Si Si5 0.210089 0.200829 0.479402
Si Si6 0.095260 0.804503 0.790122
Si Si7 0.038899 0.702033 0.910909
O O1 0.622871 0.500000 0.128105
O O2 0.731728 0.761498 0.256370
O O3 0.767232 0.711361 0.147165
O O4 0.500000 0.768176 0.000000
O O5 0.775729 0.500000 0.828326
O O6 0.614537 0.761362 0.704490
O O7 0.882279 0.749953 0.835455
O O8 0.847987 0.753406 0.950890
O O9 0.768224 0.258596 0.424253
O O10 0.000000 0.261354 0.500000
O O11 0.843314 0.000000 0.403237
O O12 0.500000 0.761123 0.500000
O O13 0.483213 0.500000 0.566919
O O14 0.330322 0.745727 0.504943
O O15 0.051497 0.256697 0.346965
O O16 0.209086 0.000000 0.478336
O O17 0.074749 0.779976 0.859993
O O18 0.112867 0.000000 0.784849
O O19 0.041794 0.500000 0.906462
#
# Coordination Sequence:
#
# PCOD9149255 Si02
#       7
#     4   4   4   4   4   4   4
#     4  11  25  42  61  89 121 151 191 245 297 349
#     4   8  16  32  53  78 111 149 185 231 290 340
#     4  10  20  41  66  87 118 157 195 241 295 357
#     4  10  20  34  54  82 115 149 190 237 283 337
#     4  10  22  38  58  84 113 150 192 236 290 346
#     4  11  22  38  58  82 113 148 189 237 291 351
#     4   9  17  33  57  80 107 147 191 233 282 343
#
# _framework density 20.064927999999998
#
# number of rings (size 3 to 8) (size 9 to 14) (size 15 to 20)
#    0.000    2.143    1.429    2.571    0.000    5.714 
#    0.000    7.143    0.000    0.000    0.000    0.000 
#    0.000    0.000    0.000    0.000    0.000    0.000 
#
# Total GULP energy -156282.244646 kJ/mol
# GULP energy per Si atom -5581.508737 kJ/mol
# Density = 2.001926 g / cm^3
# Si number density = 20.064928 Si / 1000 Ang^3
#
#
#
# Elastic Constant Matrix: (Units=GPa)
#
#
# Indices 1 2 3 4 5 6 
#
# 1 118.1077 -0.1876 67.2803 0.0000 -7.5108 0.0000
# 2 -0.1876 13.0125 7.0978 0.0000 0.6683 0.0000
# 3 67.2803 7.0978 128.0099 0.0000 11.9045 0.0000
# 4 0.0000 0.0000 0.0000 21.8561 0.0000 -3.3491
# 5 -7.5108 0.6683 11.9045 0.0000 36.6587 0.0000
# 6 0.0000 0.0000 0.0000 -3.3491 0.0000 31.3754
#
#
#
# Elastic Compliance Matrix: (Units=1/GPa)
#
#
# Indices 1 2 3 4 5 6 
#
# 1 0.013123 0.004071 -0.007596 0.000000 0.005081 0.000000
# 2 0.004071 0.080509 -0.006749 0.000000 0.001558 0.000000
# 3 -0.007596 -0.006749 0.012695 0.000000 -0.005556 0.000000
# 4 0.000000 0.000000 0.000000 0.046515 0.000000 0.004965
# 5 0.005081 0.001558 -0.005556 0.000000 0.030095 0.000000
# 6 0.000000 0.000000 0.000000 0.004965 0.000000 0.032402
#
#
# Mechanical properties :
#
#
# Convention : Reuss Voigt Hill
#
# Bulk Modulus (GPa) = 11.65756 45.27902 28.46829
# Shear Modulus (GPa) = 18.90505 30.30736 24.60620
#
# Velocity S-wave (km/s) = 3.07285 3.89069 3.50570
# Velocity P-wave (km/s) = 4.29097 6.54205 5.53222
#
# Compressibility (1/GPa) = 0.08578122
#
# Stress axis : x y z
#
# Youngs Moduli (GPa) = 76.19987 12.42096 78.77119
#
# Poissons Ratio (x) = -0.05057 0.59833
# Poissons Ratio (y) = -0.31024 0.53161
# Poissons Ratio (z) = 0.57880 0.08383
#
# Static dielectric constant tensor:
#      x y z
#    x 1.676350 0.000000 -0.003620 
#    y 0.000000 1.726760 0.000000 
#    z -0.003620 0.000000 1.719280 
# 
# From -- ./inp_files/77701.got.cif
#   From: 2010.05.17/outbox.cif.g08.bks.cpg/sg10_39_cif.got.tgz:77701.got - 2010.06.03 11:33:40.
