data_PCOD9149131
_publ_section_title
;
Structure prediction by ZEFSAII (Michael W. Deem and Ramdas Pophale) SiO2 
 PCOD9149131
Probable space group: P 2/M
;
_chemical_formula_sum "Si O2"
_cell_formula_units_Z 32
_cell_length_a 15.773579
_cell_length_b 24.598153
_cell_length_c 9.223075
_cell_angle_alpha 90.000000
_cell_angle_beta 27.597180
_cell_angle_gamma 90.000000
_cell_volume 1657.777260
_symmetry_space_group_name_H-M "P 2/M"
_symmetry_group_IT_number 10
_symmetry_cell_setting 'monoclinic'
loop_
_space_group_symop_operation_xyz
x,y,z
-x,y,-z
-x,-y,-z
x,-y,z
loop_
_atom_site_type_symbol
_atom_site_label
_atom_site_fract_x
_atom_site_fract_y
_atom_site_fract_z
Si Si1 0.534843 0.062442 0.614512
Si Si2 0.299142 0.658657 0.234849
Si Si3 0.310309 0.137168 0.379931
Si Si4 0.467471 0.336954 0.378206
Si Si5 0.035773 0.439456 0.615138
Si Si6 0.194386 0.741219 0.628534
Si Si7 0.840524 0.062462 0.632368
Si Si8 0.797971 0.562557 0.234155
O O1 0.500000 0.077922 0.500000
O O2 0.658335 0.103024 0.520546
O O3 0.604778 0.000000 0.508812
O O4 0.344904 0.062419 0.991880
O O5 0.179513 0.605686 0.441653
O O6 0.204391 0.708212 0.461996
O O7 0.500000 0.653554 0.000000
O O8 0.343181 0.665284 0.998429
O O9 0.240095 0.196571 0.526086
O O10 0.180619 0.102534 0.470282
O O11 0.500000 0.142125 0.000000
O O12 0.500000 0.335078 0.500000
O O13 0.344503 0.287111 0.505431
O O14 0.353354 0.391761 0.509077
O O15 0.106031 0.500000 0.542563
O O16 0.000000 0.435515 0.500000
O O17 0.848303 0.433406 0.987726
O O18 0.000000 0.735105 0.000000
O O19 0.000000 0.078554 0.500000
O O20 0.871854 0.000000 0.536259
O O21 0.743619 0.500000 0.349204
O O22 0.000000 0.572003 0.000000
#
# Coordination Sequence:
#
# PCOD9149131 Si02
#       8
#     4   4   4   4   4   4   4   4
#     4   9  18  33  56  86 118 152 187 226 274 329
#     4  10  21  37  57  79 106 140 180 224 273 326
#     4  10  20  37  59  81 112 151 191 233 280 333
#     4  11  22  37  59  84 110 141 183 234 284 331
#     4  10  20  34  53  79 110 141 174 215 267 326
#     4  11  24  42  59  77 107 146 190 233 279 336
#     4   9  18  34  57  86 119 152 187 228 276 332
#     4  10  20  35  56  81 112 148 181 218 273 338
#
# _framework density 19.302955999999998
#
# number of rings (size 3 to 8) (size 9 to 14) (size 15 to 20)
#    0.000    2.000    0.000    4.875    0.000    4.000 
#    0.000    3.125    0.000    3.750    0.000    0.000 
#    0.000    0.000    0.000    0.000    0.000    0.000 
#
# Total GULP energy -178625.905681 kJ/mol
# GULP energy per Si atom -5582.059553 kJ/mol
# Density = 1.925902 g / cm^3
# Si number density = 19.302956 Si / 1000 Ang^3
#
#
#
# Elastic Constant Matrix: (Units=GPa)
#
#
# Indices 1 2 3 4 5 6 
#
# 1 105.6622 83.5330 37.4476 0.0000 25.1638 0.0000
# 2 83.5330 160.0213 58.1091 0.0000 4.3334 0.0000
# 3 37.4476 58.1091 70.2583 0.0000 17.8315 0.0000
# 4 0.0000 0.0000 0.0000 19.9995 0.0000 11.9576
# 5 25.1638 4.3334 17.8315 0.0000 31.7017 0.0000
# 6 0.0000 0.0000 0.0000 11.9576 0.0000 5.0442
#
#
#
# Elastic Compliance Matrix: (Units=1/GPa)
#
#
# Indices 1 2 3 4 5 6 
#
# 1 0.022264 -0.012076 0.002552 0.000000 -0.017457 0.000000
# 2 -0.012076 0.015812 -0.009945 0.000000 0.013018 0.000000
# 3 0.002552 -0.009945 0.024809 0.000000 -0.014621 0.000000
# 4 0.000000 0.000000 0.000000 -0.119802 0.000000 0.284001
# 5 -0.017457 0.013018 -0.014621 0.000000 0.051845 0.000000
# 6 0.000000 0.000000 0.000000 0.284001 0.000000 -0.475001
#
#
# Mechanical properties :
#
#
# Convention : Reuss Voigt Hill
#
# Bulk Modulus (GPa) = 41.76018 77.12459 59.44239
# Shear Modulus (GPa) = -11.54331 21.80588 5.13129
#
# Velocity S-wave (km/s) = -2.44807 3.36470 1.63220
# Velocity P-wave (km/s) = 3.70004 7.42539 5.86629
#
# Compressibility (1/GPa) = 0.02394626
#
# Stress axis : x y z
#
# Youngs Moduli (GPa) = 44.91532 63.24387 40.30754
#
# Poissons Ratio (x) = 0.76373 -0.10285
# Poissons Ratio (y) = 0.54239 0.40086
# Poissons Ratio (z) = -0.11460 0.62897
#
# Static dielectric constant tensor:
#      x y z
#    x 1.702000 0.000000 0.025520 
#    y 0.000000 1.654700 0.000000 
#    z 0.025520 0.000000 1.689700 
# 
# From -- ./inp_files/30575.got.cif
#   From: 2010.05.17/outbox.cif.g08.bks.cpg/sg10_16_cif.got.tgz:30575.got - 2010.06.03 11:33:40.
