data_PCOD9149842
_publ_section_title
;
Structure prediction by ZEFSAII (Michael W. Deem and Ramdas Pophale) SiO2 
 PCOD9149842
Probable space group: P 2/M
;
_chemical_formula_sum "Si O2"
_cell_formula_units_Z 32
_cell_length_a 20.745860
_cell_length_b 13.912534
_cell_length_c 15.432509
_cell_angle_alpha 90.000000
_cell_angle_beta 20.856812
_cell_angle_gamma 90.000000
_cell_volume 1585.861853
_symmetry_space_group_name_H-M "P 2/M"
_symmetry_group_IT_number 10
_symmetry_cell_setting 'monoclinic'
loop_
_space_group_symop_operation_xyz
x,y,z
-x,y,-z
-x,-y,-z
x,-y,z
loop_
_atom_site_type_symbol
_atom_site_label
_atom_site_fract_x
_atom_site_fract_y
_atom_site_fract_z
Si Si1 0.329761 0.612692 0.150164
Si Si2 0.643280 0.731650 0.057370
Si Si3 0.079922 0.114651 0.307217
Si Si4 0.961477 0.389038 0.922466
Si Si5 0.974640 0.610361 0.705209
Si Si6 0.286867 0.787511 0.753654
Si Si7 0.026993 0.114715 0.748941
Si Si8 0.757287 0.763770 0.382230
O O1 0.315986 0.500000 0.141915
O O2 0.363434 0.679782 0.026492
O O3 0.142942 0.638643 0.433449
O O4 0.500000 0.620868 0.000000
O O5 0.723784 0.838057 0.947907
O O6 0.797949 0.673885 0.914145
O O7 0.448669 0.733204 0.344709
O O8 0.000000 0.148179 0.500000
O O9 0.967982 0.139200 0.360091
O O10 0.091210 0.000000 0.295310
O O11 0.935620 0.500000 0.979749
O O12 0.026904 0.386990 0.740111
O O13 0.116925 0.330901 0.777227
O O14 0.782427 0.322832 0.150716
O O15 0.929808 0.500000 0.739741
O O16 0.500000 0.796464 0.500000
O O17 0.233195 0.815368 0.722705
O O18 0.167485 0.849690 0.970137
O O19 0.169354 0.171070 0.630781
O O20 0.045682 0.000000 0.734364
#
# Coordination Sequence:
#
# PCOD9149842 Si02
#       8
#     4   4   4   4   4   4   4   4
#     4  10  21  36  55  84 119 155 201 251 295 345
#     4  12  22  35  58  83 116 157 194 239 300 351
#     4  10  22  40  62  88 118 153 193 238 289 354
#     4  10  21  38  58  80 115 160 197 237 293 350
#     4  10  20  35  56  83 114 150 198 250 294 345
#     4  11  23  40  61  90 121 149 195 251 296 348
#     4  10  22  43  67  88 116 153 191 239 301 357
#     4  11  24  38  58  88 120 153 198 251 290 343
#
# _framework density 20.178303
#
# number of rings (size 3 to 8) (size 9 to 14) (size 15 to 20)
#    0.000    1.500    0.000    6.750    0.000    7.000 
#    0.000    0.000    0.000    2.625    0.000    0.000 
#    0.000    0.000    0.000    0.000    0.000    0.000 
#
# Total GULP energy -178814.841382 kJ/mol
# GULP energy per Si atom -5587.963793 kJ/mol
# Density = 2.013238 g / cm^3
# Si number density = 20.178303 Si / 1000 Ang^3
#
#
#
# Elastic Constant Matrix: (Units=GPa)
#
#
# Indices 1 2 3 4 5 6 
#
# 1 114.3890 28.6057 21.1863 0.0000 19.3421 0.0000
# 2 28.6057 76.4266 13.6908 0.0000 -0.8348 0.0000
# 3 21.1863 13.6908 98.1110 0.0000 -2.7253 0.0000
# 4 0.0000 0.0000 0.0000 17.8352 0.0000 5.2287
# 5 19.3421 -0.8348 -2.7253 0.0000 32.7607 0.0000
# 6 0.0000 0.0000 0.0000 5.2287 0.0000 29.3827
#
#
#
# Elastic Compliance Matrix: (Units=1/GPa)
#
#
# Indices 1 2 3 4 5 6 
#
# 1 0.011282 -0.003926 -0.002081 0.000000 -0.006934 0.000000
# 2 -0.003926 0.014787 -0.001144 0.000000 0.002599 0.000000
# 3 -0.002081 -0.001144 0.010860 0.000000 0.002103 0.000000
# 4 0.000000 0.000000 0.000000 0.059155 0.000000 -0.010527
# 5 -0.006934 0.002599 0.002103 0.000000 0.034859 0.000000
# 6 0.000000 0.000000 0.000000 -0.010527 0.000000 0.035907
#
#
# Mechanical properties :
#
#
# Convention : Reuss Voigt Hill
#
# Bulk Modulus (GPa) = 44.19235 46.21023 45.20129
# Shear Modulus (GPa) = 26.49811 31.02531 28.76171
#
# Velocity S-wave (km/s) = 3.62774 3.92542 3.77951
# Velocity P-wave (km/s) = 6.28457 6.59515 6.44173
#
# Compressibility (1/GPa) = 0.02262835
#
# Stress axis : x y z
#
# Youngs Moduli (GPa) = 88.63946 67.62703 92.08191
#
# Poissons Ratio (x) = 0.26547 0.19162
# Poissons Ratio (y) = 0.34796 0.10530
# Poissons Ratio (z) = 0.18446 0.07733
#
# Static dielectric constant tensor:
#      x y z
#    x 1.775250 0.000000 0.031530 
#    y 0.000000 1.715910 0.000000 
#    z 0.031530 0.000000 1.677520 
# 
# From -- ./inp_files/70768.got.cif
#   From: 2010.05.17/outbox.cif.g08.bks.cpg/sg10_36_cif.got.tgz:70768.got - 2010.06.03 11:33:40.
