data_PCOD9149782
_publ_section_title
;
Structure prediction by ZEFSAII (Michael W. Deem and Ramdas Pophale) SiO2 
 PCOD9149782
Probable space group: P 2/M
;
_chemical_formula_sum "Si O2"
_cell_formula_units_Z 32
_cell_length_a 20.653563
_cell_length_b 7.560703
_cell_length_c 25.178444
_cell_angle_alpha 90.000000
_cell_angle_beta 23.666384
_cell_angle_gamma 90.000000
_cell_volume 1578.246213
_symmetry_space_group_name_H-M "P 2/M"
_symmetry_group_IT_number 10
_symmetry_cell_setting 'monoclinic'
loop_
_space_group_symop_operation_xyz
x,y,z
-x,y,-z
-x,-y,-z
x,-y,z
loop_
_atom_site_type_symbol
_atom_site_label
_atom_site_fract_x
_atom_site_fract_y
_atom_site_fract_z
Si Si1 0.658752 0.794042 0.342830
Si Si2 0.140784 0.217499 0.712274
Si Si3 0.826221 0.204132 0.891811
Si Si4 0.444875 0.214251 0.411728
Si Si5 0.471420 0.203256 0.164098
Si Si6 0.980781 0.291571 0.665612
Si Si7 0.657083 0.707251 0.626784
Si Si8 0.149595 0.785949 0.351123
O O1 0.500000 0.790869 0.500000
O O2 0.799465 0.720926 0.274637
O O3 0.593825 0.719928 0.336019
O O4 0.698948 0.000000 0.303136
O O5 0.278228 0.269519 0.566165
O O6 0.966504 0.279822 0.824011
O O7 0.141652 0.000000 0.711910
O O8 0.897163 0.207086 0.779227
O O9 0.806662 0.000000 0.923881
O O10 0.648353 0.286116 0.025770
O O11 0.440708 0.271077 0.354159
O O12 0.447495 0.000000 0.411360
O O13 0.421742 0.204552 0.263044
O O14 0.319943 0.280767 0.245798
O O15 0.485695 0.000000 0.134378
O O16 0.992991 0.500000 0.667864
O O17 0.162235 0.222497 0.519682
O O18 0.883221 0.264180 0.684758
O O19 0.671170 0.500000 0.629026
O O20 0.000000 0.723673 0.500000
O O21 0.150405 0.000000 0.354094
#
# Coordination Sequence:
#
# PCOD9149782 Si02
#       8
#     4   4   4   4   4   4   4   4
#     4   7  11  20  39  72 104 127 160 205 252 295
#     4   8  13  24  46  75 104 132 161 203 258 301
#     4  10  20  35  56  80 106 135 169 211 256 305
#     4   9  15  26  49  76 101 131 169 212 251 295
#     4  10  22  38  56  79 102 130 173 216 256 306
#     4  11  23  36  54  79 106 137 172 209 252 308
#     4  11  22  34  51  76 106 138 172 212 254 301
#     4  10  20  36  58  78 100 133 171 215 260 299
#
# _framework density 20.275670999999999
#
# number of rings (size 3 to 8) (size 9 to 14) (size 15 to 20)
#    0.000    2.500    2.500    2.250    0.000    2.750 
#    0.000    2.500    0.000    4.875    0.000    5.250 
#    0.000    0.000    0.000    0.000    0.000    0.000 
#
# Total GULP energy -178492.614492 kJ/mol
# GULP energy per Si atom -5577.894203 kJ/mol
# Density = 2.022952 g / cm^3
# Si number density = 20.275671 Si / 1000 Ang^3
#
#
#
# Elastic Constant Matrix: (Units=GPa)
#
#
# Indices 1 2 3 4 5 6 
#
# 1 150.4181 -11.7919 55.6610 0.0000 -35.5931 0.0000
# 2 -11.7919 51.3410 2.2662 0.0000 -5.0295 0.0000
# 3 55.6610 2.2662 114.0802 0.0000 -25.5500 0.0000
# 4 0.0000 0.0000 0.0000 5.5655 0.0000 18.1139
# 5 -35.5931 -5.0295 -25.5500 0.0000 29.5880 0.0000
# 6 0.0000 0.0000 0.0000 18.1139 0.0000 80.1969
#
#
#
# Elastic Compliance Matrix: (Units=1/GPa)
#
#
# Indices 1 2 3 4 5 6 
#
# 1 0.010534 0.003609 -0.002772 0.000000 0.010892 0.000000
# 2 0.003609 0.021062 -0.000502 0.000000 0.007488 0.000000
# 3 -0.002772 -0.000502 0.011607 0.000000 0.006603 0.000000
# 4 0.000000 0.000000 0.000000 0.678375 0.000000 -0.153223
# 5 0.010892 0.007488 0.006603 0.000000 0.053875 0.000000
# 6 0.000000 0.000000 0.000000 -0.153223 0.000000 0.047077
#
#
# Mechanical properties :
#
#
# Convention : Reuss Voigt Hill
#
# Bulk Modulus (GPa) = 22.79321 45.34554 34.06937
# Shear Modulus (GPa) = 5.97739 41.05033 23.51386
#
# Velocity S-wave (km/s) = 1.71885 4.50445 3.40914
# Velocity P-wave (km/s) = 3.89940 7.03324 5.68647
#
# Compressibility (1/GPa) = 0.04387272
#
# Stress axis : x y z
#
# Youngs Moduli (GPa) = 94.92971 47.47846 86.15416
#
# Poissons Ratio (x) = -0.17134 0.23882
# Poissons Ratio (y) = -0.34258 0.04326
# Poissons Ratio (z) = 0.26315 0.02384
#
# Static dielectric constant tensor:
#      x y z
#    x 1.720770 0.000000 -0.047300 
#    y 0.000000 1.755820 0.000000 
#    z -0.047300 0.000000 1.710940 
# 
# From -- ./inp_files/93688.got.cif
#   From: 2010.05.17/outbox.cif.g08.bks.cpg/sg10_47_cif.got.tgz:93688.got - 2010.06.03 11:33:40.
