data_PCOD9149006
_publ_section_title
;
Structure prediction by ZEFSAII (Michael W. Deem and Ramdas Pophale) SiO2 
 PCOD9149006
Probable space group: P 2/M
;
_chemical_formula_sum "Si O2"
_cell_formula_units_Z 32
_cell_length_a 16.946216
_cell_length_b 9.493910
_cell_length_c 21.827741
_cell_angle_alpha 90.000000
_cell_angle_beta 27.005989
_cell_angle_gamma 90.000000
_cell_volume 1594.639390
_symmetry_space_group_name_H-M "P 2/M"
_symmetry_group_IT_number 10
_symmetry_cell_setting 'monoclinic'
loop_
_space_group_symop_operation_xyz
x,y,z
-x,y,-z
-x,-y,-z
x,-y,z
loop_
_atom_site_type_symbol
_atom_site_label
_atom_site_fract_x
_atom_site_fract_y
_atom_site_fract_z
Si Si1 0.991231 0.665181 0.174326
Si Si2 0.289230 0.157834 0.923943
Si Si3 0.816365 0.669105 0.493684
Si Si4 0.678120 0.160406 0.339310
Si Si5 0.522416 0.837174 0.074491
Si Si6 0.794102 0.835258 0.632205
Si Si7 0.835981 0.666556 0.811610
Si Si8 0.516519 0.835312 0.645391
O O1 0.967045 0.500000 0.183612
O O2 0.816983 0.746493 0.278334
O O3 0.063961 0.689761 0.192702
O O4 0.140368 0.726410 0.027179
O O5 0.393334 0.170973 0.915561
O O6 0.416711 0.170580 0.778779
O O7 0.212288 0.000000 0.976211
O O8 0.800211 0.500000 0.503718
O O9 0.764154 0.734213 0.595177
O O10 0.687564 0.740617 0.533587
O O11 0.016850 0.705897 0.339578
O O12 0.500000 0.157556 0.500000
O O13 0.618046 0.210901 0.313867
O O14 0.744288 0.000000 0.287976
O O15 0.324375 0.793438 0.227318
O O16 0.523251 0.000000 0.054592
O O17 0.654461 0.750004 0.940700
O O18 0.000000 0.831179 0.500000
O O19 0.748298 0.000000 0.649662
O O20 0.799303 0.500000 0.831465
O O21 0.562970 0.000000 0.600914
#
# Coordination Sequence:
#
# PCOD9149006 Si02
#       8
#     4   4   4   4   4   4   4   4
#     4  10  20  34  52  74 106 142 181 228 277 327
#     4   9  17  32  53  75 101 135 179 226 270 324
#     4  11  22  36  57  85 115 144 184 230 274 332
#     4  10  21  35  51  73 102 140 184 228 279 333
#     4   9  17  33  57  83 107 140 185 225 268 324
#     4  10  21  39  62  87 116 146 180 225 274 328
#     4   9  20  36  54  80 112 150 188 226 274 326
#     4  10  20  35  55  77 106 142 183 232 278 324
#
# _framework density 20.067232000000001
#
# number of rings (size 3 to 8) (size 9 to 14) (size 15 to 20)
#    0.000    2.250    1.250    1.500    0.000    4.000 
#    0.000    3.125    0.000    3.750    0.000    0.000 
#    0.000    0.000    0.000    0.000    0.000    0.000 
#
# Total GULP energy -178601.434579 kJ/mol
# GULP energy per Si atom -5581.294831 kJ/mol
# Density = 2.002156 g / cm^3
# Si number density = 20.067232 Si / 1000 Ang^3
#
#
#
# Elastic Constant Matrix: (Units=GPa)
#
#
# Indices 1 2 3 4 5 6 
#
# 1 46.8629 27.6093 21.2866 0.0000 -6.1831 0.0000
# 2 27.6093 63.3470 50.8426 0.0000 -14.8367 0.0000
# 3 21.2866 50.8426 123.8692 0.0000 -9.7517 0.0000
# 4 0.0000 0.0000 0.0000 14.1840 0.0000 21.7352
# 5 -6.1831 -14.8367 -9.7517 0.0000 34.3063 0.0000
# 6 0.0000 0.0000 0.0000 21.7352 0.0000 -19.8104
#
#
#
# Elastic Compliance Matrix: (Units=1/GPa)
#
#
# Indices 1 2 3 4 5 6 
#
# 1 0.028721 -0.012833 0.000309 0.000000 -0.000286 0.000000
# 2 -0.012833 0.031389 -0.010016 0.000000 0.008415 0.000000
# 3 0.000309 -0.010016 0.012064 0.000000 -0.000847 0.000000
# 4 0.000000 0.000000 0.000000 0.026294 0.000000 0.028849
# 5 -0.000286 0.008415 -0.000847 0.000000 0.032496 0.000000
# 6 0.000000 0.000000 0.000000 0.028849 0.000000 -0.018826
#
#
# Mechanical properties :
#
#
# Convention : Reuss Voigt Hill
#
# Bulk Modulus (GPa) = 36.90701 48.17288 42.53994
# Shear Modulus (GPa) = 30.07522 14.69202 22.38362
#
# Velocity S-wave (km/s) = 3.87553 2.70874 3.34343
# Velocity P-wave (km/s) = 6.20145 5.81729 6.01244
#
# Compressibility (1/GPa) = 0.02709513
#
# Stress axis : x y z
#
# Youngs Moduli (GPa) = 34.81743 31.85840 82.88905
#
# Poissons Ratio (x) = 0.40884 -0.02563
# Poissons Ratio (y) = 0.44681 0.83021
# Poissons Ratio (z) = -0.01076 0.31909
#
# Static dielectric constant tensor:
#      x y z
#    x 1.737010 0.000000 -0.000570 
#    y 0.000000 1.680250 0.000000 
#    z -0.000570 0.000000 1.722320 
# 
# From -- ./inp_files/93601.got.cif
#   From: 2010.05.17/outbox.cif.g08.bks.cpg/sg10_47_cif.got.tgz:93601.got - 2010.06.03 11:33:40.
