data_PCOD9149549
_publ_section_title
;
Structure prediction by ZEFSAII (Michael W. Deem and Ramdas Pophale) SiO2 
 PCOD9149549
Probable space group: P 2/M
;
_chemical_formula_sum "Si O2"
_cell_formula_units_Z 22
_cell_length_a 10.960405
_cell_length_b 9.468439
_cell_length_c 11.596992
_cell_angle_alpha 90.000000
_cell_angle_beta 71.339902
_cell_angle_gamma 90.000000
_cell_volume 1140.247173
_symmetry_space_group_name_H-M "P 2/M"
_symmetry_group_IT_number 10
_symmetry_cell_setting 'monoclinic'
loop_
_space_group_symop_operation_xyz
x,y,z
-x,y,-z
-x,-y,-z
x,-y,z
loop_
_atom_site_type_symbol
_atom_site_label
_atom_site_fract_x
_atom_site_fract_y
_atom_site_fract_z
Si Si1 0.722154 0.656927 0.095487
Si Si2 0.817765 0.832098 0.265850
Si Si3 0.500000 0.751677 0.000000
Si Si4 0.295106 0.162238 0.244686
Si Si5 0.627030 0.829477 0.526218
Si Si6 0.915521 0.333676 0.828137
O O1 0.732127 0.500000 0.143885
O O2 0.725603 0.775397 0.191932
O O3 0.596515 0.665959 0.053179
O O4 0.843189 0.678647 0.973213
O O5 0.749074 0.801200 0.408028
O O6 0.950586 0.748507 0.213149
O O7 0.836590 0.000000 0.249853
O O8 0.406552 0.835310 0.114387
O O9 0.350587 0.216494 0.349549
O O10 0.180652 0.260564 0.233704
O O11 0.250082 0.000000 0.272377
O O12 0.500000 0.773779 0.500000
O O13 0.612642 0.000000 0.536768
O O14 0.932372 0.500000 0.800066
#
# Coordination Sequence:
#
# PCOD9149549 Si02
#       6
#     4   4   2   4   4   4
#     4  10  21  37  57  81 113 151 185 223 277 333
#     4  11  22  36  58  84 110 145 188 231 274 323
#     4  10  20  34  60  88 112 142 184 230 276 324
#     4  10  20  36  59  85 113 144 185 232 274 324
#     4   9  19  36  56  81 114 147 178 221 279 333
#     4  10  22  39  57  80 113 149 184 227 281 333
#
# _framework density 19.294063999999999
#
# number of rings (size 3 to 8) (size 9 to 14) (size 15 to 20)
#    0.000    2.000    0.000    3.273    0.000    9.455 
#    0.000    5.455    0.000    3.818    0.000    0.000 
#    0.000    0.000    0.000    0.000    0.000    0.000 
#
# Total GULP energy -122811.430283 kJ/mol
# GULP energy per Si atom -5582.337740 kJ/mol
# Density = 1.925015 g / cm^3
# Si number density = 19.294064 Si / 1000 Ang^3
#
#
#
# Elastic Constant Matrix: (Units=GPa)
#
#
# Indices 1 2 3 4 5 6 
#
# 1 91.9197 30.9504 39.0189 0.0000 6.2171 0.0000
# 2 30.9504 86.0482 40.6359 0.0000 1.5383 0.0000
# 3 39.0189 40.6359 81.3227 0.0000 22.7100 0.0000
# 4 0.0000 0.0000 0.0000 -3.1803 0.0000 5.0035
# 5 6.2171 1.5383 22.7100 0.0000 27.1969 0.0000
# 6 0.0000 0.0000 0.0000 5.0035 0.0000 2.6831
#
#
#
# Elastic Compliance Matrix: (Units=1/GPa)
#
#
# Indices 1 2 3 4 5 6 
#
# 1 0.014135 -0.002139 -0.006317 0.000000 0.002165 0.000000
# 2 -0.002139 0.016683 -0.009367 0.000000 0.007367 0.000000
# 3 -0.006317 -0.009367 0.025374 0.000000 -0.019214 0.000000
# 4 0.000000 0.000000 0.000000 -0.079930 0.000000 0.149056
# 5 0.002165 0.007367 -0.019214 0.000000 0.051901 0.000000
# 6 0.000000 0.000000 0.000000 0.149056 0.000000 0.094744
#
#
# Mechanical properties :
#
#
# Convention : Reuss Voigt Hill
#
# Bulk Modulus (GPa) = 48.67652 53.38899 51.03275
# Shear Modulus (GPa) = 30.22950 15.25230 22.74090
#
# Velocity S-wave (km/s) = 3.96255 2.81467 3.43687
# Velocity P-wave (km/s) = 6.79847 6.18825 6.50052
#
# Compressibility (1/GPa) = 0.02054379
#
# Stress axis : x y z
#
# Youngs Moduli (GPa) = 70.74807 59.94238 39.41044
#
# Poissons Ratio (x) = 0.12824 0.24897
# Poissons Ratio (y) = 0.15136 0.36916
# Poissons Ratio (z) = 0.44695 0.56148
#
# Static dielectric constant tensor:
#      x y z
#    x 1.685830 0.000000 0.010420 
#    y 0.000000 1.653790 0.000000 
#    z 0.010420 0.000000 1.661990 
# 
# From -- ./inp_files/45035.got.cif
#   From: 2010.05.17/outbox.cif.g08.bks.cpg/sg10_23_cif.got.tgz:45035.got - 2010.06.03 11:33:40.
