data_PCOD9149718
_publ_section_title
;
Structure prediction by ZEFSAII (Michael W. Deem and Ramdas Pophale) SiO2 
 PCOD9149718
Probable space group: P 2/M
;
_chemical_formula_sum "Si O2"
_cell_formula_units_Z 18
_cell_length_a 5.063353
_cell_length_b 10.714955
_cell_length_c 14.257281
_cell_angle_alpha 90.000000
_cell_angle_beta 77.497254
_cell_angle_gamma 90.000000
_cell_volume 755.165542
_symmetry_space_group_name_H-M "P 2/M"
_symmetry_group_IT_number 10
_symmetry_cell_setting 'monoclinic'
loop_
_space_group_symop_operation_xyz
x,y,z
-x,y,-z
-x,-y,-z
x,-y,z
loop_
_atom_site_type_symbol
_atom_site_label
_atom_site_fract_x
_atom_site_fract_y
_atom_site_fract_z
Si Si1 0.205016 0.500000 0.569775
Si Si2 0.218254 0.349764 0.057900
Si Si3 0.805990 0.639765 0.242491
Si Si4 0.143473 0.854170 0.579355
Si Si5 0.567466 0.143517 0.700448
O O1 0.500000 0.500000 0.500000
O O2 0.000000 0.500000 0.500000
O O3 0.166217 0.613556 0.647240
O O4 0.236361 0.500000 0.049792
O O5 0.084271 0.329424 0.169356
O O6 0.500000 0.297261 0.000000
O O7 0.000000 0.305471 0.000000
O O8 0.716473 0.500000 0.214810
O O9 0.589052 0.745502 0.235236
O O10 0.891160 0.849356 0.672220
O O11 0.000000 0.790845 0.500000
O O12 0.432191 0.832365 0.607348
O O13 0.174598 0.000000 0.552200
O O14 0.495822 0.000000 0.731550
#
# Coordination Sequence:
#
# PCOD9149718 Si02
#       5
#     2   4   4   4   4
#     4  10  24  40  54  80 120 158 186 220 278 346
#     4   9  18  34  58  86 109 138 188 243 287 332
#     4   9  22  41  58  87 116 158 188 237 289 346
#     4   9  18  32  51  75 103 140 193 246 278 312
#     4  10  20  35  55  79 108 146 191 235 281 333
#
# _framework density 23.835832
#
# number of rings (size 3 to 8) (size 9 to 14) (size 15 to 20)
#    0.667    2.000    0.000    0.667    0.000   10.667 
#    0.000    0.000    0.000    1.333    0.000    0.000 
#    0.000    0.000    0.000    0.000    0.000    0.000 
#
# Total GULP energy -100278.445871 kJ/mol
# GULP energy per Si atom -5571.024771 kJ/mol
# Density = 2.378158 g / cm^3
# Si number density = 23.835832 Si / 1000 Ang^3
#
#
#
# Elastic Constant Matrix: (Units=GPa)
#
#
# Indices 1 2 3 4 5 6 
#
# 1 149.3108 9.3921 65.5417 0.0000 -29.9572 0.0000
# 2 9.3921 108.9682 30.2853 0.0000 -10.2582 0.0000
# 3 65.5417 30.2853 157.4619 0.0000 -22.5441 0.0000
# 4 0.0000 0.0000 0.0000 23.2443 0.0000 -10.7602
# 5 -29.9572 -10.2582 -22.5441 0.0000 36.2812 0.0000
# 6 0.0000 0.0000 0.0000 -10.7602 0.0000 14.0083
#
#
#
# Elastic Compliance Matrix: (Units=1/GPa)
#
#
# Indices 1 2 3 4 5 6 
#
# 1 0.009195 0.000621 -0.003111 0.000000 0.005834 0.000000
# 2 0.000621 0.009838 -0.001843 0.000000 0.002150 0.000000
# 3 -0.003111 -0.001843 0.008296 0.000000 0.002065 0.000000
# 4 0.000000 0.000000 0.000000 0.066760 0.000000 0.051280
# 5 0.005834 0.002150 0.002065 0.000000 0.034271 0.000000
# 6 0.000000 0.000000 0.000000 0.051280 0.000000 0.110776
#
#
# Mechanical properties :
#
#
# Convention : Reuss Voigt Hill
#
# Bulk Modulus (GPa) = 53.58311 69.57546 61.57928
# Shear Modulus (GPa) = 19.68330 35.40822 27.54576
#
# Velocity S-wave (km/s) = 2.87677 3.85840 3.40317
# Velocity P-wave (km/s) = 5.79338 7.00732 6.42907
#
# Compressibility (1/GPa) = 0.01866260
#
# Stress axis : x y z
#
# Youngs Moduli (GPa) = 108.75796 101.64636 120.54114
#
# Poissons Ratio (x) = -0.06317 0.37505
# Poissons Ratio (y) = -0.06759 0.22217
# Poissons Ratio (z) = 0.33839 0.18735
#
# Static dielectric constant tensor:
#      x y z
#    x 1.934330 0.000000 0.123140 
#    y 0.000000 2.048630 0.000000 
#    z 0.123140 0.000000 2.303700 
# 
# From -- ./inp_files/73134.got.cif
#   From: 2010.05.17/outbox.cif.g08.bks.cpg/sg10_37_cif.got.tgz:73134.got - 2010.06.03 11:33:40.
