data_PCOD9149676
_publ_section_title
;
Structure prediction by ZEFSAII (Michael W. Deem and Ramdas Pophale) SiO2 
 PCOD9149676
Probable space group: P 2/M
;
_chemical_formula_sum "Si O2"
_cell_formula_units_Z 24
_cell_length_a 21.908030
_cell_length_b 7.681249
_cell_length_c 9.215049
_cell_angle_alpha 90.000000
_cell_angle_beta 48.838814
_cell_angle_gamma 90.000000
_cell_volume 1167.475009
_symmetry_space_group_name_H-M "P 2/M"
_symmetry_group_IT_number 10
_symmetry_cell_setting 'monoclinic'
loop_
_space_group_symop_operation_xyz
x,y,z
-x,y,-z
-x,-y,-z
x,-y,z
loop_
_atom_site_type_symbol
_atom_site_label
_atom_site_fract_x
_atom_site_fract_y
_atom_site_fract_z
Si Si1 0.744269 0.703020 0.693790
Si Si2 0.906935 0.709269 0.807896
Si Si3 0.268454 0.202077 0.952646
Si Si4 0.918896 0.711908 0.445555
Si Si5 0.575057 0.705966 0.474361
Si Si6 0.417322 0.714020 0.208608
O O1 0.747496 0.500000 0.647327
O O2 0.833519 0.777300 0.515909
O O3 0.664168 0.776378 0.744146
O O4 0.735043 0.711200 0.882870
O O5 0.904659 0.500000 0.823251
O O6 0.913889 0.752403 0.625381
O O7 0.991852 0.770578 0.745207
O O8 0.818601 0.775272 0.989487
O O9 0.341823 0.271931 0.742617
O O10 0.282123 0.000000 0.958113
O O11 0.918760 0.500000 0.435155
O O12 0.500000 0.779986 0.500000
O O13 0.559512 0.500000 0.515305
O O14 0.581398 0.774509 0.627357
O O15 0.416148 0.500000 0.206616
O O16 0.500000 0.767262 0.000000
#
# Coordination Sequence:
#
# PCOD9149676 Si02
#       6
#     4   4   4   4   4   4
#     4   9  16  30  51  73  99 128 161 202 245 286
#     4   8  13  25  44  66  93 125 162 200 240 280
#     4  11  21  31  46  72 103 132 163 196 236 284
#     4   7  11  21  42  69  93 121 157 200 243 279
#     4  10  20  35  55  75  96 125 160 197 240 288
#     4   9  17  30  52  79  98 117 154 201 244 288
#
# _framework density 20.557185
#
# number of rings (size 3 to 8) (size 9 to 14) (size 15 to 20)
#    0.000    3.000    0.000    4.500    0.000    3.000 
#    0.000    7.500    0.000    3.000    0.000    7.000 
#    0.000    0.000    0.000    0.000    0.000    0.000 
#
# Total GULP energy -133699.771130 kJ/mol
# GULP energy per Si atom -5570.823797 kJ/mol
# Density = 2.051040 g / cm^3
# Si number density = 20.557185 Si / 1000 Ang^3
#
#
#
# Elastic Constant Matrix: (Units=GPa)
#
#
# Indices 1 2 3 4 5 6 
#
# 1 190.9181 -0.1324 87.2611 0.0000 -43.4712 0.0000
# 2 -0.1324 22.7362 -27.3287 0.0000 19.0028 0.0000
# 3 87.2611 -27.3287 80.8551 0.0000 -3.3484 0.0000
# 4 0.0000 0.0000 0.0000 -71.7084 0.0000 44.0147
# 5 -43.4712 19.0028 -3.3484 0.0000 -15.0913 0.0000
# 6 0.0000 0.0000 0.0000 44.0147 0.0000 -40.4930
#
#
#
# Elastic Compliance Matrix: (Units=1/GPa)
#
#
# Indices 1 2 3 4 5 6 
#
# 1 0.005201 0.002627 -0.005162 0.000000 -0.010530 0.000000
# 2 0.002627 0.030338 0.008609 0.000000 0.028725 0.000000
# 3 -0.005162 0.008609 0.021713 0.000000 0.020891 0.000000
# 4 0.000000 0.000000 0.000000 -0.041901 0.000000 -0.045545
# 5 -0.010530 0.028725 0.020891 0.000000 -0.004398 0.000000
# 6 0.000000 0.000000 0.000000 -0.045545 0.000000 -0.074202
#
#
# Mechanical properties :
#
#
# Convention : Reuss Voigt Hill
#
# Bulk Modulus (GPa) = 14.40918 46.01213 30.21066
# Shear Modulus (GPa) = -95.67030 -9.81125 -52.74078
#
# Velocity S-wave (km/s) = -6.82932 -2.18701 -5.07063
# Velocity P-wave (km/s) = 7.42709 4.00671 4.42199
#
# Compressibility (1/GPa) = 0.06940022
#
# Stress axis : x y z
#
# Youngs Moduli (GPa) = 192.26119 32.96211 46.05500
#
# Poissons Ratio (x) = -0.08658 0.23772
# Poissons Ratio (y) = -0.50503 -0.39648
# Poissons Ratio (z) = 0.99237 -0.28376
#
# Static dielectric constant tensor:
#      x y z
#    x 1.777450 0.000000 -0.036930 
#    y 0.000000 1.744270 0.000000 
#    z -0.036930 0.000000 1.721510 
# 
# From -- ./inp_files/33795.got.cif
#   From: 2010.05.17/outbox.cif.g08.bks.cpg/sg10_17_cif.got.tgz:33795.got - 2010.06.03 11:33:40.
