data_PCOD9149369
_publ_section_title
;
Structure prediction by ZEFSAII (Michael W. Deem and Ramdas Pophale) SiO2 
 PCOD9149369
Probable space group: P 2/M
;
_chemical_formula_sum "Si O2"
_cell_formula_units_Z 32
_cell_length_a 15.393174
_cell_length_b 8.929502
_cell_length_c 22.931819
_cell_angle_alpha 90.000000
_cell_angle_beta 31.610346
_cell_angle_gamma 90.000000
_cell_volume 1652.117664
_symmetry_space_group_name_H-M "P 2/M"
_symmetry_group_IT_number 10
_symmetry_cell_setting 'monoclinic'
loop_
_space_group_symop_operation_xyz
x,y,z
-x,y,-z
-x,-y,-z
x,-y,z
loop_
_atom_site_type_symbol
_atom_site_label
_atom_site_fract_x
_atom_site_fract_y
_atom_site_fract_z
Si Si1 0.127188 0.178348 0.278465
Si Si2 0.831116 0.179773 0.130266
Si Si3 0.052890 0.823941 0.808605
Si Si4 0.560956 0.319795 0.840890
Si Si5 0.771202 0.321653 0.501354
Si Si6 0.768267 0.321928 0.903888
Si Si7 0.515778 0.679926 0.247102
Si Si8 0.344741 0.824090 0.548804
O O1 0.270123 0.238379 0.239232
O O2 0.175039 0.239178 0.186963
O O3 0.948521 0.241852 0.398722
O O4 0.121576 0.000000 0.280368
O O5 0.857863 0.222127 0.182546
O O6 0.672607 0.251153 0.190356
O O7 0.812428 0.000000 0.138714
O O8 0.000000 0.219917 0.000000
O O9 0.181701 0.810740 0.681846
O O10 0.892667 0.728186 0.884064
O O11 0.007176 0.000000 0.840442
O O12 0.586814 0.500000 0.826857
O O13 0.497127 0.276832 0.813196
O O14 0.417976 0.285262 0.969680
O O15 0.796078 0.500000 0.487640
O O16 0.653200 0.278934 0.622586
O O17 0.676797 0.272558 0.496461
O O18 0.779327 0.500000 0.888364
O O19 0.530805 0.500000 0.241039
O O20 0.500000 0.780900 0.500000
O O21 0.365242 0.000000 0.521127
#
# Coordination Sequence:
#
# PCOD9149369 Si02
#       8
#     4   4   4   4   4   4   4   4
#     4  12  25  41  63  91 122 157 199 251 310 364
#     4  10  21  37  59  89 125 165 206 248 297 355
#     4  10  20  34  55  85 121 160 198 242 296 353
#     4  10  23  43  64  88 120 158 201 249 307 365
#     4  11  23  40  62  88 121 160 204 251 299 357
#     4  11  22  38  63  92 122 157 198 249 304 365
#     4  10  23  42  63  89 122 162 205 252 303 355
#     4  10  20  35  56  83 117 158 198 242 297 351
#
# _framework density 19.369081000000001
#
# number of rings (size 3 to 8) (size 9 to 14) (size 15 to 20)
#    0.000    1.500    1.250    3.750    0.000    6.500 
#    0.000    2.500    0.000    0.000    0.000    0.000 
#    0.000    0.000    0.000    0.000    0.000    0.000 
#
# Total GULP energy -178920.800753 kJ/mol
# GULP energy per Si atom -5591.275024 kJ/mol
# Density = 1.932500 g / cm^3
# Si number density = 19.369081 Si / 1000 Ang^3
#
#
#
# Elastic Constant Matrix: (Units=GPa)
#
#
# Indices 1 2 3 4 5 6 
#
# 1 80.9482 20.9483 27.5448 0.0000 -5.8137 0.0000
# 2 20.9483 41.8440 38.3596 0.0000 -5.3339 0.0000
# 3 27.5448 38.3596 95.6008 0.0000 -7.9634 0.0000
# 4 0.0000 0.0000 0.0000 20.0525 0.0000 -10.5253
# 5 -5.8137 -5.3339 -7.9634 0.0000 36.8890 0.0000
# 6 0.0000 0.0000 0.0000 -10.5253 0.0000 35.8661
#
#
#
# Elastic Compliance Matrix: (Units=1/GPa)
#
#
# Indices 1 2 3 4 5 6 
#
# 1 0.014471 -0.005325 -0.001942 0.000000 0.001091 0.000000
# 2 -0.005325 0.039945 -0.014340 0.000000 0.001841 0.000000
# 3 -0.001942 -0.014340 0.016879 0.000000 0.001264 0.000000
# 4 0.000000 0.000000 0.000000 0.058949 0.000000 0.017299
# 5 0.001091 0.001841 0.001264 0.000000 0.027819 0.000000
# 6 0.000000 0.000000 0.000000 0.017299 0.000000 0.032958
#
#
# Mechanical properties :
#
#
# Convention : Reuss Voigt Hill
#
# Bulk Modulus (GPa) = 35.61217 43.56649 39.58933
# Shear Modulus (GPa) = 20.52578 27.33086 23.92832
#
# Velocity S-wave (km/s) = 3.25886 3.76048 3.51862
# Velocity P-wave (km/s) = 5.70844 6.43402 6.08206
#
# Compressibility (1/GPa) = 0.02808029
#
# Stress axis : x y z
#
# Youngs Moduli (GPa) = 69.10464 25.03440 59.24569
#
# Poissons Ratio (x) = 0.13332 0.11504
# Poissons Ratio (y) = 0.36801 0.84959
# Poissons Ratio (z) = 0.13418 0.35900
#
# Static dielectric constant tensor:
#      x y z
#    x 1.665350 0.000000 0.009180 
#    y 0.000000 1.651090 0.000000 
#    z 0.009180 0.000000 1.668510 
# 
# From -- ./inp_files/89522.got.cif
#   From: 2010.05.17/outbox.cif.g08.bks.cpg/sg10_45_cif.got.tgz:89522.got - 2010.06.03 11:33:40.
