data_PCOD9149270
_publ_section_title
;
Structure prediction by ZEFSAII (Michael W. Deem and Ramdas Pophale) SiO2 
 PCOD9149270
Probable space group: P 2/M
;
_chemical_formula_sum "Si O2"
_cell_formula_units_Z 32
_cell_length_a 8.144831
_cell_length_b 13.497668
_cell_length_c 23.049919
_cell_angle_alpha 90.000000
_cell_angle_beta 147.824179
_cell_angle_gamma 90.000000
_cell_volume 1349.414705
_symmetry_space_group_name_H-M "P 2/M"
_symmetry_group_IT_number 10
_symmetry_cell_setting 'monoclinic'
loop_
_space_group_symop_operation_xyz
x,y,z
-x,y,-z
-x,-y,-z
x,-y,z
loop_
_atom_site_type_symbol
_atom_site_label
_atom_site_fract_x
_atom_site_fract_y
_atom_site_fract_z
Si Si1 0.285232 0.117088 0.308965
Si Si2 0.086116 0.821723 0.463309
Si Si3 0.930434 0.385727 0.576197
Si Si4 0.332376 0.271380 0.094211
Si Si5 0.221652 0.385106 0.339292
Si Si6 0.507527 0.886968 0.242579
Si Si7 0.297956 0.382619 0.885992
Si Si8 0.566532 0.110266 0.087757
O O1 0.540843 0.173372 0.425056
O O2 0.370631 0.129833 0.266377
O O3 0.921262 0.139153 0.207737
O O4 0.323105 0.000000 0.332719
O O5 0.938500 0.710670 0.416299
O O6 0.000000 0.865718 0.500000
O O7 0.882216 0.882660 0.357247
O O8 0.053141 0.500000 0.609444
O O9 0.587176 0.388943 0.447326
O O10 0.884795 0.348742 0.629114
O O11 0.417523 0.206244 0.175572
O O12 0.551944 0.352514 0.130699
O O13 0.332273 0.185403 0.046051
O O14 0.000000 0.318541 0.000000
O O15 0.128336 0.500000 0.315394
O O16 0.053341 0.347665 0.230862
O O17 0.413327 0.000000 0.197839
O O18 0.296721 0.500000 0.894592
O O19 0.500000 0.341124 0.000000
O O20 0.521072 0.000000 0.096967
O O21 0.500000 0.107985 0.000000
#
# Coordination Sequence:
#
# PCOD9149270 Si02
#       8
#     4   4   4   4   4   4   4   4
#     4   9  19  37  60  84 115 157 202 251 304 364
#     4  10  20  34  54  84 116 157 198 244 299 364
#     4   9  17  31  54  85 118 152 193 241 297 355
#     4  12  25  39  59  89 119 157 199 247 305 362
#     4   8  16  33  57  81 107 148 194 235 289 348
#     4  10  21  39  61  85 120 160 202 249 306 369
#     4  10  22  41  64  89 120 159 203 249 298 355
#     4  10  21  38  60  86 115 151 198 252 305 357
#
# _framework density 23.713985000000001
#
# number of rings (size 3 to 8) (size 9 to 14) (size 15 to 20)
#    0.000    2.250    0.000    3.375    1.750    4.000 
#    2.250    0.000    0.000    3.000    0.000    0.000 
#    0.000    0.000    0.000    0.000    0.000    0.000 
#
# Total GULP energy -178261.856941 kJ/mol
# GULP energy per Si atom -5570.683029 kJ/mol
# Density = 2.366001 g / cm^3
# Si number density = 23.713985 Si / 1000 Ang^3
#
#
#
# Elastic Constant Matrix: (Units=GPa)
#
#
# Indices 1 2 3 4 5 6 
#
# 1 17.0274 -14.4857 3.8538 0.0000 -1.1603 0.0000
# 2 -14.4857 61.1405 -7.4858 0.0000 -20.6179 0.0000
# 3 3.8538 -7.4858 121.1598 0.0000 -0.8526 0.0000
# 4 0.0000 0.0000 0.0000 17.2794 0.0000 -1.5464
# 5 -1.1603 -20.6179 -0.8526 0.0000 20.8170 0.0000
# 6 0.0000 0.0000 0.0000 -1.5464 0.0000 28.3340
#
#
#
# Elastic Compliance Matrix: (Units=1/GPa)
#
#
# Indices 1 2 3 4 5 6 
#
# 1 0.091271 0.034950 -0.000465 0.000000 0.039684 0.000000
# 2 0.034950 0.038291 0.001535 0.000000 0.039936 0.000000
# 3 -0.000465 0.001535 0.008376 0.000000 0.001838 0.000000
# 4 0.000000 0.000000 0.000000 0.058156 0.000000 0.003174
# 5 0.039684 0.039936 0.001838 0.000000 0.089879 0.000000
# 6 0.000000 0.000000 0.000000 0.003174 0.000000 0.035466
#
#
# Mechanical properties :
#
#
# Convention : Reuss Voigt Hill
#
# Bulk Modulus (GPa) = 4.76238 18.12137 11.44188
# Shear Modulus (GPa) = 15.65470 27.78244 21.71857
#
# Velocity S-wave (km/s) = 2.57212 3.42652 3.02959
# Velocity P-wave (km/s) = 3.29146 4.82835 4.13199
#
# Compressibility (1/GPa) = 0.20997889
#
# Stress axis : x y z
#
# Youngs Moduli (GPa) = 10.95639 26.11551 119.38703
#
# Poissons Ratio (x) = -0.91273 0.05546
# Poissons Ratio (y) = -0.38292 -0.18328
# Poissons Ratio (z) = 0.00509 -0.04009
#
# Static dielectric constant tensor:
#      x y z
#    x 1.887090 0.000000 -0.005160 
#    y 0.000000 1.917180 0.000000 
#    z -0.005160 0.000000 2.039750 
# 
# From -- ./inp_files/88295.got.cif
#   From: 2010.05.17/outbox.cif.g08.bks.cpg/sg10_45_cif.got.tgz:88295.got - 2010.06.03 11:33:40.
