data_PCOD9149709
_publ_section_title
;
Structure prediction by ZEFSAII (Michael W. Deem and Ramdas Pophale) SiO2 
 PCOD9149709
Probable space group: P 2/M
;
_chemical_formula_sum "Si O2"
_cell_formula_units_Z 22
_cell_length_a 20.049393
_cell_length_b 7.785264
_cell_length_c 11.226900
_cell_angle_alpha 90.000000
_cell_angle_beta 36.278400
_cell_angle_gamma 90.000000
_cell_volume 1036.914217
_symmetry_space_group_name_H-M "P 2/M"
_symmetry_group_IT_number 10
_symmetry_cell_setting 'monoclinic'
loop_
_space_group_symop_operation_xyz
x,y,z
-x,y,-z
-x,-y,-z
x,-y,z
loop_
_atom_site_type_symbol
_atom_site_label
_atom_site_fract_x
_atom_site_fract_y
_atom_site_fract_z
Si Si1 0.543532 0.705168 0.687552
Si Si2 0.184602 0.000000 0.073952
Si Si3 0.865736 0.313429 0.202900
Si Si4 0.276902 0.706898 0.102198
Si Si5 0.281593 0.293777 0.366806
Si Si6 0.911495 0.000000 0.013687
Si Si7 0.385596 0.000000 0.591653
O O1 0.559976 0.500000 0.643241
O O2 0.603663 0.749280 0.727585
O O3 0.602992 0.830483 0.508196
O O4 0.409387 0.732926 0.881182
O O5 0.200623 0.170914 0.130059
O O6 0.072463 0.000000 0.151048
O O7 0.288841 0.000000 0.830718
O O8 0.814654 0.500000 0.253896
O O9 0.820597 0.251375 0.395649
O O10 0.842537 0.170991 0.140167
O O11 0.000000 0.334146 0.000000
O O12 0.253456 0.500000 0.125281
O O13 0.266466 0.767049 0.254812
O O14 0.282704 0.500000 0.354059
O O15 0.000000 0.000000 0.000000
O O16 0.500000 0.000000 0.500000
#
# Coordination Sequence:
#
# PCOD9149709 Si02
#       7
#     4   2   4   4   4   2   2
#     4  10  20  35  55  78 112 157 194 231 272 318
#     4  12  24  38  55  82 116 151 188 228 283 340
#     4   9  18  35  60  86 108 135 179 238 290 327
#     4  10  21  36  54  80 118 155 185 226 274 333
#     4   9  18  34  57  85 112 147 195 231 272 332
#     4  10  22  39  60  83 106 139 188 238 281 332
#     4  12  22  35  49  79 118 151 193 234 268 333
#
# _framework density 21.216799999999999
#
# number of rings (size 3 to 8) (size 9 to 14) (size 15 to 20)
#    0.000    2.000    1.818    1.636    0.000    5.455 
#    0.000    1.818    0.000    8.727    0.000   16.545 
#    0.000    0.000    0.000    0.000    0.000    0.000 
#
# Total GULP energy -122504.990141 kJ/mol
# GULP energy per Si atom -5568.408643 kJ/mol
# Density = 2.116851 g / cm^3
# Si number density = 21.216800 Si / 1000 Ang^3
#
#
#
# Elastic Constant Matrix: (Units=GPa)
#
#
# Indices 1 2 3 4 5 6 
#
# 1 124.1983 30.8695 9.2316 0.0000 22.1562 0.0000
# 2 30.8695 102.7015 11.2103 0.0000 26.2991 0.0000
# 3 9.2316 11.2103 21.6815 0.0000 9.5677 0.0000
# 4 0.0000 0.0000 0.0000 12.1090 0.0000 29.9161
# 5 22.1562 26.2991 9.5677 0.0000 40.6270 0.0000
# 6 0.0000 0.0000 0.0000 29.9161 0.0000 12.9659
#
#
#
# Elastic Compliance Matrix: (Units=1/GPa)
#
#
# Indices 1 2 3 4 5 6 
#
# 1 0.009221 -0.001693 -0.001468 0.000000 -0.003587 0.000000
# 2 -0.001693 0.012162 -0.002791 0.000000 -0.006292 0.000000
# 3 -0.001468 -0.002791 0.052495 0.000000 -0.009756 0.000000
# 4 0.000000 0.000000 0.000000 -0.017570 0.000000 0.040538
# 5 -0.003587 -0.006292 -0.009756 0.000000 0.032941 0.000000
# 6 0.000000 0.000000 0.000000 0.040538 0.000000 -0.016409
#
#
# Mechanical properties :
#
#
# Convention : Reuss Voigt Hill
#
# Bulk Modulus (GPa) = 16.13547 39.02268 27.57908
# Shear Modulus (GPa) = 47.43712 26.29171 36.86441
#
# Velocity S-wave (km/s) = 4.73358 3.52404 4.17287
# Velocity P-wave (km/s) = 6.12350 5.91530 6.02030
#
# Compressibility (1/GPa) = 0.06197525
#
# Stress axis : x y z
#
# Youngs Moduli (GPa) = 108.44226 82.22552 19.04939
#
# Poissons Ratio (x) = 0.13920 0.02796
# Poissons Ratio (y) = 0.18358 0.05316
# Poissons Ratio (z) = 0.15919 0.22947
#
# Static dielectric constant tensor:
#      x y z
#    x 1.943220 0.000000 -0.075500 
#    y 0.000000 1.814700 0.000000 
#    z -0.075500 0.000000 1.813300 
# 
# From -- ./inp_files/31486.got.cif
#   From: 2010.05.17/outbox.cif.g08.bks.cpg/sg10_16_cif.got.tgz:31486.got - 2010.06.03 11:33:40.
