data_PCOD9149482
_publ_section_title
;
Structure prediction by ZEFSAII (Michael W. Deem and Ramdas Pophale) SiO2 
 PCOD9149482
Probable space group: P 2/M
;
_chemical_formula_sum "Si O2"
_cell_formula_units_Z 28
_cell_length_a 9.284494
_cell_length_b 32.131963
_cell_length_c 5.038928
_cell_angle_alpha 90.000000
_cell_angle_beta 60.710484
_cell_angle_gamma 90.000000
_cell_volume 1311.080085
_symmetry_space_group_name_H-M "P 2/M"
_symmetry_group_IT_number 10
_symmetry_cell_setting 'monoclinic'
loop_
_space_group_symop_operation_xyz
x,y,z
-x,y,-z
-x,-y,-z
x,-y,z
loop_
_atom_site_type_symbol
_atom_site_label
_atom_site_fract_x
_atom_site_fract_y
_atom_site_fract_z
Si Si1 0.173287 0.549253 0.696703
Si Si2 0.685708 0.591195 0.941960
Si Si3 0.178065 0.730535 0.693938
Si Si4 0.298431 0.046822 0.164248
Si Si5 0.879906 0.176982 0.357174
Si Si6 0.698533 0.095662 0.341757
Si Si7 0.687637 0.313340 0.931938
O O1 0.184752 0.500000 0.637874
O O2 0.201573 0.572621 0.394713
O O3 0.301974 0.564703 0.801605
O O4 0.000000 0.558037 0.000000
O O5 0.731095 0.639024 0.960648
O O6 0.500000 0.590350 0.000000
O O7 0.205451 0.777794 0.570409
O O8 0.200100 0.702623 0.412770
O O9 0.296451 0.714846 0.821355
O O10 0.000000 0.727902 0.000000
O O11 0.244599 0.060305 0.504089
O O12 0.249059 0.000000 0.136691
O O13 0.500000 0.047167 0.000000
O O14 0.242853 0.081199 0.000940
O O15 0.758101 0.138920 0.411214
O O16 0.000000 0.172462 0.500000
O O17 0.000000 0.177091 0.000000
O O18 0.500000 0.096545 0.500000
O O19 0.500000 0.312140 0.000000
#
# Coordination Sequence:
#
# PCOD9149482 Si02
#       7
#     4   4   4   4   4   4   4
#     4  11  24  41  62  90 123 159 203 251 294 341
#     4  11  24  41  62  90 123 159 198 241 299 362
#     4  11  23  41  63  88 116 157 204 239 288 362
#     4   9  17  31  53  82 114 145 184 238 289 334
#     4  11  23  41  60  82 117 155 189 234 293 348
#     4  10  20  34  57  86 110 144 195 238 280 341
#     4  11  24  41  62  91 124 154 192 249 304 347
#
# _framework density 21.356439000000002
#
# number of rings (size 3 to 8) (size 9 to 14) (size 15 to 20)
#    0.000    1.429    0.000    6.000    0.000   11.429 
#    0.000    1.429    0.000    8.571    0.000    0.000 
#    0.000    0.000    0.000    0.000    0.000    0.000 
#
# Total GULP energy -156486.867287 kJ/mol
# GULP energy per Si atom -5588.816689 kJ/mol
# Density = 2.130783 g / cm^3
# Si number density = 21.356439 Si / 1000 Ang^3
#
#
#
# Elastic Constant Matrix: (Units=GPa)
#
#
# Indices 1 2 3 4 5 6 
#
# 1 77.2113 40.1659 21.8435 0.0000 27.7037 0.0000
# 2 40.1659 88.5136 20.4389 0.0000 -7.1661 0.0000
# 3 21.8435 20.4389 73.7211 0.0000 20.4933 0.0000
# 4 0.0000 0.0000 0.0000 33.8497 0.0000 19.2338
# 5 27.7037 -7.1661 20.4933 0.0000 29.6983 0.0000
# 6 0.0000 0.0000 0.0000 19.2338 0.0000 -13.8161
#
#
#
# Elastic Compliance Matrix: (Units=1/GPa)
#
#
# Indices 1 2 3 4 5 6 
#
# 1 0.042078 -0.025306 0.008856 0.000000 -0.051470 0.000000
# 2 -0.025306 0.028383 -0.010934 0.000000 0.038000 0.000000
# 3 0.008856 -0.010934 0.021037 0.000000 -0.025417 0.000000
# 4 0.000000 0.000000 0.000000 0.016495 0.000000 0.022963
# 5 -0.051470 0.038000 -0.025417 0.000000 0.108393 0.000000
# 6 0.000000 0.000000 0.000000 0.022963 0.000000 -0.040412
#
#
# Mechanical properties :
#
#
# Convention : Reuss Voigt Hill
#
# Bulk Modulus (GPa) = 27.22631 44.92696 36.07664
# Shear Modulus (GPa) = 20.57736 20.41287 20.49512
#
# Velocity S-wave (km/s) = 3.10743 3.09499 3.10121
# Velocity P-wave (km/s) = 5.06468 5.81845 5.45460
#
# Compressibility (1/GPa) = 0.03672917
#
# Stress axis : x y z
#
# Youngs Moduli (GPa) = 23.76535 35.23281 47.53429
#
# Poissons Ratio (x) = 0.89161 -0.42096
# Poissons Ratio (y) = 0.60141 0.51975
# Poissons Ratio (z) = -0.21047 0.38524
#
# Static dielectric constant tensor:
#      x y z
#    x 1.784220 0.000000 -0.028650 
#    y 0.000000 1.795150 0.000000 
#    z -0.028650 0.000000 1.733440 
# 
# From -- ./inp_files/5489.got.cif
#   From: 2010.05.17/outbox.cif.g08.bks.cpg/sg10_3_cif.got.tgz:5489.got - 2010.06.03 11:33:40.
