data_PCOD9149654
_publ_section_title
;
Structure prediction by ZEFSAII (Michael W. Deem and Ramdas Pophale) SiO2 
 PCOD9149654
Probable space group: P 2/M
;
_chemical_formula_sum "Si O2"
_cell_formula_units_Z 32
_cell_length_a 16.819441
_cell_length_b 13.261274
_cell_length_c 9.646787
_cell_angle_alpha 90.000000
_cell_angle_beta 127.386198
_cell_angle_gamma 90.000000
_cell_volume 1709.647951
_symmetry_space_group_name_H-M "P 2/M"
_symmetry_group_IT_number 10
_symmetry_cell_setting 'monoclinic'
loop_
_space_group_symop_operation_xyz
x,y,z
-x,y,-z
-x,-y,-z
x,-y,z
loop_
_atom_site_type_symbol
_atom_site_label
_atom_site_fract_x
_atom_site_fract_y
_atom_site_fract_z
Si Si1 0.411712 0.879141 0.075148
Si Si2 0.748225 0.206999 0.271493
Si Si3 0.640303 0.880317 0.397717
Si Si4 0.078238 0.115974 0.705990
Si Si5 0.899250 0.617979 0.483861
Si Si6 0.896646 0.190382 0.970137
Si Si7 0.318285 0.114690 0.263168
Si Si8 0.893737 0.388712 0.810042
O O1 0.530232 0.870095 0.217243
O O2 0.359522 0.845720 0.163183
O O3 0.392078 0.000000 0.025147
O O4 0.360405 0.805429 0.911072
O O5 0.728654 0.172146 0.406815
O O6 0.815189 0.129078 0.254708
O O7 0.810507 0.309806 0.337380
O O8 0.639308 0.838804 0.552238
O O9 0.662669 0.000000 0.423643
O O10 0.000000 0.137692 0.500000
O O11 0.062597 0.000000 0.734769
O O12 0.075415 0.187914 0.836965
O O13 0.875482 0.500000 0.438657
O O14 0.909071 0.632709 0.661871
O O15 0.000000 0.637024 0.500000
O O16 0.801853 0.116991 0.858934
O O17 0.853487 0.293090 0.853835
O O18 0.000000 0.165055 0.000000
O O19 0.355446 0.000000 0.302015
O O20 0.844242 0.500000 0.768817
O O21 0.000000 0.398008 0.000000
#
# Coordination Sequence:
#
# PCOD9149654 Si02
#       8
#     4   4   4   4   4   4   4   4
#     4  10  20  37  57  81 115 152 194 246 297 344
#     4  12  22  35  59  83 112 149 193 238 290 343
#     4  10  21  35  57  85 112 149 198 246 295 350
#     4  11  25  39  52  77 119 163 194 230 281 346
#     4  10  23  41  62  88 118 152 193 242 296 355
#     4  11  23  36  56  81 113 155 195 236 292 351
#     4  10  20  35  54  79 112 152 195 238 282 342
#     4   9  20  37  57  81 108 141 187 241 290 332
#
# _framework density 18.717303000000001
#
# number of rings (size 3 to 8) (size 9 to 14) (size 15 to 20)
#    0.000    1.625    1.250    3.375    8.750    3.500 
#    0.000    0.000    0.000    1.875    0.000    0.000 
#    0.000    5.000    0.000    0.000    0.000    0.000 
#
# Total GULP energy -178276.419242 kJ/mol
# GULP energy per Si atom -5571.138101 kJ/mol
# Density = 1.867470 g / cm^3
# Si number density = 18.717303 Si / 1000 Ang^3
#
#
#
# Elastic Constant Matrix: (Units=GPa)
#
#
# Indices 1 2 3 4 5 6 
#
# 1 76.9683 29.1462 33.9639 0.0000 -13.3336 0.0000
# 2 29.1462 90.3472 37.6211 0.0000 -7.5606 0.0000
# 3 33.9639 37.6211 104.2533 0.0000 -15.7829 0.0000
# 4 0.0000 0.0000 0.0000 23.4828 0.0000 -1.4781
# 5 -13.3336 -7.5606 -15.7829 0.0000 35.1635 0.0000
# 6 0.0000 0.0000 0.0000 -1.4781 0.0000 19.3241
#
#
#
# Elastic Compliance Matrix: (Units=1/GPa)
#
#
# Indices 1 2 3 4 5 6 
#
# 1 0.016573 -0.003550 -0.003522 0.000000 0.003940 0.000000
# 2 -0.003550 0.013804 -0.003840 0.000000 -0.000102 0.000000
# 3 -0.003522 -0.003840 0.012658 0.000000 0.003520 0.000000
# 4 0.000000 0.000000 0.000000 0.042790 0.000000 0.003273
# 5 0.003940 -0.000102 0.003520 0.000000 0.031491 0.000000
# 6 0.000000 0.000000 0.000000 0.003273 0.000000 0.051999
#
#
# Mechanical properties :
#
#
# Convention : Reuss Voigt Hill
#
# Bulk Modulus (GPa) = 47.14457 52.55899 49.85178
# Shear Modulus (GPa) = 25.22559 26.98326 26.10442
#
# Velocity S-wave (km/s) = 3.67511 3.80099 3.73858
# Velocity P-wave (km/s) = 6.57654 6.88511 6.73259
#
# Compressibility (1/GPa) = 0.02121135
#
# Stress axis : x y z
#
# Youngs Moduli (GPa) = 60.33755 72.44085 79.00130
#
# Poissons Ratio (x) = 0.25720 0.27821
# Poissons Ratio (y) = 0.21423 0.30338
# Poissons Ratio (z) = 0.21248 0.27819
#
# Static dielectric constant tensor:
#      x y z
#    x 1.653570 0.000000 -0.023650 
#    y 0.000000 1.696310 0.000000 
#    z -0.023650 0.000000 1.732680 
# 
# From -- ./inp_files/29573.got.cif
#   From: 2010.05.17/outbox.cif.g08.bks.cpg/sg10_15_cif.got.tgz:29573.got - 2010.06.03 11:33:40.
