data_PCOD9149601
_publ_section_title
;
Structure prediction by ZEFSAII (Michael W. Deem and Ramdas Pophale) SiO2 
 PCOD9149601
Probable space group: P 2/M
;
_chemical_formula_sum "Si O2"
_cell_formula_units_Z 24
_cell_length_a 24.062506
_cell_length_b 7.685593
_cell_length_c 17.210557
_cell_angle_alpha 90.000000
_cell_angle_beta 22.727563
_cell_angle_gamma 90.000000
_cell_volume 1229.684938
_symmetry_space_group_name_H-M "P 2/M"
_symmetry_group_IT_number 10
_symmetry_cell_setting 'monoclinic'
loop_
_space_group_symop_operation_xyz
x,y,z
-x,y,-z
-x,-y,-z
x,-y,z
loop_
_atom_site_type_symbol
_atom_site_label
_atom_site_fract_x
_atom_site_fract_y
_atom_site_fract_z
Si Si1 0.834136 0.286674 0.720147
Si Si2 0.207659 0.701231 0.057000
Si Si3 0.340184 0.713638 0.728146
Si Si4 0.336130 0.290069 0.212483
Si Si5 0.918013 0.202731 0.351694
Si Si6 0.051805 0.709384 0.016915
O O1 0.831828 0.500000 0.723895
O O2 0.776765 0.223507 0.877360
O O3 0.745889 0.228590 0.759173
O O4 0.000000 0.234485 0.500000
O O5 0.251919 0.500000 0.005697
O O6 0.040509 0.704495 0.245728
O O7 0.295528 0.776530 0.871547
O O8 0.500000 0.768335 0.500000
O O9 0.337850 0.500000 0.731579
O O10 0.211457 0.769061 0.836673
O O11 0.339862 0.500000 0.205087
O O12 0.238741 0.242680 0.412187
O O13 0.500000 0.226971 0.000000
O O14 0.947071 0.249097 0.224417
O O15 0.946301 0.000000 0.324564
O O16 0.057972 0.500000 0.004050
O O17 0.000000 0.775808 0.000000
#
# Coordination Sequence:
#
# PCOD9149601 Si02
#       6
#     4   4   4   4   4   4
#     4   9  15  27  51  76  97 125 165 212 252 292
#     4   9  16  30  52  73  98 131 171 210 250 299
#     4   8  14  26  46  74 102 124 151 200 257 297
#     4  10  20  35  53  76 104 134 171 214 260 304
#     4  11  21  33  52  75 103 138 173 207 255 309
#     4   9  18  34  55  77  99 129 171 215 253 297
#
# _framework density 19.517194
#
# number of rings (size 3 to 8) (size 9 to 14) (size 15 to 20)
#    0.000    2.667    1.667    2.500    0.000    0.667 
#    3.000    1.667    0.000    8.000    0.000    0.000 
#    0.000    0.000    0.000    0.000    0.000    0.000 
#
# Total GULP energy -133841.643108 kJ/mol
# GULP energy per Si atom -5576.735129 kJ/mol
# Density = 1.947277 g / cm^3
# Si number density = 19.517194 Si / 1000 Ang^3
#
#
#
# Elastic Constant Matrix: (Units=GPa)
#
#
# Indices 1 2 3 4 5 6 
#
# 1 171.2623 7.4569 99.0912 0.0000 10.6322 0.0000
# 2 7.4569 37.6432 0.2270 0.0000 -1.8688 0.0000
# 3 99.0912 0.2270 181.8175 0.0000 7.2494 0.0000
# 4 0.0000 0.0000 0.0000 -15.0558 0.0000 -9.4880
# 5 10.6322 -1.8688 7.2494 0.0000 21.6513 0.0000
# 6 0.0000 0.0000 0.0000 -9.4880 0.0000 -29.0646
#
#
#
# Elastic Compliance Matrix: (Units=1/GPa)
#
#
# Indices 1 2 3 4 5 6 
#
# 1 0.008811 -0.001862 -0.004683 0.000000 -0.002919 0.000000
# 2 -0.001862 0.027076 0.000863 0.000000 0.002963 0.000000
# 3 -0.004683 0.000863 0.008064 0.000000 -0.000326 0.000000
# 4 0.000000 0.000000 0.000000 -0.083623 0.000000 0.027298
# 5 -0.002919 0.002963 -0.000326 0.000000 0.047985 0.000000
# 6 0.000000 0.000000 0.000000 0.027298 0.000000 -0.043318
#
#
# Mechanical properties :
#
#
# Convention : Reuss Voigt Hill
#
# Bulk Modulus (GPa) = 30.68768 67.14147 48.91458
# Shear Modulus (GPa) = -391.33097 14.43604 -188.44746
#
# Velocity S-wave (km/s) = -14.17537 2.72262 -9.83688
# Velocity P-wave (km/s) = 15.87967 6.66028 10.19324
#
# Compressibility (1/GPa) = 0.03258636
#
# Stress axis : x y z
#
# Youngs Moduli (GPa) = 113.49363 36.93314 124.00221
#
# Poissons Ratio (x) = 0.06877 0.58074
# Poissons Ratio (y) = 0.21134 -0.10701
# Poissons Ratio (z) = 0.53153 -0.03187
#
# Static dielectric constant tensor:
#      x y z
#    x 1.683360 0.000000 0.014930 
#    y 0.000000 1.696340 0.000000 
#    z 0.014930 0.000000 1.667820 
# 
# From -- ./inp_files/80045.got.cif
#   From: 2010.05.17/outbox.cif.g08.bks.cpg/sg10_41_cif.got.tgz:80045.got - 2010.06.03 11:33:40.
