data_PCOD9149496
_publ_section_title
;
Structure prediction by ZEFSAII (Michael W. Deem and Ramdas Pophale) SiO2 
 PCOD9149496
Probable space group: P 2/M
;
_chemical_formula_sum "Si O2"
_cell_formula_units_Z 32
_cell_length_a 12.403411
_cell_length_b 8.792298
_cell_length_c 16.499290
_cell_angle_alpha 90.000000
_cell_angle_beta 88.807868
_cell_angle_gamma 90.000000
_cell_volume 1798.932123
_symmetry_space_group_name_H-M "P 2/M"
_symmetry_group_IT_number 10
_symmetry_cell_setting 'monoclinic'
loop_
_space_group_symop_operation_xyz
x,y,z
-x,y,-z
-x,-y,-z
x,-y,z
loop_
_atom_site_type_symbol
_atom_site_label
_atom_site_fract_x
_atom_site_fract_y
_atom_site_fract_z
Si Si1 0.640095 0.180872 0.210987
Si Si2 0.853024 0.680996 0.284902
Si Si3 0.726828 0.817628 0.877724
Si Si4 0.120427 0.317288 0.525968
Si Si5 0.755769 0.818701 0.621859
Si Si6 0.076413 0.818740 0.237018
Si Si7 0.419138 0.318509 0.263507
Si Si8 0.620150 0.681203 0.032730
O O1 0.752379 0.233958 0.247407
O O2 0.539966 0.255882 0.259903
O O3 0.633352 0.239635 0.118819
O O4 0.629741 0.000000 0.213088
O O5 0.838147 0.500000 0.277806
O O6 0.862948 0.719398 0.380174
O O7 0.965025 0.730224 0.241900
O O8 0.845148 0.784055 0.839690
O O9 0.642167 0.749550 0.814250
O O10 0.713681 0.000000 0.879804
O O11 0.702144 0.746469 0.964882
O O12 0.128528 0.500000 0.516040
O O13 0.205961 0.238318 0.465794
O O14 0.000000 0.271587 0.500000
O O15 0.852051 0.782393 0.684282
O O16 0.649960 0.737757 0.658700
O O17 0.740217 0.000000 0.623769
O O18 0.055702 0.000000 0.238003
O O19 0.418873 0.500000 0.258286
O O20 0.632915 0.500000 0.041448
O O21 0.500000 0.710232 0.000000
#
# Coordination Sequence:
#
# PCOD9149496 Si02
#       8
#     4   4   4   4   4   4   4   4
#     4  12  25  41  61  84 118 157 195 240 292 350
#     4  11  23  39  60  85 119 157 196 238 289 351
#     4  10  20  35  58  89 120 152 192 241 291 341
#     4  10  20  36  58  88 119 153 195 242 292 345
#     4  10  20  34  57  88 119 152 193 243 292 342
#     4   9  19  35  55  84 119 153 192 235 287 343
#     4  11  21  36  58  85 118 153 193 240 291 347
#     4  11  22  37  60  90 119 151 194 243 290 343
#
# _framework density 17.788329999999998
#
# number of rings (size 3 to 8) (size 9 to 14) (size 15 to 20)
#    0.000    1.500    2.500    4.500    0.000    4.250 
#    0.000    1.250    0.000    7.500    0.000    0.000 
#    0.000    0.000    0.000    0.000    0.000    0.000 
#
# Total GULP energy -178818.587400 kJ/mol
# GULP energy per Si atom -5588.080856 kJ/mol
# Density = 1.774784 g / cm^3
# Si number density = 17.788330 Si / 1000 Ang^3
#
#
#
# Elastic Constant Matrix: (Units=GPa)
#
#
# Indices 1 2 3 4 5 6 
#
# 1 118.2143 63.6016 53.1811 0.0000 -15.5207 0.0000
# 2 63.6016 85.8550 46.3174 0.0000 -4.6032 0.0000
# 3 53.1811 46.3174 77.1922 0.0000 -14.5597 0.0000
# 4 0.0000 0.0000 0.0000 6.0601 0.0000 -32.0003
# 5 -15.5207 -4.6032 -14.5597 0.0000 29.1479 0.0000
# 6 0.0000 0.0000 0.0000 -32.0003 0.0000 4.0406
#
#
#
# Elastic Compliance Matrix: (Units=1/GPa)
#
#
# Indices 1 2 3 4 5 6 
#
# 1 0.016134 -0.009147 -0.004724 0.000000 0.004787 0.000000
# 2 -0.009147 0.022602 -0.008286 0.000000 -0.005440 0.000000
# 3 -0.004724 -0.008286 0.022588 0.000000 0.007459 0.000000
# 4 0.000000 0.000000 0.000000 -0.004043 0.000000 -0.032015
# 5 0.004787 -0.005440 0.007459 0.000000 0.039723 0.000000
# 6 0.000000 0.000000 0.000000 -0.032015 0.000000 -0.006063
#
#
# Mechanical properties :
#
#
# Convention : Reuss Voigt Hill
#
# Bulk Modulus (GPa) = 58.79007 67.49575 63.14291
# Shear Modulus (GPa) = 35.47906 15.72715 25.60310
#
# Velocity S-wave (km/s) = 4.47084 2.97665 3.79795
# Velocity P-wave (km/s) = 7.73129 7.05976 7.40314
#
# Compressibility (1/GPa) = 0.01700968
#
# Stress axis : x y z
#
# Youngs Moduli (GPa) = 61.97995 44.24315 44.27050
#
# Poissons Ratio (x) = 0.40469 0.20915
# Poissons Ratio (y) = 0.56693 0.36684
# Poissons Ratio (z) = 0.29281 0.36662
#
# Static dielectric constant tensor:
#      x y z
#    x 1.590810 0.000000 -0.010700 
#    y 0.000000 1.591640 0.000000 
#    z -0.010700 0.000000 1.591120 
# 
# From -- ./inp_files/63801.got.cif
#   From: 2010.05.17/outbox.cif.g08.bks.cpg/sg10_32_cif.got.tgz:63801.got - 2010.06.03 11:33:40.
