data_PCOD9149859
_publ_section_title
;
Structure prediction by ZEFSAII (Michael W. Deem and Ramdas Pophale) SiO2 
 PCOD9149859
Probable space group: P 2/M
;
_chemical_formula_sum "Si O2"
_cell_formula_units_Z 32
_cell_length_a 12.841080
_cell_length_b 8.649705
_cell_length_c 14.671446
_cell_angle_alpha 90.000000
_cell_angle_beta 84.836211
_cell_angle_gamma 90.000000
_cell_volume 1622.966620
_symmetry_space_group_name_H-M "P 2/M"
_symmetry_group_IT_number 10
_symmetry_cell_setting 'monoclinic'
loop_
_space_group_symop_operation_xyz
x,y,z
-x,y,-z
-x,-y,-z
x,-y,z
loop_
_atom_site_type_symbol
_atom_site_label
_atom_site_fract_x
_atom_site_fract_y
_atom_site_fract_z
Si Si1 0.960765 0.688770 0.404073
Si Si2 0.869869 0.684584 0.758912
Si Si3 0.500330 0.682069 0.108220
Si Si4 0.753230 0.686556 0.324247
Si Si5 0.647050 0.182985 0.736651
Si Si6 0.107953 0.815194 0.039490
Si Si7 0.261534 0.314149 0.877810
Si Si8 0.526987 0.813407 0.395072
O O1 0.960796 0.500000 0.405307
O O2 0.843814 0.737952 0.386155
O O3 0.000000 0.741017 0.500000
O O4 0.039802 0.737059 0.317757
O O5 0.875038 0.500000 0.765007
O O6 0.757880 0.733671 0.727865
O O7 0.882468 0.751199 0.859311
O O8 0.483403 0.500000 0.130644
O O9 0.411478 0.779421 0.164253
O O10 0.615830 0.726949 0.132557
O O11 0.500000 0.699459 0.000000
O O12 0.747684 0.500000 0.326561
O O13 0.782841 0.729880 0.217847
O O14 0.639491 0.750185 0.357158
O O15 0.565615 0.236961 0.665550
O O16 0.663308 0.000000 0.725846
O O17 0.108152 0.000000 0.043940
O O18 0.201266 0.760176 0.966555
O O19 0.000000 0.763151 0.000000
O O20 0.255203 0.500000 0.888494
O O21 0.500000 0.766257 0.500000
O O22 0.531086 0.000000 0.390893
#
# Coordination Sequence:
#
# PCOD9149859 Si02
#       8
#     4   4   4   4   4   4   4   4
#     4   9  20  38  60  89 120 151 193 249 305 353
#     4  11  23  40  64  90 122 162 202 249 305 360
#     4  10  20  35  56  84 117 153 194 239 292 352
#     4  10  20  37  63  91 118 151 198 252 300 354
#     4  11  23  39  60  87 124 162 201 248 296 358
#     4  11  24  40  60  88 122 161 204 249 297 357
#     4  10  20  35  57  87 119 153 197 246 296 354
#     4  10  23  41  60  86 123 165 201 242 302 364
#
# _framework density 19.716982000000002
#
# number of rings (size 3 to 8) (size 9 to 14) (size 15 to 20)
#    0.000    1.750    1.250    2.625    1.750    5.000 
#    0.000    1.250    0.000    1.875    0.000    0.000 
#    0.000    0.000    0.000    0.000    0.000    0.000 
#
# Total GULP energy -178825.250985 kJ/mol
# GULP energy per Si atom -5588.289093 kJ/mol
# Density = 1.967211 g / cm^3
# Si number density = 19.716982 Si / 1000 Ang^3
#
#
#
# Elastic Constant Matrix: (Units=GPa)
#
#
# Indices 1 2 3 4 5 6 
#
# 1 117.5283 19.7618 58.1680 0.0000 12.7430 0.0000
# 2 19.7618 16.7231 21.9771 0.0000 0.5011 0.0000
# 3 58.1680 21.9771 125.8150 0.0000 4.8700 0.0000
# 4 0.0000 0.0000 0.0000 -7.1860 0.0000 10.2633
# 5 12.7430 0.5011 4.8700 0.0000 35.6197 0.0000
# 6 0.0000 0.0000 0.0000 10.2633 0.0000 -2.0419
#
#
#
# Elastic Compliance Matrix: (Units=1/GPa)
#
#
# Indices 1 2 3 4 5 6 
#
# 1 0.012466 -0.009392 -0.003976 0.000000 -0.003784 0.000000
# 2 -0.009392 0.084712 -0.010595 0.000000 0.003617 0.000000
# 3 -0.003976 -0.010595 0.011638 0.000000 -0.000020 0.000000
# 4 0.000000 0.000000 0.000000 0.022522 0.000000 0.113203
# 5 -0.003784 0.003617 -0.000020 0.000000 0.029380 0.000000
# 6 0.000000 0.000000 0.000000 0.113203 0.000000 0.079261
#
#
# Mechanical properties :
#
#
# Convention : Reuss Voigt Hill
#
# Bulk Modulus (GPa) = 16.42343 51.09780 33.76062
# Shear Modulus (GPa) = 16.22313 15.95567 16.08940
#
# Velocity S-wave (km/s) = 2.87156 2.84779 2.85970
# Velocity P-wave (km/s) = 4.39797 6.06507 5.29751
#
# Compressibility (1/GPa) = 0.06088862
#
# Stress axis : x y z
#
# Youngs Moduli (GPa) = 80.21714 11.80475 85.92518
#
# Poissons Ratio (x) = 0.11087 0.34167
# Poissons Ratio (y) = 0.75343 0.91037
# Poissons Ratio (z) = 0.31897 0.12507
#
# Static dielectric constant tensor:
#      x y z
#    x 1.682460 0.000000 0.025790 
#    y 0.000000 1.673630 0.000000 
#    z 0.025790 0.000000 1.685450 
# 
# From -- ./inp_files/63800.got.cif
#   From: 2010.05.17/outbox.cif.g08.bks.cpg/sg10_32_cif.got.tgz:63800.got - 2010.06.03 11:33:40.
