data_PCOD9149505
_publ_section_title
;
Structure prediction by ZEFSAII (Michael W. Deem and Ramdas Pophale) SiO2 
 PCOD9149505
Probable space group: P 2/M
;
_chemical_formula_sum "Si O2"
_cell_formula_units_Z 28
_cell_length_a 9.482239
_cell_length_b 8.083449
_cell_length_c 34.062219
_cell_angle_alpha 90.000000
_cell_angle_beta 149.015258
_cell_angle_gamma 90.000000
_cell_volume 1344.086859
_symmetry_space_group_name_H-M "P 2/M"
_symmetry_group_IT_number 10
_symmetry_cell_setting 'monoclinic'
loop_
_space_group_symop_operation_xyz
x,y,z
-x,y,-z
-x,-y,-z
x,-y,z
loop_
_atom_site_type_symbol
_atom_site_label
_atom_site_fract_x
_atom_site_fract_y
_atom_site_fract_z
Si Si1 0.199977 0.195489 0.170849
Si Si2 0.174029 0.302694 0.248287
Si Si3 0.475560 0.000000 0.426487
Si Si4 0.799237 0.678192 0.315940
Si Si5 0.668641 0.304533 0.420005
Si Si6 0.754424 0.307656 0.215141
Si Si7 0.919416 0.000000 0.599913
Si Si8 0.137396 0.806408 0.071421
O O1 0.079739 0.219263 0.185343
O O2 0.473813 0.304099 0.238409
O O3 0.055751 0.251212 0.095932
O O4 0.268771 0.000000 0.182491
O O5 0.145338 0.500000 0.236909
O O6 0.490854 0.275277 0.337533
O O7 0.975539 0.248124 0.236412
O O8 0.539106 0.833640 0.417504
O O9 0.685342 0.000000 0.512403
O O10 0.189292 0.000000 0.381182
O O11 0.888094 0.500000 0.352635
O O12 0.873505 0.691923 0.287606
O O13 0.915361 0.832825 0.366258
O O14 0.618104 0.500000 0.418147
O O15 0.000000 0.282114 0.500000
O O16 0.690564 0.500000 0.191009
O O17 0.465822 0.213379 0.146540
O O18 0.065262 0.000000 0.053992
O O19 0.000000 0.728860 0.000000
#
# Coordination Sequence:
#
# PCOD9149505 Si02
#       8
#     4   4   2   4   4   4   2   4
#     4  10  20  34  57  90 116 147 197 239 288 348
#     4  10  21  37  57  85 117 147 193 248 293 348
#     4  11  25  40  56  80 119 146 191 249 296 353
#     4  10  20  37  60  82 113 150 193 247 294 344
#     4  10  23  41  61  83 113 158 201 240 301 361
#     4   9  19  35  57  85 113 150 196 237 289 350
#     4  11  24  38  56  86 109 149 197 242 296 361
#     4   9  19  37  59  84 118 154 189 233 285 349
#
# _framework density 20.831987000000002
#
# number of rings (size 3 to 8) (size 9 to 14) (size 15 to 20)
#    0.000    2.143    0.714    1.500    4.000    3.714 
#    0.000    2.143    0.000    4.286    0.000    0.000 
#    0.000    0.000    0.000    0.000    0.000    0.000 
#
# Total GULP energy -156059.889397 kJ/mol
# GULP energy per Si atom -5573.567478 kJ/mol
# Density = 2.078457 g / cm^3
# Si number density = 20.831987 Si / 1000 Ang^3
#
#
#
# Elastic Constant Matrix: (Units=GPa)
#
#
# Indices 1 2 3 4 5 6 
#
# 1 64.5163 7.1933 -7.6852 0.0000 -20.9227 0.0000
# 2 7.1933 78.2674 14.8880 0.0000 -9.6980 0.0000
# 3 -7.6852 14.8880 51.5984 0.0000 -16.2902 0.0000
# 4 0.0000 0.0000 0.0000 9.5678 0.0000 5.0594
# 5 -20.9227 -9.6980 -16.2902 0.0000 24.2711 0.0000
# 6 0.0000 0.0000 0.0000 5.0594 0.0000 16.2026
#
#
#
# Elastic Compliance Matrix: (Units=1/GPa)
#
#
# Indices 1 2 3 4 5 6 
#
# 1 0.028802 -0.001312 0.015660 0.000000 0.034815 0.000000
# 2 -0.001312 0.013821 -0.003549 0.000000 0.002010 0.000000
# 3 0.015660 -0.003549 0.033690 0.000000 0.034694 0.000000
# 4 0.000000 0.000000 0.000000 0.125188 0.000000 -0.039091
# 5 0.034815 0.002010 0.034694 0.000000 0.095302 0.000000
# 6 0.000000 0.000000 0.000000 -0.039091 0.000000 0.073925
#
#
# Mechanical properties :
#
#
# Convention : Reuss Voigt Hill
#
# Bulk Modulus (GPa) = 10.21328 24.79714 17.50521
# Shear Modulus (GPa) = 13.09697 22.00736 17.55217
#
# Velocity S-wave (km/s) = 2.51010 3.25379 2.90583
# Velocity P-wave (km/s) = 3.64885 5.10347 4.43619
#
# Compressibility (1/GPa) = 0.09791178
#
# Stress axis : x y z
#
# Youngs Moduli (GPa) = 34.71949 72.35164 29.68235
#
# Poissons Ratio (x) = 0.09493 -0.46483
# Poissons Ratio (y) = 0.04555 0.10534
# Poissons Ratio (z) = -0.54371 0.25677
#
# Static dielectric constant tensor:
#      x y z
#    x 1.810940 0.000000 -0.038700 
#    y 0.000000 1.342110 0.000000 
#    z -0.038700 0.000000 1.751680 
# 
# From -- ./inp_files/92146.got.cif
#   From: 2010.05.17/outbox.cif.g08.bks.cpg/sg10_47_cif.got.tgz:92146.got - 2010.06.03 11:33:40.
