data_PCOD9149703
_publ_section_title
;
Structure prediction by ZEFSAII (Michael W. Deem and Ramdas Pophale) SiO2 
 PCOD9149703
Probable space group: P 2/M
;
_chemical_formula_sum "Si O2"
_cell_formula_units_Z 32
_cell_length_a 25.927210
_cell_length_b 8.919740
_cell_length_c 16.110433
_cell_angle_alpha 90.000000
_cell_angle_beta 29.729820
_cell_angle_gamma 90.000000
_cell_volume 1847.645553
_symmetry_space_group_name_H-M "P 2/M"
_symmetry_group_IT_number 10
_symmetry_cell_setting 'monoclinic'
loop_
_space_group_symop_operation_xyz
x,y,z
-x,y,-z
-x,-y,-z
x,-y,z
loop_
_atom_site_type_symbol
_atom_site_label
_atom_site_fract_x
_atom_site_fract_y
_atom_site_fract_z
Si Si1 0.273814 0.321337 0.976335
Si Si2 0.063986 0.820316 0.329499
Si Si3 0.189623 0.320350 0.911725
Si Si4 0.476033 0.821338 0.774124
Si Si5 0.542520 0.320318 0.850967
Si Si6 0.775870 0.679263 0.469985
Si Si7 0.021731 0.179263 0.732407
Si Si8 0.709036 0.820351 0.392311
O O1 0.278187 0.500000 0.978677
O O2 0.250659 0.285557 0.912072
O O3 0.379825 0.250001 0.860526
O O4 0.175245 0.258143 0.164733
O O5 0.000000 0.773513 0.500000
O O6 0.000479 0.788643 0.333712
O O7 0.080096 0.000000 0.311103
O O8 0.182505 0.500000 0.913706
O O9 0.246897 0.250005 0.753101
O O10 0.075131 0.250512 0.082820
O O11 0.484762 0.758145 0.855227
O O12 0.586615 0.785560 0.576126
O O13 0.464942 0.000000 0.791930
O O14 0.528689 0.500000 0.862516
O O15 0.665322 0.288648 0.668861
O O16 0.500000 0.273509 0.000000
O O17 0.787555 0.500000 0.447548
O O18 0.871436 0.749998 0.385688
O O19 0.766929 0.750518 0.391015
O O20 0.022667 0.000000 0.742220
O O21 0.721293 0.000000 0.374911
#
# Coordination Sequence:
#
# PCOD9149703 Si02
#       8
#     4   4   4   4   4   4   4   4
#     4  10  21  36  55  79 108 141 177 218 262 312
#     4   9  19  36  56  79 108 141 177 218 264 312
#     4  10  21  37  56  79 106 137 175 217 263 313
#     4  10  21  36  55  79 108 141 177 218 262 312
#     4   9  19  36  56  79 108 141 177 218 264 312
#     4  10  20  35  55  78 107 140 175 217 262 311
#     4  10  20  35  55  78 107 140 175 217 262 311
#     4  10  21  37  56  79 106 137 175 217 263 313
#
# _framework density 17.319337999999998
#
# number of rings (size 3 to 8) (size 9 to 14) (size 15 to 20)
#    0.000    2.250    0.000    2.250    0.000    6.500 
#    0.000    7.500    0.000    0.000    0.000    0.000 
#    0.000    0.000    0.000    0.000    0.000    0.000 
#
# Total GULP energy -178654.694198 kJ/mol
# GULP energy per Si atom -5582.959194 kJ/mol
# Density = 1.727992 g / cm^3
# Si number density = 17.319338 Si / 1000 Ang^3
#
#
#
# Elastic Constant Matrix: (Units=GPa)
#
#
# Indices 1 2 3 4 5 6 
#
# 1 112.8612 61.4938 92.3124 0.0000 -10.7534 0.0000
# 2 61.4938 61.5955 59.5288 0.0000 -2.4080 0.0000
# 3 92.3124 59.5288 117.3281 0.0000 16.3046 0.0000
# 4 0.0000 0.0000 0.0000 29.3397 0.0000 -3.4151
# 5 -10.7534 -2.4080 16.3046 0.0000 39.2185 0.0000
# 6 0.0000 0.0000 0.0000 -3.4151 0.0000 32.1152
#
#
#
# Elastic Compliance Matrix: (Units=1/GPa)
#
#
# Indices 1 2 3 4 5 6 
#
# 1 0.043460 -0.012040 -0.031456 0.000000 0.024255 0.000000
# 2 -0.012040 0.038664 -0.010630 0.000000 0.003492 0.000000
# 3 -0.031456 -0.010630 0.042404 0.000000 -0.026907 0.000000
# 4 0.000000 0.000000 0.000000 0.034511 0.000000 0.003670
# 5 0.024255 0.003492 -0.026907 0.000000 0.043549 0.000000
# 6 0.000000 0.000000 0.000000 0.003670 0.000000 0.031528
#
#
# Mechanical properties :
#
#
# Convention : Reuss Voigt Hill
#
# Bulk Modulus (GPa) = 61.43100 79.82831 70.62966
# Shear Modulus (GPa) = 14.37636 25.36467 19.87051
#
# Velocity S-wave (km/s) = 2.88423 3.83107 3.39086
# Velocity P-wave (km/s) = 6.82922 8.10935 7.49666
#
# Compressibility (1/GPa) = 0.01627843
#
# Stress axis : x y z
#
# Youngs Moduli (GPa) = 23.00967 25.86362 23.58243
#
# Poissons Ratio (x) = 0.31139 0.74180
# Poissons Ratio (y) = 0.27703 0.25067
# Poissons Ratio (z) = 0.72379 0.27492
#
# Static dielectric constant tensor:
#      x y z
#    x 1.560700 0.000000 0.003830 
#    y 0.000000 1.573600 0.000000 
#    z 0.003830 0.000000 1.563800 
# 
# From -- ./inp_files/66463.got.cif
#   From: 2010.05.17/outbox.cif.g08.bks.cpg/sg10_34_cif.got.tgz:66463.got - 2010.06.03 11:33:40.
