data_PCOD9149300
_publ_section_title
;
Structure prediction by ZEFSAII (Michael W. Deem and Ramdas Pophale) SiO2 
 PCOD9149300
Probable space group: P 2/M
;
_chemical_formula_sum "Si O2"
_cell_formula_units_Z 28
_cell_length_a 16.144225
_cell_length_b 7.770436
_cell_length_c 21.025899
_cell_angle_alpha 90.000000
_cell_angle_beta 32.637485
_cell_angle_gamma 90.000000
_cell_volume 1422.542221
_symmetry_space_group_name_H-M "P 2/M"
_symmetry_group_IT_number 10
_symmetry_cell_setting 'monoclinic'
loop_
_space_group_symop_operation_xyz
x,y,z
-x,y,-z
-x,-y,-z
x,-y,z
loop_
_atom_site_type_symbol
_atom_site_label
_atom_site_fract_x
_atom_site_fract_y
_atom_site_fract_z
Si Si1 0.401719 0.209344 0.971617
Si Si2 0.960749 0.697194 0.456118
Si Si3 0.162706 0.301367 0.871632
Si Si4 0.628466 0.791496 0.148754
Si Si5 0.653058 0.201258 0.586565
Si Si6 0.268750 0.790935 0.190079
Si Si7 0.444030 0.702845 0.604943
O O1 0.346295 0.267412 0.939118
O O2 0.577791 0.258988 0.870884
O O3 0.401940 0.000000 0.971253
O O4 0.300301 0.261580 0.097060
O O5 0.915824 0.500000 0.497259
O O6 0.117844 0.710544 0.316057
O O7 0.000000 0.778279 0.500000
O O8 0.824956 0.769394 0.499812
O O9 0.130648 0.500000 0.873663
O O10 0.262120 0.294686 0.871287
O O11 0.283615 0.227640 0.740424
O O12 0.000000 0.221826 0.000000
O O13 0.456832 0.751070 0.283319
O O14 0.648175 0.000000 0.139157
O O15 0.579164 0.282889 0.570766
O O16 0.633473 0.000000 0.587532
O O17 0.255818 0.000000 0.201044
O O18 0.500000 0.773259 0.500000
O O19 0.415122 0.500000 0.614311
#
# Coordination Sequence:
#
# PCOD9149300 Si02
#       7
#     4   4   4   4   4   4   4
#     4   8  15  30  52  75  99 130 166 206 253 303
#     4  11  23  36  50  73 106 140 174 216 261 305
#     4   9  18  33  51  73 101 131 170 212 252 306
#     4   9  17  31  52  76 100 127 165 207 252 301
#     4  10  20  34  55  80 104 134 176 219 255 307
#     4   9  17  32  53  73  99 134 170 207 249 301
#     4   9  18  35  57  77 104 144 177 212 267 320
#
# _framework density 19.683071000000002
#
# number of rings (size 3 to 8) (size 9 to 14) (size 15 to 20)
#    0.000    2.714    0.000    2.571    0.000    3.429 
#    2.571    2.857    0.000    0.000    0.000    0.000 
#    0.000    0.000    0.000    0.000    0.000    0.000 
#
# Total GULP energy -155943.185484 kJ/mol
# GULP energy per Si atom -5569.399482 kJ/mol
# Density = 1.963827 g / cm^3
# Si number density = 19.683071 Si / 1000 Ang^3
#
#
#
# Elastic Constant Matrix: (Units=GPa)
#
#
# Indices 1 2 3 4 5 6 
#
# 1 80.5084 2.4254 59.8663 0.0000 20.7131 0.0000
# 2 2.4254 22.8975 1.1820 0.0000 4.3106 0.0000
# 3 59.8663 1.1820 141.6860 0.0000 -2.3323 0.0000
# 4 0.0000 0.0000 0.0000 4.9309 0.0000 4.5770
# 5 20.7131 4.3106 -2.3323 0.0000 20.6855 0.0000
# 6 0.0000 0.0000 0.0000 4.5770 0.0000 13.6366
#
#
#
# Elastic Compliance Matrix: (Units=1/GPa)
#
#
# Indices 1 2 3 4 5 6 
#
# 1 0.031156 0.003720 -0.013747 0.000000 -0.033523 0.000000
# 2 0.003720 0.045941 -0.002178 0.000000 -0.013544 0.000000
# 3 -0.013747 -0.002178 0.013143 0.000000 0.015701 0.000000
# 4 0.000000 0.000000 0.000000 0.294582 0.000000 -0.098873
# 5 -0.033523 -0.013544 0.015701 0.000000 0.086504 0.000000
# 6 0.000000 0.000000 0.000000 -0.098873 0.000000 0.106518
#
#
# Mechanical properties :
#
#
# Convention : Reuss Voigt Hill
#
# Bulk Modulus (GPa) = 15.19055 41.33768 28.26412
# Shear Modulus (GPa) = 8.01029 19.95848 13.98438
#
# Velocity S-wave (km/s) = 2.01952 3.18778 2.66837
# Velocity P-wave (km/s) = 3.62936 5.88188 4.88716
#
# Compressibility (1/GPa) = 0.06583040
#
# Stress axis : x y z
#
# Youngs Moduli (GPa) = 32.09621 21.76700 76.08546
#
# Poissons Ratio (x) = -0.08098 1.04597
# Poissons Ratio (y) = -0.11941 0.16573
# Poissons Ratio (z) = 0.44124 0.04741
#
# Static dielectric constant tensor:
#      x y z
#    x 1.678980 0.000000 0.018150 
#    y 0.000000 1.735540 0.000000 
#    z 0.018150 0.000000 1.713390 
# 
# From -- ./inp_files/49162.got.cif
#   From: 2010.05.17/outbox.cif.g08.bks.cpg/sg10_25_cif.got.tgz:49162.got - 2010.06.03 11:33:40.
