data_PCOD9149111
_publ_section_title
;
Structure prediction by ZEFSAII (Michael W. Deem and Ramdas Pophale) SiO2 
 PCOD9149111
Probable space group: P 2/M
;
_chemical_formula_sum "Si O2"
_cell_formula_units_Z 28
_cell_length_a 14.636686
_cell_length_b 17.767072
_cell_length_c 8.180441
_cell_angle_alpha 90.000000
_cell_angle_beta 142.420014
_cell_angle_gamma 90.000000
_cell_volume 1297.392689
_symmetry_space_group_name_H-M "P 2/M"
_symmetry_group_IT_number 10
_symmetry_cell_setting 'monoclinic'
loop_
_space_group_symop_operation_xyz
x,y,z
-x,y,-z
-x,-y,-z
x,-y,z
loop_
_atom_site_type_symbol
_atom_site_label
_atom_site_fract_x
_atom_site_fract_y
_atom_site_fract_z
Si Si1 0.415142 0.130840 0.705514
Si Si2 0.554945 0.691474 0.261968
Si Si3 0.315723 0.916228 0.115362
Si Si4 0.912136 0.185257 0.042668
Si Si5 0.143012 0.915515 0.522366
Si Si6 0.847305 0.356780 0.866687
Si Si7 0.636372 0.580380 0.820178
O O1 0.413511 0.220178 0.669688
O O2 0.257979 0.094934 0.534026
O O3 0.500000 0.122060 0.000000
O O4 0.514089 0.094860 0.703321
O O5 0.709158 0.652164 0.541553
O O6 0.414856 0.655473 0.159772
O O7 0.500000 0.680470 0.000000
O O8 0.242993 0.856392 0.135101
O O9 0.227711 0.910085 0.815665
O O10 0.292923 0.000000 0.146770
O O11 0.025493 0.151743 0.337550
O O12 0.883720 0.273948 0.991207
O O13 0.000000 0.166026 0.000000
O O14 0.076636 0.000000 0.418421
O O15 0.784616 0.406526 0.925205
O O16 0.000000 0.384225 0.000000
O O17 0.500000 0.573469 0.500000
O O18 0.643418 0.500000 0.922448
#
# Coordination Sequence:
#
# PCOD9149111 Si02
#       7
#     4   4   4   4   4   4   4
#     4   9  17  31  53  79 105 138 185 237 282 326
#     4  10  20  37  62  88 115 152 195 235 280 341
#     4  10  20  34  53  77 106 145 193 241 289 341
#     4  11  22  35  51  74 109 147 185 230 283 338
#     4  10  20  35  54  77 109 149 192 238 289 343
#     4  10  21  38  59  85 117 152 191 236 286 339
#     4   9  19  37  62  91 122 155 188 227 283 348
#
# _framework density 21.581747
#
# number of rings (size 3 to 8) (size 9 to 14) (size 15 to 20)
#    0.000    2.143    0.000    3.857    0.000    4.571 
#    0.000    5.714    0.000    5.143    0.000    0.000 
#    0.000    0.000    0.000    0.000    0.000    0.000 
#
# Total GULP energy -156219.552361 kJ/mol
# GULP energy per Si atom -5579.269727 kJ/mol
# Density = 2.153263 g / cm^3
# Si number density = 21.581747 Si / 1000 Ang^3
#
#
#
# Elastic Constant Matrix: (Units=GPa)
#
#
# Indices 1 2 3 4 5 6 
#
# 1 136.7591 40.0271 -0.7743 0.0000 22.4154 0.0000
# 2 40.0271 53.2004 9.1673 0.0000 -1.4140 0.0000
# 3 -0.7743 9.1673 70.0467 0.0000 7.7287 0.0000
# 4 0.0000 0.0000 0.0000 -74.2542 0.0000 -51.1769
# 5 22.4154 -1.4140 7.7287 0.0000 36.0575 0.0000
# 6 0.0000 0.0000 0.0000 -51.1769 0.0000 -14.2187
#
#
#
# Elastic Compliance Matrix: (Units=1/GPa)
#
#
# Indices 1 2 3 4 5 6 
#
# 1 0.011254 -0.009049 0.002171 0.000000 -0.007816 0.000000
# 2 -0.009049 0.026569 -0.004417 0.000000 0.007614 0.000000
# 3 0.002171 -0.004417 0.015411 0.000000 -0.004826 0.000000
# 4 0.000000 0.000000 0.000000 0.009095 0.000000 -0.032737
# 5 -0.007816 0.007614 -0.004826 0.000000 0.033926 0.000000
# 6 0.000000 0.000000 0.000000 -0.032737 0.000000 0.047499
#
#
# Mechanical properties :
#
#
# Convention : Reuss Voigt Hill
#
# Bulk Modulus (GPa) = 32.63400 39.64962 36.14181
# Shear Modulus (GPa) = 28.31903 3.62265 15.97084
#
# Velocity S-wave (km/s) = 3.62633 1.29700 2.72328
# Velocity P-wave (km/s) = 5.71731 4.54474 5.16441
#
# Compressibility (1/GPa) = 0.03064288
#
# Stress axis : x y z
#
# Youngs Moduli (GPa) = 88.85597 37.63785 64.88954
#
# Poissons Ratio (x) = 0.34060 -0.14089
# Poissons Ratio (y) = 0.80409 0.28664
# Poissons Ratio (z) = -0.19292 0.16626
#
# Static dielectric constant tensor:
#      x y z
#    x 1.809480 0.000000 0.015530 
#    y 0.000000 1.766510 0.000000 
#    z 0.015530 0.000000 1.853410 
# 
# From -- ./inp_files/30188.got.cif
#   From: 2010.05.17/outbox.cif.g08.bks.cpg/sg10_16_cif.got.tgz:30188.got - 2010.06.03 11:33:40.
