data_PCOD9149923
_publ_section_title
;
Structure prediction by ZEFSAII (Michael W. Deem and Ramdas Pophale) SiO2 
 PCOD9149923
Probable space group: P 2/M
;
_chemical_formula_sum "Si O2"
_cell_formula_units_Z 22
_cell_length_a 8.752043
_cell_length_b 14.509589
_cell_length_c 9.020452
_cell_angle_alpha 90.000000
_cell_angle_beta 80.352705
_cell_angle_gamma 90.000000
_cell_volume 1129.294561
_symmetry_space_group_name_H-M "P 2/M"
_symmetry_group_IT_number 10
_symmetry_cell_setting 'monoclinic'
loop_
_space_group_symop_operation_xyz
x,y,z
-x,y,-z
-x,-y,-z
x,-y,z
loop_
_atom_site_type_symbol
_atom_site_label
_atom_site_fract_x
_atom_site_fract_y
_atom_site_fract_z
Si Si1 0.959290 0.605805 0.829899
Si Si2 0.778592 0.742020 0.262625
Si Si3 0.645438 0.896985 0.768362
Si Si4 0.008431 0.103982 0.663689
Si Si5 0.500000 0.812519 0.500000
Si Si6 0.340239 0.713568 0.049842
O O1 0.945155 0.500000 0.785327
O O2 0.797474 0.660860 0.842726
O O3 0.100847 0.659044 0.728641
O O4 0.000000 0.606274 0.000000
O O5 0.881377 0.834085 0.257069
O O6 0.634499 0.753233 0.397600
O O7 0.721209 0.734213 0.104159
O O8 0.580840 0.873750 0.614968
O O9 0.613473 0.807048 0.871873
O O10 0.832044 0.900438 0.743274
O O11 0.589071 0.000000 0.820458
O O12 0.000000 0.144681 0.500000
O O13 0.071206 0.000000 0.642229
O O14 0.500000 0.658038 0.000000
#
# Coordination Sequence:
#
# PCOD9149923 Si02
#       6
#     4   4   4   4   2   4
#     4   9  20  40  65  89 116 152 195 246 305 364
#     4  11  22  38  62  87 120 157 200 248 298 349
#     4  11  23  38  57  87 125 164 203 242 289 348
#     4  10  20  35  57  83 116 162 207 241 283 352
#     4  12  23  38  59  86 122 170 199 242 287 354
#     4  11  22  39  61  92 122 152 196 251 301 347
#
# _framework density 19.481190000000002
#
# number of rings (size 3 to 8) (size 9 to 14) (size 15 to 20)
#    0.000    1.455    5.455    0.273    0.000    2.182 
#    0.000    2.273    0.000    4.909    0.000    0.000 
#    0.000    0.000    0.000    0.000    0.000    0.000 
#
# Total GULP energy -122693.873448 kJ/mol
# GULP energy per Si atom -5576.994248 kJ/mol
# Density = 1.943685 g / cm^3
# Si number density = 19.481190 Si / 1000 Ang^3
#
#
#
# Elastic Constant Matrix: (Units=GPa)
#
#
# Indices 1 2 3 4 5 6 
#
# 1 127.2879 57.7004 37.5430 0.0000 -8.0927 0.0000
# 2 57.7004 118.2050 34.7328 0.0000 -7.8439 0.0000
# 3 37.5430 34.7328 49.8503 0.0000 -4.4961 0.0000
# 4 0.0000 0.0000 0.0000 17.1884 0.0000 1.8920
# 5 -8.0927 -7.8439 -4.4961 0.0000 34.5658 0.0000
# 6 0.0000 0.0000 0.0000 1.8920 0.0000 1.3568
#
#
#
# Elastic Compliance Matrix: (Units=1/GPa)
#
#
# Indices 1 2 3 4 5 6 
#
# 1 0.011345 -0.003754 -0.005834 0.000000 0.001045 0.000000
# 2 -0.003754 0.011954 -0.005399 0.000000 0.001131 0.000000
# 3 -0.005834 -0.005399 0.028314 0.000000 0.001092 0.000000
# 4 0.000000 0.000000 0.000000 0.068729 0.000000 -0.095843
# 5 0.001045 0.001131 0.001092 0.000000 0.029574 0.000000
# 6 0.000000 0.000000 0.000000 -0.095843 0.000000 0.870708
#
#
# Mechanical properties :
#
#
# Convention : Reuss Voigt Hill
#
# Bulk Modulus (GPa) = 46.21547 61.69952 53.95749
# Shear Modulus (GPa) = 4.72673 21.64665 13.18669
#
# Velocity S-wave (km/s) = 1.55935 3.33702 2.60454
# Velocity P-wave (km/s) = 5.19776 6.82552 6.06648
#
# Compressibility (1/GPa) = 0.02163778
#
# Stress axis : x y z
#
# Youngs Moduli (GPa) = 88.14178 83.65273 35.31779
#
# Poissons Ratio (x) = 0.31407 0.20605
# Poissons Ratio (y) = 0.33092 0.19070
# Poissons Ratio (z) = 0.51424 0.45168
#
# Static dielectric constant tensor:
#      x y z
#    x 1.617500 0.000000 -0.119510 
#    y 0.000000 1.685160 0.000000 
#    z -0.119510 0.000000 1.634400 
# 
# From -- ./inp_files/18766.got.cif
#   From: 2010.05.17/outbox.cif.g08.bks.cpg/sg10_10_cif.got.tgz:18766.got - 2010.06.03 11:33:40.
