data_PCOD9149188
_publ_section_title
;
Structure prediction by ZEFSAII (Michael W. Deem and Ramdas Pophale) SiO2 
 PCOD9149188
Probable space group: P 2/M
;
_chemical_formula_sum "Si O2"
_cell_formula_units_Z 32
_cell_length_a 12.655707
_cell_length_b 9.091085
_cell_length_c 33.982189
_cell_angle_alpha 90.000000
_cell_angle_beta 27.546126
_cell_angle_gamma 90.000000
_cell_volume 1808.131668
_symmetry_space_group_name_H-M "P 2/M"
_symmetry_group_IT_number 10
_symmetry_cell_setting 'monoclinic'
loop_
_space_group_symop_operation_xyz
x,y,z
-x,y,-z
-x,-y,-z
x,-y,z
loop_
_atom_site_type_symbol
_atom_site_label
_atom_site_fract_x
_atom_site_fract_y
_atom_site_fract_z
Si Si1 0.309763 0.828318 0.006887
Si Si2 0.503167 0.325922 0.307364
Si Si3 0.994869 0.325692 0.830780
Si Si4 0.198172 0.672737 0.965509
Si Si5 0.199920 0.832990 0.466991
Si Si6 0.815565 0.176997 0.652181
Si Si7 0.279660 0.325925 0.233422
Si Si8 0.838052 0.173260 0.807506
O O1 0.213855 0.735221 0.074555
O O2 0.266702 0.000000 0.028616
O O3 0.187325 0.772159 0.007700
O O4 0.578503 0.809089 0.909642
O O5 0.468237 0.500000 0.313554
O O6 0.771849 0.295939 0.222411
O O7 0.386927 0.272870 0.386509
O O8 0.377539 0.241392 0.313409
O O9 0.974126 0.500000 0.831859
O O10 0.995897 0.245600 0.788445
O O11 0.178382 0.500000 0.983410
O O12 0.447588 0.692741 0.863803
O O13 0.000000 0.706124 0.000000
O O14 0.000000 0.838576 0.500000
O O15 0.062494 0.786690 0.551249
O O16 0.288333 0.000000 0.442260
O O17 0.787649 0.245947 0.704196
O O18 0.797155 0.000000 0.659022
O O19 0.233985 0.500000 0.250643
O O20 0.158444 0.254391 0.235528
O O21 0.881813 0.000000 0.788532
#
# Coordination Sequence:
#
# PCOD9149188 Si02
#       8
#     4   4   4   4   4   4   4   4
#     4  10  21  35  52  76 101 133 178 221 261 307
#     4  10  21  34  51  79 110 138 171 213 261 311
#     4  11  23  36  53  77 106 138 175 219 265 312
#     4   9  19  34  50  70 103 141 172 211 258 305
#     4   8  16  32  52  75 105 139 170 205 255 312
#     4  10  20  34  54  80 110 140 172 211 255 310
#     4  10  20  34  54  78 104 138 177 214 257 308
#     4  10  21  38  56  75 102 136 179 224 264 306
#
# _framework density 17.697825000000002
#
# number of rings (size 3 to 8) (size 9 to 14) (size 15 to 20)
#    0.000    2.250    0.000    3.375    1.750    8.500 
#    0.000    0.000    0.000    0.750    0.000    5.250 
#    0.000    0.000    0.000    0.000    0.000    0.000 
#
# Total GULP energy -178581.029804 kJ/mol
# GULP energy per Si atom -5580.657181 kJ/mol
# Density = 1.765754 g / cm^3
# Si number density = 17.697825 Si / 1000 Ang^3
#
#
#
# Elastic Constant Matrix: (Units=GPa)
#
#
# Indices 1 2 3 4 5 6 
#
# 1 62.1913 36.1660 26.3203 0.0000 25.6236 0.0000
# 2 36.1660 70.4974 40.9379 0.0000 15.7803 0.0000
# 3 26.3203 40.9379 50.5931 0.0000 25.3723 0.0000
# 4 0.0000 0.0000 0.0000 16.6794 0.0000 13.1308
# 5 25.6236 15.7803 25.3723 0.0000 24.4226 0.0000
# 6 0.0000 0.0000 0.0000 13.1308 0.0000 27.5976
#
#
#
# Elastic Compliance Matrix: (Units=1/GPa)
#
#
# Indices 1 2 3 4 5 6 
#
# 1 0.041466 -0.023297 0.024108 0.000000 -0.053498 0.000000
# 2 -0.023297 0.041303 -0.042119 0.000000 0.041513 0.000000
# 3 0.024108 -0.042119 0.084220 0.000000 -0.085575 0.000000
# 4 0.000000 0.000000 0.000000 0.095860 0.000000 -0.045610
# 5 -0.053498 0.041513 -0.085575 0.000000 0.159154 0.000000
# 6 0.000000 0.000000 0.000000 -0.045610 0.000000 0.057936
#
#
# Mechanical properties :
#
#
# Convention : Reuss Voigt Hill
#
# Bulk Modulus (GPa) = 11.85216 43.34778 27.59997
# Shear Modulus (GPa) = 8.46480 19.06376 13.76428
#
# Velocity S-wave (km/s) = 2.18937 3.28560 2.79182
# Velocity P-wave (km/s) = 3.61975 6.24020 5.10111
#
# Compressibility (1/GPa) = 0.08437279
#
# Stress axis : x y z
#
# Youngs Moduli (GPa) = 24.11594 24.21128 11.87360
#
# Poissons Ratio (x) = 0.56405 -0.28625
# Poissons Ratio (y) = 0.56183 0.50011
# Poissons Ratio (z) = -0.58139 1.01976
#
# Static dielectric constant tensor:
#      x y z
#    x 1.588500 0.000000 0.001670 
#    y 0.000000 1.590190 0.000000 
#    z 0.001670 0.000000 1.606420 
# 
# From -- ./inp_files/94949.got.cif
#   From: 2010.05.17/outbox.cif.g08.bks.cpg/sg10_48_cif.got.tgz:94949.got - 2010.06.03 11:33:40.
