data_PCOD9149097
_publ_section_title
;
Structure prediction by ZEFSAII (Michael W. Deem and Ramdas Pophale) SiO2 
 PCOD9149097
Probable space group: P 2/M
;
_chemical_formula_sum "Si O2"
_cell_formula_units_Z 20
_cell_length_a 7.036461
_cell_length_b 25.080400
_cell_length_c 9.414865
_cell_angle_alpha 90.000000
_cell_angle_beta 32.695920
_cell_angle_gamma 90.000000
_cell_volume 897.514883
_symmetry_space_group_name_H-M "P 2/M"
_symmetry_group_IT_number 10
_symmetry_cell_setting 'monoclinic'
loop_
_space_group_symop_operation_xyz
x,y,z
-x,y,-z
-x,-y,-z
x,-y,z
loop_
_atom_site_type_symbol
_atom_site_label
_atom_site_fract_x
_atom_site_fract_y
_atom_site_fract_z
Si Si1 0.419690 0.327066 0.717313
Si Si2 0.421841 0.442849 0.717341
Si Si3 0.599981 0.776622 0.774607
Si Si4 0.766447 0.880478 0.968094
Si Si5 0.267984 0.060336 0.465945
O O1 0.500000 0.323793 0.500000
O O2 0.548107 0.385211 0.692413
O O3 0.577536 0.276526 0.696950
O O4 0.000000 0.325002 0.000000
O O5 0.500000 0.442896 0.500000
O O6 0.553388 0.500000 0.693528
O O7 0.000000 0.442792 0.000000
O O8 0.315519 0.822364 0.916035
O O9 0.000000 0.797983 0.500000
O O10 0.500000 0.762946 0.000000
O O11 0.631924 0.922757 0.166674
O O12 0.500000 0.881520 0.000000
O O13 0.128950 0.898170 0.670092
O O14 0.000000 0.061836 0.500000
O O15 0.260034 0.000000 0.524963
#
# Coordination Sequence:
#
# PCOD9149097 Si02
#       5
#     4   4   4   4   4
#     4  10  20  34  53  77 102 129 169 214 246 284
#     4   8  14  26  46  71  96 123 158 202 248 288
#     4  11  21  34  51  71 102 139 168 198 246 305
#     4   9  16  26  39  59  88 123 156 187 235 295
#     4   9  15  23  37  58  86 118 151 191 239 286
#
# _framework density 22.283753000000001
#
# number of rings (size 3 to 8) (size 9 to 14) (size 15 to 20)
#    0.000    2.600    0.000    4.800    0.000    2.400 
#    0.000    0.000    0.000    1.200    0.000    0.000 
#    0.000   16.000    0.000    0.000    0.000    1.800 
#
# Total GULP energy -111579.269650 kJ/mol
# GULP energy per Si atom -5578.963482 kJ/mol
# Density = 2.223303 g / cm^3
# Si number density = 22.283753 Si / 1000 Ang^3
#
#
#
# Elastic Constant Matrix: (Units=GPa)
#
#
# Indices 1 2 3 4 5 6 
#
# 1 57.8334 16.5861 23.1224 0.0000 -2.1783 0.0000
# 2 16.5861 192.4587 41.4784 0.0000 2.2389 0.0000
# 3 23.1224 41.4784 165.6464 0.0000 -1.8299 0.0000
# 4 0.0000 0.0000 0.0000 36.9744 0.0000 5.7105
# 5 -2.1783 2.2389 -1.8299 0.0000 14.9768 0.0000
# 6 0.0000 0.0000 0.0000 5.7105 0.0000 12.5211
#
#
#
# Elastic Compliance Matrix: (Units=1/GPa)
#
#
# Indices 1 2 3 4 5 6 
#
# 1 0.018631 -0.001143 -0.002286 0.000000 0.002601 0.000000
# 2 -0.001143 0.005577 -0.001250 0.000000 -0.001153 0.000000
# 3 -0.002286 -0.001250 0.006676 0.000000 0.000670 0.000000
# 4 0.000000 0.000000 0.000000 0.029095 0.000000 -0.013269
# 5 0.002601 -0.001153 0.000670 0.000000 0.067403 0.000000
# 6 0.000000 0.000000 0.000000 -0.013269 0.000000 0.085917
#
#
# Mechanical properties :
#
#
# Convention : Reuss Voigt Hill
#
# Bulk Modulus (GPa) = 46.45313 64.25691 55.35502
# Shear Modulus (GPa) = 21.75507 35.21125 28.48316
#
# Velocity S-wave (km/s) = 3.12793 3.97940 3.57908
# Velocity P-wave (km/s) = 5.82552 7.07195 6.47878
#
# Compressibility (1/GPa) = 0.02152707
#
# Stress axis : x y z
#
# Youngs Moduli (GPa) = 53.67481 179.30181 149.78281
#
# Poissons Ratio (x) = 0.20499 0.34235
# Poissons Ratio (y) = 0.06136 0.18718
# Poissons Ratio (z) = 0.12268 0.22407
#
# Static dielectric constant tensor:
#      x y z
#    x 1.890180 0.000000 0.007730 
#    y 0.000000 1.895040 0.000000 
#    z 0.007730 0.000000 1.757330 
# 
# From -- ./inp_files/4742.got.cif
#   From: 2010.05.17/outbox.cif.g08.bks.cpg/sg10_3_cif.got.tgz:4742.got - 2010.06.03 11:33:40.
