data_PCOD9149495
_publ_section_title
;
Structure prediction by ZEFSAII (Michael W. Deem and Ramdas Pophale) SiO2 
 PCOD9149495
Probable space group: P 2/M
;
_chemical_formula_sum "Si O2"
_cell_formula_units_Z 26
_cell_length_a 20.936127
_cell_length_b 13.035883
_cell_length_c 5.235467
_cell_angle_alpha 90.000000
_cell_angle_beta 50.237841
_cell_angle_gamma 90.000000
_cell_volume 1098.379860
_symmetry_space_group_name_H-M "P 2/M"
_symmetry_group_IT_number 10
_symmetry_cell_setting 'monoclinic'
loop_
_space_group_symop_operation_xyz
x,y,z
-x,y,-z
-x,-y,-z
x,-y,z
loop_
_atom_site_type_symbol
_atom_site_label
_atom_site_fract_x
_atom_site_fract_y
_atom_site_fract_z
Si Si1 0.203286 0.000000 0.677556
Si Si2 0.745533 0.380212 0.239891
Si Si3 0.942866 0.500000 0.397776
Si Si4 0.575921 0.388850 0.002017
Si Si5 0.341513 0.776498 0.931837
Si Si6 0.817468 0.789259 0.366248
Si Si7 0.685003 0.000000 0.119803
Si Si8 0.942554 0.276163 0.400474
O O1 0.154762 0.106676 0.841328
O O2 0.272882 0.000000 0.713652
O O3 0.244445 0.000000 0.287193
O O4 0.766440 0.500000 0.121313
O O5 0.663756 0.390162 0.627949
O O6 0.818502 0.317344 0.205081
O O7 0.712089 0.302035 0.108274
O O8 0.901393 0.389689 0.512524
O O9 0.000000 0.500000 0.500000
O O10 0.000000 0.500000 0.000000
O O11 0.571488 0.500000 0.146834
O O12 0.582872 0.292274 0.167940
O O13 0.500000 0.380944 0.000000
O O14 0.280003 0.799060 0.326381
O O15 0.361128 0.889932 0.780022
O O16 0.866281 0.792602 0.509064
O O17 0.000000 0.258169 0.500000
O O18 0.000000 0.272661 0.000000
#
# Coordination Sequence:
#
# PCOD9149495 Si02
#       8
#     2   4   2   4   4   4   2   4
#     4  10  20  38  60  87 110 157 196 242 299 355
#     4  10  20  34  57  88 116 147 194 244 293 346
#     4   8  16  34  50  70 102 146 185 216 273 352
#     4   9  19  36  57  84 122 159 191 235 296 359
#     4  10  20  36  57  86 113 153 198 248 290 350
#     4  10  22  37  58  82 116 148 197 247 295 349
#     4  10  20  36  61  84 117 156 200 242 295 345
#     4  10  22  37  55  79 114 152 193 237 294 356
#
# _framework density 23.671226999999998
#
# number of rings (size 3 to 8) (size 9 to 14) (size 15 to 20)
#    0.000    2.308    1.538    0.462    3.231    1.231 
#    0.000    3.462    0.000    0.923    0.000    0.000 
#    0.000    0.000    0.000    0.000    0.000    0.000 
#
# Total GULP energy -144920.669590 kJ/mol
# GULP energy per Si atom -5573.871907 kJ/mol
# Density = 2.361735 g / cm^3
# Si number density = 23.671227 Si / 1000 Ang^3
#
#
#
# Elastic Constant Matrix: (Units=GPa)
#
#
# Indices 1 2 3 4 5 6 
#
# 1 120.3475 86.2198 8.1575 0.0000 16.2352 0.0000
# 2 86.2198 236.2798 7.8437 0.0000 15.5022 0.0000
# 3 8.1575 7.8437 76.8849 0.0000 6.0966 0.0000
# 4 0.0000 0.0000 0.0000 -1.7696 0.0000 23.7872
# 5 16.2352 15.5022 6.0966 0.0000 31.3951 0.0000
# 6 0.0000 0.0000 0.0000 23.7872 0.0000 27.0262
#
#
#
# Elastic Compliance Matrix: (Units=1/GPa)
#
#
# Indices 1 2 3 4 5 6 
#
# 1 0.011757 -0.004011 -0.000521 0.000000 -0.003998 0.000000
# 2 -0.004011 0.005748 -0.000102 0.000000 -0.000744 0.000000
# 3 -0.000521 -0.000102 0.013251 0.000000 -0.002253 0.000000
# 4 0.000000 0.000000 0.000000 -0.044041 0.000000 0.038763
# 5 -0.003998 -0.000744 -0.002253 0.000000 0.034725 0.000000
# 6 0.000000 0.000000 0.000000 0.038763 0.000000 0.002884
#
#
# Mechanical properties :
#
#
# Convention : Reuss Voigt Hill
#
# Bulk Modulus (GPa) = 46.53617 70.88381 58.70999
# Shear Modulus (GPa) = 122.68785 33.41643 78.05214
#
# Velocity S-wave (km/s) = 7.20711 3.76132 5.74848
# Velocity P-wave (km/s) = 9.43179 6.99096 8.30157
#
# Compressibility (1/GPa) = 0.02148866
#
# Stress axis : x y z
#
# Youngs Moduli (GPa) = 85.05314 173.97315 75.46702
#
# Poissons Ratio (x) = 0.69775 0.03934
# Poissons Ratio (y) = 0.34112 0.00769
# Poissons Ratio (z) = 0.04433 0.01772
#
# Static dielectric constant tensor:
#      x y z
#    x 1.867360 0.000000 0.019740 
#    y 0.000000 2.035570 0.000000 
#    z 0.019740 0.000000 1.989840 
# 
# From -- ./inp_files/12381.got.cif
#   From: 2010.05.17/outbox.cif.g08.bks.cpg/sg10_7_cif.got.tgz:12381.got - 2010.06.03 11:33:40.
