data_PCOD9149870
_publ_section_title
;
Structure prediction by ZEFSAII (Michael W. Deem and Ramdas Pophale) SiO2 
 PCOD9149870
Probable space group: P 2/M
;
_chemical_formula_sum "Si O2"
_cell_formula_units_Z 24
_cell_length_a 25.118209
_cell_length_b 7.694943
_cell_length_c 12.647094
_cell_angle_alpha 90.000000
_cell_angle_beta 33.057935
_cell_angle_gamma 90.000000
_cell_volume 1333.426421
_symmetry_space_group_name_H-M "P 2/M"
_symmetry_group_IT_number 10
_symmetry_cell_setting 'monoclinic'
loop_
_space_group_symop_operation_xyz
x,y,z
-x,y,-z
-x,-y,-z
x,-y,z
loop_
_atom_site_type_symbol
_atom_site_label
_atom_site_fract_x
_atom_site_fract_y
_atom_site_fract_z
Si Si1 0.387513 0.000000 0.316492
Si Si2 0.384124 0.000000 0.067289
Si Si3 0.238477 0.701487 0.249876
Si Si4 0.876709 0.201463 0.991583
Si Si5 0.093476 0.291562 0.682000
Si Si6 0.755876 0.698374 0.386906
Si Si7 0.894703 0.788877 0.720478
O O1 0.376278 0.000000 0.207863
O O2 0.332713 0.169439 0.452110
O O3 0.502062 0.000000 0.150391
O O4 0.328003 0.168972 0.117375
O O5 0.264111 0.500000 0.226210
O O6 0.155694 0.752472 0.473946
O O7 0.188856 0.723174 0.218543
O O8 0.881171 0.268106 0.863929
O O9 0.986398 0.213186 0.854407
O O10 0.847265 0.000000 0.037701
O O11 0.802962 0.295491 0.192728
O O12 0.080668 0.500000 0.706523
O O13 0.158787 0.242613 0.673917
O O14 0.729322 0.500000 0.459058
O O15 0.000000 0.732685 0.500000
O O16 0.893762 0.000000 0.720413
#
# Coordination Sequence:
#
# PCOD9149870 Si02
#       7
#     2   2   4   4   4   4   4
#     4  11  24  42  65  90 112 154 190 245 315 347
#     4  11  24  42  65  89 120 143 194 253 300 355
#     4  11  22  37  61  88 122 160 192 235 294 348
#     4  11  22  33  57  88 121 166 202 232 282 347
#     4  10  21  34  52  85 123 160 195 232 281 346
#     4  11  23  40  59  85 122 157 198 242 289 354
#     4  10  20  35  56  85 123 162 199 239 279 335
#
# _framework density 17.998743000000001
#
# number of rings (size 3 to 8) (size 9 to 14) (size 15 to 20)
#    0.000    1.333    5.000    1.000    2.333    4.333 
#    0.000    1.667    0.000    2.000    0.000    2.333 
#    0.000    0.000    0.000    0.000    0.000    0.000 
#
# Total GULP energy -134134.071324 kJ/mol
# GULP energy per Si atom -5588.919638 kJ/mol
# Density = 1.795778 g / cm^3
# Si number density = 17.998743 Si / 1000 Ang^3
#
#
#
# Elastic Constant Matrix: (Units=GPa)
#
#
# Indices 1 2 3 4 5 6 
#
# 1 69.3798 27.6867 61.1925 0.0000 -8.1690 0.0000
# 2 27.6867 83.2311 50.7157 0.0000 -14.6223 0.0000
# 3 61.1925 50.7157 116.8143 0.0000 -4.2113 0.0000
# 4 0.0000 0.0000 0.0000 -16.6797 0.0000 18.4706
# 5 -8.1690 -14.6223 -4.2113 0.0000 31.1214 0.0000
# 6 0.0000 0.0000 0.0000 18.4706 0.0000 7.5138
#
#
#
# Elastic Compliance Matrix: (Units=1/GPa)
#
#
# Indices 1 2 3 4 5 6 
#
# 1 0.027667 0.000665 -0.014580 0.000000 0.005602 0.000000
# 2 0.000665 0.017896 -0.007847 0.000000 0.007521 0.000000
# 3 -0.014580 -0.007847 0.019429 0.000000 -0.004885 0.000000
# 4 0.000000 0.000000 0.000000 -0.016107 0.000000 0.039595
# 5 0.005602 0.007521 -0.004885 0.000000 0.036475 0.000000
# 6 0.000000 0.000000 0.000000 0.039595 0.000000 0.035756
#
#
# Mechanical properties :
#
#
# Convention : Reuss Voigt Hill
#
# Bulk Modulus (GPa) = 46.58046 60.95722 53.76884
# Shear Modulus (GPa) = 29.10418 13.04644 21.07531
#
# Velocity S-wave (km/s) = 4.02557 2.69523 3.42560
# Velocity P-wave (km/s) = 6.89514 6.60505 6.75165
#
# Compressibility (1/GPa) = 0.02146823
#
# Stress axis : x y z
#
# Youngs Moduli (GPa) = 36.14407 55.87732 51.46983
#
# Poissons Ratio (x) = -0.03715 0.75042
# Poissons Ratio (y) = -0.02403 0.40388
# Poissons Ratio (z) = 0.52698 0.43846
#
# Static dielectric constant tensor:
#      x y z
#    x 1.606750 0.000000 0.027670 
#    y 0.000000 1.641720 0.000000 
#    z 0.027670 0.000000 1.586380 
# 
# From -- ./inp_files/55062.got.cif
#   From: 2010.05.17/outbox.cif.g08.bks.cpg/sg10_28_cif.got.tgz:55062.got - 2010.06.03 11:33:40.
