data_PCOD9149524
_publ_section_title
;
Structure prediction by ZEFSAII (Michael W. Deem and Ramdas Pophale) SiO2 
 PCOD9149524
Probable space group: P 2/M
;
_chemical_formula_sum "Si O2"
_cell_formula_units_Z 28
_cell_length_a 11.507201
_cell_length_b 7.478788
_cell_length_c 15.390422
_cell_angle_alpha 90.000000
_cell_angle_beta 113.863425
_cell_angle_gamma 90.000000
_cell_volume 1211.270234
_symmetry_space_group_name_H-M "P 2/M"
_symmetry_group_IT_number 10
_symmetry_cell_setting 'monoclinic'
loop_
_space_group_symop_operation_xyz
x,y,z
-x,y,-z
-x,-y,-z
x,-y,z
loop_
_atom_site_type_symbol
_atom_site_label
_atom_site_fract_x
_atom_site_fract_y
_atom_site_fract_z
Si Si1 0.643257 0.706081 0.529789
Si Si2 0.026673 0.216072 0.910998
Si Si3 0.663830 0.297238 0.251277
Si Si4 0.223806 0.217978 0.250347
Si Si5 0.607378 0.202581 0.855022
Si Si6 0.852748 0.282073 0.451864
Si Si7 0.310669 0.785567 0.939326
O O1 0.500000 0.783856 0.500000
O O2 0.622405 0.500000 0.495964
O O3 0.711801 0.712985 0.643508
O O4 0.748737 0.778737 0.493045
O O5 0.921316 0.273131 0.809758
O O6 0.168688 0.255531 0.927264
O O7 0.016664 0.000000 0.911534
O O8 0.000000 0.282678 0.000000
O O9 0.642108 0.500000 0.273634
O O10 0.531681 0.199344 0.228098
O O11 0.786244 0.231988 0.340428
O O12 0.678591 0.292695 0.152655
O O13 0.298603 0.282404 0.187089
O O14 0.231643 0.000000 0.256336
O O15 0.654779 0.000000 0.882443
O O16 0.605544 0.276683 0.952723
O O17 0.859511 0.500000 0.460732
O O18 0.000000 0.220106 0.500000
O O19 0.331382 0.000000 0.933339
#
# Coordination Sequence:
#
# PCOD9149524 Si02
#       7
#     4   4   4   4   4   4   4
#     4  10  21  38  60  83 108 145 191 234 281 338
#     4   9  16  32  56  81 110 145 184 221 264 327
#     4  11  23  37  57  81 108 143 187 235 276 316
#     4  10  20  34  58  88 113 141 180 229 278 323
#     4  10  20  36  57  82 114 151 183 213 267 339
#     4   9  20  39  58  76 106 149 190 227 277 341
#     4  10  20  35  57  82 112 149 184 219 267 333
#
# _framework density 23.116230000000002
#
# number of rings (size 3 to 8) (size 9 to 14) (size 15 to 20)
#    0.000    2.143    1.429    1.714    2.000    4.286 
#    0.000    1.429    0.000    3.000    0.000    0.000 
#    0.000    0.000    0.000    0.000    0.000    0.000 
#
# Total GULP energy -156283.893516 kJ/mol
# GULP energy per Si atom -5581.567626 kJ/mol
# Density = 2.306362 g / cm^3
# Si number density = 23.116230 Si / 1000 Ang^3
#
#
#
# Elastic Constant Matrix: (Units=GPa)
#
#
# Indices 1 2 3 4 5 6 
#
# 1 133.4486 5.2708 71.6377 0.0000 23.2821 0.0000
# 2 5.2708 61.4298 -0.0850 0.0000 -1.3132 0.0000
# 3 71.6377 -0.0850 164.6170 0.0000 23.8178 0.0000
# 4 0.0000 0.0000 0.0000 18.0627 0.0000 -6.8296
# 5 23.2821 -1.3132 23.8178 0.0000 47.3068 0.0000
# 6 0.0000 0.0000 0.0000 -6.8296 0.0000 45.6785
#
#
#
# Elastic Compliance Matrix: (Units=1/GPa)
#
#
# Indices 1 2 3 4 5 6 
#
# 1 0.010210 -0.000946 -0.004005 0.000000 -0.003035 0.000000
# 2 -0.000946 0.016377 0.000310 0.000000 0.000764 0.000000
# 3 -0.004005 0.000310 0.008123 0.000000 -0.002110 0.000000
# 4 0.000000 0.000000 0.000000 0.058680 0.000000 0.008773
# 5 -0.003035 0.000764 -0.002110 0.000000 0.023716 0.000000
# 6 0.000000 0.000000 0.000000 0.008773 0.000000 0.023204
#
#
# Mechanical properties :
#
#
# Convention : Reuss Voigt Hill
#
# Bulk Modulus (GPa) = 39.32815 57.01583 48.17199
# Shear Modulus (GPa) = 31.63199 41.05440 36.34319
#
# Velocity S-wave (km/s) = 3.70319 4.21883 3.96939
# Velocity P-wave (km/s) = 5.94432 6.96059 6.47243
#
# Compressibility (1/GPa) = 0.02542708
#
# Stress axis : x y z
#
# Youngs Moduli (GPa) = 97.94174 61.06230 123.10872
#
# Poissons Ratio (x) = 0.05779 0.49300
# Poissons Ratio (y) = 0.09270 -0.03813
# Poissons Ratio (z) = 0.39222 -0.01891
#
# Static dielectric constant tensor:
#      x y z
#    x 1.862890 0.000000 -0.000870 
#    y 0.000000 1.581070 0.000000 
#    z -0.000870 0.000000 1.834830 
# 
# From -- ./inp_files/49579.got.cif
#   From: 2010.05.17/outbox.cif.g08.bks.cpg/sg10_25_cif.got.tgz:49579.got - 2010.06.03 11:33:40.
