data_PCOD9149951
_publ_section_title
;
Structure prediction by ZEFSAII (Michael W. Deem and Ramdas Pophale) SiO2 
 PCOD9149951
Probable space group: P 2/M
;
_chemical_formula_sum "Si O2"
_cell_formula_units_Z 24
_cell_length_a 11.467583
_cell_length_b 11.801884
_cell_length_c 18.447600
_cell_angle_alpha 90.000000
_cell_angle_beta 154.789410
_cell_angle_gamma 90.000000
_cell_volume 1063.452717
_symmetry_space_group_name_H-M "P 2/M"
_symmetry_group_IT_number 10
_symmetry_cell_setting 'monoclinic'
loop_
_space_group_symop_operation_xyz
x,y,z
-x,y,-z
-x,-y,-z
x,-y,z
loop_
_atom_site_type_symbol
_atom_site_label
_atom_site_fract_x
_atom_site_fract_y
_atom_site_fract_z
Si Si1 0.616500 0.880038 0.663049
Si Si2 0.861673 0.688154 0.492577
Si Si3 0.086363 0.250226 0.870180
Si Si4 0.069929 0.500000 0.205464
Si Si5 0.037933 0.131091 0.695389
Si Si6 0.664338 0.500000 0.487690
Si Si7 0.725309 0.783550 0.872653
O O1 0.767200 0.779155 0.706917
O O2 0.291613 0.873179 0.477317
O O3 0.703574 0.875917 0.796447
O O4 0.710536 0.000000 0.684098
O O5 0.045128 0.792549 0.626597
O O6 0.798246 0.606984 0.523477
O O7 0.560872 0.722885 0.297287
O O8 0.000000 0.635833 0.500000
O O9 0.108097 0.384802 0.894903
O O10 0.158033 0.198145 0.832494
O O11 0.234650 0.187944 0.020786
O O12 0.331957 0.500000 0.298214
O O13 0.224015 0.500000 0.368847
O O14 0.131889 0.000000 0.741936
O O15 0.000000 0.717776 0.000000
#
# Coordination Sequence:
#
# PCOD9149951 Si02
#       7
#     4   4   4   2   4   2   4
#     4   9  18  32  53  84 121 155 194 243 295 352
#     4  11  23  42  63  86 119 160 207 243 289 356
#     4  11  20  33  53  87 121 156 189 245 305 352
#     4  11  22  33  60  90 129 148 192 254 301 350
#     4  10  20  35  57  84 116 157 204 243 292 354
#     4  11  21  37  62  90 115 159 202 246 289 352
#     4   9  20  36  58  88 122 153 196 246 302 349
#
# _framework density 22.567997999999999
#
# number of rings (size 3 to 8) (size 9 to 14) (size 15 to 20)
#    0.000    1.833    1.667    4.250    2.333    6.000 
#    0.000    5.833    0.000    2.000    0.000    0.000 
#    0.000    0.000    0.000    0.000    0.000    0.000 
#
# Total GULP energy -133822.105622 kJ/mol
# GULP energy per Si atom -5575.921068 kJ/mol
# Density = 2.251663 g / cm^3
# Si number density = 22.567998 Si / 1000 Ang^3
#
#
#
# Elastic Constant Matrix: (Units=GPa)
#
#
# Indices 1 2 3 4 5 6 
#
# 1 78.3723 24.1578 29.3126 0.0000 -15.8774 0.0000
# 2 24.1578 105.0293 3.6027 0.0000 -3.9709 0.0000
# 3 29.3126 3.6027 65.8072 0.0000 -36.4387 0.0000
# 4 0.0000 0.0000 0.0000 9.3240 0.0000 -1.7302
# 5 -15.8774 -3.9709 -36.4387 0.0000 34.4378 0.0000
# 6 0.0000 0.0000 0.0000 -1.7302 0.0000 37.7570
#
#
#
# Elastic Compliance Matrix: (Units=1/GPa)
#
#
# Indices 1 2 3 4 5 6 
#
# 1 0.016551 -0.003578 -0.007678 0.000000 -0.000906 0.000000
# 2 -0.003578 0.010337 0.001870 0.000000 0.001521 0.000000
# 3 -0.007678 0.001870 0.040262 0.000000 0.039277 0.000000
# 4 0.000000 0.000000 0.000000 0.108170 0.000000 0.004957
# 5 -0.000906 0.001521 0.039277 0.000000 0.070354 0.000000
# 6 0.000000 0.000000 0.000000 0.004957 0.000000 0.026712
#
#
# Mechanical properties :
#
#
# Convention : Reuss Voigt Hill
#
# Bulk Modulus (GPa) = 20.67045 40.37279 30.52162
# Shear Modulus (GPa) = 16.27163 29.11282 22.69223
#
# Velocity S-wave (km/s) = 2.68807 3.59556 3.17441
# Velocity P-wave (km/s) = 4.33743 5.93006 5.19514
#
# Compressibility (1/GPa) = 0.04837824
#
# Stress axis : x y z
#
# Youngs Moduli (GPa) = 60.42093 96.73593 24.83751
#
# Poissons Ratio (x) = 0.34609 0.19070
# Poissons Ratio (y) = 0.21617 -0.04644
# Poissons Ratio (z) = 0.46391 -0.18089
#
# Static dielectric constant tensor:
#      x y z
#    x 1.856330 0.000000 -0.032080 
#    y 0.000000 1.872030 0.000000 
#    z -0.032080 0.000000 1.868870 
# 
# From -- ./inp_files/53724.got.cif
#   From: 2010.05.17/outbox.cif.g08.bks.cpg/sg10_27_cif.got.tgz:53724.got - 2010.06.03 11:33:40.
