data_PCOD9149354
_publ_section_title
;
Structure prediction by ZEFSAII (Michael W. Deem and Ramdas Pophale) SiO2 
 PCOD9149354
Probable space group: P 2/M
;
_chemical_formula_sum "Si O2"
_cell_formula_units_Z 28
_cell_length_a 22.685076
_cell_length_b 9.714135
_cell_length_c 20.139964
_cell_angle_alpha 90.000000
_cell_angle_beta 160.061607
_cell_angle_gamma 90.000000
_cell_volume 1513.455304
_symmetry_space_group_name_H-M "P 2/M"
_symmetry_group_IT_number 10
_symmetry_cell_setting 'monoclinic'
loop_
_space_group_symop_operation_xyz
x,y,z
-x,y,-z
-x,-y,-z
x,-y,z
loop_
_atom_site_type_symbol
_atom_site_label
_atom_site_fract_x
_atom_site_fract_y
_atom_site_fract_z
Si Si1 0.730973 0.161907 0.864578
Si Si2 0.325253 0.839098 0.448188
Si Si3 0.193476 0.150514 0.682141
Si Si4 0.709030 0.342565 0.714143
Si Si5 0.584472 0.351711 0.015102
Si Si6 0.780222 0.339498 0.418836
Si Si7 0.925023 0.839220 0.690539
O O1 0.531923 0.187464 0.676551
O O2 0.770241 0.256936 0.842730
O O3 0.740336 0.000000 0.855481
O O4 0.880359 0.184865 0.076903
O O5 0.257941 0.740736 0.318401
O O6 0.210094 0.820885 0.391783
O O7 0.310048 0.000000 0.411803
O O8 0.188332 0.252226 0.614296
O O9 0.000000 0.135410 0.500000
O O10 0.267260 0.000000 0.743012
O O11 0.294931 0.221433 0.850101
O O12 0.500000 0.346284 0.500000
O O13 0.771584 0.500000 0.778884
O O14 0.672830 0.500000 0.098526
O O15 0.429480 0.337184 0.799085
O O16 0.500000 0.358112 0.000000
O O17 0.829427 0.500000 0.464094
O O18 0.872063 0.263801 0.576383
O O19 0.912942 0.000000 0.656348
#
# Coordination Sequence:
#
# PCOD9149354 Si02
#       7
#     4   4   4   4   4   4   4
#     4   9  18  34  54  75 103 138 177 220 266 319
#     4   9  18  34  54  75 101 138 178 217 269 320
#     4  10  20  34  55  84 110 134 171 218 261 305
#     4   9  17  30  51  78 105 134 172 222 271 314
#     4   8  16  32  53  75 101 133 168 206 252 306
#     4  10  21  37  55  76 106 142 175 212 264 320
#     4  10  21  36  54  76 106 142 180 223 264 313
#
# _framework density 18.500712
#
# number of rings (size 3 to 8) (size 9 to 14) (size 15 to 20)
#    0.000    2.714    0.000    2.143    0.000    7.714 
#    2.571    2.857    0.000    0.000    0.000    0.000 
#    0.000    0.000    0.000    0.000    0.000    0.000 
#
# Total GULP energy -155975.562961 kJ/mol
# GULP energy per Si atom -5570.555820 kJ/mol
# Density = 1.845860 g / cm^3
# Si number density = 18.500712 Si / 1000 Ang^3
#
#
#
# Elastic Constant Matrix: (Units=GPa)
#
#
# Indices 1 2 3 4 5 6 
#
# 1 21.0493 28.9729 10.4742 0.0000 -6.3675 0.0000
# 2 28.9729 123.8736 48.8725 0.0000 -19.8448 0.0000
# 3 10.4742 48.8725 72.3431 0.0000 -15.4224 0.0000
# 4 0.0000 0.0000 0.0000 26.5908 0.0000 -14.9130
# 5 -6.3675 -19.8448 -15.4224 0.0000 25.1066 0.0000
# 6 0.0000 0.0000 0.0000 -14.9130 0.0000 44.0322
#
#
#
# Elastic Compliance Matrix: (Units=1/GPa)
#
#
# Indices 1 2 3 4 5 6 
#
# 1 0.070977 -0.016447 0.002187 0.000000 0.006344 0.000000
# 2 -0.016447 0.015334 -0.007230 0.000000 0.003508 0.000000
# 3 0.002187 -0.007230 0.019896 0.000000 0.007062 0.000000
# 4 0.000000 0.000000 0.000000 0.046425 0.000000 0.015723
# 5 0.006344 0.003508 0.007062 0.000000 0.048550 0.000000
# 6 0.000000 0.000000 0.000000 0.015723 0.000000 0.028036
#
#
# Mechanical properties :
#
#
# Convention : Reuss Voigt Hill
#
# Bulk Modulus (GPa) = 15.81601 43.76726 29.79164
# Shear Modulus (GPa) = 17.04891 27.74236 22.39563
#
# Velocity S-wave (km/s) = 3.03896 3.87658 3.48304
# Velocity P-wave (km/s) = 4.56959 6.61404 5.68448
#
# Compressibility (1/GPa) = 0.06322705
#
# Stress axis : x y z
#
# Youngs Moduli (GPa) = 14.08907 65.21409 50.26105
#
# Poissons Ratio (x) = 1.07261 -0.10994
# Poissons Ratio (y) = 0.23173 0.36339
# Poissons Ratio (z) = -0.03082 0.47150
#
# Static dielectric constant tensor:
#      x y z
#    x 1.613680 0.000000 0.020170 
#    y 0.000000 1.702160 0.000000 
#    z 0.020170 0.000000 1.666320 
# 
# From -- ./inp_files/86485.got.cif
#   From: 2010.05.17/outbox.cif.g08.bks.cpg/sg10_44_cif.got.tgz:86485.got - 2010.06.03 11:33:40.
