data_PCOD9149793
_publ_section_title
;
Structure prediction by ZEFSAII (Michael W. Deem and Ramdas Pophale) SiO2 
 PCOD9149793
Probable space group: P 2/M
;
_chemical_formula_sum "Si O2"
_cell_formula_units_Z 32
_cell_length_a 31.776189
_cell_length_b 8.544111
_cell_length_c 11.488624
_cell_angle_alpha 90.000000
_cell_angle_beta 147.436499
_cell_angle_gamma 90.000000
_cell_volume 1678.834342
_symmetry_space_group_name_H-M "P 2/M"
_symmetry_group_IT_number 10
_symmetry_cell_setting 'monoclinic'
loop_
_space_group_symop_operation_xyz
x,y,z
-x,y,-z
-x,-y,-z
x,-y,z
loop_
_atom_site_type_symbol
_atom_site_label
_atom_site_fract_x
_atom_site_fract_y
_atom_site_fract_z
Si Si1 0.172217 0.309012 0.639633
Si Si2 0.688457 0.813681 0.441825
Si Si3 0.320815 0.686233 0.835516
Si Si4 0.527038 0.814130 0.692315
Si Si5 0.993501 0.689143 0.850701
Si Si6 0.214183 0.311009 0.998135
Si Si7 0.381991 0.313614 0.493085
Si Si8 0.856503 0.186893 0.934810
O O1 0.172451 0.500000 0.641247
O O2 0.241686 0.260061 0.715379
O O3 0.088047 0.257661 0.396399
O O4 0.190377 0.258324 0.813802
O O5 0.669793 0.766245 0.267421
O O6 0.634524 0.730645 0.411832
O O7 0.778035 0.767178 0.680835
O O8 0.681705 0.000000 0.441219
O O9 0.316023 0.500000 0.807272
O O10 0.394547 0.726986 0.087221
O O11 0.500000 0.768173 0.500000
O O12 0.457121 0.770940 0.616557
O O13 0.541160 0.000000 0.726973
O O14 0.993255 0.500000 0.850656
O O15 0.067269 0.744492 0.948234
O O16 0.000000 0.741985 0.000000
O O17 0.211138 0.500000 0.994655
O O18 0.303079 0.265542 0.239187
O O19 0.158182 0.246491 0.968509
O O20 0.391506 0.500000 0.503483
O O21 0.861378 0.000000 0.946623
#
# Coordination Sequence:
#
# PCOD9149793 Si02
#       8
#     4   4   4   4   4   4   4   4
#     4   9  19  35  56  82 109 141 183 232 281 325
#     4  10  21  38  58  82 115 150 183 224 280 340
#     4  11  22  38  61  86 112 143 187 237 278 324
#     4  11  24  40  58  83 117 153 185 222 276 337
#     4  10  20  35  56  80 108 144 186 229 274 327
#     4   9  18  35  58  81 108 143 183 227 275 327
#     4  10  20  36  60  86 110 143 189 235 278 325
#     4  10  21  36  55  81 113 147 182 223 273 329
#
# _framework density 19.060845
#
# number of rings (size 3 to 8) (size 9 to 14) (size 15 to 20)
#    0.000    2.000    0.000    3.375    0.000    6.250 
#    0.000    8.125    0.000    0.000    0.000    0.000 
#    0.000    0.000    0.000    0.000    0.000    0.000 
#
# Total GULP energy -178799.776543 kJ/mol
# GULP energy per Si atom -5587.493017 kJ/mol
# Density = 1.901746 g / cm^3
# Si number density = 19.060845 Si / 1000 Ang^3
#
#
#
# Elastic Constant Matrix: (Units=GPa)
#
#
# Indices 1 2 3 4 5 6 
#
# 1 45.7981 -6.9486 0.6153 0.0000 4.3230 0.0000
# 2 -6.9486 8.2455 -2.2485 0.0000 -0.5040 0.0000
# 3 0.6153 -2.2485 29.3068 0.0000 2.9556 0.0000
# 4 0.0000 0.0000 0.0000 21.7314 0.0000 -1.6197
# 5 4.3230 -0.5040 2.9556 0.0000 40.2562 0.0000
# 6 0.0000 0.0000 0.0000 -1.6197 0.0000 12.0318
#
#
#
# Elastic Compliance Matrix: (Units=1/GPa)
#
#
# Indices 1 2 3 4 5 6 
#
# 1 0.025329 0.021566 0.001380 0.000000 -0.002551 0.000000
# 2 0.021566 0.142261 0.010594 0.000000 -0.001312 0.000000
# 3 0.001380 0.010594 0.035168 0.000000 -0.002598 0.000000
# 4 0.000000 0.000000 0.000000 0.046483 0.000000 0.006258
# 5 -0.002551 -0.001312 -0.002598 0.000000 0.025289 0.000000
# 6 0.000000 0.000000 0.000000 0.006258 0.000000 0.083956
#
#
# Mechanical properties :
#
#
# Convention : Reuss Voigt Hill
#
# Bulk Modulus (GPa) = 3.70594 7.35410 5.53002
# Shear Modulus (GPa) = 13.11128 20.93268 17.02198
#
# Velocity S-wave (km/s) = 2.62556 3.31751 2.99161
# Velocity P-wave (km/s) = 3.33765 4.30594 3.85234
#
# Compressibility (1/GPa) = 0.26983713
#
# Stress axis : x y z
#
# Youngs Moduli (GPa) = 39.48007 7.02935 28.43529
#
# Poissons Ratio (x) = -0.15159 -0.03924
# Poissons Ratio (y) = -0.85141 -0.30125
# Poissons Ratio (z) = -0.05449 -0.07447
#
# Static dielectric constant tensor:
#      x y z
#    x 1.627000 0.000000 -0.009470 
#    y 0.000000 1.641680 0.000000 
#    z -0.009470 0.000000 1.650300 
# 
# From -- ./inp_files/58263.got.cif
#   From: 2010.05.17/outbox.cif.g08.bks.cpg/sg10_30_cif.got.tgz:58263.got - 2010.06.03 11:33:40.
