data_PCOD9149792
_publ_section_title
;
Structure prediction by ZEFSAII (Michael W. Deem and Ramdas Pophale) SiO2 
 PCOD9149792
Probable space group: P 2/M
;
_chemical_formula_sum "Si O2"
_cell_formula_units_Z 32
_cell_length_a 20.268736
_cell_length_b 8.401230
_cell_length_c 11.636465
_cell_angle_alpha 90.000000
_cell_angle_beta 124.501221
_cell_angle_gamma 90.000000
_cell_volume 1632.969083
_symmetry_space_group_name_H-M "P 2/M"
_symmetry_group_IT_number 10
_symmetry_cell_setting 'monoclinic'
loop_
_space_group_symop_operation_xyz
x,y,z
-x,y,-z
-x,-y,-z
x,-y,z
loop_
_atom_site_type_symbol
_atom_site_label
_atom_site_fract_x
_atom_site_fract_y
_atom_site_fract_z
Si Si1 0.745467 0.312701 0.261874
Si Si2 0.596661 0.816203 0.524695
Si Si3 0.565288 0.683984 0.727364
Si Si4 0.060861 0.808615 0.886960
Si Si5 0.079310 0.309375 0.647872
Si Si6 0.886903 0.192464 0.823443
Si Si7 0.576282 0.190223 0.997527
Si Si8 0.248844 0.811101 0.479301
O O1 0.742278 0.500000 0.231837
O O2 0.832608 0.249688 0.305056
O O3 0.663708 0.237628 0.131933
O O4 0.744822 0.282112 0.396859
O O5 0.613604 0.774337 0.674230
O O6 0.525794 0.708191 0.405575
O O7 0.671909 0.798465 0.517687
O O8 0.570335 0.000000 0.491205
O O9 0.587630 0.500000 0.748815
O O10 0.571023 0.749679 0.861469
O O11 0.071206 0.729904 0.774259
O O12 0.972638 0.776884 0.850680
O O13 0.069184 0.000000 0.881541
O O14 0.116899 0.752815 0.048062
O O15 0.080317 0.500000 0.632125
O O16 0.000000 0.249218 0.500000
O O17 0.821187 0.252333 0.671097
O O18 0.878768 0.000000 0.821318
O O19 0.571193 0.000000 0.991713
O O20 0.500000 0.248271 0.000000
O O21 0.235528 0.000000 0.491773
#
# Coordination Sequence:
#
# PCOD9149792 Si02
#       8
#     4   4   4   4   4   4   4   4
#     4  11  24  39  57  84 116 151 192 237 283 337
#     4  10  20  35  56  82 112 147 187 231 280 336
#     4  11  22  37  58  83 112 146 185 230 281 336
#     4   9  17  32  56  81 106 141 185 230 275 327
#     4  10  22  39  56  79 117 157 189 229 281 334
#     4   8  16  32  53  80 110 137 175 230 283 328
#     4  11  24  42  63  85 113 151 191 235 289 345
#     4  10  20  35  56  80 108 143 183 229 280 333
#
# _framework density 19.596208000000001
#
# number of rings (size 3 to 8) (size 9 to 14) (size 15 to 20)
#    0.000    2.000    0.000    5.250    0.000    7.250 
#    0.000    3.125    0.000    0.000    0.000    0.000 
#    0.000    0.000    0.000    0.000    0.000    0.000 
#
# Total GULP energy -178497.602952 kJ/mol
# GULP energy per Si atom -5578.050092 kJ/mol
# Density = 1.955161 g / cm^3
# Si number density = 19.596208 Si / 1000 Ang^3
#
#
#
# Elastic Constant Matrix: (Units=GPa)
#
#
# Indices 1 2 3 4 5 6 
#
# 1 90.9075 4.9837 54.8690 0.0000 -13.6093 0.0000
# 2 4.9837 17.4189 0.3023 0.0000 3.3270 0.0000
# 3 54.8690 0.3023 143.6135 0.0000 -14.6235 0.0000
# 4 0.0000 0.0000 0.0000 27.9434 0.0000 -25.3969
# 5 -13.6093 3.3270 -14.6235 0.0000 31.8714 0.0000
# 6 0.0000 0.0000 0.0000 -25.3969 0.0000 15.4188
#
#
#
# Elastic Compliance Matrix: (Units=1/GPa)
#
#
# Indices 1 2 3 4 5 6 
#
# 1 0.015178 -0.005124 -0.005322 0.000000 0.004574 0.000000
# 2 -0.005124 0.060391 0.001013 0.000000 -0.008027 0.000000
# 3 -0.005322 0.001013 0.009181 0.000000 0.001834 0.000000
# 4 0.000000 0.000000 0.000000 -0.071999 0.000000 -0.118593
# 5 0.004574 -0.008027 0.001834 0.000000 0.035009 0.000000
# 6 0.000000 0.000000 0.000000 -0.118593 0.000000 -0.130484
#
#
# Mechanical properties :
#
#
# Convention : Reuss Voigt Hill
#
# Bulk Modulus (GPa) = 15.17828 41.36108 28.26968
# Shear Modulus (GPa) = -119.34223 27.83238 -45.75493
#
# Velocity S-wave (km/s) = -7.81235 3.77277 -4.83731
# Velocity P-wave (km/s) = 8.57991 6.33489 4.09170
#
# Compressibility (1/GPa) = 0.06588364
#
# Stress axis : x y z
#
# Youngs Moduli (GPa) = 65.88338 16.55889 108.91734
#
# Poissons Ratio (x) = 0.08485 0.57971
# Poissons Ratio (y) = 0.33758 -0.11035
# Poissons Ratio (z) = 0.35066 -0.01678
#
# Static dielectric constant tensor:
#      x y z
#    x 1.808730 0.000000 -0.159860 
#    y 0.000000 1.685570 0.000000 
#    z -0.159860 0.000000 1.980790 
# 
# From -- ./inp_files/55395.got.cif
#   From: 2010.05.17/outbox.cif.g08.bks.cpg/sg10_28_cif.got.tgz:55395.got - 2010.06.03 11:33:40.
