data_PCOD9149360
_publ_section_title
;
Structure prediction by ZEFSAII (Michael W. Deem and Ramdas Pophale) SiO2 
 PCOD9149360
Probable space group: P 2/M
;
_chemical_formula_sum "Si O2"
_cell_formula_units_Z 24
_cell_length_a 15.373117
_cell_length_b 19.209096
_cell_length_c 13.071372
_cell_angle_alpha 90.000000
_cell_angle_beta 160.885747
_cell_angle_gamma 90.000000
_cell_volume 1263.976354
_symmetry_space_group_name_H-M "P 2/M"
_symmetry_group_IT_number 10
_symmetry_cell_setting 'monoclinic'
loop_
_space_group_symop_operation_xyz
x,y,z
-x,y,-z
-x,-y,-z
x,-y,z
loop_
_atom_site_type_symbol
_atom_site_label
_atom_site_fract_x
_atom_site_fract_y
_atom_site_fract_z
Si Si1 0.301710 0.500000 0.906526
Si Si2 0.043246 0.350955 0.168334
Si Si3 0.614171 0.707344 0.842607
Si Si4 0.101287 0.500000 0.348361
Si Si5 0.407014 0.921773 0.778530
Si Si6 0.096464 0.161086 0.726758
Si Si7 0.715289 0.351311 0.164610
O O1 0.265220 0.432806 0.795231
O O2 0.107077 0.500000 0.788880
O O3 0.600312 0.500000 0.279217
O O4 0.301757 0.300800 0.471154
O O5 0.071212 0.427864 0.250741
O O6 0.000000 0.359725 0.000000
O O7 0.792629 0.315234 0.945531
O O8 0.753926 0.774499 0.051526
O O9 0.643132 0.652757 0.967051
O O10 0.164600 0.867023 0.504790
O O11 0.324545 0.000000 0.657767
O O12 0.500000 0.923615 0.000000
O O13 0.672687 0.897133 0.017314
O O14 0.000000 0.171053 0.500000
O O15 0.000000 0.319393 0.500000
O O16 0.500000 0.318257 0.000000
#
# Coordination Sequence:
#
# PCOD9149360 Si02
#       7
#     2   4   4   2   4   4   4
#     4  12  22  39  57  79 110 143 189 233 282 346
#     4  12  25  43  64  82 106 143 192 254 315 354
#     4  12  24  41  58  84 118 147 193 236 284 358
#     4  12  21  43  62  81 104 139 188 255 313 348
#     4   9  17  31  53  83 120 160 197 226 255 307
#     4  10  20  34  55  84 122 162 189 219 272 329
#     4  12  23  37  56  79 112 152 185 225 274 335
#
# _framework density 18.987697000000001
#
# number of rings (size 3 to 8) (size 9 to 14) (size 15 to 20)
#    0.000    0.833    3.333    5.250    0.000    4.000 
#    0.000    2.500    0.000    0.000    0.000    0.000 
#    0.000   46.667    0.000    0.000    0.000    0.000 
#
# Total GULP energy -133848.620512 kJ/mol
# GULP energy per Si atom -5577.025855 kJ/mol
# Density = 1.894448 g / cm^3
# Si number density = 18.987697 Si / 1000 Ang^3
#
#
#
# Elastic Constant Matrix: (Units=GPa)
#
#
# Indices 1 2 3 4 5 6 
#
# 1 116.2172 0.3627 43.2409 0.0000 21.1723 0.0000
# 2 0.3627 80.5655 9.8670 0.0000 5.9941 0.0000
# 3 43.2409 9.8670 82.5626 0.0000 27.2309 0.0000
# 4 0.0000 0.0000 0.0000 28.1724 0.0000 9.1147
# 5 21.1723 5.9941 27.2309 0.0000 36.1249 0.0000
# 6 0.0000 0.0000 0.0000 9.1147 0.0000 14.7643
#
#
#
# Elastic Compliance Matrix: (Units=1/GPa)
#
#
# Indices 1 2 3 4 5 6 
#
# 1 0.010938 0.000761 -0.004876 0.000000 -0.002861 0.000000
# 2 0.000761 0.012694 -0.001429 0.000000 -0.001475 0.000000
# 3 -0.004876 -0.001429 0.018387 0.000000 -0.010765 0.000000
# 4 0.000000 0.000000 0.000000 0.044355 0.000000 -0.027382
# 5 -0.002861 -0.001475 -0.010765 0.000000 0.037719 0.000000
# 6 0.000000 0.000000 0.000000 -0.027382 0.000000 0.084635
#
#
# Mechanical properties :
#
#
# Convention : Reuss Voigt Hill
#
# Bulk Modulus (GPa) = 32.33050 42.92074 37.62562
# Shear Modulus (GPa) = 21.72736 30.87062 26.29899
#
# Velocity S-wave (km/s) = 3.38640 4.03652 3.72567
# Velocity P-wave (km/s) = 5.68809 6.66170 6.19405
#
# Compressibility (1/GPa) = 0.03093054
#
# Stress axis : x y z
#
# Youngs Moduli (GPa) = 91.42832 78.78002 54.38638
#
# Poissons Ratio (x) = -0.05993 0.26516
# Poissons Ratio (y) = -0.06956 0.07772
# Poissons Ratio (z) = 0.44576 0.11258
#
# Static dielectric constant tensor:
#      x y z
#    x 1.644830 0.000000 0.044510 
#    y 0.000000 1.715210 0.000000 
#    z 0.044510 0.000000 1.672600 
# 
# From -- ./inp_files/52088.got.cif
#   From: 2010.05.17/outbox.cif.g08.bks.cpg/sg10_27_cif.got.tgz:52088.got - 2010.06.03 11:33:40.
