data_PCOD9149911
_publ_section_title
;
Structure prediction by ZEFSAII (Michael W. Deem and Ramdas Pophale) SiO2 
 PCOD9149911
Probable space group: P 2/M
;
_chemical_formula_sum "Si O2"
_cell_formula_units_Z 28
_cell_length_a 9.372199
_cell_length_b 8.396532
_cell_length_c 26.312130
_cell_angle_alpha 90.000000
_cell_angle_beta 44.570878
_cell_angle_gamma 90.000000
_cell_volume 1453.132730
_symmetry_space_group_name_H-M "P 2/M"
_symmetry_group_IT_number 10
_symmetry_cell_setting 'monoclinic'
loop_
_space_group_symop_operation_xyz
x,y,z
-x,y,-z
-x,-y,-z
x,-y,z
loop_
_atom_site_type_symbol
_atom_site_label
_atom_site_fract_x
_atom_site_fract_y
_atom_site_fract_z
Si Si1 0.898244 0.309793 0.719321
Si Si2 0.330114 0.807667 0.417591
Si Si3 0.000454 0.807666 0.582416
Si Si4 0.775519 0.690207 0.280686
Si Si5 0.664616 0.194703 0.999996
Si Si6 0.879048 0.807678 0.142323
Si Si7 0.551680 0.807678 0.142315
O O1 0.888655 0.500000 0.724590
O O2 0.673136 0.242822 0.784688
O O3 0.980913 0.261076 0.643225
O O4 0.050591 0.251194 0.724704
O O5 0.201585 0.759622 0.500004
O O6 0.553811 0.738924 0.356785
O O7 0.192327 0.761719 0.403840
O O8 0.342113 0.000000 0.414546
O O9 0.000271 0.000000 0.585461
O O10 0.787005 0.500000 0.275417
O O11 0.811859 0.757178 0.215323
O O12 0.603891 0.246740 0.072013
O O13 0.664435 0.000000 0.999996
O O14 0.500000 0.246437 0.000000
O O15 0.891951 0.246740 0.927977
O O16 0.718969 0.751157 0.140516
O O17 0.880194 0.000000 0.140178
O O18 0.559113 0.000000 0.140170
#
# Coordination Sequence:
#
# PCOD9149911 Si02
#       7
#     4   4   4   4   4   4   4
#     4  11  24  38  52  76 111 147 182 221 266 317
#     4   9  19  37  60  84 108 136 175 222 269 319
#     4   9  19  37  60  84 108 136 175 222 269 319
#     4  11  24  38  52  76 111 147 182 221 266 317
#     4   9  17  31  54  83 112 141 174 216 268 321
#     4  10  20  35  57  83 109 139 179 225 269 316
#     4  10  20  35  57  83 109 139 179 225 269 316
#
# _framework density 19.268715
#
# number of rings (size 3 to 8) (size 9 to 14) (size 15 to 20)
#    0.000    2.143    0.000    3.857    0.000   10.857 
#    0.000    5.000    0.000    4.286    0.000    0.000 
#    0.000    0.000    0.000    0.000    0.000    0.000 
#
# Total GULP energy -156407.303320 kJ/mol
# GULP energy per Si atom -5585.975119 kJ/mol
# Density = 1.922486 g / cm^3
# Si number density = 19.268715 Si / 1000 Ang^3
#
#
#
# Elastic Constant Matrix: (Units=GPa)
#
#
# Indices 1 2 3 4 5 6 
#
# 1 205.5235 21.9969 115.9466 0.0000 37.7535 0.0000
# 2 21.9969 7.1968 14.4983 0.0000 -0.5157 0.0000
# 3 115.9466 14.4983 164.6595 0.0000 -39.9522 0.0000
# 4 0.0000 0.0000 0.0000 -49.5767 0.0000 -5.1432
# 5 37.7535 -0.5157 -39.9522 0.0000 280.8227 0.0000
# 6 0.0000 0.0000 0.0000 -5.1432 0.0000 17.1762
#
#
#
# Elastic Compliance Matrix: (Units=1/GPa)
#
#
# Indices 1 2 3 4 5 6 
#
# 1 0.011482 -0.021567 -0.006805 0.000000 -0.002551 0.000000
# 2 -0.021567 0.210378 -0.002631 0.000000 0.002912 0.000000
# 3 -0.006805 -0.002631 0.011722 0.000000 0.002578 0.000000
# 4 0.000000 0.000000 0.000000 -0.019563 0.000000 -0.005858
# 5 -0.002551 0.002912 0.002578 0.000000 0.004276 0.000000
# 6 0.000000 0.000000 0.000000 -0.005858 0.000000 0.056466
#
#
# Mechanical properties :
#
#
# Convention : Reuss Voigt Hill
#
# Bulk Modulus (GPa) = 5.82832 75.80703 40.81767
# Shear Modulus (GPa) = 12.69172 64.68032 38.68602
#
# Velocity S-wave (km/s) = 2.56924 5.80004 4.48561
# Velocity P-wave (km/s) = 3.43986 9.18049 6.93231
#
# Compressibility (1/GPa) = 0.17157597
#
# Stress axis : x y z
#
# Youngs Moduli (GPa) = 87.09584 4.75335 85.31010
#
# Poissons Ratio (x) = 0.10252 0.58053
# Poissons Ratio (y) = 1.87842 0.22441
# Poissons Ratio (z) = 0.59268 0.01250
#
# Static dielectric constant tensor:
#      x y z
#    x 1.659860 0.000000 -0.001920 
#    y 0.000000 1.663390 0.000000 
#    z -0.001920 0.000000 1.634910 
# 
# From -- ./inp_files/36958.got.cif
#   From: 2010.05.17/outbox.cif.g08.bks.cpg/sg10_19_cif.got.tgz:36958.got - 2010.06.03 11:33:40.
