data_PCOD9149638
_publ_section_title
;
Structure prediction by ZEFSAII (Michael W. Deem and Ramdas Pophale) SiO2 
 PCOD9149638
Probable space group: P 2/M
;
_chemical_formula_sum "Si O2"
_cell_formula_units_Z 32
_cell_length_a 16.075409
_cell_length_b 8.119129
_cell_length_c 24.685688
_cell_angle_alpha 90.000000
_cell_angle_beta 150.107926
_cell_angle_gamma 90.000000
_cell_volume 1605.708456
_symmetry_space_group_name_H-M "P 2/M"
_symmetry_group_IT_number 10
_symmetry_cell_setting 'monoclinic'
loop_
_space_group_symop_operation_xyz
x,y,z
-x,y,-z
-x,-y,-z
x,-y,z
loop_
_atom_site_type_symbol
_atom_site_label
_atom_site_fract_x
_atom_site_fract_y
_atom_site_fract_z
Si Si1 0.927377 0.801370 0.638584
Si Si2 0.267779 0.194181 0.156767
Si Si3 0.811701 0.310225 0.405441
Si Si4 0.074181 0.698929 0.835314
Si Si5 0.380532 0.190336 0.602758
Si Si6 0.026704 0.696233 0.931569
Si Si7 0.546072 0.312979 0.963617
Si Si8 0.769854 0.188632 0.269008
O O1 0.969011 0.756128 0.723908
O O2 0.748337 0.739529 0.514833
O O3 0.078770 0.746726 0.683771
O O4 0.925504 0.000000 0.633808
O O5 0.439103 0.263885 0.279423
O O6 0.120100 0.220979 0.116663
O O7 0.292425 0.000000 0.161025
O O8 0.198748 0.268610 0.061410
O O9 0.810839 0.500000 0.423511
O O10 0.723971 0.201720 0.400769
O O11 0.736249 0.292982 0.303657
O O12 0.000000 0.256940 0.500000
O O13 0.070859 0.500000 0.832570
O O14 0.023274 0.751892 0.867172
O O15 0.266422 0.750521 0.936281
O O16 0.411203 0.000000 0.604740
O O17 0.000559 0.500000 0.918237
O O18 0.538624 0.500000 0.935982
O O19 0.403983 0.198278 0.859882
O O20 0.500000 0.327831 0.000000
O O21 0.809470 0.000000 0.306188
#
# Coordination Sequence:
#
# PCOD9149638 Si02
#       8
#     4   4   4   4   4   4   4   4
#     4  10  21  37  57  80 113 153 191 234 282 333
#     4  10  21  39  64  89 113 144 185 232 284 344
#     4  11  23  36  54  81 112 151 195 233 276 335
#     4  10  22  38  57  83 114 151 191 233 282 338
#     4  10  22  40  59  84 116 150 190 238 288 335
#     4  10  21  39  62  87 118 148 179 230 289 341
#     4  10  20  35  54  77 111 150 189 233 277 328
#     4  11  22  35  53  77 111 152 192 236 281 330
#
# _framework density 19.928899000000001
#
# number of rings (size 3 to 8) (size 9 to 14) (size 15 to 20)
#    0.000    1.750    2.500    2.250    1.750    4.250 
#    0.000    0.625    0.000    3.750    0.000    0.000 
#    0.000    0.000    0.000    0.000    0.000    0.000 
#
# Total GULP energy -178472.037638 kJ/mol
# GULP energy per Si atom -5577.251176 kJ/mol
# Density = 1.988354 g / cm^3
# Si number density = 19.928899 Si / 1000 Ang^3
#
#
#
# Elastic Constant Matrix: (Units=GPa)
#
#
# Indices 1 2 3 4 5 6 
#
# 1 68.2143 -6.2901 36.6540 0.0000 -19.1807 0.0000
# 2 -6.2901 18.5461 2.9786 0.0000 0.3358 0.0000
# 3 36.6540 2.9786 148.7186 0.0000 -10.4853 0.0000
# 4 0.0000 0.0000 0.0000 22.0192 0.0000 -7.4029
# 5 -19.1807 0.3358 -10.4853 0.0000 28.7533 0.0000
# 6 0.0000 0.0000 0.0000 -7.4029 0.0000 19.6482
#
#
#
# Elastic Compliance Matrix: (Units=1/GPa)
#
#
# Indices 1 2 3 4 5 6 
#
# 1 0.021314 0.007730 -0.004528 0.000000 0.012476 0.000000
# 2 0.007730 0.056929 -0.002801 0.000000 0.003471 0.000000
# 3 -0.004528 -0.002801 0.007888 0.000000 -0.000111 0.000000
# 4 0.000000 0.000000 0.000000 0.052002 0.000000 0.019593
# 5 0.012476 0.003471 -0.000111 0.000000 0.043020 0.000000
# 6 0.000000 0.000000 0.000000 0.019593 0.000000 0.058277
#
#
# Mechanical properties :
#
#
# Convention : Reuss Voigt Hill
#
# Bulk Modulus (GPa) = 11.50309 33.57378 22.53843
# Shear Modulus (GPa) = 18.68420 27.55991 23.12206
#
# Velocity S-wave (km/s) = 3.06525 3.72279 3.40991
# Velocity P-wave (km/s) = 4.27929 5.94661 5.18047
#
# Compressibility (1/GPa) = 0.08693315
#
# Stress axis : x y z
#
# Youngs Moduli (GPa) = 46.91775 17.56589 126.76802
#
# Poissons Ratio (x) = -0.13579 0.57405
# Poissons Ratio (y) = -0.36268 0.35504
# Poissons Ratio (z) = 0.21246 0.04920
#
# Static dielectric constant tensor:
#      x y z
#    x 1.665030 0.000000 0.000250 
#    y 0.000000 1.742920 0.000000 
#    z 0.000250 0.000000 1.718110 
# 
# From -- ./inp_files/89629.got.cif
#   From: 2010.05.17/outbox.cif.g08.bks.cpg/sg10_45_cif.got.tgz:89629.got - 2010.06.03 11:33:40.
