data_PCOD9149513
_publ_section_title
;
Structure prediction by ZEFSAII (Michael W. Deem and Ramdas Pophale) SiO2 
 PCOD9149513
Probable space group: P 2/M
;
_chemical_formula_sum "Si O2"
_cell_formula_units_Z 25
_cell_length_a 9.409251
_cell_length_b 19.139083
_cell_length_c 9.546175
_cell_angle_alpha 90.000000
_cell_angle_beta 47.515798
_cell_angle_gamma 90.000000
_cell_volume 1267.786588
_symmetry_space_group_name_H-M "P 2/M"
_symmetry_group_IT_number 10
_symmetry_cell_setting 'monoclinic'
loop_
_space_group_symop_operation_xyz
x,y,z
-x,y,-z
-x,-y,-z
x,-y,z
loop_
_atom_site_type_symbol
_atom_site_label
_atom_site_fract_x
_atom_site_fract_y
_atom_site_fract_z
Si Si1 0.132818 0.851936 0.043234
Si Si2 0.644783 0.299629 0.533309
Si Si3 0.000000 0.500000 0.500000
Si Si4 0.945689 0.272831 0.699350
Si Si5 0.805224 0.000000 0.896068
Si Si6 0.356343 0.000000 0.298950
Si Si7 0.333453 0.614132 0.208218
Si Si8 0.551082 0.859422 0.627864
O O1 0.100261 0.797727 0.188942
O O2 0.091154 0.930583 0.120115
O O3 0.353480 0.852006 0.846076
O O4 0.000000 0.832976 0.000000
O O5 0.500000 0.308445 0.500000
O O6 0.592406 0.349394 0.697775
O O7 0.643787 0.217196 0.574510
O O8 0.870855 0.310994 0.351313
O O9 0.165019 0.560765 0.360024
O O10 0.763492 0.323476 0.816799
O O11 0.000000 0.261910 0.500000
O O12 0.775319 0.000000 0.750124
O O13 0.584298 0.000000 0.102575
O O14 0.332815 0.926740 0.395438
O O15 0.500000 0.583626 0.000000
O O16 0.500000 0.872298 0.500000
#
# Coordination Sequence:
#
# PCOD9149513 Si02
#       8
#     4   4   1   4   2   2   4   4
#     4  11  21  37  57  82 120 164 210 269 333 383
#     4  10  20  39  63  95 132 166 212 271 323 377
#     4  12  22  48  70 104 136 174 208 264 308 392
#     4  10  22  40  62  94 129 162 217 275 313 385
#     4   9  21  34  50  79 115 162 213 274 317 389
#     4   9  19  34  51  78 117 159 217 269 322 382
#     4  11  23  42  72 100 132 174 214 258 317 383
#     4  10  20  34  58  84 116 163 213 266 329 384
#
# _framework density 19.719407
#
# number of rings (size 3 to 8) (size 9 to 14) (size 15 to 20)
#    0.000    1.760    2.400    3.600    4.480    0.000 
#    0.000    3.200    0.000    0.960    0.000    0.000 
#    0.000    0.000    0.000    0.000    0.000    0.000 
#
# Total GULP energy -139340.988918 kJ/mol
# GULP energy per Si atom -5573.639557 kJ/mol
# Density = 1.967452 g / cm^3
# Si number density = 19.719407 Si / 1000 Ang^3
#
#
#
# Elastic Constant Matrix: (Units=GPa)
#
#
# Indices 1 2 3 4 5 6 
#
# 1 86.4743 32.0879 28.4588 0.0000 1.5233 0.0000
# 2 32.0879 110.2207 36.5684 0.0000 17.6283 0.0000
# 3 28.4588 36.5684 95.8239 0.0000 -4.5979 0.0000
# 4 0.0000 0.0000 0.0000 -36.1554 0.0000 13.8296
# 5 1.5233 17.6283 -4.5979 0.0000 19.1885 0.0000
# 6 0.0000 0.0000 0.0000 13.8296 0.0000 -20.6751
#
#
#
# Elastic Compliance Matrix: (Units=1/GPa)
#
#
# Indices 1 2 3 4 5 6 
#
# 1 0.013659 -0.003265 -0.002750 0.000000 0.001256 0.000000
# 2 -0.003265 0.013859 -0.004975 0.000000 -0.013665 0.000000
# 3 -0.002750 -0.004975 0.013537 0.000000 0.008033 0.000000
# 4 0.000000 0.000000 0.000000 -0.037168 0.000000 -0.024862
# 5 0.001256 -0.013665 0.008033 0.000000 0.066494 0.000000
# 6 0.000000 0.000000 0.000000 -0.024862 0.000000 -0.064997
#
#
# Mechanical properties :
#
#
# Convention : Reuss Voigt Hill
#
# Bulk Modulus (GPa) = 52.42671 54.08325 53.25498
# Shear Modulus (GPa) = 148.27440 5.49850 76.88645
#
# Velocity S-wave (km/s) = 8.68075 1.67165 6.25099
# Velocity P-wave (km/s) = 11.27466 5.58676 8.89746
#
# Compressibility (1/GPa) = 0.01907425
#
# Stress axis : x y z
#
# Youngs Moduli (GPa) = 73.21402 72.15339 73.87349
#
# Poissons Ratio (x) = 0.23556 0.20318
# Poissons Ratio (y) = 0.23902 0.36753
# Poissons Ratio (z) = 0.20136 0.35897
#
# Static dielectric constant tensor:
#      x y z
#    x 1.680330 0.000000 -0.025980 
#    y 0.000000 1.675180 0.000000 
#    z -0.025980 0.000000 1.719670 
# 
# From -- ./inp_files/20215.got.cif
#   From: 2010.05.17/outbox.cif.g08.bks.cpg/sg10_11_cif.got.tgz:20215.got - 2010.06.03 11:33:40.
