data_PCOD9149113
_publ_section_title
;
Structure prediction by ZEFSAII (Michael W. Deem and Ramdas Pophale) SiO2 
 PCOD9149113
Probable space group: P 2/M
;
_chemical_formula_sum "Si O2"
_cell_formula_units_Z 32
_cell_length_a 11.743675
_cell_length_b 10.699617
_cell_length_c 25.297980
_cell_angle_alpha 90.000000
_cell_angle_beta 30.582341
_cell_angle_gamma 90.000000
_cell_volume 1617.278475
_symmetry_space_group_name_H-M "P 2/M"
_symmetry_group_IT_number 10
_symmetry_cell_setting 'monoclinic'
loop_
_space_group_symop_operation_xyz
x,y,z
-x,y,-z
-x,-y,-z
x,-y,z
loop_
_atom_site_type_symbol
_atom_site_label
_atom_site_fract_x
_atom_site_fract_y
_atom_site_fract_z
Si Si1 0.038562 0.350248 0.045403
Si Si2 0.454181 0.857919 0.456234
Si Si3 0.435914 0.649565 0.736421
Si Si4 0.774974 0.354555 0.509487
Si Si5 0.356320 0.730269 0.009171
Si Si6 0.048079 0.142057 0.771107
Si Si7 0.261504 0.861635 0.201870
Si Si8 0.729891 0.643431 0.716704
O O1 0.026247 0.500000 0.047024
O O2 0.817147 0.302650 0.165243
O O3 0.000000 0.304817 0.000000
O O4 0.260621 0.325706 0.991934
O O5 0.500000 0.861183 0.500000
O O6 0.284926 0.747498 0.510517
O O7 0.691503 0.825414 0.333708
O O8 0.386519 0.000000 0.467360
O O9 0.424641 0.500000 0.734480
O O10 0.625076 0.687437 0.619111
O O11 0.526364 0.671483 0.759107
O O12 0.718207 0.500000 0.518820
O O13 0.041883 0.352895 0.409030
O O14 0.527313 0.837747 0.921486
O O15 0.500000 0.664470 0.000000
O O16 0.129125 0.774409 0.127638
O O17 0.958488 0.141882 0.746610
O O18 0.027589 0.000000 0.799198
O O19 0.256606 0.747380 0.244066
O O20 0.278612 0.000000 0.219266
O O21 0.710186 0.500000 0.744735
#
# Coordination Sequence:
#
# PCOD9149113 Si02
#       8
#     4   4   4   4   4   4   4   4
#     4  10  20  34  54  80 112 151 188 224 274 335
#     4  10  20  34  53  77 107 143 178 216 268 329
#     4   9  18  34  55  77 105 144 185 220 264 328
#     4  10  20  34  54  79 105 136 178 226 271 318
#     4  10  20  34  55  82 109 141 185 234 278 323
#     4   9  18  34  54  76 106 145 186 223 267 329
#     4  10  20  35  56  80 107 142 183 227 276 329
#     4  10  20  35  56  80 106 139 181 228 275 325
#
# _framework density 19.786327
#
# number of rings (size 3 to 8) (size 9 to 14) (size 15 to 20)
#    0.000    2.250    0.000    3.000    0.000    6.500 
#    0.000    3.125    0.000    9.750    0.000    0.000 
#    0.000    0.000    0.000    0.000    0.000    0.000 
#
# Total GULP energy -178142.333179 kJ/mol
# GULP energy per Si atom -5566.947912 kJ/mol
# Density = 1.974129 g / cm^3
# Si number density = 19.786327 Si / 1000 Ang^3
#
#
#
# Elastic Constant Matrix: (Units=GPa)
#
#
# Indices 1 2 3 4 5 6 
#
# 1 93.9045 34.5471 27.6471 0.0000 -9.7224 0.0000
# 2 34.5471 64.8876 17.4336 0.0000 -1.8514 0.0000
# 3 27.6471 17.4336 63.8059 0.0000 -6.9546 0.0000
# 4 0.0000 0.0000 0.0000 10.7832 0.0000 -5.6470
# 5 -9.7224 -1.8514 -6.9546 0.0000 34.7448 0.0000
# 6 0.0000 0.0000 0.0000 -5.6470 0.0000 42.3613
#
#
#
# Elastic Compliance Matrix: (Units=1/GPa)
#
#
# Indices 1 2 3 4 5 6 
#
# 1 0.014604 -0.006559 -0.004221 0.000000 0.002892 0.000000
# 2 -0.006559 0.019578 -0.002651 0.000000 -0.001323 0.000000
# 3 -0.004221 -0.002651 0.018485 0.000000 0.002378 0.000000
# 4 0.000000 0.000000 0.000000 0.099697 0.000000 0.013290
# 5 0.002892 -0.001323 0.002378 0.000000 0.029996 0.000000
# 6 0.000000 0.000000 0.000000 0.013290 0.000000 0.025378
#
#
# Mechanical properties :
#
#
# Convention : Reuss Voigt Hill
#
# Bulk Modulus (GPa) = 38.75218 42.42816 40.59017
# Shear Modulus (GPa) = 20.55907 27.10922 23.83414
#
# Velocity S-wave (km/s) = 3.22693 3.70550 3.47447
# Velocity P-wave (km/s) = 5.78895 6.30851 6.05431
#
# Compressibility (1/GPa) = 0.02580500
#
# Stress axis : x y z
#
# Youngs Moduli (GPa) = 68.47326 51.07778 54.09805
#
# Poissons Ratio (x) = 0.33502 0.22833
# Poissons Ratio (y) = 0.44912 0.14344
# Poissons Ratio (z) = 0.28900 0.13543
#
# Static dielectric constant tensor:
#      x y z
#    x 1.723630 0.000000 0.019730 
#    y 0.000000 1.670190 0.000000 
#    z 0.019730 0.000000 1.760130 
# 
# From -- ./inp_files/88903.got.cif
#   From: 2010.05.17/outbox.cif.g08.bks.cpg/sg10_45_cif.got.tgz:88903.got - 2010.06.03 11:33:40.
