data_PCOD9149525
_publ_section_title
;
Structure prediction by ZEFSAII (Michael W. Deem and Ramdas Pophale) SiO2 
 PCOD9149525
Probable space group: P 2/M
;
_chemical_formula_sum "Si O2"
_cell_formula_units_Z 28
_cell_length_a 10.494699
_cell_length_b 15.600675
_cell_length_c 22.269650
_cell_angle_alpha 90.000000
_cell_angle_beta 154.574978
_cell_angle_gamma 90.000000
_cell_volume 1565.372116
_symmetry_space_group_name_H-M "P 2/M"
_symmetry_group_IT_number 10
_symmetry_cell_setting 'monoclinic'
loop_
_space_group_symop_operation_xyz
x,y,z
-x,y,-z
-x,-y,-z
x,-y,z
loop_
_atom_site_type_symbol
_atom_site_label
_atom_site_fract_x
_atom_site_fract_y
_atom_site_fract_z
Si Si1 0.207426 0.094214 0.834173
Si Si2 0.219574 0.650363 0.339967
Si Si3 0.215746 0.267762 0.760724
Si Si4 0.334055 0.404122 0.259289
Si Si5 0.208279 0.248056 0.533200
Si Si6 0.100001 0.725547 0.977012
Si Si7 0.767841 0.177520 0.729282
O O1 0.211351 0.174793 0.791228
O O2 0.928308 0.104179 0.760520
O O3 0.203941 0.000000 0.803905
O O4 0.500000 0.100923 0.000000
O O5 0.500000 0.624876 0.500000
O O6 0.213475 0.596234 0.276611
O O7 0.275433 0.745942 0.337627
O O8 0.920310 0.662021 0.251012
O O9 0.991940 0.264828 0.609896
O O10 0.549011 0.285259 0.880875
O O11 0.420758 0.500000 0.278927
O O12 0.599755 0.334236 0.371189
O O13 0.075882 0.363080 0.109083
O O14 0.444286 0.172352 0.620660
O O15 0.000000 0.228096 0.500000
O O16 0.983896 0.787261 0.873848
O O17 0.000000 0.757866 0.000000
#
# Coordination Sequence:
#
# PCOD9149525 Si02
#       7
#     4   4   4   4   4   4   4
#     4  10  20  34  58  88 116 142 171 226 285 320
#     4   9  16  32  53  76 101 136 175 218 269 321
#     4  11  18  34  59  82 104 140 189 223 261 330
#     4  10  22  37  52  77 113 142 176 234 288 323
#     4  10  20  36  58  79 105 148 191 221 260 326
#     4  10  20  35  55  77 104 146 190 222 264 317
#     4   9  18  33  53  81 108 139 178 224 263 322
#
# _framework density 17.887121
#
# number of rings (size 3 to 8) (size 9 to 14) (size 15 to 20)
#    0.000    2.429    4.286    1.714    0.000    0.857 
#    0.000    3.571    0.000    5.143    0.000    0.000 
#    0.000    0.000    0.000    0.000    0.000    0.000 
#
# Total GULP energy -155930.562961 kJ/mol
# GULP energy per Si atom -5568.948677 kJ/mol
# Density = 1.784641 g / cm^3
# Si number density = 17.887121 Si / 1000 Ang^3
#
#
#
# Elastic Constant Matrix: (Units=GPa)
#
#
# Indices 1 2 3 4 5 6 
#
# 1 88.3091 -1.9483 30.0272 0.0000 26.7494 0.0000
# 2 -1.9483 54.1235 15.2368 0.0000 3.7281 0.0000
# 3 30.0272 15.2368 99.1945 0.0000 23.9708 0.0000
# 4 0.0000 0.0000 0.0000 10.0508 0.0000 9.3953
# 5 26.7494 3.7281 23.9708 0.0000 33.9893 0.0000
# 6 0.0000 0.0000 0.0000 9.3953 0.0000 11.1805
#
#
#
# Elastic Compliance Matrix: (Units=1/GPa)
#
#
# Indices 1 2 3 4 5 6 
#
# 1 0.015407 0.001961 -0.002390 0.000000 -0.010655 0.000000
# 2 0.001961 0.019561 -0.003263 0.000000 -0.001388 0.000000
# 3 -0.002390 -0.003263 0.012976 0.000000 -0.006912 0.000000
# 4 0.000000 0.000000 0.000000 0.463899 0.000000 -0.389829
# 5 -0.010655 -0.001388 -0.006912 0.000000 0.042833 0.000000
# 6 0.000000 0.000000 0.000000 -0.389829 0.000000 0.417028
#
#
# Mechanical properties :
#
#
# Convention : Reuss Voigt Hill
#
# Bulk Modulus (GPa) = 24.65430 36.47314 30.56372
# Shear Modulus (GPa) = 5.03723 24.26486 14.65105
#
# Velocity S-wave (km/s) = 1.67995 3.68714 2.86507
# Velocity P-wave (km/s) = 4.19239 6.20980 5.29801
#
# Compressibility (1/GPa) = 0.04056088
#
# Stress axis : x y z
#
# Youngs Moduli (GPa) = 64.90402 51.12189 77.06266
#
# Poissons Ratio (x) = -0.10028 0.18422
# Poissons Ratio (y) = -0.12731 0.25146
# Poissons Ratio (z) = 0.15515 0.16681
#
# Static dielectric constant tensor:
#      x y z
#    x 1.644490 0.000000 0.016400 
#    y 0.000000 1.601350 0.000000 
#    z 0.016400 0.000000 1.615410 
# 
# From -- ./inp_files/89022.got.cif
#   From: 2010.05.17/outbox.cif.g08.bks.cpg/sg10_45_cif.got.tgz:89022.got - 2010.06.03 11:33:40.
