data_PCOD9149910
_publ_section_title
;
Structure prediction by ZEFSAII (Michael W. Deem and Ramdas Pophale) SiO2 
 PCOD9149910
Probable space group: P 2/M
;
_chemical_formula_sum "Si O2"
_cell_formula_units_Z 32
_cell_length_a 12.222905
_cell_length_b 9.229670
_cell_length_c 33.464253
_cell_angle_alpha 90.000000
_cell_angle_beta 22.897633
_cell_angle_gamma 90.000000
_cell_volume 1468.883088
_symmetry_space_group_name_H-M "P 2/M"
_symmetry_group_IT_number 10
_symmetry_cell_setting 'monoclinic'
loop_
_space_group_symop_operation_xyz
x,y,z
-x,y,-z
-x,-y,-z
x,-y,z
loop_
_atom_site_type_symbol
_atom_site_label
_atom_site_fract_x
_atom_site_fract_y
_atom_site_fract_z
Si Si1 0.381527 0.831860 0.997844
Si Si2 0.666009 0.670043 0.066080
Si Si3 0.358240 0.174425 0.332095
Si Si4 0.157354 0.164745 0.619608
Si Si5 0.654037 0.671326 0.158764
Si Si6 0.167750 0.167655 0.771105
Si Si7 0.804458 0.671590 0.315081
Si Si8 0.203619 0.173391 0.515448
O O1 0.443252 0.751385 0.936136
O O2 0.047738 0.827670 0.119476
O O3 0.471209 0.000000 0.964557
O O4 0.500000 0.773418 0.000000
O O5 0.597075 0.500000 0.086201
O O6 0.006961 0.682540 0.951605
O O7 0.573643 0.723092 0.141063
O O8 0.509205 0.243996 0.243149
O O9 0.532334 0.218124 0.312714
O O10 0.029039 0.208499 0.439278
O O11 0.381289 0.000000 0.322076
O O12 0.500000 0.167697 0.500000
O O13 0.078980 0.269179 0.682117
O O14 0.064033 0.199837 0.606100
O O15 0.077629 0.000000 0.656552
O O16 0.586381 0.500000 0.184164
O O17 0.061070 0.260276 0.769790
O O18 0.187528 0.000000 0.751520
O O19 0.810423 0.500000 0.312427
O O20 0.486096 0.734460 0.419149
O O21 0.268778 0.000000 0.491955
#
# Coordination Sequence:
#
# PCOD9149910 Si02
#       8
#     4   4   4   4   4   4   4   4
#     4  10  21  38  59  83 109 140 184 234 276 315
#     4   9  18  34  56  80 108 145 180 213 270 336
#     4  10  20  35  57  83 108 142 187 229 271 322
#     4   8  15  32  56  76 101 138 173 215 271 320
#     4   9  18  33  54  80 111 144 176 217 271 328
#     4  10  21  38  57  77 108 146 181 224 277 325
#     4  11  22  35  55  82 110 144 188 226 263 318
#     4   9  19  36  57  82 111 143 180 223 276 328
#
# _framework density 21.785257999999999
#
# number of rings (size 3 to 8) (size 9 to 14) (size 15 to 20)
#    0.000    2.500    1.250    2.625    0.000    5.000 
#    2.250    3.750    0.000    0.000    0.000    0.000 
#    0.000    0.000    0.000    0.000    0.000    0.000 
#
# Total GULP energy -178728.709798 kJ/mol
# GULP energy per Si atom -5585.272181 kJ/mol
# Density = 2.173567 g / cm^3
# Si number density = 21.785258 Si / 1000 Ang^3
#
#
#
# Elastic Constant Matrix: (Units=GPa)
#
#
# Indices 1 2 3 4 5 6 
#
# 1 131.3779 40.1505 13.2774 0.0000 15.3544 0.0000
# 2 40.1505 48.8120 14.6440 0.0000 23.0825 0.0000
# 3 13.2774 14.6440 55.5465 0.0000 14.6817 0.0000
# 4 0.0000 0.0000 0.0000 21.1548 0.0000 6.1442
# 5 15.3544 23.0825 14.6817 0.0000 37.7047 0.0000
# 6 0.0000 0.0000 0.0000 6.1442 0.0000 34.3426
#
#
#
# Elastic Compliance Matrix: (Units=1/GPa)
#
#
# Indices 1 2 3 4 5 6 
#
# 1 0.010230 -0.008993 -0.000478 0.000000 0.001525 0.000000
# 2 -0.008993 0.037283 -0.002915 0.000000 -0.018027 0.000000
# 3 -0.000478 -0.002915 0.020469 0.000000 -0.005992 0.000000
# 4 0.000000 0.000000 0.000000 0.049861 0.000000 -0.008921
# 5 0.001525 -0.018027 -0.005992 0.000000 0.039270 0.000000
# 6 0.000000 0.000000 0.000000 -0.008921 0.000000 0.030714
#
#
# Mechanical properties :
#
#
# Convention : Reuss Voigt Hill
#
# Bulk Modulus (GPa) = 23.14167 41.32000 32.23084
# Shear Modulus (GPa) = 22.02628 29.81808 25.92218
#
# Velocity S-wave (km/s) = 3.18317 3.70364 3.45323
# Velocity P-wave (km/s) = 4.91486 6.10716 5.54316
#
# Compressibility (1/GPa) = 0.04321209
#
# Stress axis : x y z
#
# Youngs Moduli (GPa) = 97.75290 26.82190 48.85396
#
# Poissons Ratio (x) = 0.24120 0.02334
# Poissons Ratio (y) = 0.87905 0.14239
# Poissons Ratio (z) = 0.04669 0.07818
#
# Static dielectric constant tensor:
#      x y z
#    x 1.833920 0.000000 -0.036940 
#    y 0.000000 1.726220 0.000000 
#    z -0.036940 0.000000 1.849170 
# 
# From -- ./inp_files/94968.got.cif
#   From: 2010.05.17/outbox.cif.g08.bks.cpg/sg10_48_cif.got.tgz:94968.got - 2010.06.03 11:33:40.
