data_PCOD9149896
_publ_section_title
;
Structure prediction by ZEFSAII (Michael W. Deem and Ramdas Pophale) SiO2 
 PCOD9149896
Probable space group: P 2/M
;
_chemical_formula_sum "Si O2"
_cell_formula_units_Z 28
_cell_length_a 7.395097
_cell_length_b 14.929718
_cell_length_c 16.378057
_cell_angle_alpha 90.000000
_cell_angle_beta 141.306815
_cell_angle_gamma 90.000000
_cell_volume 1130.425566
_symmetry_space_group_name_H-M "P 2/M"
_symmetry_group_IT_number 10
_symmetry_cell_setting 'monoclinic'
loop_
_space_group_symop_operation_xyz
x,y,z
-x,y,-z
-x,-y,-z
x,-y,z
loop_
_atom_site_type_symbol
_atom_site_label
_atom_site_fract_x
_atom_site_fract_y
_atom_site_fract_z
Si Si1 0.365223 0.602149 0.314087
Si Si2 0.335461 0.596757 0.745217
Si Si3 0.657983 0.207472 0.692600
Si Si4 0.747985 0.397610 0.031407
Si Si5 0.130250 0.900988 0.453118
Si Si6 0.387987 0.789543 0.779330
Si Si7 0.219175 0.105168 0.957328
O O1 0.346917 0.500000 0.342253
O O2 0.615578 0.596303 0.333945
O O3 0.383194 0.695747 0.366761
O O4 0.071038 0.629211 0.161529
O O5 0.200054 0.500000 0.720360
O O6 0.232728 0.692616 0.739691
O O7 0.642807 0.598955 0.901822
O O8 0.440043 0.143211 0.569119
O O9 0.516451 0.218730 0.733501
O O10 0.961843 0.158371 0.820160
O O11 0.758742 0.500000 0.064013
O O12 0.500000 0.352167 0.000000
O O13 0.000000 0.901172 0.500000
O O14 0.880694 0.855463 0.312920
O O15 0.162207 0.000000 0.433916
O O16 0.653188 0.829425 0.926005
O O17 0.139583 0.000000 0.951854
O O18 0.500000 0.097679 0.000000
#
# Coordination Sequence:
#
# PCOD9149896 Si02
#       7
#     4   4   4   4   4   4   4
#     4   9  17  29  45  69 103 138 170 208 255 307
#     4   9  17  29  45  69 103 138 170 208 255 307
#     4  10  20  35  57  82 107 141 182 219 262 318
#     4   9  16  25  40  64  94 131 173 211 248 294
#     4   9  18  34  56  80 104 133 177 229 270 311
#     4  10  20  35  57  82 107 141 182 219 262 318
#     4  11  24  39  55  80 112 140 172 223 279 321
#
# _framework density 24.769432999999999
#
# number of rings (size 3 to 8) (size 9 to 14) (size 15 to 20)
#    0.000    2.429    0.000    2.571    0.000    8.571 
#    0.000    1.429    0.000    6.857    0.000    0.000 
#    0.000    6.857    0.000    0.000    0.000    0.000 
#
# Total GULP energy -155918.443794 kJ/mol
# GULP energy per Si atom -5568.515850 kJ/mol
# Density = 2.471306 g / cm^3
# Si number density = 24.769433 Si / 1000 Ang^3
#
#
#
# Elastic Constant Matrix: (Units=GPa)
#
#
# Indices 1 2 3 4 5 6 
#
# 1 58.3614 20.6704 22.8113 0.0000 -8.8047 0.0000
# 2 20.6704 251.1556 65.4958 0.0000 19.3634 0.0000
# 3 22.8113 65.4958 107.4929 0.0000 22.1529 0.0000
# 4 0.0000 0.0000 0.0000 60.1215 0.0000 21.5589
# 5 -8.8047 19.3634 22.1529 0.0000 19.9086 0.0000
# 6 0.0000 0.0000 0.0000 21.5589 0.0000 3.5416
#
#
#
# Elastic Compliance Matrix: (Units=1/GPa)
#
#
# Indices 1 2 3 4 5 6 
#
# 1 0.024420 -0.001394 -0.008872 0.000000 0.022028 0.000000
# 2 -0.001394 0.004864 -0.002032 0.000000 -0.003087 0.000000
# 3 -0.008872 -0.002032 0.016641 0.000000 -0.020465 0.000000
# 4 0.000000 0.000000 0.000000 -0.014062 0.000000 0.085600
# 5 0.022028 -0.003087 -0.020465 0.000000 0.085746 0.000000
# 6 0.000000 0.000000 0.000000 0.085600 0.000000 -0.238715
#
#
# Mechanical properties :
#
#
# Convention : Reuss Voigt Hill
#
# Bulk Modulus (GPa) = 46.88605 70.55166 58.71886
# Shear Modulus (GPa) = -55.92870 37.24984 -9.33943
#
# Velocity S-wave (km/s) = -4.75697 3.88217 -1.94390
# Velocity P-wave (km/s) = 3.34687 6.97425 4.32658
#
# Compressibility (1/GPa) = 0.02132830
#
# Stress axis : x y z
#
# Youngs Moduli (GPa) = 40.95064 205.58511 60.09176
#
# Poissons Ratio (x) = 0.28667 0.53315
# Poissons Ratio (y) = 0.05710 0.12209
# Poissons Ratio (z) = 0.36333 0.41768
#
# Static dielectric constant tensor:
#      x y z
#    x 2.000250 0.000000 0.021140 
#    y 0.000000 2.090100 0.000000 
#    z 0.021140 0.000000 1.973910 
# 
# From -- ./inp_files/35216.got.cif
#   From: 2010.05.17/outbox.cif.g08.bks.cpg/sg10_18_cif.got.tgz:35216.got - 2010.06.03 11:33:40.
