data_PCOD9149208
_publ_section_title
;
Structure prediction by ZEFSAII (Michael W. Deem and Ramdas Pophale) SiO2 
 PCOD9149208
Probable space group: P 2/M
;
_chemical_formula_sum "Si O2"
_cell_formula_units_Z 28
_cell_length_a 33.667118
_cell_length_b 8.365046
_cell_length_c 9.843361
_cell_angle_alpha 90.000000
_cell_angle_beta 147.068832
_cell_angle_gamma 90.000000
_cell_volume 1507.030317
_symmetry_space_group_name_H-M "P 2/M"
_symmetry_group_IT_number 10
_symmetry_cell_setting 'monoclinic'
loop_
_space_group_symop_operation_xyz
x,y,z
-x,y,-z
-x,-y,-z
x,-y,z
loop_
_atom_site_type_symbol
_atom_site_label
_atom_site_fract_x
_atom_site_fract_y
_atom_site_fract_z
Si Si1 0.788263 0.319398 0.389882
Si Si2 0.321964 0.817104 0.728470
Si Si3 0.418149 0.692103 0.240585
Si Si4 0.072396 0.693818 0.792030
Si Si5 0.237602 0.810300 0.222108
Si Si6 0.050827 0.684963 0.034015
Si Si7 0.704314 0.310362 0.892539
O O1 0.757597 0.500000 0.327955
O O2 0.744581 0.196371 0.356113
O O3 0.870489 0.320836 0.671742
O O4 0.774291 0.289023 0.192063
O O5 0.287308 0.746036 0.490622
O O6 0.342644 0.000000 0.761386
O O7 0.386673 0.737898 0.002056
O O8 0.500000 0.752947 0.500000
O O9 0.419462 0.500000 0.251321
O O10 0.362874 0.744485 0.203327
O O11 0.074381 0.500000 0.797282
O O12 0.000000 0.742425 0.500000
O O13 0.154066 0.745732 0.981544
O O14 0.059164 0.753165 0.908007
O O15 0.279363 0.773138 0.202108
O O16 0.231808 0.000000 0.225232
O O17 0.024424 0.500000 0.938542
O O18 0.000000 0.765575 0.000000
O O19 0.694992 0.500000 0.840071
#
# Coordination Sequence:
#
# PCOD9149208 Si02
#       7
#     4   4   4   4   4   4   4
#     4   9  17  32  54  77 101 135 179 229 276 318
#     4  10  20  34  54  79 108 144 183 216 257 319
#     4   9  19  38  63  89 113 137 172 221 273 323
#     4  10  21  35  55  79 104 140 186 233 282 329
#     4  11  23  37  53  76 113 153 187 223 266 321
#     4   9  17  29  49  76 103 129 169 227 282 324
#     4   9  19  33  55  83 108 137 180 223 266 322
#
# _framework density 18.579585999999999
#
# number of rings (size 3 to 8) (size 9 to 14) (size 15 to 20)
#    0.000    2.429    1.429    1.714    2.000    4.571 
#    0.000    0.714    0.000    5.143    0.000    0.000 
#    0.000    0.000    0.000    0.000    0.000    0.000 
#
# Total GULP energy -155878.272989 kJ/mol
# GULP energy per Si atom -5567.081178 kJ/mol
# Density = 1.853730 g / cm^3
# Si number density = 18.579586 Si / 1000 Ang^3
#
#
#
# Elastic Constant Matrix: (Units=GPa)
#
#
# Indices 1 2 3 4 5 6 
#
# 1 97.4574 13.1323 71.8835 0.0000 -13.5874 0.0000
# 2 13.1323 12.4854 19.2172 0.0000 -1.8331 0.0000
# 3 71.8835 19.2172 154.9864 0.0000 -6.4120 0.0000
# 4 0.0000 0.0000 0.0000 15.3998 0.0000 -1.0621
# 5 -13.5874 -1.8331 -6.4120 0.0000 24.2848 0.0000
# 6 0.0000 0.0000 0.0000 -1.0621 0.0000 -5.3039
#
#
#
# Elastic Compliance Matrix: (Units=1/GPa)
#
#
# Indices 1 2 3 4 5 6 
#
# 1 0.017235 -0.006444 -0.006891 0.000000 0.007337 0.000000
# 2 -0.006444 0.101836 -0.009574 0.000000 0.001554 0.000000
# 3 -0.006891 -0.009574 0.010764 0.000000 -0.001736 0.000000
# 4 0.000000 0.000000 0.000000 0.064051 0.000000 -0.012826
# 5 0.007337 0.001554 -0.001736 0.000000 0.044942 0.000000
# 6 0.000000 0.000000 0.000000 -0.012826 0.000000 -0.185971
#
#
# Mechanical properties :
#
#
# Convention : Reuss Voigt Hill
#
# Bulk Modulus (GPa) = 11.90248 52.59947 32.25097
# Shear Modulus (GPa) = 39.46961 17.58922 28.52941
#
# Velocity S-wave (km/s) = 4.61407 3.08018 3.92283
# Velocity P-wave (km/s) = 5.89969 6.40483 6.15744
#
# Compressibility (1/GPa) = 0.08401609
#
# Stress axis : x y z
#
# Youngs Moduli (GPa) = 58.02155 9.81975 92.90624
#
# Poissons Ratio (x) = 0.06328 0.64023
# Poissons Ratio (y) = 0.37390 0.88946
# Poissons Ratio (z) = 0.39983 0.09401
#
# Static dielectric constant tensor:
#      x y z
#    x 1.633870 0.000000 -0.005500 
#    y 0.000000 1.669490 0.000000 
#    z -0.005500 0.000000 1.662830 
# 
# From -- ./inp_files/38040.got.cif
#   From: 2010.05.17/outbox.cif.g08.bks.cpg/sg10_20_cif.got.tgz:38040.got - 2010.06.03 11:33:40.
