data_PCOD9149215
_publ_section_title
;
Structure prediction by ZEFSAII (Michael W. Deem and Ramdas Pophale) SiO2 
 PCOD9149215
Probable space group: P 2/M
;
_chemical_formula_sum "Si O2"
_cell_formula_units_Z 32
_cell_length_a 14.587758
_cell_length_b 14.502653
_cell_length_c 8.582463
_cell_angle_alpha 90.000000
_cell_angle_beta 123.762634
_cell_angle_gamma 90.000000
_cell_volume 1509.490293
_symmetry_space_group_name_H-M "P 2/M"
_symmetry_group_IT_number 10
_symmetry_cell_setting 'monoclinic'
loop_
_space_group_symop_operation_xyz
x,y,z
-x,y,-z
-x,-y,-z
x,-y,z
loop_
_atom_site_type_symbol
_atom_site_label
_atom_site_fract_x
_atom_site_fract_y
_atom_site_fract_z
Si Si1 0.439209 0.658374 0.096569
Si Si2 0.150717 0.891879 0.843658
Si Si3 0.642850 0.740665 0.472139
Si Si4 0.952565 0.775779 0.786003
Si Si5 0.276517 0.401249 0.194603
Si Si6 0.072769 0.609047 0.774752
Si Si7 0.251572 0.109085 0.276241
Si Si8 0.233678 0.732833 0.729812
O O1 0.527821 0.708766 0.289345
O O2 0.366393 0.595957 0.141128
O O3 0.500000 0.617568 0.000000
O O4 0.346073 0.723784 0.935378
O O5 0.229578 0.876066 0.070393
O O6 0.145216 0.000000 0.809616
O O7 0.186839 0.832381 0.730090
O O8 0.034319 0.848544 0.782435
O O9 0.685124 0.675814 0.650775
O O10 0.642321 0.842201 0.547585
O O11 0.728101 0.727008 0.410273
O O12 0.844012 0.833846 0.725024
O O13 0.971298 0.678820 0.712220
O O14 0.000000 0.753388 0.000000
O O15 0.273504 0.500000 0.273470
O O16 0.158353 0.385255 0.001918
O O17 0.047782 0.500000 0.727278
O O18 0.147558 0.655404 0.708992
O O19 0.245333 0.000000 0.297424
#
# Coordination Sequence:
#
# PCOD9149215 Si02
#       8
#     4   4   4   4   4   4   4   4
#     4   9  19  35  54  76 105 144 181 216 258 307
#     4   9  17  32  54  76 100 134 175 217 262 317
#     4  11  21  34  53  76 109 142 176 222 265 310
#     4   9  16  30  53  79 106 133 171 217 263 313
#     4  10  20  34  55  83 111 139 174 218 264 308
#     4   9  18  34  55  77 104 140 180 217 257 312
#     4  10  20  34  54  80 107 136 173 221 273 318
#     4   9  19  35  53  74 103 141 180 217 262 314
#
# _framework density 21.199207999999999
#
# number of rings (size 3 to 8) (size 9 to 14) (size 15 to 20)
#    0.000    2.500    0.000    3.750    0.000    4.000 
#    0.000    6.250    0.000    9.750    0.000    0.000 
#    0.000    0.000    0.000    0.000    0.000    0.000 
#
# Total GULP energy -178445.729357 kJ/mol
# GULP energy per Si atom -5576.429042 kJ/mol
# Density = 2.115096 g / cm^3
# Si number density = 21.199208 Si / 1000 Ang^3
#
#
#
# Elastic Constant Matrix: (Units=GPa)
#
#
# Indices 1 2 3 4 5 6 
#
# 1 64.5043 35.6150 6.6180 0.0000 -12.2229 0.0000
# 2 35.6150 140.6280 37.2365 0.0000 -10.4122 0.0000
# 3 6.6180 37.2365 81.6545 0.0000 -3.0338 0.0000
# 4 0.0000 0.0000 0.0000 -1.4923 0.0000 -2.4979
# 5 -12.2229 -10.4122 -3.0338 0.0000 18.8778 0.0000
# 6 0.0000 0.0000 0.0000 -2.4979 0.0000 -12.9390
#
#
#
# Elastic Compliance Matrix: (Units=1/GPa)
#
#
# Indices 1 2 3 4 5 6 
#
# 1 0.019886 -0.004473 0.000820 0.000000 0.010540 0.000000
# 2 -0.004473 0.009388 -0.003857 0.000000 0.001662 0.000000
# 3 0.000820 -0.003857 0.013963 0.000000 0.000647 0.000000
# 4 0.000000 0.000000 0.000000 -0.990025 0.000000 0.191128
# 5 0.010540 0.001662 0.000647 0.000000 0.060818 0.000000
# 6 0.000000 0.000000 0.000000 0.191128 0.000000 -0.114184
#
#
# Mechanical properties :
#
#
# Convention : Reuss Voigt Hill
#
# Bulk Modulus (GPa) = 35.44006 49.52510 42.48258
# Shear Modulus (GPa) = -5.12438 14.71045 4.79304
#
# Velocity S-wave (km/s) = -1.55644 2.63708 1.50528
# Velocity P-wave (km/s) = 3.67749 5.71706 4.80670
#
# Compressibility (1/GPa) = 0.02821666
#
# Stress axis : x y z
#
# Youngs Moduli (GPa) = 50.28761 106.51836 71.61681
#
# Poissons Ratio (x) = 0.47643 -0.05870
# Poissons Ratio (y) = 0.22493 0.27622
# Poissons Ratio (z) = -0.04122 0.41083
#
# Static dielectric constant tensor:
#      x y z
#    x 1.809360 0.000000 0.038770 
#    y 0.000000 1.729740 0.000000 
#    z 0.038770 0.000000 1.817370 
# 
# From -- ./inp_files/29527.got.cif
#   From: 2010.05.17/outbox.cif.g08.bks.cpg/sg10_15_cif.got.tgz:29527.got - 2010.06.03 11:33:40.
