data_PCOD9149323
_publ_section_title
;
Structure prediction by ZEFSAII (Michael W. Deem and Ramdas Pophale) SiO2 
 PCOD9149323
Probable space group: P 2/M
;
_chemical_formula_sum "Si O2"
_cell_formula_units_Z 32
_cell_length_a 12.396283
_cell_length_b 7.499907
_cell_length_c 22.746606
_cell_angle_alpha 90.000000
_cell_angle_beta 43.192700
_cell_angle_gamma 90.000000
_cell_volume 1447.466006
_symmetry_space_group_name_H-M "P 2/M"
_symmetry_group_IT_number 10
_symmetry_cell_setting 'monoclinic'
loop_
_space_group_symop_operation_xyz
x,y,z
-x,y,-z
-x,-y,-z
x,-y,z
loop_
_atom_site_type_symbol
_atom_site_label
_atom_site_fract_x
_atom_site_fract_y
_atom_site_fract_z
Si Si1 0.103669 0.293996 0.148636
Si Si2 0.364284 0.284004 0.955016
Si Si3 0.276227 0.207511 0.195392
Si Si4 0.179239 0.282879 0.913324
Si Si5 0.502721 0.292344 0.564332
Si Si6 0.802616 0.215343 0.518796
Si Si7 0.167232 0.217047 0.363186
Si Si8 0.234729 0.281421 0.758343
O O1 0.091801 0.500000 0.134823
O O2 0.161596 0.287985 0.192284
O O3 0.930318 0.221685 0.205121
O O4 0.241554 0.217331 0.052792
O O5 0.367487 0.500000 0.955289
O O6 0.542391 0.226100 0.894643
O O7 0.297135 0.227491 0.918282
O O8 0.253263 0.280313 0.270381
O O9 0.234812 0.000000 0.213660
O O10 0.177157 0.500000 0.914121
O O11 0.231792 0.224654 0.827630
O O12 0.000000 0.227222 0.000000
O O13 0.500000 0.212905 0.500000
O O14 0.457623 0.500000 0.575568
O O15 0.675684 0.281996 0.523298
O O16 0.379475 0.217572 0.660925
O O17 0.766767 0.275894 0.599892
O O18 0.982750 0.267051 0.433836
O O19 0.797768 0.000000 0.519628
O O20 0.173593 0.000000 0.361995
O O21 0.240809 0.500000 0.756992
#
# Coordination Sequence:
#
# PCOD9149323 Si02
#       8
#     4   4   4   4   4   4   4   4
#     4  10  20  36  56  77 105 143 184 218 254 310
#     4  10  20  34  55  82 108 136 179 225 259 306
#     4  11  23  36  53  78 109 141 176 220 273 319
#     4   9  15  29  54  81 103 132 178 223 258 301
#     4  10  22  36  52  82 119 143 164 210 274 327
#     4   9  18  38  62  77  99 138 183 222 261 313
#     4   8  18  37  58  78 101 136 179 225 269 311
#     4   9  18  33  53  77 108 143 172 210 267 318
#
# _framework density 22.107600999999999
#
# number of rings (size 3 to 8) (size 9 to 14) (size 15 to 20)
#    0.000    2.500    1.250    1.500    3.500    2.250 
#    0.000    3.125    0.000    1.125    0.000    0.000 
#    0.000    0.000    0.000    0.000    0.000    0.000 
#
# Total GULP energy -178731.203479 kJ/mol
# GULP energy per Si atom -5585.350109 kJ/mol
# Density = 2.205728 g / cm^3
# Si number density = 22.107601 Si / 1000 Ang^3
#
#
#
# Elastic Constant Matrix: (Units=GPa)
#
#
# Indices 1 2 3 4 5 6 
#
# 1 90.6195 -10.1416 11.8868 0.0000 19.8532 0.0000
# 2 -10.1416 52.9833 7.2848 0.0000 3.1271 0.0000
# 3 11.8868 7.2848 79.7685 0.0000 21.3583 0.0000
# 4 0.0000 0.0000 0.0000 3.9775 0.0000 4.1607
# 5 19.8532 3.1271 21.3583 0.0000 26.4022 0.0000
# 6 0.0000 0.0000 0.0000 4.1607 0.0000 23.6977
#
#
#
# Elastic Compliance Matrix: (Units=1/GPa)
#
#
# Indices 1 2 3 4 5 6 
#
# 1 0.013779 0.003211 0.000676 0.000000 -0.011288 0.000000
# 2 0.003211 0.019887 -0.001299 0.000000 -0.003719 0.000000
# 3 0.000676 -0.001299 0.016146 0.000000 -0.013416 0.000000
# 4 0.000000 0.000000 0.000000 0.307983 0.000000 -0.054074
# 5 -0.011288 -0.003719 -0.013416 0.000000 0.057657 0.000000
# 6 0.000000 0.000000 0.000000 -0.054074 0.000000 0.051692
#
#
# Mechanical properties :
#
#
# Convention : Reuss Voigt Hill
#
# Bulk Modulus (GPa) = 18.18593 26.82570 22.50582
# Shear Modulus (GPa) = 10.41021 25.10489 17.75755
#
# Velocity S-wave (km/s) = 2.17235 3.37349 2.83721
# Velocity P-wave (km/s) = 3.81262 5.22823 4.57551
#
# Compressibility (1/GPa) = 0.05498756
#
# Stress axis : x y z
#
# Youngs Moduli (GPa) = 72.57510 50.28532 61.93325
#
# Poissons Ratio (x) = -0.16145 -0.04186
# Poissons Ratio (y) = -0.23302 0.08044
# Poissons Ratio (z) = -0.04906 0.06531
#
# Static dielectric constant tensor:
#      x y z
#    x 1.756250 0.000000 0.018620 
#    y 0.000000 1.870350 0.000000 
#    z 0.018620 0.000000 1.805390 
# 
# From -- ./inp_files/83588.got.cif
#   From: 2010.05.17/outbox.cif.g08.bks.cpg/sg10_42_cif.got.tgz:83588.got - 2010.06.03 11:33:40.
