data_PCOD9149950
_publ_section_title
;
Structure prediction by ZEFSAII (Michael W. Deem and Ramdas Pophale) SiO2 
 PCOD9149950
Probable space group: P 2/M
;
_chemical_formula_sum "Si O2"
_cell_formula_units_Z 32
_cell_length_a 9.783420
_cell_length_b 12.823660
_cell_length_c 32.995901
_cell_angle_alpha 90.000000
_cell_angle_beta 27.535947
_cell_angle_gamma 90.000000
_cell_volume 1913.776868
_symmetry_space_group_name_H-M "P 2/M"
_symmetry_group_IT_number 10
_symmetry_cell_setting 'monoclinic'
loop_
_space_group_symop_operation_xyz
x,y,z
-x,y,-z
-x,-y,-z
x,-y,z
loop_
_atom_site_type_symbol
_atom_site_label
_atom_site_fract_x
_atom_site_fract_y
_atom_site_fract_z
Si Si1 0.143853 0.383741 0.506981
Si Si2 0.182928 0.625194 0.159398
Si Si3 0.320516 0.885456 0.394436
Si Si4 0.201782 0.374758 0.820488
Si Si5 0.794649 0.123950 0.394564
Si Si6 0.862615 0.625986 0.993146
Si Si7 0.229758 0.227590 0.340779
Si Si8 0.711623 0.270846 0.339594
O O1 0.083156 0.500000 0.537953
O O2 0.491280 0.361769 0.412049
O O3 0.000000 0.375451 0.500000
O O4 0.001103 0.299052 0.573658
O O5 0.170058 0.500000 0.168590
O O6 0.524503 0.658706 0.073310
O O7 0.026456 0.644751 0.156856
O O8 0.996189 0.681515 0.243456
O O9 0.293255 0.868787 0.353936
O O10 0.526010 0.793336 0.355377
O O11 0.000000 0.876456 0.500000
O O12 0.436646 0.000000 0.374311
O O13 0.273133 0.500000 0.800379
O O14 0.487403 0.301185 0.740618
O O15 0.055158 0.350776 0.902575
O O16 0.500000 0.135337 0.500000
O O17 0.755624 0.188386 0.363738
O O18 0.068717 0.179067 0.344710
O O19 0.837331 0.000000 0.377078
O O20 0.855368 0.500000 0.997741
O O21 0.000000 0.663650 0.000000
#
# Coordination Sequence:
#
# PCOD9149950 Si02
#       8
#     4   4   4   4   4   4   4   4
#     4  11  20  33  52  79 115 149 181 217 266 327
#     4  10  20  35  57  84 116 149 182 223 272 330
#     4  11  20  34  56  79 106 141 193 242 273 313
#     4  10  20  35  57  84 116 149 182 223 272 330
#     4  11  24  40  56  75 110 151 191 242 287 323
#     4   9  19  35  55  83 114 147 186 225 264 319
#     4  12  20  36  53  82 108 148 186 227 278 331
#     4  12  20  36  53  82 108 148 186 227 278 331
#
# _framework density 16.720863000000001
#
# number of rings (size 3 to 8) (size 9 to 14) (size 15 to 20)
#    0.000    1.250    5.000    1.875    1.750    5.500 
#    0.000    2.500    0.000    0.000    0.000    5.250 
#    0.000    0.000    0.000    0.000    0.000    0.000 
#
# Total GULP energy -178489.973349 kJ/mol
# GULP energy per Si atom -5577.811667 kJ/mol
# Density = 1.668281 g / cm^3
# Si number density = 16.720863 Si / 1000 Ang^3
#
#
#
# Elastic Constant Matrix: (Units=GPa)
#
#
# Indices 1 2 3 4 5 6 
#
# 1 82.3166 24.0238 38.7840 0.0000 -0.8277 0.0000
# 2 24.0238 61.5391 20.5925 0.0000 0.4018 0.0000
# 3 38.7840 20.5925 107.7659 0.0000 0.2929 0.0000
# 4 0.0000 0.0000 0.0000 8.7114 0.0000 -2.2280
# 5 -0.8277 0.4018 0.2929 0.0000 24.1229 0.0000
# 6 0.0000 0.0000 0.0000 -2.2280 0.0000 7.0884
#
#
#
# Elastic Compliance Matrix: (Units=1/GPa)
#
#
# Indices 1 2 3 4 5 6 
#
# 1 0.015742 -0.004544 -0.004799 0.000000 0.000674 0.000000
# 2 -0.004544 0.018673 -0.001932 0.000000 -0.000444 0.000000
# 3 -0.004799 -0.001932 0.011376 0.000000 -0.000271 0.000000
# 4 0.000000 0.000000 0.000000 0.124827 0.000000 0.039236
# 5 0.000674 -0.000444 -0.000271 0.000000 0.041488 0.000000
# 6 0.000000 0.000000 0.000000 0.039236 0.000000 0.153408
#
#
# Mechanical properties :
#
#
# Convention : Reuss Voigt Hill
#
# Bulk Modulus (GPa) = 43.02499 46.49135 44.75817
# Shear Modulus (GPa) = 12.63226 19.19929 15.91577
#
# Velocity S-wave (km/s) = 2.75158 3.39222 3.08856
# Velocity P-wave (km/s) = 5.99017 6.57325 6.28847
#
# Compressibility (1/GPa) = 0.02324231
#
# Stress axis : x y z
#
# Youngs Moduli (GPa) = 63.52328 53.55329 87.90171
#
# Poissons Ratio (x) = 0.24335 0.42184
# Poissons Ratio (y) = 0.28865 0.16979
# Poissons Ratio (z) = 0.30485 0.10344
#
# Static dielectric constant tensor:
#      x y z
#    x 1.614010 0.000000 0.015630 
#    y 0.000000 1.539070 0.000000 
#    z 0.015630 0.000000 1.564480 
# 
# From -- ./inp_files/70787.got.cif
#   From: 2010.05.17/outbox.cif.g08.bks.cpg/sg10_36_cif.got.tgz:70787.got - 2010.06.03 11:33:40.
