data_PCOD9149484
_publ_section_title
;
Structure prediction by ZEFSAII (Michael W. Deem and Ramdas Pophale) SiO2 
 PCOD9149484
Probable space group: P 2/M
;
_chemical_formula_sum "Si O2"
_cell_formula_units_Z 32
_cell_length_a 16.843909
_cell_length_b 8.782205
_cell_length_c 28.633182
_cell_angle_alpha 90.000000
_cell_angle_beta 158.233128
_cell_angle_gamma 90.000000
_cell_volume 1570.695577
_symmetry_space_group_name_H-M "P 2/M"
_symmetry_group_IT_number 10
_symmetry_cell_setting 'monoclinic'
loop_
_space_group_symop_operation_xyz
x,y,z
-x,y,-z
-x,-y,-z
x,-y,z
loop_
_atom_site_type_symbol
_atom_site_label
_atom_site_fract_x
_atom_site_fract_y
_atom_site_fract_z
Si Si1 0.750538 0.317587 0.073796
Si Si2 0.255128 0.823647 0.646218
Si Si3 0.079028 0.327679 0.090438
Si Si4 0.588484 0.669636 0.361325
Si Si5 0.659057 0.817678 0.200912
Si Si6 0.932901 0.681958 0.269634
Si Si7 0.377471 0.179066 0.522882
Si Si8 0.843039 0.316295 0.766466
O O1 0.712382 0.500000 0.050211
O O2 0.772225 0.274244 0.139872
O O3 0.982686 0.286793 0.177784
O O4 0.564006 0.235726 0.943507
O O5 0.349022 0.726426 0.655368
O O6 0.315967 0.769147 0.731393
O O7 0.000000 0.820823 0.500000
O O8 0.326252 0.000000 0.680472
O O9 0.983357 0.500000 0.039136
O O10 0.332876 0.339971 0.223873
O O11 0.052400 0.259975 0.127323
O O12 0.000000 0.249050 0.000000
O O13 0.676441 0.500000 0.418999
O O14 0.647151 0.782334 0.435351
O O15 0.844285 0.749043 0.269403
O O16 0.676089 0.000000 0.209343
O O17 0.937689 0.500000 0.274662
O O18 0.170070 0.741679 0.387636
O O19 0.607173 0.245749 0.632417
O O20 0.373355 0.000000 0.512701
O O21 0.815122 0.500000 0.755457
#
# Coordination Sequence:
#
# PCOD9149484 Si02
#       8
#     4   4   4   4   4   4   4   4
#     4  10  23  41  63  89 120 160 201 254 308 356
#     4  10  22  39  57  81 118 159 196 239 293 350
#     4   8  15  28  50  80 110 143 183 228 275 330
#     4  10  20  34  57  86 115 151 195 239 285 343
#     4  11  24  40  61  90 124 162 201 248 306 363
#     4  11  23  41  64  88 115 153 208 258 304 361
#     4  11  22  38  61  88 123 160 196 247 309 363
#     4   9  19  37  59  85 120 158 201 247 298 356
#
# _framework density 20.373138999999998
#
# number of rings (size 3 to 8) (size 9 to 14) (size 15 to 20)
#    0.000    2.000    0.000    4.125    1.750    5.750 
#    0.000    2.500    0.000    1.875    0.000    0.000 
#    0.000    0.000    0.000    0.000    0.000    0.000 
#
# Total GULP energy -178652.825474 kJ/mol
# GULP energy per Si atom -5582.900796 kJ/mol
# Density = 2.032677 g / cm^3
# Si number density = 20.373139 Si / 1000 Ang^3
#
#
#
# Elastic Constant Matrix: (Units=GPa)
#
#
# Indices 1 2 3 4 5 6 
#
# 1 35.9444 8.0978 -7.3793 0.0000 8.0844 0.0000
# 2 8.0978 39.1443 8.3225 0.0000 6.1332 0.0000
# 3 -7.3793 8.3225 84.5592 0.0000 -3.9707 0.0000
# 4 0.0000 0.0000 0.0000 31.3349 0.0000 -1.9860
# 5 8.0844 6.1332 -3.9707 0.0000 22.2844 0.0000
# 6 0.0000 0.0000 0.0000 -1.9860 0.0000 19.4006
#
#
#
# Elastic Compliance Matrix: (Units=1/GPa)
#
#
# Indices 1 2 3 4 5 6 
#
# 1 0.031831 -0.005719 0.002897 0.000000 -0.009458 0.000000
# 2 -0.005719 0.028501 -0.003605 0.000000 -0.006412 0.000000
# 3 0.002897 -0.003605 0.012536 0.000000 0.002175 0.000000
# 4 0.000000 0.000000 0.000000 0.032122 0.000000 0.003288
# 5 -0.009458 -0.006412 0.002175 0.000000 0.050458 0.000000
# 6 0.000000 0.000000 0.000000 0.003288 0.000000 0.051881
#
#
# Mechanical properties :
#
#
# Convention : Reuss Voigt Hill
#
# Bulk Modulus (GPa) = 16.66324 19.74777 18.20551
# Shear Modulus (GPa) = 20.81707 24.64445 22.73076
#
# Velocity S-wave (km/s) = 3.20001 3.48178 3.34387
# Velocity P-wave (km/s) = 4.67442 5.08702 4.88508
#
# Compressibility (1/GPa) = 0.06001233
#
# Stress axis : x y z
#
# Youngs Moduli (GPa) = 31.41594 35.08685 79.77162
#
# Poissons Ratio (x) = 0.20066 -0.23106
# Poissons Ratio (y) = 0.17966 0.28760
# Poissons Ratio (z) = -0.09100 0.12650
#
# Static dielectric constant tensor:
#      x y z
#    x 1.763050 0.000000 -0.027200 
#    y 0.000000 1.703350 0.000000 
#    z -0.027200 0.000000 1.734440 
# 
# From -- ./inp_files/89603.got.cif
#   From: 2010.05.17/outbox.cif.g08.bks.cpg/sg10_45_cif.got.tgz:89603.got - 2010.06.03 11:33:40.
