data_PCOD9149936
_publ_section_title
;
Structure prediction by ZEFSAII (Michael W. Deem and Ramdas Pophale) SiO2 
 PCOD9149936
Probable space group: P 2/M
;
_chemical_formula_sum "Si O2"
_cell_formula_units_Z 28
_cell_length_a 30.263033
_cell_length_b 8.575502
_cell_length_c 9.597359
_cell_angle_alpha 90.000000
_cell_angle_beta 37.226045
_cell_angle_gamma 90.000000
_cell_volume 1506.784753
_symmetry_space_group_name_H-M "P 2/M"
_symmetry_group_IT_number 10
_symmetry_cell_setting 'monoclinic'
loop_
_space_group_symop_operation_xyz
x,y,z
-x,y,-z
-x,-y,-z
x,-y,z
loop_
_atom_site_type_symbol
_atom_site_label
_atom_site_fract_x
_atom_site_fract_y
_atom_site_fract_z
Si Si1 0.137722 0.685310 0.994658
Si Si2 0.296265 0.810590 0.917977
Si Si3 0.869374 0.188703 0.679470
Si Si4 0.431242 0.686681 0.079379
Si Si5 0.005298 0.188560 0.147585
Si Si6 0.569382 0.811252 0.231869
Si Si7 0.701332 0.186992 0.408338
O O1 0.143780 0.500000 0.978939
O O2 0.216689 0.758844 0.763650
O O3 0.116913 0.743446 0.201839
O O4 0.075970 0.741301 0.043939
O O5 0.356903 0.757047 0.874858
O O6 0.313602 0.763537 0.714995
O O7 0.297703 0.000000 0.916011
O O8 0.212742 0.763396 0.158270
O O9 0.932484 0.235191 0.414537
O O10 0.869652 0.000000 0.689875
O O11 0.431935 0.500000 0.073860
O O12 0.357926 0.743781 0.339046
O O13 0.500000 0.740739 0.000000
O O14 0.436179 0.749572 0.910368
O O15 0.010477 0.000000 0.141076
O O16 0.000000 0.234585 0.000000
O O17 0.500000 0.765101 0.500000
O O18 0.570466 0.000000 0.223569
O O19 0.698219 0.000000 0.421251
#
# Coordination Sequence:
#
# PCOD9149936 Si02
#       7
#     4   4   4   4   4   4   4
#     4  11  22  36  56  83 114 145 181 226 281 339
#     4   8  16  32  55  82 107 136 181 236 282 320
#     4   9  18  35  57  79 107 145 189 231 273 328
#     4  11  24  39  55  81 118 153 184 224 277 332
#     4  10  21  36  55  80 110 147 192 237 278 324
#     4  10  20  35  57  84 112 145 189 234 274 324
#     4  10  20  38  63  85 108 142 186 230 273 326
#
# _framework density 18.582615000000001
#
# number of rings (size 3 to 8) (size 9 to 14) (size 15 to 20)
#    0.000    2.143    0.000    4.286    0.000    6.286 
#    0.000    6.429    0.000    0.000    0.000    0.000 
#    0.000    0.000    0.000    0.000    0.000    0.000 
#
# Total GULP energy -156374.046439 kJ/mol
# GULP energy per Si atom -5584.787373 kJ/mol
# Density = 1.854032 g / cm^3
# Si number density = 18.582615 Si / 1000 Ang^3
#
#
#
# Elastic Constant Matrix: (Units=GPa)
#
#
# Indices 1 2 3 4 5 6 
#
# 1 189.1565 32.8664 99.6617 0.0000 -1.3375 0.0000
# 2 32.8664 22.0011 28.1771 0.0000 2.0280 0.0000
# 3 99.6617 28.1771 154.6250 0.0000 13.5014 0.0000
# 4 0.0000 0.0000 0.0000 9.7232 0.0000 -9.8246
# 5 -1.3375 2.0280 13.5014 0.0000 15.4365 0.0000
# 6 0.0000 0.0000 0.0000 -9.8246 0.0000 7.3525
#
#
#
# Elastic Compliance Matrix: (Units=1/GPa)
#
#
# Indices 1 2 3 4 5 6 
#
# 1 0.009475 -0.008096 -0.005193 0.000000 0.006426 0.000000
# 2 -0.008096 0.066253 -0.006533 0.000000 -0.003692 0.000000
# 3 -0.005193 -0.006533 0.011876 0.000000 -0.009979 0.000000
# 4 0.000000 0.000000 0.000000 -0.293699 0.000000 -0.392451
# 5 0.006426 -0.003692 -0.009979 0.000000 0.074551 0.000000
# 6 0.000000 0.000000 0.000000 -0.392451 0.000000 -0.388398
#
#
# Mechanical properties :
#
#
# Convention : Reuss Voigt Hill
#
# Bulk Modulus (GPa) = 20.85014 76.35477 48.60246
# Shear Modulus (GPa) = -10.76860 20.17425 4.70282
#
# Velocity S-wave (km/s) = -2.40989 3.29850 1.59256
# Velocity P-wave (km/s) = 1.87114 7.46226 5.43997
#
# Compressibility (1/GPa) = 0.04796130
#
# Stress axis : x y z
#
# Youngs Moduli (GPa) = 105.54612 15.09360 84.20466
#
# Poissons Ratio (x) = 0.12219 0.43723
# Poissons Ratio (y) = 0.85448 0.55010
# Poissons Ratio (z) = 0.54805 0.09860
#
# Static dielectric constant tensor:
#      x y z
#    x 1.621990 0.000000 -0.012830 
#    y 0.000000 1.628580 0.000000 
#    z -0.012830 0.000000 1.619440 
# 
# From -- ./inp_files/37088.got.cif
#   From: 2010.05.17/outbox.cif.g08.bks.cpg/sg10_19_cif.got.tgz:37088.got - 2010.06.03 11:33:40.
