data_PCOD9149535
_publ_section_title
;
Structure prediction by ZEFSAII (Michael W. Deem and Ramdas Pophale) SiO2 
 PCOD9149535
Probable space group: P 2/M
;
_chemical_formula_sum "Si O2"
_cell_formula_units_Z 13
_cell_length_a 11.649769
_cell_length_b 7.261387
_cell_length_c 11.451424
_cell_angle_alpha 90.000000
_cell_angle_beta 140.161885
_cell_angle_gamma 90.000000
_cell_volume 620.579354
_symmetry_space_group_name_H-M "P 2/M"
_symmetry_group_IT_number 10
_symmetry_cell_setting 'monoclinic'
loop_
_space_group_symop_operation_xyz
x,y,z
-x,y,-z
-x,-y,-z
x,-y,z
loop_
_atom_site_type_symbol
_atom_site_label
_atom_site_fract_x
_atom_site_fract_y
_atom_site_fract_z
Si Si1 0.706013 0.500000 0.803891
Si Si2 0.468361 0.214046 0.172226
Si Si3 0.065814 0.500000 0.236507
Si Si4 0.500000 0.500000 0.000000
Si Si5 0.103678 0.787191 0.466885
O O1 0.602277 0.319129 0.768058
O O2 0.759918 0.500000 0.710753
O O3 0.892130 0.500000 0.020397
O O4 0.684552 0.226018 0.343293
O O5 0.415305 0.000000 0.123735
O O6 0.415428 0.338331 0.020309
O O7 0.063938 0.673576 0.320647
O O8 0.000000 0.716339 0.500000
O O9 0.053913 0.000000 0.412160
#
# Coordination Sequence:
#
# PCOD9149535 Si02
#       5
#     2   4   2   1   4
#     4  10  25  40  60  91 118 162 206 242 304 352
#     4  10  22  39  60  90 122 156 201 247 296 357
#     4  11  23  42  62  84 123 162 202 252 294 358
#     4  10  20  34  58  92 118 154 192 238 302 350
#     4  10  23  40  62  91 120 157 200 247 303 358
#
# _framework density 20.948167999999999
#
# number of rings (size 3 to 8) (size 9 to 14) (size 15 to 20)
#    0.000    1.846    0.000    2.769    8.615    4.923 
#    0.000    6.154    0.000    0.000    0.000    0.000 
#    0.000    0.000    0.000    0.000    0.000    0.000 
#
# Total GULP energy -72421.838600 kJ/mol
# GULP energy per Si atom -5570.910662 kJ/mol
# Density = 2.090049 g / cm^3
# Si number density = 20.948168 Si / 1000 Ang^3
#
#
#
# Elastic Constant Matrix: (Units=GPa)
#
#
# Indices 1 2 3 4 5 6 
#
# 1 200.3390 88.0326 23.1882 0.0000 -22.4120 0.0000
# 2 88.0326 188.3944 26.2954 0.0000 -11.9457 0.0000
# 3 23.1882 26.2954 31.7299 0.0000 -10.2931 0.0000
# 4 0.0000 0.0000 0.0000 -8.1686 0.0000 10.7867
# 5 -22.4120 -11.9457 -10.2931 0.0000 30.4045 0.0000
# 6 0.0000 0.0000 0.0000 10.7867 0.0000 25.3742
#
#
#
# Elastic Compliance Matrix: (Units=1/GPa)
#
#
# Indices 1 2 3 4 5 6 
#
# 1 0.006746 -0.002717 -0.001585 0.000000 0.003368 0.000000
# 2 -0.002717 0.007112 -0.004102 0.000000 -0.000597 0.000000
# 3 -0.001585 -0.004102 0.039512 0.000000 0.010596 0.000000
# 4 0.000000 0.000000 0.000000 -0.078406 0.000000 0.033331
# 5 0.003368 -0.000597 0.010596 0.000000 0.038725 0.000000
# 6 0.000000 0.000000 0.000000 0.033331 0.000000 0.025241
#
#
# Mechanical properties :
#
#
# Convention : Reuss Voigt Hill
#
# Bulk Modulus (GPa) = 27.35221 77.27728 52.31475
# Shear Modulus (GPa) = 73.60888 28.38514 50.99701
#
# Velocity S-wave (km/s) = 5.93421 3.68505 4.93935
# Velocity P-wave (km/s) = 7.74846 7.42132 7.58665
#
# Compressibility (1/GPa) = 0.03656011
#
# Stress axis : x y z
#
# Youngs Moduli (GPa) = 148.23822 140.59804 25.30908
#
# Poissons Ratio (x) = 0.38206 0.04012
# Poissons Ratio (y) = 0.40282 0.10382
# Poissons Ratio (z) = 0.23500 0.57676
#
# Static dielectric constant tensor:
#      x y z
#    x 1.755240 0.000000 0.028270 
#    y 0.000000 1.730460 0.000000 
#    z 0.028270 0.000000 1.794880 
# 
# From -- ./inp_files/44432.got.cif
#   From: 2010.05.17/outbox.cif.g08.bks.cpg/sg10_23_cif.got.tgz:44432.got - 2010.06.03 11:33:40.
