data_PCOD9149380
_publ_section_title
;
Structure prediction by ZEFSAII (Michael W. Deem and Ramdas Pophale) SiO2 
 PCOD9149380
Probable space group: P 2/M
;
_chemical_formula_sum "Si O2"
_cell_formula_units_Z 26
_cell_length_a 9.917498
_cell_length_b 15.476839
_cell_length_c 7.092527
_cell_angle_alpha 90.000000
_cell_angle_beta 72.548123
_cell_angle_gamma 90.000000
_cell_volume 1038.531629
_symmetry_space_group_name_H-M "P 2/M"
_symmetry_group_IT_number 10
_symmetry_cell_setting 'monoclinic'
loop_
_space_group_symop_operation_xyz
x,y,z
-x,y,-z
-x,-y,-z
x,-y,z
loop_
_atom_site_type_symbol
_atom_site_label
_atom_site_fract_x
_atom_site_fract_y
_atom_site_fract_z
Si Si1 0.673372 0.208672 0.575247
Si Si2 0.087787 0.178763 0.209111
Si Si3 0.194956 0.099764 0.785560
Si Si4 0.685572 0.408679 0.891970
Si Si5 0.001997 0.627831 0.784239
Si Si6 0.500000 0.255003 0.000000
Si Si7 0.689309 0.404586 0.472769
O O1 0.814796 0.195680 0.648611
O O2 0.690068 0.137117 0.407720
O O3 0.554896 0.206592 0.790483
O O4 0.662705 0.300227 0.464683
O O5 0.006002 0.268923 0.216596
O O6 0.959456 0.110207 0.252094
O O7 0.181971 0.153265 0.987019
O O8 0.219662 0.000000 0.819055
O O9 0.657510 0.500000 0.997519
O O10 0.850448 0.402081 0.779183
O O11 0.626124 0.322099 0.006501
O O12 0.624059 0.410366 0.708847
O O13 0.141472 0.596052 0.626515
O O14 0.000000 0.599221 0.000000
O O15 0.650645 0.500000 0.405212
#
# Coordination Sequence:
#
# PCOD9149380 Si02
#       7
#     4   4   4   4   4   2   4
#     4  11  22  40  65  90 123 174 215 260 311 371
#     4  11  20  37  63  93 130 156 198 256 329 391
#     4  11  24  41  66  99 128 157 202 264 337 397
#     4  10  21  35  56  85 120 166 219 262 303 363
#     4  12  20  33  56  90 126 164 197 264 326 385
#     4  10  21  38  63  84 118 176 226 256 296 364
#     4  10  20  34  55  87 123 162 207 252 309 375
#
# _framework density 25.035349
#
# number of rings (size 3 to 8) (size 9 to 14) (size 15 to 20)
#    0.000    1.231    6.154    2.538    0.000    4.923 
#    0.000    1.154    3.385    0.923    0.000    6.462 
#    0.000    0.000    0.000    0.000    0.000    0.000 
#
# Total GULP energy -144911.175627 kJ/mol
# GULP energy per Si atom -5573.506755 kJ/mol
# Density = 2.497837 g / cm^3
# Si number density = 25.035349 Si / 1000 Ang^3
#
#
#
# Elastic Constant Matrix: (Units=GPa)
#
#
# Indices 1 2 3 4 5 6 
#
# 1 72.5708 15.3388 37.1356 0.0000 -15.2759 0.0000
# 2 15.3388 157.1192 51.1242 0.0000 -0.2665 0.0000
# 3 37.1356 51.1242 191.7500 0.0000 -18.1440 0.0000
# 4 0.0000 0.0000 0.0000 23.7212 0.0000 0.4036
# 5 -15.2759 -0.2665 -18.1440 0.0000 47.6592 0.0000
# 6 0.0000 0.0000 0.0000 0.4036 0.0000 21.6885
#
#
#
# Elastic Compliance Matrix: (Units=1/GPa)
#
#
# Indices 1 2 3 4 5 6 
#
# 1 0.016113 -0.000744 -0.002525 0.000000 0.004199 0.000000
# 2 -0.000744 0.007026 -0.001813 0.000000 -0.000890 0.000000
# 3 -0.002525 -0.001813 0.006338 0.000000 0.001594 0.000000
# 4 0.000000 0.000000 0.000000 0.042170 0.000000 -0.000785
# 5 0.004199 -0.000890 0.001594 0.000000 0.022930 0.000000
# 6 0.000000 0.000000 0.000000 -0.000785 0.000000 0.046122
#
#
# Mechanical properties :
#
#
# Convention : Reuss Voigt Hill
#
# Bulk Modulus (GPa) = 51.78056 69.84858 60.81457
# Shear Modulus (GPa) = 31.78628 39.80322 35.79475
#
# Velocity S-wave (km/s) = 3.56709 3.99166 3.78533
# Velocity P-wave (km/s) = 6.13949 7.01463 6.59160
#
# Compressibility (1/GPa) = 0.01931227
#
# Stress axis : x y z
#
# Youngs Moduli (GPa) = 62.06233 142.33364 157.77091
#
# Poissons Ratio (x) = 0.10595 0.39832
# Poissons Ratio (y) = 0.04620 0.28607
# Poissons Ratio (z) = 0.15669 0.25808
#
# Static dielectric constant tensor:
#      x y z
#    x 2.137610 0.000000 0.035460 
#    y 0.000000 1.979490 0.000000 
#    z 0.035460 0.000000 1.977640 
# 
# From -- ./inp_files/24834.got.cif
#   From: 2010.05.17/outbox.cif.g08.bks.cpg/sg10_13_cif.got.tgz:24834.got - 2010.06.03 11:33:40.
