data_PCOD9149605
_publ_section_title
;
Structure prediction by ZEFSAII (Michael W. Deem and Ramdas Pophale) SiO2 
 PCOD9149605
Probable space group: P 2/M
;
_chemical_formula_sum "Si O2"
_cell_formula_units_Z 32
_cell_length_a 12.442591
_cell_length_b 7.759614
_cell_length_c 32.232854
_cell_angle_alpha 90.000000
_cell_angle_beta 29.822887
_cell_angle_gamma 90.000000
_cell_volume 1547.697613
_symmetry_space_group_name_H-M "P 2/M"
_symmetry_group_IT_number 10
_symmetry_cell_setting 'monoclinic'
loop_
_space_group_symop_operation_xyz
x,y,z
-x,y,-z
-x,-y,-z
x,-y,z
loop_
_atom_site_type_symbol
_atom_site_label
_atom_site_fract_x
_atom_site_fract_y
_atom_site_fract_z
Si Si1 0.807811 0.706983 0.245521
Si Si2 0.464973 0.200781 0.117225
Si Si3 0.374727 0.207559 0.603703
Si Si4 0.826050 0.208875 0.415196
Si Si5 0.286295 0.300178 0.092740
Si Si6 0.047374 0.209070 0.031893
Si Si7 0.690033 0.701996 0.740667
Si Si8 0.373087 0.701100 0.777029
O O1 0.820796 0.500000 0.235958
O O2 0.713790 0.738785 0.322397
O O3 0.658401 0.775735 0.258364
O O4 0.052969 0.776932 0.160344
O O5 0.324845 0.292627 0.129141
O O6 0.370216 0.216176 0.195043
O O7 0.468076 0.000000 0.104749
O O8 0.712465 0.264951 0.035575
O O9 0.620044 0.263513 0.511575
O O10 0.227366 0.264505 0.614188
O O11 0.375058 0.000000 0.602268
O O12 0.056592 0.276305 0.352060
O O13 0.834711 0.000000 0.412698
O O14 0.278796 0.500000 0.081848
O O15 0.500000 0.221718 0.000000
O O16 0.860546 0.283837 0.123096
O O17 0.039381 0.000000 0.036831
O O18 0.000000 0.257089 0.000000
O O19 0.637324 0.500000 0.762637
O O20 0.545661 0.776452 0.751593
O O21 0.432519 0.500000 0.752418
#
# Coordination Sequence:
#
# PCOD9149605 Si02
#       8
#     4   4   4   4   4   4   4   4
#     4  10  21  37  56  79 109 146 185 224 268 318
#     4  11  22  35  54  79 110 143 179 226 277 324
#     4   9  19  37  60  85 109 140 178 217 268 328
#     4   9  19  37  60  84 112 139 171 220 274 326
#     4  10  21  37  56  79 110 145 183 226 269 319
#     4  10  20  35  53  76 106 141 184 227 268 315
#     4  11  22  35  54  82 110 139 180 224 270 323
#     4  10  22  38  55  77 108 147 187 225 268 320
#
# _framework density 20.675872999999999
#
# number of rings (size 3 to 8) (size 9 to 14) (size 15 to 20)
#    0.000    2.000    1.250    3.000    0.000    7.000 
#    0.000    1.875    0.000    3.750    0.000    0.000 
#    0.000    0.000    0.000    0.000    0.000    0.000 
#
# Total GULP energy -178755.845020 kJ/mol
# GULP energy per Si atom -5586.120157 kJ/mol
# Density = 2.062881 g / cm^3
# Si number density = 20.675873 Si / 1000 Ang^3
#
#
#
# Elastic Constant Matrix: (Units=GPa)
#
#
# Indices 1 2 3 4 5 6 
#
# 1 116.1540 -1.9911 57.6882 0.0000 -0.0148 0.0000
# 2 -1.9911 30.0193 -5.5192 0.0000 -0.2727 0.0000
# 3 57.6882 -5.5192 98.1677 0.0000 -0.9795 0.0000
# 4 0.0000 0.0000 0.0000 19.7157 0.0000 1.7175
# 5 -0.0148 -0.2727 -0.9795 0.0000 35.6594 0.0000
# 6 0.0000 0.0000 0.0000 1.7175 0.0000 7.1626
#
#
#
# Elastic Compliance Matrix: (Units=1/GPa)
#
#
# Indices 1 2 3 4 5 6 
#
# 1 0.012167 -0.000515 -0.007181 0.000000 -0.000196 0.000000
# 2 -0.000515 0.033685 0.002200 0.000000 0.000318 0.000000
# 3 -0.007181 0.002200 0.014534 0.000000 0.000413 0.000000
# 4 0.000000 0.000000 0.000000 0.051803 0.000000 -0.012422
# 5 -0.000196 0.000318 0.000413 0.000000 0.028057 0.000000
# 6 0.000000 0.000000 0.000000 -0.012422 0.000000 0.142592
#
#
# Mechanical properties :
#
#
# Convention : Reuss Voigt Hill
#
# Bulk Modulus (GPa) = 20.24542 38.29966 29.27254
# Shear Modulus (GPa) = 16.11371 25.45174 20.78273
#
# Velocity S-wave (km/s) = 2.79471 3.51235 3.17388
# Velocity P-wave (km/s) = 4.49744 5.91717 5.25546
#
# Compressibility (1/GPa) = 0.04939389
#
# Stress axis : x y z
#
# Youngs Moduli (GPa) = 82.19152 29.68674 68.80346
#
# Poissons Ratio (x) = 0.01529 0.49405
# Poissons Ratio (y) = 0.04233 -0.15134
# Poissons Ratio (z) = 0.59019 -0.06530
#
# Static dielectric constant tensor:
#      x y z
#    x 1.753660 0.000000 -0.007350 
#    y 0.000000 1.763710 0.000000 
#    z -0.007350 0.000000 1.707790 
# 
# From -- ./inp_files/58091.got.cif
#   From: 2010.05.17/outbox.cif.g08.bks.cpg/sg10_30_cif.got.tgz:58091.got - 2010.06.03 11:33:40.
