data_PCOD9149285
_publ_section_title
;
Structure prediction by ZEFSAII (Michael W. Deem and Ramdas Pophale) SiO2 
 PCOD9149285
Probable space group: P 2/M
;
_chemical_formula_sum "Si O2"
_cell_formula_units_Z 28
_cell_length_a 9.549928
_cell_length_b 19.853168
_cell_length_c 7.001255
_cell_angle_alpha 90.000000
_cell_angle_beta 121.377992
_cell_angle_gamma 90.000000
_cell_volume 1133.279323
_symmetry_space_group_name_H-M "P 2/M"
_symmetry_group_IT_number 10
_symmetry_cell_setting 'monoclinic'
loop_
_space_group_symop_operation_xyz
x,y,z
-x,y,-z
-x,-y,-z
x,-y,z
loop_
_atom_site_type_symbol
_atom_site_label
_atom_site_fract_x
_atom_site_fract_y
_atom_site_fract_z
Si Si1 0.746100 0.710269 0.512259
Si Si2 0.889993 0.078437 0.155751
Si Si3 0.864056 0.571688 0.631978
Si Si4 0.202419 0.141709 0.503411
Si Si5 0.434717 0.134131 0.155585
Si Si6 0.245051 0.573058 0.014493
Si Si7 0.636004 0.286011 0.851774
O O1 0.826381 0.641161 0.504164
O O2 0.816083 0.778371 0.475030
O O3 0.553522 0.704489 0.336523
O O4 0.752742 0.717966 0.747997
O O5 0.832917 0.099993 0.329413
O O6 0.060330 0.119039 0.256942
O O7 0.928267 0.000000 0.173230
O O8 0.729307 0.093718 0.914027
O O9 0.826322 0.500000 0.508649
O O10 0.761308 0.573517 0.757177
O O11 0.055037 0.571746 0.819613
O O12 0.398400 0.134994 0.599246
O O13 0.368718 0.210521 0.069833
O O14 0.500000 0.107166 0.000000
O O15 0.319668 0.500000 0.013363
O O16 0.317500 0.645289 0.006982
#
# Coordination Sequence:
#
# PCOD9149285 Si02
#       7
#     4   4   4   4   4   4   4
#     4   9  17  28  45  69  97 129 153 192 245 280
#     4  10  20  34  55  77  92 120 161 194 232 282
#     4   8  14  24  38  62  93 124 159 194 231 274
#     4   9  18  32  49  74 101 120 153 196 236 277
#     4   9  19  33  50  73  98 124 158 199 235 275
#     4   8  14  24  39  61  91 125 160 197 232 268
#     4   9  17  29  45  68  97 125 161 193 235 290
#
# _framework density 24.707058
#
# number of rings (size 3 to 8) (size 9 to 14) (size 15 to 20)
#    0.000    3.143    0.000    1.714    2.000    3.714 
#    0.000    2.857    0.000    3.000    0.000   20.000 
#    0.000    0.000    0.000    0.000    0.000    0.000 
#
# Total GULP energy -156190.920259 kJ/mol
# GULP energy per Si atom -5578.247152 kJ/mol
# Density = 2.465082 g / cm^3
# Si number density = 24.707058 Si / 1000 Ang^3
#
#
#
# Elastic Constant Matrix: (Units=GPa)
#
#
# Indices 1 2 3 4 5 6 
#
# 1 87.9943 6.6697 18.0320 0.0000 4.8489 0.0000
# 2 6.6697 171.9204 53.9639 0.0000 30.3201 0.0000
# 3 18.0320 53.9639 101.9000 0.0000 26.4371 0.0000
# 4 0.0000 0.0000 0.0000 44.5395 0.0000 18.9871
# 5 4.8489 30.3201 26.4371 0.0000 31.6852 0.0000
# 6 0.0000 0.0000 0.0000 18.9871 0.0000 17.5587
#
#
#
# Elastic Compliance Matrix: (Units=1/GPa)
#
#
# Indices 1 2 3 4 5 6 
#
# 1 0.011802 0.000266 -0.002163 0.000000 -0.000256 0.000000
# 2 0.000266 0.007547 -0.002756 0.000000 -0.004963 0.000000
# 3 -0.002163 -0.002756 0.013893 0.000000 -0.008624 0.000000
# 4 0.000000 0.000000 0.000000 0.041653 0.000000 -0.045042
# 5 -0.000256 -0.004963 -0.008624 0.000000 0.043544 0.000000
# 6 0.000000 0.000000 0.000000 -0.045042 0.000000 0.105658
#
#
# Mechanical properties :
#
#
# Convention : Reuss Voigt Hill
#
# Bulk Modulus (GPa) = 41.77846 57.68287 49.73066
# Shear Modulus (GPa) = 20.71420 37.63329 29.17374
#
# Velocity S-wave (km/s) = 2.89864 3.90703 3.43998
# Velocity P-wave (km/s) = 5.30557 6.61442 5.99582
#
# Compressibility (1/GPa) = 0.02393578
#
# Stress axis : x y z
#
# Youngs Moduli (GPa) = 84.73470 132.50903 71.97759
#
# Poissons Ratio (x) = -0.03528 0.15568
# Poissons Ratio (y) = -0.02256 0.19838
# Poissons Ratio (z) = 0.18327 0.36521
#
# Static dielectric constant tensor:
#      x y z
#    x 2.031210 0.000000 -0.083470 
#    y 0.000000 1.940390 0.000000 
#    z -0.083470 0.000000 2.036850 
# 
# From -- ./inp_files/47977.got.cif
#   From: 2010.05.17/outbox.cif.g08.bks.cpg/sg10_24_cif.got.tgz:47977.got - 2010.06.03 11:33:40.
