data_PCOD9149940
_publ_section_title
;
Structure prediction by ZEFSAII (Michael W. Deem and Ramdas Pophale) SiO2 
 PCOD9149940
Probable space group: P 2/M
;
_chemical_formula_sum "Si O2"
_cell_formula_units_Z 28
_cell_length_a 15.494791
_cell_length_b 8.035889
_cell_length_c 11.321858
_cell_angle_alpha 90.000000
_cell_angle_beta 66.913001
_cell_angle_gamma 90.000000
_cell_volume 1296.829649
_symmetry_space_group_name_H-M "P 2/M"
_symmetry_group_IT_number 10
_symmetry_cell_setting 'monoclinic'
loop_
_space_group_symop_operation_xyz
x,y,z
-x,y,-z
-x,-y,-z
x,-y,z
loop_
_atom_site_type_symbol
_atom_site_label
_atom_site_fract_x
_atom_site_fract_y
_atom_site_fract_z
Si Si1 0.446072 0.201607 0.148716
Si Si2 0.047713 0.195030 0.315956
Si Si3 0.459937 0.298166 0.650716
Si Si4 0.759049 0.195283 0.690945
Si Si5 0.247058 0.697858 0.778819
Si Si6 0.837451 0.303114 0.419522
Si Si7 0.911087 0.194319 0.981175
O O1 0.488932 0.248031 0.254144
O O2 0.338040 0.263197 0.206938
O O3 0.444980 0.000000 0.145635
O O4 0.500000 0.257753 0.000000
O O5 0.141960 0.271097 0.320778
O O6 0.066852 0.206257 0.167120
O O7 0.945613 0.269191 0.394111
O O8 0.041502 0.000000 0.352593
O O9 0.500000 0.244316 0.500000
O O10 0.461752 0.500000 0.647645
O O11 0.352441 0.236435 0.718707
O O12 0.765811 0.215048 0.546767
O O13 0.761985 0.000000 0.721862
O O14 0.254783 0.500000 0.762340
O O15 0.184949 0.757270 0.700884
O O16 0.187911 0.732868 0.927300
O O17 0.821018 0.500000 0.435421
O O18 0.906068 0.000000 0.017302
O O19 0.000000 0.273230 0.000000
#
# Coordination Sequence:
#
# PCOD9149940 Si02
#       7
#     4   4   4   4   4   4   4
#     4  10  23  42  64  91 122 156 201 256 307 357
#     4  10  21  37  57  83 116 153 191 232 285 345
#     4  10  22  42  65  89 121 160 203 251 304 362
#     4  10  22  39  59  82 115 155 191 234 291 348
#     4  10  22  37  57  85 117 153 190 236 293 344
#     4  11  22  37  58  86 118 152 191 237 284 339
#     4  10  20  35  57  84 113 150 193 236 283 342
#
# _framework density 21.591117000000001
#
# number of rings (size 3 to 8) (size 9 to 14) (size 15 to 20)
#    0.000    1.857    1.429    1.714    2.000    6.571 
#    0.000    0.000    0.000    0.000    0.000    0.000 
#    0.000    0.000    0.000    0.000    0.000    0.000 
#
# Total GULP energy -156255.451567 kJ/mol
# GULP energy per Si atom -5580.551842 kJ/mol
# Density = 2.154197 g / cm^3
# Si number density = 21.591117 Si / 1000 Ang^3
#
#
#
# Elastic Constant Matrix: (Units=GPa)
#
#
# Indices 1 2 3 4 5 6 
#
# 1 119.0759 12.2102 63.7088 0.0000 -19.5082 0.0000
# 2 12.2102 14.5787 9.4927 0.0000 -2.5225 0.0000
# 3 63.7088 9.4927 136.4782 0.0000 -24.7032 0.0000
# 4 0.0000 0.0000 0.0000 24.8872 0.0000 0.5711
# 5 -19.5082 -2.5225 -24.7032 0.0000 39.2376 0.0000
# 6 0.0000 0.0000 0.0000 0.5711 0.0000 20.0986
#
#
#
# Elastic Compliance Matrix: (Units=1/GPa)
#
#
# Indices 1 2 3 4 5 6 
#
# 1 0.011997 -0.006555 -0.004673 0.000000 0.002601 0.000000
# 2 -0.006555 0.075524 -0.002149 0.000000 0.000243 0.000000
# 3 -0.004673 -0.002149 0.010398 0.000000 0.004084 0.000000
# 4 0.000000 0.000000 0.000000 0.040208 0.000000 -0.001143
# 5 0.002601 0.000243 0.004084 0.000000 0.029366 0.000000
# 6 0.000000 0.000000 0.000000 -0.001143 0.000000 0.049787
#
#
# Mechanical properties :
#
#
# Convention : Reuss Voigt Hill
#
# Bulk Modulus (GPa) = 14.05206 48.99516 31.52361
# Shear Modulus (GPa) = 18.67376 29.15942 23.91659
#
# Velocity S-wave (km/s) = 2.94408 3.67894 3.33183
# Velocity P-wave (km/s) = 4.25196 6.38652 5.42526
#
# Compressibility (1/GPa) = 0.07116395
#
# Stress axis : x y z
#
# Youngs Moduli (GPa) = 83.35681 13.24074 96.17652
#
# Poissons Ratio (x) = 0.08679 0.44947
# Poissons Ratio (y) = 0.54637 0.20671
# Poissons Ratio (z) = 0.38956 0.02846
#
# Static dielectric constant tensor:
#      x y z
#    x 1.827900 0.000000 0.020140 
#    y 0.000000 1.788610 0.000000 
#    z 0.020140 0.000000 1.783320 
# 
# From -- ./inp_files/49581.got.cif
#   From: 2010.05.17/outbox.cif.g08.bks.cpg/sg10_25_cif.got.tgz:49581.got - 2010.06.03 11:33:40.
