data_PCOD9149841
_publ_section_title
;
Structure prediction by ZEFSAII (Michael W. Deem and Ramdas Pophale) SiO2 
 PCOD9149841
Probable space group: P 2/M
;
_chemical_formula_sum "Si O2"
_cell_formula_units_Z 32
_cell_length_a 32.750562
_cell_length_b 8.774158
_cell_length_c 12.809458
_cell_angle_alpha 90.000000
_cell_angle_beta 152.932146
_cell_angle_gamma 90.000000
_cell_volume 1674.980169
_symmetry_space_group_name_H-M "P 2/M"
_symmetry_group_IT_number 10
_symmetry_cell_setting 'monoclinic'
loop_
_space_group_symop_operation_xyz
x,y,z
-x,y,-z
-x,-y,-z
x,-y,z
loop_
_atom_site_type_symbol
_atom_site_label
_atom_site_fract_x
_atom_site_fract_y
_atom_site_fract_z
Si Si1 0.907015 0.682727 0.492408
Si Si2 0.289060 0.683291 0.870537
Si Si3 0.652294 0.317743 0.769198
Si Si4 0.423924 0.182287 0.600324
Si Si5 0.292022 0.682318 0.468470
Si Si6 0.619777 0.818215 0.124523
Si Si7 0.897233 0.682945 0.040700
Si Si8 0.843796 0.818689 0.140067
O O1 0.903094 0.500000 0.464471
O O2 0.815109 0.722064 0.342831
O O3 0.904476 0.766853 0.375528
O O4 0.001155 0.718042 0.762703
O O5 0.294783 0.500000 0.870033
O O6 0.325084 0.765951 0.851071
O O7 0.345827 0.723748 0.104061
O O8 0.647077 0.500000 0.750311
O O9 0.580722 0.244627 0.528215
O O10 0.748353 0.261003 0.945077
O O11 0.342869 0.250435 0.483661
O O12 0.416608 0.000000 0.581719
O O13 0.516558 0.225838 0.867638
O O14 0.298440 0.500000 0.479836
O O15 0.339967 0.743416 0.680654
O O16 0.186770 0.726018 0.223052
O O17 0.622824 0.000000 0.143110
O O18 0.892429 0.500000 0.044016
O O19 0.880767 0.760183 0.114762
O O20 0.833101 0.000000 0.114620
#
# Coordination Sequence:
#
# PCOD9149841 Si02
#       8
#     4   4   4   4   4   4   4   4
#     4   9  19  36  57  81 114 153 191 235 283 338
#     4   9  20  39  61  84 113 151 198 240 279 335
#     4  10  20  36  59  87 118 153 190 235 288 342
#     4  11  23  39  60  88 119 150 186 235 296 354
#     4  11  23  39  62  88 115 150 195 241 286 341
#     4  11  25  42  60  82 114 155 194 238 295 348
#     4  10  20  35  56  83 114 150 191 235 287 342
#     4  11  20  30  50  83 121 155 187 229 283 343
#
# _framework density 19.104703000000001
#
# number of rings (size 3 to 8) (size 9 to 14) (size 15 to 20)
#    0.000    1.750    1.250    4.125    0.000    9.000 
#    0.000    3.125    0.000    3.750    0.000    0.000 
#    0.000    0.000    0.000    0.000    0.000    0.000 
#
# Total GULP energy -178730.714480 kJ/mol
# GULP energy per Si atom -5585.334827 kJ/mol
# Density = 1.906122 g / cm^3
# Si number density = 19.104703 Si / 1000 Ang^3
#
#
#
# Elastic Constant Matrix: (Units=GPa)
#
#
# Indices 1 2 3 4 5 6 
#
# 1 53.2417 17.9152 39.0865 0.0000 -20.5233 0.0000
# 2 17.9152 31.1189 48.0103 0.0000 -17.2732 0.0000
# 3 39.0865 48.0103 170.0652 0.0000 -42.7469 0.0000
# 4 0.0000 0.0000 0.0000 4.2818 0.0000 38.9411
# 5 -20.5233 -17.2732 -42.7469 0.0000 44.1096 0.0000
# 6 0.0000 0.0000 0.0000 38.9411 0.0000 -2.8115
#
#
#
# Elastic Compliance Matrix: (Units=1/GPa)
#
#
# Indices 1 2 3 4 5 6 
#
# 1 0.025506 -0.007935 -0.001878 0.000000 0.006941 0.000000
# 2 -0.007935 0.062158 -0.013926 0.000000 0.007153 0.000000
# 3 -0.001878 -0.013926 0.011439 0.000000 0.004759 0.000000
# 4 0.000000 0.000000 0.000000 0.001839 0.000000 0.025478
# 5 0.006941 0.007153 0.004759 0.000000 0.033313 0.000000
# 6 0.000000 0.000000 0.000000 0.025478 0.000000 -0.002801
#
#
# Mechanical properties :
#
#
# Convention : Reuss Voigt Hill
#
# Bulk Modulus (GPa) = 19.36958 51.60555 35.48756
# Shear Modulus (GPa) = 25.49197 19.07689 22.28443
#
# Velocity S-wave (km/s) = 3.65681 3.16340 3.41902
# Velocity P-wave (km/s) = 5.29059 6.35716 5.84824
#
# Compressibility (1/GPa) = 0.05162736
#
# Stress axis : x y z
#
# Youngs Moduli (GPa) = 39.20646 16.08793 87.41925
#
# Poissons Ratio (x) = 0.12765 0.16413
# Poissons Ratio (y) = 0.31109 1.21739
# Poissons Ratio (z) = 0.07361 0.22404
#
# Static dielectric constant tensor:
#      x y z
#    x 1.625920 0.000000 0.013810 
#    y 0.000000 1.637100 0.000000 
#    z 0.013810 0.000000 1.712910 
# 
# From -- ./inp_files/58321.got.cif
#   From: 2010.05.17/outbox.cif.g08.bks.cpg/sg10_30_cif.got.tgz:58321.got - 2010.06.03 11:33:40.
