data_PCOD9149412
_publ_section_title
;
Structure prediction by ZEFSAII (Michael W. Deem and Ramdas Pophale) SiO2 
 PCOD9149412
Probable space group: P 2/M
;
_chemical_formula_sum "Si O2"
_cell_formula_units_Z 32
_cell_length_a 28.683830
_cell_length_b 7.596500
_cell_length_c 22.253918
_cell_angle_alpha 90.000000
_cell_angle_beta 161.583116
_cell_angle_gamma 90.000000
_cell_volume 1531.955544
_symmetry_space_group_name_H-M "P 2/M"
_symmetry_group_IT_number 10
_symmetry_cell_setting 'monoclinic'
loop_
_space_group_symop_operation_xyz
x,y,z
-x,y,-z
-x,-y,-z
x,-y,z
loop_
_atom_site_type_symbol
_atom_site_label
_atom_site_fract_x
_atom_site_fract_y
_atom_site_fract_z
Si Si1 0.408096 0.287785 0.976879
Si Si2 0.278212 0.284715 0.693797
Si Si3 0.976505 0.294170 0.702145
Si Si4 0.839739 0.784565 0.781438
Si Si5 0.556831 0.204434 0.506706
Si Si6 0.435125 0.205919 0.142315
Si Si7 0.229026 0.213265 0.438567
Si Si8 0.303409 0.297974 0.105996
O O1 0.409067 0.500000 0.978394
O O2 0.574793 0.229929 0.163127
O O3 0.367150 0.227465 0.993214
O O4 0.304413 0.231538 0.794789
O O5 0.277220 0.500000 0.691060
O O6 0.130670 0.220655 0.480828
O O7 0.999579 0.500000 0.715437
O O8 0.883499 0.281013 0.649402
O O9 0.139657 0.217742 0.909593
O O10 0.705559 0.720438 0.659115
O O11 0.812789 0.731969 0.679763
O O12 0.836382 0.000000 0.777730
O O13 0.000000 0.729262 0.000000
O O14 0.500000 0.282970 0.500000
O O15 0.427886 0.210645 0.299404
O O16 0.592190 0.000000 0.562795
O O17 0.603656 0.272372 0.344257
O O18 0.352227 0.293457 0.096256
O O19 0.441867 0.000000 0.165839
O O20 0.225730 0.000000 0.437700
O O21 0.297857 0.500000 0.120259
#
# Coordination Sequence:
#
# PCOD9149412 Si02
#       8
#     4   4   4   4   4   4   4   4
#     4   9  16  30  56  83 107 142 184 227 280 328
#     4   8  15  30  53  81 110 141 182 230 273 328
#     4  10  21  37  56  81 112 145 185 230 276 326
#     4   9  18  34  55  82 110 137 178 226 267 320
#     4  10  21  38  60  83 110 147 185 223 273 329
#     4  11  21  36  56  82 113 146 186 229 273 330
#     4  10  20  34  56  83 110 140 181 231 278 323
#     4  11  24  39  57  80 112 152 188 226 273 326
#
# _framework density 20.888334
#
# number of rings (size 3 to 8) (size 9 to 14) (size 15 to 20)
#    0.000    2.250    2.500    1.500    1.750    1.750 
#    0.000    2.500    0.000    4.500    0.000    0.000 
#    0.000    0.000    0.000    0.000    0.000    0.000 
#
# Total GULP energy -178670.891525 kJ/mol
# GULP energy per Si atom -5583.465360 kJ/mol
# Density = 2.084079 g / cm^3
# Si number density = 20.888334 Si / 1000 Ang^3
#
#
#
# Elastic Constant Matrix: (Units=GPa)
#
#
# Indices 1 2 3 4 5 6 
#
# 1 132.7493 -12.2209 77.2387 0.0000 -8.4208 0.0000
# 2 -12.2209 43.4102 -0.4245 0.0000 0.9052 0.0000
# 3 77.2387 -0.4245 139.6261 0.0000 9.0336 0.0000
# 4 0.0000 0.0000 0.0000 26.0338 0.0000 -3.9778
# 5 -8.4208 0.9052 9.0336 0.0000 34.3525 0.0000
# 6 0.0000 0.0000 0.0000 -3.9778 0.0000 18.6068
#
#
#
# Elastic Compliance Matrix: (Units=1/GPa)
#
#
# Indices 1 2 3 4 5 6 
#
# 1 0.012258 0.003282 -0.007080 0.000000 0.004780 0.000000
# 2 0.003282 0.023929 -0.001784 0.000000 0.000643 0.000000
# 3 -0.007080 -0.001784 0.011376 0.000000 -0.004680 0.000000
# 4 0.000000 0.000000 0.000000 0.039709 0.000000 0.008489
# 5 0.004780 0.000643 -0.004680 0.000000 0.031495 0.000000
# 6 0.000000 0.000000 0.000000 0.008489 0.000000 0.055559
#
#
# Mechanical properties :
#
#
# Convention : Reuss Voigt Hill
#
# Bulk Modulus (GPa) = 27.47417 49.44136 38.45777
# Shear Modulus (GPa) = 25.30068 32.54479 28.92273
#
# Velocity S-wave (km/s) = 3.48406 3.95148 3.72511
# Velocity P-wave (km/s) = 5.41907 6.67380 6.07890
#
# Compressibility (1/GPa) = 0.03639782
#
# Stress axis : x y z
#
# Youngs Moduli (GPa) = 81.58053 41.79006 87.90489
#
# Poissons Ratio (x) = -0.13715 0.62238
# Poissons Ratio (y) = -0.26774 0.15686
# Poissons Ratio (z) = 0.57760 0.07457
#
# Static dielectric constant tensor:
#      x y z
#    x 1.717540 0.000000 -0.005360 
#    y 0.000000 1.787990 0.000000 
#    z -0.005360 0.000000 1.743650 
# 
# From -- ./inp_files/86986.got.cif
#   From: 2010.05.17/outbox.cif.g08.bks.cpg/sg10_44_cif.got.tgz:86986.got - 2010.06.03 11:33:40.
