data_PCOD9149451
_publ_section_title
;
Structure prediction by ZEFSAII (Michael W. Deem and Ramdas Pophale) SiO2 
 PCOD9149451
Probable space group: P 2/M
;
_chemical_formula_sum "Si O2"
_cell_formula_units_Z 28
_cell_length_a 15.589715
_cell_length_b 21.255941
_cell_length_c 8.637359
_cell_angle_alpha 90.000000
_cell_angle_beta 25.426861
_cell_angle_gamma 90.000000
_cell_volume 1228.908732
_symmetry_space_group_name_H-M "P 2/M"
_symmetry_group_IT_number 10
_symmetry_cell_setting 'monoclinic'
loop_
_space_group_symop_operation_xyz
x,y,z
-x,y,-z
-x,-y,-z
x,-y,z
loop_
_atom_site_type_symbol
_atom_site_label
_atom_site_fract_x
_atom_site_fract_y
_atom_site_fract_z
Si Si1 0.968808 0.830686 0.873640
Si Si2 0.200628 0.931016 0.066314
Si Si3 0.059128 0.305144 0.200764
Si Si4 0.797577 0.431377 0.934875
Si Si5 0.383513 0.129495 0.038897
Si Si6 0.585162 0.745884 0.191058
Si Si7 0.383384 0.367291 0.042507
O O1 0.170718 0.846718 0.451310
O O2 0.810779 0.874094 0.037515
O O3 0.935465 0.755626 0.918178
O O4 0.000000 0.849854 0.000000
O O5 0.365107 0.919775 0.930063
O O6 0.000000 0.929996 0.500000
O O7 0.215287 0.000000 0.969665
O O8 0.186174 0.370367 0.982510
O O9 0.833960 0.335492 0.561336
O O10 0.182658 0.273096 0.147502
O O11 0.774205 0.500000 0.044736
O O12 0.638865 0.417037 0.059363
O O13 0.000000 0.431300 0.500000
O O14 0.500000 0.107854 0.000000
O O15 0.460961 0.191893 0.828566
O O16 0.500000 0.749254 0.500000
O O17 0.500245 0.690625 0.224234
O O18 0.500000 0.391438 0.000000
#
# Coordination Sequence:
#
# PCOD9149451 Si02
#       7
#     4   4   4   4   4   4   4
#     4  11  23  37  62  91 121 161 205 247 303 361
#     4   9  20  40  63  85 119 164 202 241 298 363
#     4  10  20  36  59  83 123 157 200 250 306 356
#     4   8  16  31  55  84 114 161 209 243 297 368
#     4  11  23  37  59  90 126 153 197 258 304 358
#     4  11  22  35  57  84 123 159 201 246 307 367
#     4  10  20  34  56  86 124 157 194 261 313 358
#
# _framework density 22.784444000000001
#
# number of rings (size 3 to 8) (size 9 to 14) (size 15 to 20)
#    0.000    2.000    2.857    1.714    2.000    0.857 
#    0.000    0.000    0.000   10.286    0.000    6.000 
#    0.000    1.429    0.000    0.000    0.000    0.000 
#
# Total GULP energy -155944.972288 kJ/mol
# GULP energy per Si atom -5569.463296 kJ/mol
# Density = 2.273259 g / cm^3
# Si number density = 22.784444 Si / 1000 Ang^3
#
#
#
# Elastic Constant Matrix: (Units=GPa)
#
#
# Indices 1 2 3 4 5 6 
#
# 1 124.6596 48.4853 9.1900 0.0000 -9.7622 0.0000
# 2 48.4853 153.8175 13.7186 0.0000 6.3942 0.0000
# 3 9.1900 13.7186 48.9501 0.0000 -1.9412 0.0000
# 4 0.0000 0.0000 0.0000 8.0989 0.0000 1.4371
# 5 -9.7622 6.3942 -1.9412 0.0000 24.7819 0.0000
# 6 0.0000 0.0000 0.0000 1.4371 0.0000 -0.8160
#
#
#
# Elastic Compliance Matrix: (Units=1/GPa)
#
#
# Indices 1 2 3 4 5 6 
#
# 1 0.009668 -0.003171 -0.000745 0.000000 0.004568 0.000000
# 2 -0.003171 0.007796 -0.001724 0.000000 -0.003396 0.000000
# 3 -0.000745 -0.001724 0.021124 0.000000 0.001806 0.000000
# 4 0.000000 0.000000 0.000000 0.094075 0.000000 0.165681
# 5 0.004568 -0.003396 0.001806 0.000000 0.043169 0.000000
# 6 0.000000 0.000000 0.000000 0.165681 0.000000 -0.933735
#
#
# Mechanical properties :
#
#
# Convention : Reuss Voigt Hill
#
# Bulk Modulus (GPa) = 36.62106 52.24610 44.43358
# Shear Modulus (GPa) = -6.77947 23.48185 8.35119
#
# Velocity S-wave (km/s) = -1.72683 3.21379 1.91658
# Velocity P-wave (km/s) = 3.48307 6.06232 4.94386
#
# Compressibility (1/GPa) = 0.02730669
#
# Stress axis : x y z
#
# Youngs Moduli (GPa) = 103.43615 128.27699 47.34018
#
# Poissons Ratio (x) = 0.40675 0.03528
# Poissons Ratio (y) = 0.32798 0.08162
# Poissons Ratio (z) = 0.07708 0.22117
#
# Static dielectric constant tensor:
#      x y z
#    x 1.856520 0.000000 -0.023700 
#    y 0.000000 1.839150 0.000000 
#    z -0.023700 0.000000 2.086740 
# 
# From -- ./inp_files/30424.got.cif
#   From: 2010.05.17/outbox.cif.g08.bks.cpg/sg10_16_cif.got.tgz:30424.got - 2010.06.03 11:33:40.
