data_PCOD9149123
_publ_section_title
;
Structure prediction by ZEFSAII (Michael W. Deem and Ramdas Pophale) SiO2 
 PCOD9149123
Probable space group: P 2/M
;
_chemical_formula_sum "Si O2"
_cell_formula_units_Z 32
_cell_length_a 15.805623
_cell_length_b 24.196281
_cell_length_c 9.217670
_cell_angle_alpha 90.000000
_cell_angle_beta 151.610377
_cell_angle_gamma 90.000000
_cell_volume 1676.099679
_symmetry_space_group_name_H-M "P 2/M"
_symmetry_group_IT_number 10
_symmetry_cell_setting 'monoclinic'
loop_
_space_group_symop_operation_xyz
x,y,z
-x,y,-z
-x,-y,-z
x,-y,z
loop_
_atom_site_type_symbol
_atom_site_label
_atom_site_fract_x
_atom_site_fract_y
_atom_site_fract_z
Si Si1 0.195529 0.064141 0.222158
Si Si2 0.190327 0.759674 0.362718
Si Si3 0.839308 0.564863 0.364533
Si Si4 0.478482 0.435268 0.635724
Si Si5 0.036810 0.938076 0.386293
Si Si6 0.304921 0.840746 0.775061
Si Si7 0.464211 0.836526 0.616625
Si Si8 0.819578 0.371017 0.637680
O O1 0.349190 0.108327 0.483951
O O2 0.243915 0.000000 0.324725
O O3 0.000000 0.074656 0.000000
O O4 0.144694 0.070085 0.976067
O O5 0.211570 0.790830 0.548595
O O6 0.340945 0.786067 0.486177
O O7 0.212400 0.694574 0.419039
O O8 0.000000 0.770322 0.000000
O O9 0.861528 0.500000 0.439379
O O10 0.831575 0.601385 0.497297
O O11 0.000000 0.580253 0.500000
O O12 0.661131 0.569387 0.000528
O O13 0.500000 0.418633 0.500000
O O14 0.424889 0.500000 0.554995
O O15 0.335024 0.399656 0.503849
O O16 0.183763 0.893752 0.567811
O O17 0.000000 0.934637 0.500000
O O18 0.099530 0.000000 0.444569
O O19 0.500000 0.847008 0.000000
O O20 0.352512 0.833836 0.015861
O O21 0.500000 0.835184 0.500000
O O22 0.000000 0.379794 0.000000
#
# Coordination Sequence:
#
# PCOD9149123 Si02
#       8
#     4   4   4   4   4   4   4   4
#     4  10  20  35  56  79 108 148 184 219 276 347
#     4  10  23  43  60  77 108 149 193 234 278 339
#     4  10  21  38  61  91 126 160 196 239 288 347
#     4  10  21  37  60  91 125 161 197 237 288 344
#     4  10  20  34  53  78 107 139 176 218 269 331
#     4  10  21  36  56  80 106 140 180 225 278 328
#     4  11  22  36  57  84 112 142 182 235 290 336
#     4  11  23  39  61  87 116 156 200 246 298 347
#
# _framework density 19.091944000000002
#
# number of rings (size 3 to 8) (size 9 to 14) (size 15 to 20)
#    0.000    1.750    0.000    4.875    0.000    7.500 
#    0.000    3.125    0.000    0.000    0.000    0.000 
#    0.000    0.000    0.000    0.000    0.000    0.000 
#
# Total GULP energy -178714.465558 kJ/mol
# GULP energy per Si atom -5584.827049 kJ/mol
# Density = 1.904849 g / cm^3
# Si number density = 19.091944 Si / 1000 Ang^3
#
#
#
# Elastic Constant Matrix: (Units=GPa)
#
#
# Indices 1 2 3 4 5 6 
#
# 1 115.1546 74.7830 54.8720 0.0000 -24.1591 0.0000
# 2 74.7830 121.4834 80.6229 0.0000 -2.9342 0.0000
# 3 54.8720 80.6229 99.8993 0.0000 -16.0522 0.0000
# 4 0.0000 0.0000 0.0000 30.9778 0.0000 1.5850
# 5 -24.1591 -2.9342 -16.0522 0.0000 37.0606 0.0000
# 6 0.0000 0.0000 0.0000 1.5850 0.0000 10.5549
#
#
#
# Elastic Compliance Matrix: (Units=1/GPa)
#
#
# Indices 1 2 3 4 5 6 
#
# 1 0.018067 -0.011804 0.001446 0.000000 0.011469 0.000000
# 2 -0.011804 0.026402 -0.016901 0.000000 -0.012925 0.000000
# 3 0.001446 -0.016901 0.024497 0.000000 0.010215 0.000000
# 4 0.000000 0.000000 0.000000 0.032531 0.000000 -0.004885
# 5 0.011469 -0.012925 0.010215 0.000000 0.037860 0.000000
# 6 0.000000 0.000000 0.000000 -0.004885 0.000000 0.095477
#
#
# Mechanical properties :
#
#
# Convention : Reuss Voigt Hill
#
# Bulk Modulus (GPa) = 69.21552 84.12148 76.66850
# Shear Modulus (GPa) = 16.99707 24.13595 20.56651
#
# Velocity S-wave (km/s) = 2.98698 3.55941 3.28569
# Velocity P-wave (km/s) = 6.94468 7.81341 7.39182
#
# Compressibility (1/GPa) = 0.01444763
#
# Stress axis : x y z
#
# Youngs Moduli (GPa) = 55.34919 37.87604 40.82151
#
# Poissons Ratio (x) = 0.44709 -0.05901
# Poissons Ratio (y) = 0.65335 0.68991
# Poissons Ratio (z) = -0.08001 0.64013
#
# Static dielectric constant tensor:
#      x y z
#    x 1.685080 0.000000 -0.030200 
#    y 0.000000 1.646880 0.000000 
#    z -0.030200 0.000000 1.700920 
# 
# From -- ./inp_files/30634.got.cif
#   From: 2010.05.17/outbox.cif.g08.bks.cpg/sg10_16_cif.got.tgz:30634.got - 2010.06.03 11:33:40.
