data_PCOD9149829
_publ_section_title
;
Structure prediction by ZEFSAII (Michael W. Deem and Ramdas Pophale) SiO2 
 PCOD9149829
Probable space group: P 2/M
;
_chemical_formula_sum "Si O2"
_cell_formula_units_Z 28
_cell_length_a 10.277620
_cell_length_b 7.641566
_cell_length_c 27.501722
_cell_angle_alpha 90.000000
_cell_angle_beta 145.101143
_cell_angle_gamma 90.000000
_cell_volume 1235.745856
_symmetry_space_group_name_H-M "P 2/M"
_symmetry_group_IT_number 10
_symmetry_cell_setting 'monoclinic'
loop_
_space_group_symop_operation_xyz
x,y,z
-x,y,-z
-x,-y,-z
x,-y,z
loop_
_atom_site_type_symbol
_atom_site_label
_atom_site_fract_x
_atom_site_fract_y
_atom_site_fract_z
Si Si1 0.088469 0.294184 0.146407
Si Si2 0.767575 0.298084 0.703790
Si Si3 0.211042 0.800047 0.782131
Si Si4 0.547490 0.788287 0.241217
Si Si5 0.591859 0.292696 0.973470
Si Si6 0.385743 0.796600 0.512822
Si Si7 0.056544 0.785713 0.571250
O O1 0.043446 0.500000 0.141704
O O2 0.167354 0.221723 0.223241
O O3 0.292540 0.274873 0.171091
O O4 0.849767 0.223717 0.053370
O O5 0.701585 0.500000 0.690328
O O6 0.561209 0.211231 0.611438
O O7 0.993257 0.289490 0.739550
O O8 0.317500 0.726990 0.765097
O O9 0.416714 0.796400 0.883546
O O10 0.138578 0.000000 0.750161
O O11 0.698643 0.734219 0.333759
O O12 0.539226 0.000000 0.236329
O O13 0.590129 0.500000 0.960363
O O14 0.500000 0.275644 0.000000
O O15 0.500000 0.716058 0.500000
O O16 0.143722 0.722928 0.454687
O O17 0.340693 0.000000 0.487432
O O18 0.000000 0.726336 0.500000
O O19 0.052452 0.000000 0.569659
#
# Coordination Sequence:
#
# PCOD9149829 Si02
#       7
#     4   4   4   4   4   4   4
#     4  10  22  39  60  85 114 151 194 240 289 347
#     4  11  22  38  59  85 117 154 197 242 292 348
#     4  11  23  38  59  88 120 154 194 241 295 350
#     4  10  22  39  58  85 120 153 190 241 294 347
#     4  10  20  40  63  84 116 154 194 240 290 344
#     4  10  20  35  56  82 113 149 193 243 291 342
#     4   9  17  32  55  79 107 147 190 230 281 339
#
# _framework density 22.658380999999999
#
# number of rings (size 3 to 8) (size 9 to 14) (size 15 to 20)
#    0.000    1.857    1.429    2.571    0.000    7.429 
#    0.000    3.571    0.000    2.571    0.000    0.000 
#    0.000    0.000    0.000    0.000    0.000    0.000 
#
# Total GULP energy -156528.326352 kJ/mol
# GULP energy per Si atom -5590.297370 kJ/mol
# Density = 2.260681 g / cm^3
# Si number density = 22.658381 Si / 1000 Ang^3
#
#
#
# Elastic Constant Matrix: (Units=GPa)
#
#
# Indices 1 2 3 4 5 6 
#
# 1 57.3267 -2.6175 -8.8117 0.0000 18.5303 0.0000
# 2 -2.6175 43.8949 -7.9132 0.0000 -2.8447 0.0000
# 3 -8.8117 -7.9132 78.1465 0.0000 21.7062 0.0000
# 4 0.0000 0.0000 0.0000 20.9557 0.0000 4.4674
# 5 18.5303 -2.8447 21.7062 0.0000 40.8178 0.0000
# 6 0.0000 0.0000 0.0000 4.4674 0.0000 16.2982
#
#
#
# Elastic Compliance Matrix: (Units=1/GPa)
#
#
# Indices 1 2 3 4 5 6 
#
# 1 0.023011 0.001666 0.006609 0.000000 -0.013845 0.000000
# 2 0.001666 0.023332 0.002709 0.000000 -0.000571 0.000000
# 3 0.006609 0.002709 0.017127 0.000000 -0.011919 0.000000
# 4 0.000000 0.000000 0.000000 0.050681 0.000000 -0.013892
# 5 -0.013845 -0.000571 -0.011919 0.000000 0.037083 0.000000
# 6 0.000000 0.000000 0.000000 -0.013892 0.000000 0.065164
#
#
# Mechanical properties :
#
#
# Convention : Reuss Voigt Hill
#
# Bulk Modulus (GPa) = 11.70419 15.63150 13.66784
# Shear Modulus (GPa) = 22.43061 28.86171 25.64616
#
# Velocity S-wave (km/s) = 3.14976 3.57287 3.36797
# Velocity P-wave (km/s) = 4.29007 4.89227 4.60103
#
# Compressibility (1/GPa) = 0.08543949
#
# Stress axis : x y z
#
# Youngs Moduli (GPa) = 43.45732 42.85882 58.38814
#
# Poissons Ratio (x) = -0.07142 -0.38589
# Poissons Ratio (y) = -0.07242 -0.15818
# Poissons Ratio (z) = -0.28721 -0.11611
#
# Static dielectric constant tensor:
#      x y z
#    x 1.860540 0.000000 -0.006220 
#    y 0.000000 1.868700 0.000000 
#    z -0.006220 0.000000 1.804690 
# 
# From -- ./inp_files/91876.got.cif
#   From: 2010.05.17/outbox.cif.g08.bks.cpg/sg10_46_cif.got.tgz:91876.got - 2010.06.03 11:33:40.
