data_PCOD9149686
_publ_section_title
;
Structure prediction by ZEFSAII (Michael W. Deem and Ramdas Pophale) SiO2 
 PCOD9149686
Probable space group: P 2/M
;
_chemical_formula_sum "Si O2"
_cell_formula_units_Z 32
_cell_length_a 28.696056
_cell_length_b 7.532899
_cell_length_c 12.294336
_cell_angle_alpha 90.000000
_cell_angle_beta 31.626409
_cell_angle_gamma 90.000000
_cell_volume 1393.587538
_symmetry_space_group_name_H-M "P 2/M"
_symmetry_group_IT_number 10
_symmetry_cell_setting 'monoclinic'
loop_
_space_group_symop_operation_xyz
x,y,z
-x,y,-z
-x,-y,-z
x,-y,z
loop_
_atom_site_type_symbol
_atom_site_label
_atom_site_fract_x
_atom_site_fract_y
_atom_site_fract_z
Si Si1 0.595737 0.793682 0.054896
Si Si2 0.558275 0.289359 0.782157
Si Si3 0.090898 0.283888 0.074171
Si Si4 0.404108 0.298523 0.704190
Si Si5 0.934344 0.708288 0.525267
Si Si6 0.097655 0.795573 0.816393
Si Si7 0.784661 0.281883 0.972326
Si Si8 0.285465 0.786850 0.383286
O O1 0.492613 0.780805 0.222135
O O2 0.612344 0.696889 0.134172
O O3 0.617095 0.000000 0.028675
O O4 0.656199 0.723094 0.835192
O O5 0.548312 0.500000 0.797306
O O6 0.659000 0.251981 0.616888
O O7 0.500000 0.217955 0.000000
O O8 0.089510 0.500000 0.071561
O O9 0.116168 0.209530 0.907984
O O10 0.160794 0.234066 0.028648
O O11 0.993079 0.221250 0.309161
O O12 0.500000 0.210744 0.500000
O O13 0.411818 0.500000 0.644619
O O14 0.316055 0.218407 0.827242
O O15 0.920401 0.500000 0.530156
O O16 0.841340 0.780750 0.754490
O O17 0.000000 0.718128 0.500000
O O18 0.184977 0.717031 0.586166
O O19 0.090014 0.000000 0.793660
O O20 0.000000 0.711463 0.000000
O O21 0.783714 0.500000 0.969431
O O22 0.281280 0.000000 0.384082
#
# Coordination Sequence:
#
# PCOD9149686 Si02
#       8
#     4   4   4   4   4   4   4   4
#     4  10  20  35  55  77 104 139 177 217 260 308
#     4   9  17  31  54  82 106 129 166 217 266 311
#     4   9  17  31  53  78  99 125 169 219 260 300
#     4  10  21  35  50  73 106 138 168 206 256 312
#     4   7  11  23  46  73  96 120 157 205 253 300
#     4  10  22  38  52  71 106 146 176 207 256 312
#     4   8  15  30  51  73  99 132 167 207 258 310
#     4   9  19  36  55  75 102 140 182 218 257 309
#
# _framework density 22.962318
#
# number of rings (size 3 to 8) (size 9 to 14) (size 15 to 20)
#    0.000    3.000    0.000    2.250    0.000    5.000 
#    0.000    1.875    0.000    3.375    0.000    0.000 
#    0.000    0.000    0.000    0.000    0.000    0.000 
#
# Total GULP energy -178480.579875 kJ/mol
# GULP energy per Si atom -5577.518121 kJ/mol
# Density = 2.291005 g / cm^3
# Si number density = 22.962318 Si / 1000 Ang^3
#
#
#
# Elastic Constant Matrix: (Units=GPa)
#
#
# Indices 1 2 3 4 5 6 
#
# 1 54.9613 -5.8174 37.4186 0.0000 -22.6892 0.0000
# 2 -5.8174 68.7392 0.8686 0.0000 -4.2950 0.0000
# 3 37.4186 0.8686 122.6770 0.0000 -38.6553 0.0000
# 4 0.0000 0.0000 0.0000 -2.6455 0.0000 12.9125
# 5 -22.6892 -4.2950 -38.6553 0.0000 42.0067 0.0000
# 6 0.0000 0.0000 0.0000 12.9125 0.0000 7.5310
#
#
#
# Elastic Compliance Matrix: (Units=1/GPa)
#
#
# Indices 1 2 3 4 5 6 
#
# 1 0.025820 0.002859 -0.004802 0.000000 0.009820 0.000000
# 2 0.002859 0.014981 -0.000013 0.000000 0.003065 0.000000
# 3 -0.004802 -0.000013 0.012392 0.000000 0.008808 0.000000
# 4 0.000000 0.000000 0.000000 -0.040347 0.000000 0.069178
# 5 0.009820 0.003065 0.008808 0.000000 0.037529 0.000000
# 6 0.000000 0.000000 0.000000 0.069178 0.000000 0.014173
#
#
# Mechanical properties :
#
#
# Convention : Reuss Voigt Hill
#
# Bulk Modulus (GPa) = 20.29060 34.59080 27.44070
# Shear Modulus (GPa) = 58.90270 23.63894 41.27082
#
# Velocity S-wave (km/s) = 5.07026 3.21201 4.24409
# Velocity P-wave (km/s) = 6.56753 5.37149 5.99939
#
# Compressibility (1/GPa) = 0.04928389
#
# Stress axis : x y z
#
# Youngs Moduli (GPa) = 38.72927 66.74953 80.70007
#
# Poissons Ratio (x) = -0.19087 0.38748
# Poissons Ratio (y) = -0.11074 0.00101
# Poissons Ratio (z) = 0.18596 0.00084
#
# Static dielectric constant tensor:
#      x y z
#    x 1.853920 0.000000 -0.022630 
#    y 0.000000 1.848440 0.000000 
#    z -0.022630 0.000000 1.914680 
# 
# From -- ./inp_files/58210.got.cif
#   From: 2010.05.17/outbox.cif.g08.bks.cpg/sg10_30_cif.got.tgz:58210.got - 2010.06.03 11:33:40.
