data_PCOD9149171
_publ_section_title
;
Structure prediction by ZEFSAII (Michael W. Deem and Ramdas Pophale) SiO2 
 PCOD9149171
Probable space group: P 2/M
;
_chemical_formula_sum "Si O2"
_cell_formula_units_Z 28
_cell_length_a 21.077601
_cell_length_b 7.517318
_cell_length_c 15.181793
_cell_angle_alpha 90.000000
_cell_angle_beta 32.762746
_cell_angle_gamma 90.000000
_cell_volume 1301.769534
_symmetry_space_group_name_H-M "P 2/M"
_symmetry_group_IT_number 10
_symmetry_cell_setting 'monoclinic'
loop_
_space_group_symop_operation_xyz
x,y,z
-x,y,-z
-x,-y,-z
x,-y,z
loop_
_atom_site_type_symbol
_atom_site_label
_atom_site_fract_x
_atom_site_fract_y
_atom_site_fract_z
Si Si1 0.233334 0.288639 0.423562
Si Si2 0.725540 0.217964 0.346669
Si Si3 0.795464 0.782530 0.078142
Si Si4 0.938484 0.787478 0.216405
Si Si5 0.869843 0.709346 0.637003
Si Si6 0.557156 0.792162 0.695698
Si Si7 0.704850 0.784344 0.993102
O O1 0.248908 0.500000 0.400684
O O2 0.128128 0.248768 0.614341
O O3 0.197871 0.216986 0.369311
O O4 0.352095 0.219181 0.329586
O O5 0.720591 0.271166 0.250919
O O6 0.850020 0.275557 0.243602
O O7 0.624594 0.281682 0.531019
O O8 0.724556 0.000000 0.350548
O O9 0.796347 0.000000 0.075960
O O10 0.747325 0.725762 0.040035
O O11 0.929236 0.720714 0.935961
O O12 0.946540 0.000000 0.195663
O O13 0.886065 0.500000 0.598405
O O14 0.792134 0.725704 0.814653
O O15 0.000000 0.785232 0.500000
O O16 0.539072 0.000000 0.697237
O O17 0.428425 0.720016 0.865330
O O18 0.707381 0.000000 0.988263
#
# Coordination Sequence:
#
# PCOD9149171 Si02
#       7
#     4   4   4   4   4   4   4
#     4  10  20  34  54  75  96 129 169 206 247 297
#     4   8  14  26  47  73 102 135 166 199 241 291
#     4   9  16  27  47  76 105 133 167 204 243 291
#     4   9  16  28  49  77 105 131 162 203 251 296
#     4  10  22  39  56  75 100 130 163 200 249 306
#     4   9  19  35  52  74 103 133 167 205 246 289
#     4  10  21  34  51  77 104 131 167 209 247 286
#
# _framework density 21.509183
#
# number of rings (size 3 to 8) (size 9 to 14) (size 15 to 20)
#    0.000    2.714    0.000    2.571    0.000    4.857 
#    0.000    5.714    0.000   10.286    0.000    5.000 
#    0.000    0.000    0.000    0.000    0.000    0.000 
#
# Total GULP energy -156298.234866 kJ/mol
# GULP energy per Si atom -5582.079817 kJ/mol
# Density = 2.146023 g / cm^3
# Si number density = 21.509183 Si / 1000 Ang^3
#
#
#
# Elastic Constant Matrix: (Units=GPa)
#
#
# Indices 1 2 3 4 5 6 
#
# 1 113.1245 -23.0904 90.0275 0.0000 31.6111 0.0000
# 2 -23.0904 43.9764 -15.7120 0.0000 -3.3237 0.0000
# 3 90.0275 -15.7120 145.8022 0.0000 -8.7287 0.0000
# 4 0.0000 0.0000 0.0000 21.2027 0.0000 18.1535
# 5 31.6111 -3.3237 -8.7287 0.0000 31.9331 0.0000
# 6 0.0000 0.0000 0.0000 18.1535 0.0000 16.7989
#
#
#
# Elastic Compliance Matrix: (Units=1/GPa)
#
#
# Indices 1 2 3 4 5 6 
#
# 1 0.081487 0.016346 -0.054167 0.000000 -0.093770 0.000000
# 2 0.016346 0.027257 -0.008087 0.000000 -0.015554 0.000000
# 3 -0.054167 -0.008087 0.043302 0.000000 0.064616 0.000000
# 4 0.000000 0.000000 0.000000 0.630703 0.000000 -0.681557
# 5 -0.093770 -0.015554 0.064616 0.000000 0.140183 0.000000
# 6 0.000000 0.000000 0.000000 -0.681557 0.000000 0.796040
#
#
# Mechanical properties :
#
#
# Convention : Reuss Voigt Hill
#
# Bulk Modulus (GPa) = 16.60336 45.03926 30.82131
# Shear Modulus (GPa) = 2.73095 30.76550 16.74822
#
# Velocity S-wave (km/s) = 1.12802 3.78609 2.79347
# Velocity P-wave (km/s) = 3.07124 6.33227 4.97645
#
# Compressibility (1/GPa) = 0.06022876
#
# Stress axis : x y z
#
# Youngs Moduli (GPa) = 12.27196 36.68766 23.09372
#
# Poissons Ratio (x) = -0.59968 1.25092
# Poissons Ratio (y) = -0.20059 0.18675
# Poissons Ratio (z) = 0.66474 0.29668
#
# Static dielectric constant tensor:
#      x y z
#    x 1.765040 0.000000 -0.004260 
#    y 0.000000 1.833770 0.000000 
#    z -0.004260 0.000000 1.735430 
# 
# From -- ./inp_files/49063.got.cif
#   From: 2010.05.17/outbox.cif.g08.bks.cpg/sg10_25_cif.got.tgz:49063.got - 2010.06.03 11:33:40.
