data_PCOD9149700
_publ_section_title
;
Structure prediction by ZEFSAII (Michael W. Deem and Ramdas Pophale) SiO2 
 PCOD9149700
Probable space group: P 2/M
;
_chemical_formula_sum "Si O2"
_cell_formula_units_Z 24
_cell_length_a 14.012162
_cell_length_b 14.761806
_cell_length_c 7.849367
_cell_angle_alpha 90.000000
_cell_angle_beta 134.129447
_cell_angle_gamma 90.000000
_cell_volume 1165.369635
_symmetry_space_group_name_H-M "P 2/M"
_symmetry_group_IT_number 10
_symmetry_cell_setting 'monoclinic'
loop_
_space_group_symop_operation_xyz
x,y,z
-x,y,-z
-x,-y,-z
x,-y,z
loop_
_atom_site_type_symbol
_atom_site_label
_atom_site_fract_x
_atom_site_fract_y
_atom_site_fract_z
Si Si1 0.399757 0.098260 0.535072
Si Si2 0.696015 0.603468 0.055250
Si Si3 0.940940 0.711137 0.236245
Si Si4 0.444244 0.705064 0.623434
Si Si5 0.187894 0.604814 0.415530
Si Si6 0.114490 0.900513 0.001280
O O1 0.500000 0.095359 0.500000
O O2 0.428670 0.191413 0.667717
O O3 0.409160 0.000000 0.635966
O O4 0.253877 0.107104 0.272621
O O5 0.680807 0.500000 0.980323
O O6 0.805613 0.654057 0.077621
O O7 0.752763 0.603653 0.317790
O O8 0.555037 0.652374 0.867768
O O9 0.908645 0.813174 0.142163
O O10 0.000000 0.711790 0.500000
O O11 0.051817 0.661992 0.257778
O O12 0.500000 0.707232 0.500000
O O13 0.302736 0.655005 0.453058
O O14 0.166485 0.500000 0.337999
O O15 0.112545 0.000000 0.912000
O O16 0.000000 0.900148 0.000000
#
# Coordination Sequence:
#
# PCOD9149700 Si02
#       6
#     4   4   4   4   4   4
#     4   9  18  33  53  75 101 135 171 207 254 311
#     4  10  21  37  55  76 105 142 179 214 260 316
#     4  10  20  35  56  80 105 136 178 223 260 302
#     4  11  21  34  55  81 107 134 175 223 261 305
#     4  10  21  37  55  75 105 144 178 211 260 318
#     4  10  20  35  55  78 106 140 174 210 260 319
#
# _framework density 20.594322999999999
#
# number of rings (size 3 to 8) (size 9 to 14) (size 15 to 20)
#    0.000    2.000    0.000    4.500    0.000    5.000 
#    0.000    0.000    0.000    8.000    0.000    0.000 
#    0.000    0.000    0.000    0.000    0.000    0.000 
#
# Total GULP energy -134075.911704 kJ/mol
# GULP energy per Si atom -5586.496321 kJ/mol
# Density = 2.054745 g / cm^3
# Si number density = 20.594323 Si / 1000 Ang^3
#
#
#
# Elastic Constant Matrix: (Units=GPa)
#
#
# Indices 1 2 3 4 5 6 
#
# 1 98.5285 53.5751 29.2952 0.0000 37.2547 0.0000
# 2 53.5751 234.8805 45.6138 0.0000 15.8123 0.0000
# 3 29.2952 45.6138 48.8882 0.0000 13.5850 0.0000
# 4 0.0000 0.0000 0.0000 39.6578 0.0000 11.6771
# 5 37.2547 15.8123 13.5850 0.0000 30.1705 0.0000
# 6 0.0000 0.0000 0.0000 11.6771 0.0000 32.2889
#
#
#
# Elastic Compliance Matrix: (Units=1/GPa)
#
#
# Indices 1 2 3 4 5 6 
#
# 1 0.021665 -0.002571 -0.004028 0.000000 -0.023591 0.000000
# 2 -0.002571 0.005515 -0.004211 0.000000 0.002181 0.000000
# 3 -0.004028 -0.004211 0.028349 0.000000 -0.005584 0.000000
# 4 0.000000 0.000000 0.000000 0.028221 0.000000 -0.010206
# 5 -0.023591 0.002181 -0.005584 0.000000 0.063647 0.000000
# 6 0.000000 0.000000 0.000000 -0.010206 0.000000 0.034661
#
#
# Mechanical properties :
#
#
# Convention : Reuss Voigt Hill
#
# Bulk Modulus (GPa) = 29.49054 71.02950 50.26002
# Shear Modulus (GPa) = 23.25793 37.34429 30.30111
#
# Velocity S-wave (km/s) = 3.36421 4.26294 3.83996
# Velocity P-wave (km/s) = 5.42599 7.66779 6.64215
#
# Compressibility (1/GPa) = 0.03390917
#
# Stress axis : x y z
#
# Youngs Moduli (GPa) = 46.15730 181.32686 35.27476
#
# Poissons Ratio (x) = 0.46625 0.14208
# Poissons Ratio (y) = 0.11869 0.14853
# Poissons Ratio (z) = 0.18591 0.76351
#
# Static dielectric constant tensor:
#      x y z
#    x 1.728760 0.000000 -0.022690 
#    y 0.000000 1.759450 0.000000 
#    z -0.022690 0.000000 1.720210 
# 
# From -- ./inp_files/29287.got.cif
#   From: 2010.05.17/outbox.cif.g08.bks.cpg/sg10_15_cif.got.tgz:29287.got - 2010.06.03 11:33:40.
