data_PCOD9149504
_publ_section_title
;
Structure prediction by ZEFSAII (Michael W. Deem and Ramdas Pophale) SiO2 
 PCOD9149504
Probable space group: P 2/M
;
_chemical_formula_sum "Si O2"
_cell_formula_units_Z 30
_cell_length_a 7.760162
_cell_length_b 26.398661
_cell_length_c 11.347613
_cell_angle_alpha 90.000000
_cell_angle_beta 140.689706
_cell_angle_gamma 90.000000
_cell_volume 1472.710760
_symmetry_space_group_name_H-M "P 2/M"
_symmetry_group_IT_number 10
_symmetry_cell_setting 'monoclinic'
loop_
_space_group_symop_operation_xyz
x,y,z
-x,y,-z
-x,-y,-z
x,-y,z
loop_
_atom_site_type_symbol
_atom_site_label
_atom_site_fract_x
_atom_site_fract_y
_atom_site_fract_z
Si Si1 0.964799 0.864017 0.276069
Si Si2 0.143625 0.607769 0.741578
Si Si3 0.255531 0.057732 0.274343
Si Si4 0.806872 0.778789 0.005226
Si Si5 0.567128 0.867219 0.279437
Si Si6 0.402921 0.441463 0.581211
Si Si7 0.500000 0.697934 0.000000
Si Si8 0.691852 0.442145 0.952904
O O1 0.716999 0.876288 0.233816
O O2 0.026290 0.909386 0.218194
O O3 0.215593 0.859006 0.500392
O O4 0.930388 0.814297 0.175947
O O5 0.288744 0.662074 0.816412
O O6 0.372904 0.567929 0.818802
O O7 0.849205 0.596616 0.533459
O O8 0.133764 0.594605 0.875324
O O9 0.500000 0.056207 0.500000
O O10 0.371441 0.088269 0.223376
O O11 0.180059 0.000000 0.208744
O O12 0.597664 0.816270 0.829681
O O13 0.661024 0.732862 0.993776
O O14 0.000000 0.762174 0.000000
O O15 0.500000 0.437949 0.500000
O O16 0.313512 0.500000 0.555607
O O17 0.664699 0.432306 0.801144
O O18 0.769593 0.500000 0.016340
#
# Coordination Sequence:
#
# PCOD9149504 Si02
#       8
#     4   4   4   4   4   4   2   4
#     4  10  20  36  61  87 116 153 197 240 288 348
#     4  10  20  38  57  80 117 148 188 241 290 339
#     4   9  18  33  55  89 126 154 189 235 292 355
#     4  12  22  40  66  84 111 149 198 255 296 341
#     4  10  20  36  61  87 115 155 195 241 289 347
#     4  10  20  34  57  89 122 156 191 228 276 343
#     4  10  24  44  59  88 113 150 200 246 308 346
#     4   9  17  32  58  84 108 151 195 225 271 340
#
# _framework density 20.370598000000001
#
# number of rings (size 3 to 8) (size 9 to 14) (size 15 to 20)
#    0.000    2.133    2.667    2.000    0.000    2.133 
#    4.800   11.333    0.000    1.600    0.000    0.000 
#    0.000    0.000    0.000    0.000    0.000    0.000 
#
# Total GULP energy -167362.558014 kJ/mol
# GULP energy per Si atom -5578.751934 kJ/mol
# Density = 2.032423 g / cm^3
# Si number density = 20.370598 Si / 1000 Ang^3
#
#
#
# Elastic Constant Matrix: (Units=GPa)
#
#
# Indices 1 2 3 4 5 6 
#
# 1 141.5330 60.1051 21.4179 0.0000 -17.5113 0.0000
# 2 60.1051 109.1351 22.6131 0.0000 -0.8127 0.0000
# 3 21.4179 22.6131 66.8495 0.0000 -15.3415 0.0000
# 4 0.0000 0.0000 0.0000 24.8242 0.0000 2.6356
# 5 -17.5113 -0.8127 -15.3415 0.0000 28.9034 0.0000
# 6 0.0000 0.0000 0.0000 2.6356 0.0000 5.7977
#
#
#
# Elastic Compliance Matrix: (Units=1/GPa)
#
#
# Indices 1 2 3 4 5 6 
#
# 1 0.010167 -0.005555 -0.000001 0.000000 0.006003 0.000000
# 2 -0.005555 0.012962 -0.003751 0.000000 -0.004992 0.000000
# 3 -0.000001 -0.003751 0.018451 0.000000 0.009688 0.000000
# 4 0.000000 0.000000 0.000000 0.042326 0.000000 -0.019241
# 5 0.006003 -0.004992 0.009688 0.000000 0.043237 0.000000
# 6 0.000000 0.000000 0.000000 -0.019241 0.000000 0.181227
#
#
# Mechanical properties :
#
#
# Convention : Reuss Voigt Hill
#
# Bulk Modulus (GPa) = 43.53784 58.42109 50.97947
# Shear Modulus (GPa) = 14.94148 26.13050 20.53599
#
# Velocity S-wave (km/s) = 2.71123 3.58544 3.17853
# Velocity P-wave (km/s) = 5.58751 6.77362 6.20895
#
# Compressibility (1/GPa) = 0.02296852
#
# Stress axis : x y z
#
# Youngs Moduli (GPa) = 98.35477 77.14819 54.19707
#
# Poissons Ratio (x) = 0.42853 0.00004
# Poissons Ratio (y) = 0.54633 0.20327
# Poissons Ratio (z) = 0.00008 0.28935
#
# Static dielectric constant tensor:
#      x y z
#    x 1.829390 0.000000 -0.028870 
#    y 0.000000 1.676160 0.000000 
#    z -0.028870 0.000000 1.805290 
# 
# From -- ./inp_files/43716.got.cif
#   From: 2010.05.17/outbox.cif.g08.bks.cpg/sg10_22_cif.got.tgz:43716.got - 2010.06.03 11:33:40.
