data_PCOD9149220
_publ_section_title
;
Structure prediction by ZEFSAII (Michael W. Deem and Ramdas Pophale) SiO2 
 PCOD9149220
Probable space group: P 2/M
;
_chemical_formula_sum "Si O2"
_cell_formula_units_Z 32
_cell_length_a 22.063292
_cell_length_b 7.599478
_cell_length_c 23.641165
_cell_angle_alpha 90.000000
_cell_angle_beta 158.948871
_cell_angle_gamma 90.000000
_cell_volume 1423.837319
_symmetry_space_group_name_H-M "P 2/M"
_symmetry_group_IT_number 10
_symmetry_cell_setting 'monoclinic'
loop_
_space_group_symop_operation_xyz
x,y,z
-x,y,-z
-x,-y,-z
x,-y,z
loop_
_atom_site_type_symbol
_atom_site_label
_atom_site_fract_x
_atom_site_fract_y
_atom_site_fract_z
Si Si1 0.420923 0.707488 0.675363
Si Si2 0.545706 0.203983 0.172772
Si Si3 0.071249 0.786667 0.499994
Si Si4 0.070183 0.292512 0.324626
Si Si5 0.050207 0.212586 0.177902
Si Si6 0.694398 0.212586 0.822091
Si Si7 0.318227 0.785010 0.318228
Si Si8 0.200182 0.203982 0.827243
O O1 0.409718 0.500000 0.676090
O O2 0.498615 0.790087 0.799232
O O3 0.233033 0.778108 0.499995
O O4 0.532155 0.734623 0.716578
O O5 0.735518 0.280171 0.334998
O O6 0.560286 0.000000 0.167822
O O7 0.387520 0.280935 0.000009
O O8 0.000000 0.751434 0.500000
O O9 0.934457 0.719829 0.334982
O O10 0.080301 0.000000 0.499992
O O11 0.057523 0.500000 0.323898
O O12 0.098981 0.265377 0.283408
O O13 0.900140 0.209910 0.200761
O O14 0.175579 0.274197 0.237794
O O15 0.051906 0.000000 0.177805
O O16 0.861814 0.273575 0.999996
O O17 0.699996 0.274195 0.762208
O O18 0.696292 0.000000 0.822188
O O19 0.500000 0.733588 0.500000
O O20 0.311744 0.000000 0.311746
O O21 0.224664 0.000000 0.832195
#
# Coordination Sequence:
#
# PCOD9149220 Si02
#       8
#     4   4   4   4   4   4   4   4
#     4  11  23  37  54  78 109 146 187 231 279 328
#     4  10  20  35  58  86 114 148 188 227 273 329
#     4   9  18  34  57  87 121 150 179 224 275 321
#     4  11  23  37  54  78 109 146 187 231 279 328
#     4  10  20  34  54  80 108 139 178 225 277 333
#     4  10  20  34  54  80 108 139 178 225 277 333
#     4   9  17  31  52  77 104 137 176 220 272 329
#     4  10  20  35  58  86 114 148 188 227 273 329
#
# _framework density 22.474477
#
# number of rings (size 3 to 8) (size 9 to 14) (size 15 to 20)
#    0.000    2.000    1.250    2.625    0.000    8.500 
#    0.000    3.125    0.000    5.250    0.000    1.750 
#    0.000    0.000    0.000    0.000    0.000    0.000 
#
# Total GULP energy -178772.152824 kJ/mol
# GULP energy per Si atom -5586.629776 kJ/mol
# Density = 2.242332 g / cm^3
# Si number density = 22.474477 Si / 1000 Ang^3
#
#
#
# Elastic Constant Matrix: (Units=GPa)
#
#
# Indices 1 2 3 4 5 6 
#
# 1 100.4330 -2.9923 54.8608 0.0000 -1.5868 0.0000
# 2 -2.9923 54.1731 10.4443 0.0000 1.1215 0.0000
# 3 54.8608 10.4443 187.0827 0.0000 8.8078 0.0000
# 4 0.0000 0.0000 0.0000 -2.7038 0.0000 5.8079
# 5 -1.5868 1.1215 8.8078 0.0000 14.1904 0.0000
# 6 0.0000 0.0000 0.0000 5.8079 0.0000 -72.1943
#
#
#
# Elastic Compliance Matrix: (Units=1/GPa)
#
#
# Indices 1 2 3 4 5 6 
#
# 1 0.012130 0.001328 -0.003801 0.000000 0.003611 0.000000
# 2 0.001328 0.018816 -0.001418 0.000000 -0.000458 0.000000
# 3 -0.003801 -0.001418 0.006751 0.000000 -0.004503 0.000000
# 4 0.000000 0.000000 0.000000 -0.447111 0.000000 -0.035969
# 5 0.003611 -0.000458 -0.004503 0.000000 0.073705 0.000000
# 6 0.000000 0.000000 0.000000 -0.035969 0.000000 -0.016745
#
#
# Mechanical properties :
#
#
# Convention : Reuss Voigt Hill
#
# Bulk Modulus (GPa) = 33.42930 51.81270 42.62100
# Shear Modulus (GPa) = -14.93876 6.48353 -4.22761
#
# Velocity S-wave (km/s) = -2.58097 1.70033 -1.37301
# Velocity P-wave (km/s) = 2.45453 5.19219 4.06101
#
# Compressibility (1/GPa) = 0.02991388
#
# Stress axis : x y z
#
# Youngs Moduli (GPa) = 82.44135 53.14726 148.12449
#
# Poissons Ratio (x) = -0.07058 0.56304
# Poissons Ratio (y) = -0.10949 0.21009
# Poissons Ratio (z) = 0.31337 0.07538
#
# Static dielectric constant tensor:
#      x y z
#    x 1.794820 0.000000 0.003620 
#    y 0.000000 1.843750 0.000000 
#    z 0.003620 0.000000 1.838210 
# 
# From -- ./inp_files/90676.got.cif
#   From: 2010.05.17/outbox.cif.g08.bks.cpg/sg10_46_cif.got.tgz:90676.got - 2010.06.03 11:33:40.
