data_PCOD9149372
_publ_section_title
;
Structure prediction by ZEFSAII (Michael W. Deem and Ramdas Pophale) SiO2 
 PCOD9149372
Probable space group: P 2/M
;
_chemical_formula_sum "Si O2"
_cell_formula_units_Z 32
_cell_length_a 14.859673
_cell_length_b 7.555730
_cell_length_c 24.031284
_cell_angle_alpha 90.000000
_cell_angle_beta 148.384550
_cell_angle_gamma 90.000000
_cell_volume 1414.401033
_symmetry_space_group_name_H-M "P 2/M"
_symmetry_group_IT_number 10
_symmetry_cell_setting 'monoclinic'
loop_
_space_group_symop_operation_xyz
x,y,z
-x,y,-z
-x,-y,-z
x,-y,z
loop_
_atom_site_type_symbol
_atom_site_label
_atom_site_fract_x
_atom_site_fract_y
_atom_site_fract_z
Si Si1 0.432751 0.207951 0.256302
Si Si2 0.478899 0.714010 0.820729
Si Si3 0.007384 0.713122 0.822668
Si Si4 0.682374 0.788511 0.576124
Si Si5 0.939852 0.703800 0.909584
Si Si6 0.374027 0.716317 0.982958
Si Si7 0.094554 0.707856 0.603323
Si Si8 0.769289 0.214169 0.498947
O O1 0.428717 0.233617 0.187770
O O2 0.267007 0.293495 0.197358
O O3 0.616129 0.272860 0.376716
O O4 0.422233 0.000000 0.263343
O O5 0.481087 0.500000 0.823338
O O6 0.282678 0.780347 0.713791
O O7 0.559983 0.772292 0.921435
O O8 0.016818 0.500000 0.831283
O O9 0.833151 0.756724 0.699181
O O10 0.002988 0.780744 0.884140
O O11 0.175068 0.772419 0.876719
O O12 0.500000 0.716819 0.500000
O O13 0.728772 0.721889 0.539397
O O14 0.664199 0.000000 0.560701
O O15 0.002286 0.500000 0.943271
O O16 0.000000 0.785906 0.000000
O O17 0.377176 0.500000 0.982789
O O18 0.500000 0.776783 0.000000
O O19 0.122418 0.500000 0.606489
O O20 0.000000 0.788271 0.500000
O O21 0.956601 0.724462 0.579196
O O22 0.771703 0.000000 0.498708
#
# Coordination Sequence:
#
# PCOD9149372 Si02
#       8
#     4   4   4   4   4   4   4   4
#     4  11  22  36  57  85 113 147 188 233 282 340
#     4  10  20  36  58  83 116 153 189 234 289 341
#     4  10  21  37  60  89 116 146 192 242 284 332
#     4  10  22  41  61  81 114 158 195 231 286 349
#     4  10  21  38  60  85 114 148 185 230 286 341
#     4   9  19  36  59  85 114 152 193 232 282 344
#     4  10  20  34  55  86 115 145 188 239 289 338
#     4  10  22  37  55  80 112 152 191 229 284 346
#
# _framework density 22.624417000000001
#
# number of rings (size 3 to 8) (size 9 to 14) (size 15 to 20)
#    0.000    2.000    1.250    1.875    1.750    5.750 
#    0.000    1.875    0.000    0.750    0.000    0.000 
#    0.000    0.000    0.000    0.000    0.000    0.000 
#
# Total GULP energy -178850.615309 kJ/mol
# GULP energy per Si atom -5589.081728 kJ/mol
# Density = 2.257292 g / cm^3
# Si number density = 22.624417 Si / 1000 Ang^3
#
#
#
# Elastic Constant Matrix: (Units=GPa)
#
#
# Indices 1 2 3 4 5 6 
#
# 1 162.0555 -12.4354 42.4757 0.0000 4.6149 0.0000
# 2 -12.4354 52.2425 -6.9191 0.0000 -2.4847 0.0000
# 3 42.4757 -6.9191 96.1485 0.0000 6.2482 0.0000
# 4 0.0000 0.0000 0.0000 6.7629 0.0000 9.5718
# 5 4.6149 -2.4847 6.2482 0.0000 42.8256 0.0000
# 6 0.0000 0.0000 0.0000 9.5718 0.0000 14.1461
#
#
#
# Elastic Compliance Matrix: (Units=1/GPa)
#
#
# Indices 1 2 3 4 5 6 
#
# 1 0.007065 0.001271 -0.003014 0.000000 -0.000248 0.000000
# 2 0.001271 0.019591 0.000791 0.000000 0.000884 0.000000
# 3 -0.003014 0.000791 0.011877 0.000000 -0.001362 0.000000
# 4 0.000000 0.000000 0.000000 3.493199 0.000000 -2.363639
# 5 -0.000248 0.000884 -0.001362 0.000000 0.023627 0.000000
# 6 0.000000 0.000000 0.000000 -2.363639 0.000000 1.670024
#
#
# Mechanical properties :
#
#
# Convention : Reuss Voigt Hill
#
# Bulk Modulus (GPa) = 27.30031 39.63209 33.46620
# Shear Modulus (GPa) = 0.95429 31.90195 16.42812
#
# Velocity S-wave (km/s) = 0.65016 3.75916 2.69759
# Velocity P-wave (km/s) = 3.55761 6.03300 4.95246
#
# Compressibility (1/GPa) = 0.03662962
#
# Stress axis : x y z
#
# Youngs Moduli (GPa) = 141.53883 51.04430 84.19376
#
# Poissons Ratio (x) = -0.06487 0.25373
# Poissons Ratio (y) = -0.17987 -0.06659
# Poissons Ratio (z) = 0.42655 -0.04037
#
# Static dielectric constant tensor:
#      x y z
#    x 1.834250 0.000000 0.005430 
#    y 0.000000 1.862360 0.000000 
#    z 0.005430 0.000000 1.823630 
# 
# From -- ./inp_files/71426.got.cif
#   From: 2010.05.17/outbox.cif.g08.bks.cpg/sg10_36_cif.got.tgz:71426.got - 2010.06.03 11:33:40.
