data_PCOD9149441
_publ_section_title
;
Structure prediction by ZEFSAII (Michael W. Deem and Ramdas Pophale) SiO2 
 PCOD9149441
Probable space group: P 2/M
;
_chemical_formula_sum "Si O2"
_cell_formula_units_Z 24
_cell_length_a 10.809259
_cell_length_b 9.233354
_cell_length_c 21.357569
_cell_angle_alpha 90.000000
_cell_angle_beta 147.219880
_cell_angle_gamma 90.000000
_cell_volume 1154.087493
_symmetry_space_group_name_H-M "P 2/M"
_symmetry_group_IT_number 10
_symmetry_cell_setting 'monoclinic'
loop_
_space_group_symop_operation_xyz
x,y,z
-x,y,-z
-x,-y,-z
x,-y,z
loop_
_atom_site_type_symbol
_atom_site_label
_atom_site_fract_x
_atom_site_fract_y
_atom_site_fract_z
Si Si1 0.969991 0.838066 0.562681
Si Si2 0.283190 0.832737 0.362352
Si Si3 0.855123 0.668533 0.185312
Si Si4 0.489559 0.827787 0.783171
Si Si5 0.517786 0.672041 0.353118
Si Si6 0.356073 0.331224 0.035631
O O1 0.225728 0.800551 0.692416
O O2 0.000000 0.848242 0.500000
O O3 0.766232 0.725342 0.483884
O O4 0.903283 0.000000 0.556919
O O5 0.500000 0.821279 0.500000
O O6 0.337990 0.734560 0.325768
O O7 0.052225 0.771722 0.294519
O O8 0.255665 0.000000 0.332901
O O9 0.924931 0.500000 0.219230
O O10 0.611545 0.680703 0.115529
O O11 0.807783 0.705393 0.092115
O O12 0.519824 0.744779 0.730654
O O13 0.651701 0.767626 0.906575
O O14 0.512060 0.000000 0.783587
O O15 0.509857 0.500000 0.345176
O O16 0.319806 0.500000 0.036756
#
# Coordination Sequence:
#
# PCOD9149441 Si02
#       6
#     4   4   4   4   4   4
#     4   8  16  31  49  74 112 150 183 228 281 332
#     4  11  25  42  60  83 117 157 195 237 289 347
#     4   9  20  40  62  87 119 153 193 241 288 339
#     4  10  20  34  56  85 118 153 191 237 289 344
#     4  11  22  36  56  82 114 152 195 241 289 344
#     4   9  19  37  62  90 120 151 189 241 292 339
#
# _framework density 20.795649000000001
#
# number of rings (size 3 to 8) (size 9 to 14) (size 15 to 20)
#    0.000    2.333    0.000    4.500    2.333    6.333 
#    0.000    2.500    0.000    5.000    0.000    0.000 
#    0.000    0.000    0.000    0.000    0.000    0.000 
#
# Total GULP energy -134067.552273 kJ/mol
# GULP energy per Si atom -5586.148011 kJ/mol
# Density = 2.074832 g / cm^3
# Si number density = 20.795649 Si / 1000 Ang^3
#
#
#
# Elastic Constant Matrix: (Units=GPa)
#
#
# Indices 1 2 3 4 5 6 
#
# 1 53.4904 39.9971 -1.8189 0.0000 -7.3628 0.0000
# 2 39.9971 104.0210 40.3854 0.0000 -9.2488 0.0000
# 3 -1.8189 40.3854 54.9086 0.0000 -6.9426 0.0000
# 4 0.0000 0.0000 0.0000 10.6169 0.0000 0.7024
# 5 -7.3628 -9.2488 -6.9426 0.0000 32.6468 0.0000
# 6 0.0000 0.0000 0.0000 0.7024 0.0000 2.5986
#
#
#
# Elastic Compliance Matrix: (Units=1/GPa)
#
#
# Indices 1 2 3 4 5 6 
#
# 1 0.033838 -0.018504 0.015448 0.000000 0.005674 0.000000
# 2 -0.018504 0.023673 -0.018193 0.000000 -0.001336 0.000000
# 3 0.015448 -0.018193 0.032775 0.000000 0.005300 0.000000
# 4 0.000000 0.000000 0.000000 0.095904 0.000000 -0.025922
# 5 0.005674 -0.001336 0.005300 0.000000 0.032659 0.000000
# 6 0.000000 0.000000 0.000000 -0.025922 0.000000 0.391826
#
#
# Mechanical properties :
#
#
# Convention : Reuss Voigt Hill
#
# Bulk Modulus (GPa) = 20.92611 41.06081 30.99346
# Shear Modulus (GPa) = 7.47269 18.09622 12.78445
#
# Velocity S-wave (km/s) = 1.89768 2.95310 2.48214
# Velocity P-wave (km/s) = 3.85826 5.60496 4.81153
#
# Compressibility (1/GPa) = 0.04778719
#
# Stress axis : x y z
#
# Youngs Moduli (GPa) = 29.55298 42.24200 30.51082
#
# Poissons Ratio (x) = 0.78164 -0.47133
# Poissons Ratio (y) = 0.54685 0.55510
# Poissons Ratio (z) = -0.45654 0.76853
#
# Static dielectric constant tensor:
#      x y z
#    x 1.781290 0.000000 -0.001230 
#    y 0.000000 1.697230 0.000000 
#    z -0.001230 0.000000 1.761440 
# 
# From -- ./inp_files/56684.got.cif
#   From: 2010.05.17/outbox.cif.g08.bks.cpg/sg10_29_cif.got.tgz:56684.got - 2010.06.03 11:33:40.
