data_PCOD9149682
_publ_section_title
;
Structure prediction by ZEFSAII (Michael W. Deem and Ramdas Pophale) SiO2 
 PCOD9149682
Probable space group: P 2/M
;
_chemical_formula_sum "Si O2"
_cell_formula_units_Z 32
_cell_length_a 14.894627
_cell_length_b 14.580884
_cell_length_c 13.077728
_cell_angle_alpha 90.000000
_cell_angle_beta 39.830027
_cell_angle_gamma 90.000000
_cell_volume 1819.169745
_symmetry_space_group_name_H-M "P 2/M"
_symmetry_group_IT_number 10
_symmetry_cell_setting 'monoclinic'
loop_
_space_group_symop_operation_xyz
x,y,z
-x,y,-z
-x,-y,-z
x,-y,z
loop_
_atom_site_type_symbol
_atom_site_label
_atom_site_fract_x
_atom_site_fract_y
_atom_site_fract_z
Si Si1 0.918469 0.794644 0.328806
Si Si2 0.814808 0.106473 0.847918
Si Si3 0.847690 0.890356 0.182794
Si Si4 0.930959 0.395559 0.224100
Si Si5 0.507325 0.895299 0.209759
Si Si6 0.591293 0.221857 0.318175
Si Si7 0.214965 0.893791 0.365024
Si Si8 0.227689 0.395524 0.851752
O O1 0.846558 0.847054 0.296852
O O2 0.902783 0.686666 0.325771
O O3 0.859510 0.830193 0.487493
O O4 0.080246 0.826546 0.186123
O O5 0.820167 0.124012 0.721877
O O6 0.856836 0.000000 0.829926
O O7 0.656521 0.116194 0.024661
O O8 0.723124 0.844779 0.227234
O O9 0.831697 0.000000 0.200442
O O10 0.000000 0.869319 0.000000
O O11 0.914102 0.500000 0.276487
O O12 0.830709 0.383890 0.212908
O O13 0.089693 0.385495 0.042805
O O14 0.501161 0.824369 0.307724
O O15 0.380639 0.885009 0.241338
O O16 0.499663 0.000000 0.256697
O O17 0.500000 0.231684 0.500000
O O18 0.657188 0.318982 0.228938
O O19 0.175695 0.000000 0.420619
O O20 0.278965 0.500000 0.817633
#
# Coordination Sequence:
#
# PCOD9149682 Si02
#       8
#     4   4   4   4   4   4   4   4
#     4  12  20  31  54  80 106 129 166 218 269 309
#     4  10  20  35  55  77 100 134 181 223 255 298
#     4  11  22  34  49  73 108 147 179 205 245 311
#     4   9  18  33  56  78 100 135 176 214 255 310
#     4  10  21  36  52  71 103 147 184 208 244 305
#     4  12  23  33  50  79 113 143 170 211 260 317
#     4  10  21  36  53  75 104 137 175 221 265 299
#     4   9  18  35  54  74 102 138 178 216 252 299
#
# _framework density 17.590440999999998
#
# number of rings (size 3 to 8) (size 9 to 14) (size 15 to 20)
#    0.000    1.625    1.250    6.000    0.000    6.750 
#    0.000    0.000    0.000    1.500    0.000    0.000 
#    0.000    5.000    0.000    0.000    0.000    0.000 
#
# Total GULP energy -178828.151536 kJ/mol
# GULP energy per Si atom -5588.379736 kJ/mol
# Density = 1.755040 g / cm^3
# Si number density = 17.590441 Si / 1000 Ang^3
#
#
#
# Elastic Constant Matrix: (Units=GPa)
#
#
# Indices 1 2 3 4 5 6 
#
# 1 46.0302 22.7959 -8.0375 0.0000 0.3055 0.0000
# 2 22.7959 86.6739 14.3196 0.0000 9.1894 0.0000
# 3 -8.0375 14.3196 31.0224 0.0000 4.1768 0.0000
# 4 0.0000 0.0000 0.0000 14.0632 0.0000 1.9672
# 5 0.3055 9.1894 4.1768 0.0000 28.5521 0.0000
# 6 0.0000 0.0000 0.0000 1.9672 0.0000 0.8028
#
#
#
# Elastic Compliance Matrix: (Units=1/GPa)
#
#
# Indices 1 2 3 4 5 6 
#
# 1 0.028462 -0.009518 0.011625 0.000000 0.001058 0.000000
# 2 -0.009518 0.015974 -0.009345 0.000000 -0.003672 0.000000
# 3 0.011625 -0.009345 0.039959 0.000000 -0.002962 0.000000
# 4 0.000000 0.000000 0.000000 0.108194 0.000000 -0.265116
# 5 0.001058 -0.003672 -0.002962 0.000000 0.036628 0.000000
# 6 0.000000 0.000000 0.000000 -0.265116 0.000000 1.895226
#
#
# Mechanical properties :
#
#
# Convention : Reuss Voigt Hill
#
# Bulk Modulus (GPa) = 14.30250 24.65362 19.47806
# Shear Modulus (GPa) = 2.31243 17.66020 9.98632
#
# Velocity S-wave (km/s) = 1.14780 3.17198 2.38526
# Velocity P-wave (km/s) = 3.14723 5.24033 4.32239
#
# Compressibility (1/GPa) = 0.06991785
#
# Stress axis : x y z
#
# Youngs Moduli (GPa) = 35.13509 62.60099 25.02561
#
# Poissons Ratio (x) = 0.59586 -0.29092
# Poissons Ratio (y) = 0.33443 0.23387
# Poissons Ratio (z) = -0.40845 0.58502
#
# Static dielectric constant tensor:
#      x y z
#    x 1.585760 0.000000 -0.019600 
#    y 0.000000 1.587400 0.000000 
#    z -0.019600 0.000000 1.615740 
# 
# From -- ./inp_files/29494.got.cif
#   From: 2010.05.17/outbox.cif.g08.bks.cpg/sg10_15_cif.got.tgz:29494.got - 2010.06.03 11:33:40.
