data_PCOD9149455
_publ_section_title
;
Structure prediction by ZEFSAII (Michael W. Deem and Ramdas Pophale) SiO2 
 PCOD9149455
Probable space group: P 2/M
;
_chemical_formula_sum "Si O2"
_cell_formula_units_Z 30
_cell_length_a 9.576978
_cell_length_b 18.849684
_cell_length_c 9.895374
_cell_angle_alpha 90.000000
_cell_angle_beta 112.439158
_cell_angle_gamma 90.000000
_cell_volume 1651.090432
_symmetry_space_group_name_H-M "P 2/M"
_symmetry_group_IT_number 10
_symmetry_cell_setting 'monoclinic'
loop_
_space_group_symop_operation_xyz
x,y,z
-x,y,-z
-x,-y,-z
x,-y,z
loop_
_atom_site_type_symbol
_atom_site_label
_atom_site_fract_x
_atom_site_fract_y
_atom_site_fract_z
Si Si1 0.859593 0.857956 0.038761
Si Si2 0.430823 0.695006 0.824575
Si Si3 0.470392 0.151972 0.150858
Si Si4 0.565791 0.416818 0.672711
Si Si5 0.774008 0.918730 0.301399
Si Si6 0.086928 0.719413 0.774291
Si Si7 0.000000 0.188558 0.500000
Si Si8 0.927499 0.419714 0.823506
O O1 0.831187 0.899121 0.169988
O O2 0.885522 0.775506 0.093300
O O3 0.704590 0.865078 0.897966
O O4 0.000000 0.881432 0.000000
O O5 0.493092 0.768864 0.786747
O O6 0.481744 0.630941 0.750608
O O7 0.251895 0.703671 0.774473
O O8 0.500000 0.685874 0.000000
O O9 0.595502 0.096908 0.245898
O O10 0.500000 0.155862 0.000000
O O11 0.500000 0.399749 0.500000
O O12 0.536317 0.500000 0.686044
O O13 0.746950 0.406921 0.753519
O O14 0.858552 0.863345 0.428284
O O15 0.808286 0.000000 0.343301
O O16 0.991706 0.762222 0.628032
O O17 0.008434 0.645874 0.781338
O O18 0.952476 0.500000 0.776847
O O19 0.000000 0.420060 0.000000
#
# Coordination Sequence:
#
# PCOD9149455 Si02
#       8
#     4   4   4   4   4   4   2   4
#     4  10  20  34  56  87 118 143 183 241 297 352
#     4  11  19  36  61  85 112 150 201 251 287 351
#     4   9  17  34  53  84 110 141 188 236 285 344
#     4  10  24  41  56  82 122 159 196 248 311 364
#     4  10  20  37  59  80 113 153 187 235 291 352
#     4  11  21  34  58  83 116 150 195 248 292 338
#     4  10  21  36  53  86 112 144 200 238 283 350
#     4  10  22  39  58  86 120 159 201 243 304 363
#
# _framework density 18.169810999999999
#
# number of rings (size 3 to 8) (size 9 to 14) (size 15 to 20)
#    0.000    1.867    5.333    1.400    3.733    3.467 
#    0.000    0.333    0.000    0.000    0.000    4.667 
#    0.000    0.000    0.000    0.000    0.000    0.000 
#
# Total GULP energy -167300.373976 kJ/mol
# GULP energy per Si atom -5576.679133 kJ/mol
# Density = 1.812846 g / cm^3
# Si number density = 18.169811 Si / 1000 Ang^3
#
#
#
# Elastic Constant Matrix: (Units=GPa)
#
#
# Indices 1 2 3 4 5 6 
#
# 1 94.5468 34.5346 42.9790 0.0000 20.3188 0.0000
# 2 34.5346 106.1755 46.2613 0.0000 1.1661 0.0000
# 3 42.9790 46.2613 81.4917 0.0000 21.1879 0.0000
# 4 0.0000 0.0000 0.0000 1.7459 0.0000 0.8611
# 5 20.3188 1.1661 21.1879 0.0000 16.1375 0.0000
# 6 0.0000 0.0000 0.0000 0.8611 0.0000 17.0739
#
#
#
# Elastic Compliance Matrix: (Units=1/GPa)
#
#
# Indices 1 2 3 4 5 6 
#
# 1 0.017095 -0.004840 -0.001159 0.000000 -0.019653 0.000000
# 2 -0.004840 0.015902 -0.011783 0.000000 0.020415 0.000000
# 3 -0.001159 -0.011783 0.028803 0.000000 -0.035507 0.000000
# 4 0.000000 0.000000 0.000000 0.587391 0.000000 -0.029623
# 5 -0.019653 0.020415 -0.035507 0.000000 0.131856 0.000000
# 6 0.000000 0.000000 0.000000 -0.029623 0.000000 0.060063
#
#
# Mechanical properties :
#
#
# Convention : Reuss Voigt Hill
#
# Bulk Modulus (GPa) = 38.11303 58.86265 48.48784
# Shear Modulus (GPa) = 5.64705 17.55406 11.60056
#
# Velocity S-wave (km/s) = 1.76484 3.11161 2.52950
# Velocity P-wave (km/s) = 5.01742 6.73614 5.93928
#
# Compressibility (1/GPa) = 0.02623775
#
# Stress axis : x y z
#
# Youngs Moduli (GPa) = 58.49719 62.88495 34.71883
#
# Poissons Ratio (x) = 0.30433 0.04023
# Poissons Ratio (y) = 0.28310 0.40908
# Poissons Ratio (z) = 0.06778 0.74095
#
# Static dielectric constant tensor:
#      x y z
#    x 1.608010 0.000000 0.019700 
#    y 0.000000 1.621560 0.000000 
#    z 0.019700 0.000000 1.650600 
# 
# From -- ./inp_files/43425.got.cif
#   From: 2010.05.17/outbox.cif.g08.bks.cpg/sg10_22_cif.got.tgz:43425.got - 2010.06.03 11:33:40.
