data_PCOD9149236
_publ_section_title
;
Structure prediction by ZEFSAII (Michael W. Deem and Ramdas Pophale) SiO2 
 PCOD9149236
Probable space group: P 2/M
;
_chemical_formula_sum "Si O2"
_cell_formula_units_Z 32
_cell_length_a 23.808860
_cell_length_b 13.738122
_cell_length_c 9.154198
_cell_angle_alpha 90.000000
_cell_angle_beta 140.984535
_cell_angle_gamma 90.000000
_cell_volume 1884.962843
_symmetry_space_group_name_H-M "P 2/M"
_symmetry_group_IT_number 10
_symmetry_cell_setting 'monoclinic'
loop_
_space_group_symop_operation_xyz
x,y,z
-x,y,-z
-x,-y,-z
x,-y,z
loop_
_atom_site_type_symbol
_atom_site_label
_atom_site_fract_x
_atom_site_fract_y
_atom_site_fract_z
Si Si1 0.901268 0.116563 0.729867
Si Si2 0.587116 0.804324 0.774875
Si Si3 0.736136 0.784422 0.543485
Si Si4 0.261749 0.116845 0.133351
Si Si5 0.468574 0.393360 0.272131
Si Si6 0.418984 0.887845 0.929255
Si Si7 0.404638 0.614238 0.721873
Si Si8 0.086023 0.117018 0.587537
O O1 0.834544 0.189414 0.681005
O O2 0.903683 0.144844 0.562240
O O3 0.874294 0.000000 0.687130
O O4 0.000000 0.122318 0.000000
O O5 0.500000 0.799043 0.500000
O O6 0.663619 0.845315 0.827359
O O7 0.600111 0.695965 0.869533
O O8 0.568375 0.871943 0.874879
O O9 0.732121 0.827406 0.699976
O O10 0.673287 0.845078 0.308744
O O11 0.682707 0.680757 0.429839
O O12 0.269988 0.000000 0.174252
O O13 0.170119 0.136304 0.861384
O O14 0.500000 0.403905 0.500000
O O15 0.436407 0.500000 0.154382
O O16 0.557942 0.366895 0.364742
O O17 0.415936 0.000000 0.887463
O O18 0.500000 0.843134 0.000000
O O19 0.382908 0.500000 0.695054
O O20 0.500000 0.630382 0.000000
O O21 0.000000 0.156463 0.500000
O O22 0.076494 0.000000 0.560332
#
# Coordination Sequence:
#
# PCOD9149236 Si02
#       8
#     4   4   4   4   4   4   4   4
#     4  10  20  34  54  81 112 145 179 215 257 308
#     4  11  21  33  47  67  98 134 171 209 255 309
#     4  12  21  34  54  76 104 135 176 219 264 316
#     4  11  22  33  48  73 105 141 176 212 258 314
#     4   9  17  31  50  69  91 123 166 214 259 300
#     4  11  22  33  46  67  98 136 173 209 252 306
#     4  10  21  37  56  77 102 134 174 223 275 322
#     4   9  18  34  53  73 101 136 173 213 254 297
#
# _framework density 16.976462000000001
#
# number of rings (size 3 to 8) (size 9 to 14) (size 15 to 20)
#    0.000    1.625    0.000    7.125    0.000    5.000 
#    0.000    0.000    0.000    0.375    0.000    0.000 
#    0.000    3.500    0.000    0.000    0.000    0.000 
#
# Total GULP energy -178208.715193 kJ/mol
# GULP energy per Si atom -5569.022350 kJ/mol
# Density = 1.693782 g / cm^3
# Si number density = 16.976462 Si / 1000 Ang^3
#
#
#
# Elastic Constant Matrix: (Units=GPa)
#
#
# Indices 1 2 3 4 5 6 
#
# 1 112.7938 24.1623 41.4308 0.0000 11.4283 0.0000
# 2 24.1623 83.9614 35.5980 0.0000 18.2843 0.0000
# 3 41.4308 35.5980 63.8536 0.0000 10.6085 0.0000
# 4 0.0000 0.0000 0.0000 16.2150 0.0000 4.3610
# 5 11.4283 18.2843 10.6085 0.0000 26.3160 0.0000
# 6 0.0000 0.0000 0.0000 4.3610 0.0000 28.2843
#
#
#
# Elastic Compliance Matrix: (Units=1/GPa)
#
#
# Indices 1 2 3 4 5 6 
#
# 1 0.011759 0.000249 -0.007386 0.000000 -0.002302 0.000000
# 2 0.000249 0.017281 -0.008342 0.000000 -0.008752 0.000000
# 3 -0.007386 -0.008342 0.025302 0.000000 -0.001197 0.000000
# 4 0.000000 0.000000 0.000000 0.064339 0.000000 -0.009920
# 5 -0.002302 -0.008752 -0.001197 0.000000 0.045563 0.000000
# 6 0.000000 0.000000 0.000000 -0.009920 0.000000 0.036885
#
#
# Mechanical properties :
#
#
# Convention : Reuss Voigt Hill
#
# Bulk Modulus (GPa) = 42.76218 51.44343 47.10281
# Shear Modulus (GPa) = 20.84366 24.79091 22.81728
#
# Velocity S-wave (km/s) = 3.50780 3.82555 3.67011
# Velocity P-wave (km/s) = 6.45368 7.06270 6.76504
#
# Compressibility (1/GPa) = 0.02338515
#
# Stress axis : x y z
#
# Youngs Moduli (GPa) = 85.04453 57.86594 39.52228
#
# Poissons Ratio (x) = -0.01440 0.29190
# Poissons Ratio (y) = -0.02116 0.32968
# Poissons Ratio (z) = 0.62811 0.48269
#
# Static dielectric constant tensor:
#      x y z
#    x 1.635100 0.000000 0.020180 
#    y 0.000000 1.654470 0.000000 
#    z 0.020180 0.000000 1.279330 
# 
# From -- ./inp_files/29538.got.cif
#   From: 2010.05.17/outbox.cif.g08.bks.cpg/sg10_15_cif.got.tgz:29538.got - 2010.06.03 11:33:40.
