data_PCOD9149140
_publ_section_title
;
Structure prediction by ZEFSAII (Michael W. Deem and Ramdas Pophale) SiO2 
 PCOD9149140
Probable space group: P 2/M
;
_chemical_formula_sum "Si O2"
_cell_formula_units_Z 32
_cell_length_a 29.085201
_cell_length_b 9.587814
_cell_length_c 12.590941
_cell_angle_alpha 90.000000
_cell_angle_beta 29.900291
_cell_angle_gamma 90.000000
_cell_volume 1750.282602
_symmetry_space_group_name_H-M "P 2/M"
_symmetry_group_IT_number 10
_symmetry_cell_setting 'monoclinic'
loop_
_space_group_symop_operation_xyz
x,y,z
-x,y,-z
-x,-y,-z
x,-y,z
loop_
_atom_site_type_symbol
_atom_site_label
_atom_site_fract_x
_atom_site_fract_y
_atom_site_fract_z
Si Si1 0.483257 0.165899 0.410167
Si Si2 0.354641 0.337515 0.999795
Si Si3 0.058704 0.153141 0.489094
Si Si4 0.730861 0.835118 0.211995
Si Si5 0.788263 0.661268 0.898678
Si Si6 0.811708 0.833510 0.282020
Si Si7 0.982083 0.161273 0.195734
Si Si8 0.797461 0.332117 0.516235
O O1 0.500000 0.207949 0.500000
O O2 0.378045 0.191858 0.586163
O O3 0.499870 0.000000 0.371460
O O4 0.554994 0.244369 0.190871
O O5 0.378571 0.500000 0.967465
O O6 0.302942 0.324754 0.989985
O O7 0.280256 0.299673 0.239551
O O8 0.131399 0.275633 0.334520
O O9 0.999757 0.165346 0.713828
O O10 0.000000 0.156100 0.500000
O O11 0.105645 0.000000 0.400792
O O12 0.765855 0.802264 0.260024
O O13 0.747286 0.000000 0.161276
O O14 0.781728 0.748603 0.019098
O O15 0.804458 0.500000 0.889138
O O16 0.771929 0.739291 0.455552
O O17 0.800299 0.000000 0.324551
O O18 0.921948 0.805421 0.053420
O O19 0.895681 0.261281 0.348476
O O20 0.957186 0.000000 0.219175
O O21 0.806136 0.500000 0.492224
#
# Coordination Sequence:
#
# PCOD9149140 Si02
#       8
#     4   4   4   4   4   4   4   4
#     4  10  20  35  60  91 115 144 187 234 284 340
#     4  10  22  38  56  82 116 151 185 230 284 337
#     4  10  20  34  53  79 113 154 193 232 284 339
#     4  10  21  39  60  85 119 150 185 238 290 342
#     4  11  21  34  54  82 116 152 188 228 282 343
#     4  10  22  40  60  83 113 150 192 237 286 338
#     4  10  20  35  57  83 111 148 195 238 280 335
#     4  11  23  40  59  82 115 152 194 239 282 331
#
# _framework density 18.282762000000002
#
# number of rings (size 3 to 8) (size 9 to 14) (size 15 to 20)
#    0.000    1.750    2.500    1.875    0.000    7.000 
#    0.000    1.875    0.000    3.750    0.000    0.000 
#    0.000    0.000    0.000    0.000    0.000    0.000 
#
# Total GULP energy -178634.630550 kJ/mol
# GULP energy per Si atom -5582.332205 kJ/mol
# Density = 1.824115 g / cm^3
# Si number density = 18.282762 Si / 1000 Ang^3
#
#
#
# Elastic Constant Matrix: (Units=GPa)
#
#
# Indices 1 2 3 4 5 6 
#
# 1 73.4068 33.1250 36.8594 0.0000 19.6682 0.0000
# 2 33.1250 51.3185 53.1188 0.0000 6.4389 0.0000
# 3 36.8594 53.1188 98.7956 0.0000 14.1562 0.0000
# 4 0.0000 0.0000 0.0000 -9.4656 0.0000 -12.0126
# 5 19.6682 6.4389 14.1562 0.0000 28.9672 0.0000
# 6 0.0000 0.0000 0.0000 -12.0126 0.0000 8.8112
#
#
#
# Elastic Compliance Matrix: (Units=1/GPa)
#
#
# Indices 1 2 3 4 5 6 
#
# 1 0.023030 -0.014131 0.000856 0.000000 -0.012914 0.000000
# 2 -0.014131 0.052709 -0.024478 0.000000 0.009840 0.000000
# 3 0.000856 -0.024478 0.023944 0.000000 -0.006841 0.000000
# 4 0.000000 0.000000 0.000000 -0.038696 0.000000 -0.052755
# 5 -0.012914 0.009840 -0.006841 0.000000 0.044446 0.000000
# 6 0.000000 0.000000 0.000000 -0.052755 0.000000 0.041570
#
#
# Mechanical properties :
#
#
# Convention : Reuss Voigt Hill
#
# Bulk Modulus (GPa) = 41.36137 52.19192 46.77665
# Shear Modulus (GPa) = 21.68577 12.35708 17.02143
#
# Velocity S-wave (km/s) = 3.44776 2.60260 3.05456
# Velocity P-wave (km/s) = 6.20658 6.13518 6.17099
#
# Compressibility (1/GPa) = 0.02417715
#
# Stress axis : x y z
#
# Youngs Moduli (GPa) = 43.42255 18.97212 41.76479
#
# Poissons Ratio (x) = 0.26809 -0.03575
# Poissons Ratio (y) = 0.61359 1.02231
# Poissons Ratio (z) = -0.03717 0.46439
#
# Static dielectric constant tensor:
#      x y z
#    x 1.648820 0.000000 0.003800 
#    y 0.000000 1.614010 0.000000 
#    z 0.003800 0.000000 1.615160 
# 
# From -- ./inp_files/49813.got.cif
#   From: 2010.05.17/outbox.cif.g08.bks.cpg/sg10_25_cif.got.tgz:49813.got - 2010.06.03 11:33:40.
