data_PCOD9149577
_publ_section_title
;
Structure prediction by ZEFSAII (Michael W. Deem and Ramdas Pophale) SiO2 
 PCOD9149577
Probable space group: P 2/M
;
_chemical_formula_sum "Si O2"
_cell_formula_units_Z 28
_cell_length_a 17.426971
_cell_length_b 7.842941
_cell_length_c 15.338181
_cell_angle_alpha 90.000000
_cell_angle_beta 46.332465
_cell_angle_gamma 90.000000
_cell_volume 1516.450725
_symmetry_space_group_name_H-M "P 2/M"
_symmetry_group_IT_number 10
_symmetry_cell_setting 'monoclinic'
loop_
_space_group_symop_operation_xyz
x,y,z
-x,y,-z
-x,-y,-z
x,-y,z
loop_
_atom_site_type_symbol
_atom_site_label
_atom_site_fract_x
_atom_site_fract_y
_atom_site_fract_z
Si Si1 0.216728 0.700417 0.500020
Si Si2 0.635870 0.802037 0.771155
Si Si3 0.655802 0.794140 0.437632
Si Si4 0.589559 0.201028 0.112695
Si Si5 0.580699 0.207707 0.314043
Si Si6 0.990846 0.708375 0.608089
Si Si7 0.761836 0.697915 0.840836
O O1 0.221312 0.500000 0.474674
O O2 0.298856 0.790113 0.370001
O O3 0.254296 0.726071 0.569205
O O4 0.097381 0.760393 0.574435
O O5 0.518287 0.729163 0.846507
O O6 0.701464 0.712682 0.795857
O O7 0.626843 0.000000 0.805185
O O8 0.541100 0.746951 0.568317
O O9 0.651904 0.735650 0.340145
O O10 0.661721 0.000000 0.434181
O O11 0.607473 0.269559 0.196257
O O12 0.567358 0.000000 0.141187
O O13 0.688754 0.220709 0.971815
O O14 0.585659 0.000000 0.311275
O O15 0.986690 0.500000 0.611532
O O16 0.880105 0.769784 0.735235
O O17 0.000000 0.761216 0.500000
O O18 0.771561 0.500000 0.856256
#
# Coordination Sequence:
#
# PCOD9149577 Si02
#       7
#     4   4   4   4   4   4   4
#     4  11  20  32  53  77 104 134 167 211 258 298
#     4  11  21  34  52  75 105 138 168 203 250 305
#     4   9  16  31  53  77 101 132 170 204 249 304
#     4  10  20  35  52  74 105 139 168 200 249 305
#     4   8  15  30  53  74 101 138 167 196 248 311
#     4   9  18  35  53  69  97 137 171 206 255 301
#     4  11  22  36  53  73 100 136 176 211 249 299
#
# _framework density 18.464167
#
# number of rings (size 3 to 8) (size 9 to 14) (size 15 to 20)
#    0.000    2.143    2.857    2.571    0.000    2.857 
#    0.000    5.714    0.000    0.857    0.000    6.000 
#    0.000    0.000    0.000    0.000    0.000    0.000 
#
# Total GULP energy -156241.922875 kJ/mol
# GULP energy per Si atom -5580.068674 kJ/mol
# Density = 1.842214 g / cm^3
# Si number density = 18.464167 Si / 1000 Ang^3
#
#
#
# Elastic Constant Matrix: (Units=GPa)
#
#
# Indices 1 2 3 4 5 6 
#
# 1 146.2692 -4.4205 60.0914 0.0000 -5.5797 0.0000
# 2 -4.4205 19.4144 -5.9501 0.0000 -0.8985 0.0000
# 3 60.0914 -5.9501 94.4045 0.0000 -16.8075 0.0000
# 4 0.0000 0.0000 0.0000 4.5988 0.0000 -0.9843
# 5 -5.5797 -0.8985 -16.8075 0.0000 22.5857 0.0000
# 6 0.0000 0.0000 0.0000 -0.9843 0.0000 15.2875
#
#
#
# Elastic Compliance Matrix: (Units=1/GPa)
#
#
# Indices 1 2 3 4 5 6 
#
# 1 0.009374 0.000060 -0.006398 0.000000 -0.002443 0.000000
# 2 0.000060 0.053068 0.004248 0.000000 0.005287 0.000000
# 3 -0.006398 0.004248 0.016924 0.000000 0.011183 0.000000
# 4 0.000000 0.000000 0.000000 0.220485 0.000000 0.014196
# 5 -0.002443 0.005287 0.011183 0.000000 0.052204 0.000000
# 6 0.000000 0.000000 0.000000 0.014196 0.000000 0.066327
#
#
# Mechanical properties :
#
#
# Convention : Reuss Voigt Hill
#
# Bulk Modulus (GPa) = 13.30031 39.94774 26.62403
# Shear Modulus (GPa) = 11.17010 22.51889 16.84449
#
# Velocity S-wave (km/s) = 2.46226 3.49607 3.02367
# Velocity P-wave (km/s) = 3.91185 6.16270 5.16147
#
# Compressibility (1/GPa) = 0.07518621
#
# Stress axis : x y z
#
# Youngs Moduli (GPa) = 106.68109 18.84364 59.08866
#
# Poissons Ratio (x) = -0.00114 0.37804
# Poissons Ratio (y) = -0.00645 -0.25098
# Poissons Ratio (z) = 0.68252 -0.08004
#
# Static dielectric constant tensor:
#      x y z
#    x 1.643920 0.000000 0.002210 
#    y 0.000000 1.672000 0.000000 
#    z 0.002210 0.000000 1.612230 
# 
# From -- ./inp_files/68563.got.cif
#   From: 2010.05.17/outbox.cif.g08.bks.cpg/sg10_35_cif.got.tgz:68563.got - 2010.06.03 11:33:40.
