data_PCOD9149273
_publ_section_title
;
Structure prediction by ZEFSAII (Michael W. Deem and Ramdas Pophale) SiO2 
 PCOD9149273
Probable space group: P 2/M
;
_chemical_formula_sum "Si O2"
_cell_formula_units_Z 18
_cell_length_a 10.328730
_cell_length_b 7.520357
_cell_length_c 16.887732
_cell_angle_alpha 90.000000
_cell_angle_beta 148.379647
_cell_angle_gamma 90.000000
_cell_volume 687.744275
_symmetry_space_group_name_H-M "P 2/M"
_symmetry_group_IT_number 10
_symmetry_cell_setting 'monoclinic'
loop_
_space_group_symop_operation_xyz
x,y,z
-x,y,-z
-x,-y,-z
x,-y,z
loop_
_atom_site_type_symbol
_atom_site_label
_atom_site_fract_x
_atom_site_fract_y
_atom_site_fract_z
Si Si1 0.962193 0.703490 0.111137
Si Si2 0.937967 0.287836 0.281246
Si Si3 0.503891 0.210000 0.410249
Si Si4 0.719525 0.292093 0.324393
Si Si5 0.658189 0.000000 0.857991
O O1 0.871246 0.500000 0.056816
O O2 0.919306 0.768255 0.180177
O O3 0.255499 0.702360 0.247803
O O4 0.835089 0.843675 0.988021
O O5 0.920190 0.500000 0.271077
O O6 0.208218 0.243600 0.456446
O O7 0.733234 0.230083 0.238647
O O8 0.500000 0.272778 0.500000
O O9 0.451333 0.000000 0.382210
O O10 0.650661 0.500000 0.295407
O O11 0.000000 0.279568 0.500000
O O12 0.539831 0.155764 0.272550
#
# Coordination Sequence:
#
# PCOD9149273 Si02
#       5
#     4   4   4   4   2
#     4  10  20  34  54  85 120 145 171 216 276 338
#     4   9  19  34  56  84 111 145 184 223 271 319
#     4   9  16  29  52  83 113 144 178 216 267 326
#     4  10  23  42  60  78 104 143 192 236 268 310
#     4  12  23  37  55  83 112 150 180 221 271 337
#
# _framework density 26.172519999999999
#
# number of rings (size 3 to 8) (size 9 to 14) (size 15 to 20)
#    0.000    2.222    1.111    1.667    3.111    4.444 
#    0.000    3.333    0.000    2.667    0.000    6.222 
#    0.000    0.000    0.000    0.000    0.000    0.000 
#
# Total GULP energy -100265.689318 kJ/mol
# GULP energy per Si atom -5570.316073 kJ/mol
# Density = 2.611295 g / cm^3
# Si number density = 26.172520 Si / 1000 Ang^3
#
#
#
# Elastic Constant Matrix: (Units=GPa)
#
#
# Indices 1 2 3 4 5 6 
#
# 1 86.0896 28.5268 3.2083 0.0000 -13.5757 0.0000
# 2 28.5268 135.8923 40.4387 0.0000 -8.0712 0.0000
# 3 3.2083 40.4387 124.6834 0.0000 -11.4381 0.0000
# 4 0.0000 0.0000 0.0000 -60.3500 0.0000 -49.4737
# 5 -13.5757 -8.0712 -11.4381 0.0000 13.4161 0.0000
# 6 0.0000 0.0000 0.0000 -49.4737 0.0000 0.4649
#
#
#
# Elastic Compliance Matrix: (Units=1/GPa)
#
#
# Indices 1 2 3 4 5 6 
#
# 1 0.014825 -0.002788 0.001893 0.000000 0.014938 0.000000
# 2 -0.002788 0.008773 -0.002764 0.000000 0.000099 0.000000
# 3 0.001893 -0.002764 0.009646 0.000000 0.008476 0.000000
# 4 0.000000 0.000000 0.000000 -0.000188 0.000000 -0.019984
# 5 0.014938 0.000099 0.008476 0.000000 0.096939 0.000000
# 6 0.000000 0.000000 0.000000 -0.019984 0.000000 0.024377
#
#
# Mechanical properties :
#
#
# Convention : Reuss Voigt Hill
#
# Bulk Modulus (GPa) = 38.57377 54.55700 46.56539
# Shear Modulus (GPa) = 29.35452 9.00563 19.18007
#
# Velocity S-wave (km/s) = 3.35263 1.85697 2.71002
# Velocity P-wave (km/s) = 5.45501 5.04858 5.25573
#
# Compressibility (1/GPa) = 0.02592435
#
# Stress axis : x y z
#
# Youngs Moduli (GPa) = 67.45482 113.99132 103.67254
#
# Poissons Ratio (x) = 0.31783 -0.19627
# Poissons Ratio (y) = 0.18808 0.28659
# Poissons Ratio (z) = -0.12770 0.31511
#
# Static dielectric constant tensor:
#      x y z
#    x 2.311160 0.000000 -0.061410 
#    y 0.000000 1.950000 0.000000 
#    z -0.061410 0.000000 2.042960 
# 
# From -- ./inp_files/35785.got.cif
#   From: 2010.05.17/outbox.cif.g08.bks.cpg/sg10_18_cif.got.tgz:35785.got - 2010.06.03 11:33:40.
