data_PCOD9149002
_publ_section_title
;
Structure prediction by ZEFSAII (Michael W. Deem and Ramdas Pophale) SiO2 
 PCOD9149002
Probable space group: P 2/M
;
_chemical_formula_sum "Si O2"
_cell_formula_units_Z 22
_cell_length_a 11.878386
_cell_length_b 9.585443
_cell_length_c 10.917885
_cell_angle_alpha 90.000000
_cell_angle_beta 108.329439
_cell_angle_gamma 90.000000
_cell_volume 1180.035734
_symmetry_space_group_name_H-M "P 2/M"
_symmetry_group_IT_number 10
_symmetry_cell_setting 'monoclinic'
loop_
_space_group_symop_operation_xyz
x,y,z
-x,y,-z
-x,-y,-z
x,-y,z
loop_
_atom_site_type_symbol
_atom_site_label
_atom_site_fract_x
_atom_site_fract_y
_atom_site_fract_z
Si Si1 0.857825 0.833099 0.594222
Si Si2 0.923938 0.658757 0.240012
Si Si3 0.000000 0.739458 0.000000
Si Si4 0.732706 0.836010 0.291355
Si Si5 0.473603 0.831239 0.127787
Si Si6 0.755259 0.837168 0.811806
O O1 0.792890 0.813063 0.443604
O O2 0.776193 0.785718 0.680603
O O3 0.978414 0.747137 0.651376
O O4 0.883381 0.000000 0.615589
O O5 0.916037 0.500000 0.280441
O O6 0.801305 0.740532 0.217823
O O7 0.964547 0.660280 0.112131
O O8 0.118786 0.822643 0.076977
O O9 0.592926 0.806246 0.245476
O O10 0.747281 0.000000 0.263391
O O11 0.354363 0.774928 0.150079
O O12 0.459832 0.000000 0.112386
O O13 0.500000 0.778721 0.000000
O O14 0.728443 0.000000 0.788806
#
# Coordination Sequence:
#
# PCOD9149002 Si02
#       6
#     4   4   2   4   4   4
#     4   9  19  34  52  77 105 134 171 213 255 300
#     4  11  22  35  53  76 103 135 172 213 257 306
#     4  10  20  34  52  74 103 136 169 210 259 304
#     4  10  20  34  53  76 105 138 170 210 256 300
#     4   9  17  29  48  76 106 135 170 210 251 298
#     4   9  17  30  51  79 107 135 170 210 253 303
#
# _framework density 18.643504
#
# number of rings (size 3 to 8) (size 9 to 14) (size 15 to 20)
#    0.000    2.364    0.000    2.727    0.000    7.273 
#    0.000    3.636    0.000    9.273    0.000    6.364 
#    0.000    0.000    0.000    0.000    0.000    0.000 
#
# Total GULP energy -122623.165923 kJ/mol
# GULP energy per Si atom -5573.780269 kJ/mol
# Density = 1.860107 g / cm^3
# Si number density = 18.643504 Si / 1000 Ang^3
#
#
#
# Elastic Constant Matrix: (Units=GPa)
#
#
# Indices 1 2 3 4 5 6 
#
# 1 142.7093 24.2697 29.5757 0.0000 -12.1753 0.0000
# 2 24.2697 32.3443 17.1083 0.0000 -6.0046 0.0000
# 3 29.5757 17.1083 68.5749 0.0000 -4.5437 0.0000
# 4 0.0000 0.0000 0.0000 1.1808 0.0000 -7.9960
# 5 -12.1753 -6.0046 -4.5437 0.0000 17.6628 0.0000
# 6 0.0000 0.0000 0.0000 -7.9960 0.0000 2.3749
#
#
#
# Elastic Compliance Matrix: (Units=1/GPa)
#
#
# Indices 1 2 3 4 5 6 
#
# 1 0.008578 -0.004504 -0.002325 0.000000 0.003784 0.000000
# 2 -0.004504 0.039805 -0.007424 0.000000 0.008518 0.000000
# 3 -0.002325 -0.007424 0.017462 0.000000 0.000365 0.000000
# 4 0.000000 0.000000 0.000000 -0.038849 0.000000 -0.130799
# 5 0.003784 0.008518 0.000365 0.000000 0.062214 0.000000
# 6 0.000000 0.000000 0.000000 -0.130799 0.000000 -0.019316
#
#
# Mechanical properties :
#
#
# Convention : Reuss Voigt Hill
#
# Bulk Modulus (GPa) = 26.78195 42.83732 34.80964
# Shear Modulus (GPa) = 45.10739 15.75535 30.43137
#
# Velocity S-wave (km/s) = 4.92415 2.91019 4.04453
# Velocity P-wave (km/s) = 6.83565 5.85826 6.36574
#
# Compressibility (1/GPa) = 0.03733858
#
# Stress axis : x y z
#
# Youngs Moduli (GPa) = 116.57835 25.12236 57.26804
#
# Poissons Ratio (x) = 0.11316 0.13316
# Poissons Ratio (y) = 0.52509 0.42514
# Poissons Ratio (z) = 0.27106 0.18650
#
# Static dielectric constant tensor:
#      x y z
#    x 1.677740 0.000000 -0.026170 
#    y 0.000000 1.624100 0.000000 
#    z -0.026170 0.000000 1.657160 
# 
# From -- ./inp_files/45015.got.cif
#   From: 2010.05.17/outbox.cif.g08.bks.cpg/sg10_23_cif.got.tgz:45015.got - 2010.06.03 11:33:40.
