data_PCOD9149133
_publ_section_title
;
Structure prediction by ZEFSAII (Michael W. Deem and Ramdas Pophale) SiO2 
 PCOD9149133
Probable space group: P 2/M
;
_chemical_formula_sum "Si O2"
_cell_formula_units_Z 32
_cell_length_a 13.029186
_cell_length_b 8.483440
_cell_length_c 34.397050
_cell_angle_alpha 90.000000
_cell_angle_beta 24.730935
_cell_angle_gamma 90.000000
_cell_volume 1590.589338
_symmetry_space_group_name_H-M "P 2/M"
_symmetry_group_IT_number 10
_symmetry_cell_setting 'monoclinic'
loop_
_space_group_symop_operation_xyz
x,y,z
-x,y,-z
-x,-y,-z
x,-y,z
loop_
_atom_site_type_symbol
_atom_site_label
_atom_site_fract_x
_atom_site_fract_y
_atom_site_fract_z
Si Si1 0.228411 0.809633 0.393170
Si Si2 0.753802 0.821143 0.111147
Si Si3 0.053183 0.686611 0.076423
Si Si4 0.042466 0.189386 0.588821
Si Si5 0.047081 0.190628 0.676431
Si Si6 0.420411 0.688486 0.609154
Si Si7 0.735788 0.310146 0.254052
Si Si8 0.487938 0.189941 0.128200
O O1 0.479356 0.739398 0.322800
O O2 0.000000 0.768313 0.500000
O O3 0.157624 0.756410 0.373850
O O4 0.249302 0.000000 0.386291
O O5 0.836620 0.726035 0.120149
O O6 0.558737 0.754381 0.147623
O O7 0.683896 0.000000 0.146795
O O8 0.000000 0.831229 0.000000
O O9 0.085836 0.500000 0.066811
O O10 0.958424 0.748071 0.150500
O O11 0.303858 0.757362 0.973294
O O12 0.028003 0.244331 0.638262
O O13 0.310994 0.236585 0.481508
O O14 0.024326 0.000000 0.596028
O O15 0.276378 0.259432 0.620372
O O16 0.789804 0.236116 0.785165
O O17 0.067417 0.000000 0.669588
O O18 0.444622 0.500000 0.601427
O O19 0.271519 0.741549 0.698714
O O20 0.747723 0.500000 0.249716
O O21 0.498835 0.000000 0.126827
#
# Coordination Sequence:
#
# PCOD9149133 Si02
#       8
#     4   4   4   4   4   4   4   4
#     4  10  20  35  59  89 115 143 186 232 274 332
#     4   8  15  29  50  74 104 140 175 216 269 325
#     4  10  20  34  53  79 111 148 187 226 273 329
#     4  10  21  38  60  87 116 145 180 229 285 335
#     4  10  22  39  60  83 112 147 186 234 285 332
#     4  11  23  40  59  80 111 150 192 233 276 332
#     4  10  23  39  55  80 117 156 188 225 280 335
#     4   9  19  36  55  79 110 145 184 228 279 329
#
# _framework density 20.118328999999999
#
# number of rings (size 3 to 8) (size 9 to 14) (size 15 to 20)
#    0.000    2.250    1.250    1.875    1.750    7.000 
#    0.000    0.625    0.000    3.750    0.000    0.000 
#    0.000    0.000    0.000    0.000    0.000    0.000 
#
# Total GULP energy -178609.239799 kJ/mol
# GULP energy per Si atom -5581.538744 kJ/mol
# Density = 2.007254 g / cm^3
# Si number density = 20.118329 Si / 1000 Ang^3
#
#
#
# Elastic Constant Matrix: (Units=GPa)
#
#
# Indices 1 2 3 4 5 6 
#
# 1 76.1248 3.7174 3.8386 0.0000 15.5747 0.0000
# 2 3.7174 -7.0250 -0.2065 0.0000 6.0556 0.0000
# 3 3.8386 -0.2065 56.1969 0.0000 22.4493 0.0001
# 4 0.0000 0.0000 0.0000 20.5842 0.0000 15.1806
# 5 15.5747 6.0556 22.4493 0.0000 32.3041 0.0000
# 6 0.0000 0.0000 0.0001 15.1806 0.0000 -43.5361
#
#
#
# Elastic Compliance Matrix: (Units=1/GPa)
#
#
# Indices 1 2 3 4 5 6 
#
# 1 0.014834 0.000066 0.002559 0.000000 -0.008943 0.000000
# 2 0.000066 -0.115736 -0.012575 0.000000 0.030403 0.000000
# 3 0.002559 -0.012575 0.023706 0.000000 -0.015351 0.000000
# 4 0.000000 0.000000 0.000000 0.038644 0.000000 0.013475
# 5 -0.008943 0.030403 -0.015351 0.000000 0.040236 0.000000
# 6 0.000000 0.000000 0.000000 0.013475 0.000000 -0.018271
#
#
# Mechanical properties :
#
#
# Convention : Reuss Voigt Hill
#
# Bulk Modulus (GPa) = -10.29901 15.55505 2.62802
# Shear Modulus (GPa) = -172.09616 9.73360 -81.18128
#
# Velocity S-wave (km/s) = -9.25892 2.20197 -6.35921
# Velocity P-wave (km/s) = 10.92858 3.77008 7.25329
#
# Compressibility (1/GPa) = -0.09709675
#
# Stress axis : x y z
#
# Youngs Moduli (GPa) = 67.41409 -8.64035 42.18377
#
# Poissons Ratio (x) = 0.00057 -0.10796
# Poissons Ratio (y) = -0.00442 0.53046
# Poissons Ratio (z) = -0.17254 -0.10865
#
# Static dielectric constant tensor:
#      x y z
#    x 1.712380 0.000000 0.025600 
#    y 0.000000 1.689920 0.000000 
#    z 0.025600 0.000000 1.746950 
# 
# From -- ./inp_files/94988.got.cif
#   From: 2010.05.17/outbox.cif.g08.bks.cpg/sg10_48_cif.got.tgz:94988.got - 2010.06.03 11:33:40.
