data_PCOD9149275
_publ_section_title
;
Structure prediction by ZEFSAII (Michael W. Deem and Ramdas Pophale) SiO2 
 PCOD9149275
Probable space group: P 2/M
;
_chemical_formula_sum "Si O2"
_cell_formula_units_Z 32
_cell_length_a 34.292463
_cell_length_b 8.689308
_cell_length_c 11.900455
_cell_angle_alpha 90.000000
_cell_angle_beta 28.976754
_cell_angle_gamma 90.000000
_cell_volume 1717.910909
_symmetry_space_group_name_H-M "P 2/M"
_symmetry_group_IT_number 10
_symmetry_cell_setting 'monoclinic'
loop_
_space_group_symop_operation_xyz
x,y,z
-x,y,-z
-x,-y,-z
x,-y,z
loop_
_atom_site_type_symbol
_atom_site_label
_atom_site_fract_x
_atom_site_fract_y
_atom_site_fract_z
Si Si1 0.692450 0.182310 0.466846
Si Si2 0.533028 0.323912 0.788532
Si Si3 0.022468 0.314110 0.252888
Si Si4 0.830272 0.682940 0.971963
Si Si5 0.629343 0.184023 0.874466
Si Si6 0.231024 0.315197 0.334861
Si Si7 0.842571 0.817930 0.704618
Si Si8 0.079997 0.686804 0.864250
O O1 0.613948 0.224766 0.590777
O O2 0.767394 0.272903 0.227140
O O3 0.671189 0.226569 0.649078
O O4 0.707305 0.000000 0.425973
O O5 0.550924 0.500000 0.711872
O O6 0.500000 0.324055 0.000000
O O7 0.459874 0.255176 0.901422
O O8 0.011836 0.500000 0.279741
O O9 0.935183 0.239046 0.470181
O O10 0.080401 0.273758 0.210122
O O11 0.069508 0.270059 0.020124
O O12 0.829563 0.500000 0.955341
O O13 0.809630 0.768336 0.909104
O O14 0.685866 0.245855 0.830337
O O15 0.623486 0.000000 0.891954
O O16 0.234743 0.500000 0.329255
O O17 0.204672 0.261910 0.278029
O O18 0.160100 0.261177 0.599005
O O19 0.839314 0.000000 0.698707
O O20 0.080802 0.500000 0.858075
O O21 0.000000 0.738269 0.000000
#
# Coordination Sequence:
#
# PCOD9149275 Si02
#       8
#     4   4   4   4   4   4   4   4
#     4  10  20  35  56  84 119 150 177 221 280 330
#     4   9  17  31  54  83 114 148 186 222 263 320
#     4  10  20  37  58  80 105 139 184 231 277 328
#     4  11  23  38  58  80 105 142 191 236 273 324
#     4  10  20  34  54  85 121 149 178 219 276 332
#     4  11  21  36  58  80 108 146 190 230 271 326
#     4  12  25  39  54  75 107 145 186 233 286 332
#     4   9  16  30  54  79 104 135 174 221 271 320
#
# _framework density 18.627275999999998
#
# number of rings (size 3 to 8) (size 9 to 14) (size 15 to 20)
#    0.000    1.750    1.250    4.125    0.000    6.500 
#    0.000    1.875    0.000    0.750    0.000    5.250 
#    0.000    0.000    0.000    0.000    0.000    0.000 
#
# Total GULP energy -178747.244895 kJ/mol
# GULP energy per Si atom -5585.851403 kJ/mol
# Density = 1.858488 g / cm^3
# Si number density = 18.627276 Si / 1000 Ang^3
#
#
#
# Elastic Constant Matrix: (Units=GPa)
#
#
# Indices 1 2 3 4 5 6 
#
# 1 89.6137 16.6811 20.8928 0.0000 -18.0250 0.0000
# 2 16.6811 33.5042 1.0746 0.0000 -3.7538 0.0000
# 3 20.8928 1.0746 29.8830 0.0000 -16.7675 0.0000
# 4 0.0000 0.0000 0.0000 38.1113 0.0000 -23.2171
# 5 -18.0250 -3.7538 -16.7675 0.0000 32.5315 0.0000
# 6 0.0000 0.0000 0.0000 -23.2171 0.0000 61.7612
#
#
#
# Elastic Compliance Matrix: (Units=1/GPa)
#
#
# Indices 1 2 3 4 5 6 
#
# 1 0.015057 -0.006869 -0.008503 0.000000 0.003168 0.000000
# 2 -0.006869 0.033403 0.005105 0.000000 0.002680 0.000000
# 3 -0.008503 0.005105 0.051931 0.000000 0.022644 0.000000
# 4 0.000000 0.000000 0.000000 0.034033 0.000000 0.012793
# 5 0.003168 0.002680 0.022644 0.000000 0.044475 0.000000
# 6 0.000000 0.000000 0.000000 0.012793 0.000000 0.021001
#
#
# Mechanical properties :
#
#
# Convention : Reuss Voigt Hill
#
# Bulk Modulus (GPa) = 12.52230 25.58865 19.05548
# Shear Modulus (GPa) = 20.23854 34.10431 27.17142
#
# Velocity S-wave (km/s) = 3.29979 4.28352 3.82342
# Velocity P-wave (km/s) = 4.61034 6.18318 5.45376
#
# Compressibility (1/GPa) = 0.07985752
#
# Stress axis : x y z
#
# Youngs Moduli (GPa) = 66.41355 29.93701 19.25632
#
# Poissons Ratio (x) = 0.20564 0.16373
# Poissons Ratio (y) = 0.45620 -0.09830
# Poissons Ratio (z) = 0.56471 -0.15282
#
# Static dielectric constant tensor:
#      x y z
#    x 1.636410 0.000000 0.005700 
#    y 0.000000 1.623980 0.000000 
#    z 0.005700 0.000000 1.638160 
# 
# From -- ./inp_files/58080.got.cif
#   From: 2010.05.17/outbox.cif.g08.bks.cpg/sg10_30_cif.got.tgz:58080.got - 2010.06.03 11:33:40.
