data_PCOD9149675
_publ_section_title
;
Structure prediction by ZEFSAII (Michael W. Deem and Ramdas Pophale) SiO2 
 PCOD9149675
Probable space group: P 2/M
;
_chemical_formula_sum "Si O2"
_cell_formula_units_Z 25
_cell_length_a 14.232307
_cell_length_b 7.992904
_cell_length_c 12.586867
_cell_angle_alpha 90.000000
_cell_angle_beta 110.980612
_cell_angle_gamma 90.000000
_cell_volume 1336.920752
_symmetry_space_group_name_H-M "P 2/M"
_symmetry_group_IT_number 10
_symmetry_cell_setting 'monoclinic'
loop_
_space_group_symop_operation_xyz
x,y,z
-x,y,-z
-x,-y,-z
x,-y,z
loop_
_atom_site_type_symbol
_atom_site_label
_atom_site_fract_x
_atom_site_fract_y
_atom_site_fract_z
Si Si1 0.073444 0.688659 0.865411
Si Si2 0.866391 0.801201 0.526554
Si Si3 0.793486 0.190673 0.264200
Si Si4 0.156402 0.800974 0.248128
Si Si5 0.613139 0.695513 0.054693
Si Si6 0.000000 0.500000 0.500000
Si Si7 0.751185 0.806940 0.923910
O O1 0.081195 0.500000 0.908216
O O2 0.129401 0.700036 0.773907
O O3 0.957822 0.738160 0.810711
O O4 0.141447 0.798307 0.971590
O O5 0.802040 0.779052 0.392843
O O6 0.812248 0.775136 0.617280
O O7 0.946782 0.651917 0.549327
O O8 0.901930 0.000000 0.541489
O O9 0.683683 0.217878 0.170743
O O10 0.825125 0.000000 0.257488
O O11 0.228491 0.734592 0.184672
O O12 0.152443 0.000000 0.228668
O O13 0.608033 0.500000 0.080743
O O14 0.500000 0.761901 0.000000
O O15 0.672362 0.714542 0.967635
O O16 0.718541 0.000000 0.905241
#
# Coordination Sequence:
#
# PCOD9149675 Si02
#       7
#     4   4   4   4   4   1   4
#     4  11  21  30  47  75 107 142 183 226 264 313
#     4  10  23  37  51  79 113 148 193 237 272 316
#     4  10  20  35  55  77 108 143 180 230 274 319
#     4  10  21  36  50  71 108 147 185 224 263 316
#     4  10  21  37  59  85 109 132 168 226 286 337
#     4  12  22  32  56  78 104 162 196 228 268 314
#     4  10  20  35  55  75 102 142 180 220 274 327
#
# _framework density 18.699687999999998
#
# number of rings (size 3 to 8) (size 9 to 14) (size 15 to 20)
#    0.000    1.760    0.000    6.480    5.600    7.040 
#    0.000    0.000    0.000    0.960    0.000    6.720 
#    0.000    0.000    0.000    0.000    0.000    0.000 
#
# Total GULP energy -139198.384439 kJ/mol
# GULP energy per Si atom -5567.935378 kJ/mol
# Density = 1.865713 g / cm^3
# Si number density = 18.699688 Si / 1000 Ang^3
#
#
#
# Elastic Constant Matrix: (Units=GPa)
#
#
# Indices 1 2 3 4 5 6 
#
# 1 63.6214 -1.0088 44.5214 0.0000 -5.4985 0.0000
# 2 -1.0088 57.3250 11.6987 0.0000 -3.3135 0.0000
# 3 44.5214 11.6987 108.1985 0.0000 -26.3628 0.0000
# 4 0.0000 0.0000 0.0000 -25.7060 0.0000 2.4434
# 5 -5.4985 -3.3135 -26.3628 0.0000 22.9834 0.0000
# 6 0.0000 0.0000 0.0000 2.4434 0.0000 19.7563
#
#
#
# Elastic Compliance Matrix: (Units=1/GPa)
#
#
# Indices 1 2 3 4 5 6 
#
# 1 0.023256 0.002354 -0.011638 0.000000 -0.007446 0.000000
# 2 0.002354 0.018080 -0.002986 0.000000 -0.000255 0.000000
# 3 -0.011638 -0.002986 0.018835 0.000000 0.018389 0.000000
# 4 0.000000 0.000000 0.000000 -0.038449 0.000000 0.004755
# 5 -0.007446 -0.000255 0.018389 0.000000 0.062784 0.000000
# 6 0.000000 0.000000 0.000000 0.004755 0.000000 0.050029
#
#
# Mechanical properties :
#
#
# Convention : Reuss Voigt Hill
#
# Bulk Modulus (GPa) = 28.06529 37.72975 32.89752
# Shear Modulus (GPa) = 29.24809 15.00231 22.12520
#
# Velocity S-wave (km/s) = 3.95915 2.83552 3.44348
# Velocity P-wave (km/s) = 5.99507 5.56244 5.78280
#
# Compressibility (1/GPa) = 0.03563121
#
# Stress axis : x y z
#
# Youngs Moduli (GPa) = 42.99963 55.30859 53.09395
#
# Poissons Ratio (x) = -0.13019 0.61792
# Poissons Ratio (y) = -0.10122 0.15851
# Poissons Ratio (z) = 0.50044 0.16513
#
# Static dielectric constant tensor:
#      x y z
#    x 1.637640 0.000000 -0.027350 
#    y 0.000000 1.655240 0.000000 
#    z -0.027350 0.000000 1.700440 
# 
# From -- ./inp_files/48899.got.cif
#   From: 2010.05.17/outbox.cif.g08.bks.cpg/sg10_25_cif.got.tgz:48899.got - 2010.06.03 11:33:40.
