data_PCOD9149931
_publ_section_title
;
Structure prediction by ZEFSAII (Michael W. Deem and Ramdas Pophale) SiO2 
 PCOD9149931
Probable space group: P 2/M
;
_chemical_formula_sum "Si O2"
_cell_formula_units_Z 28
_cell_length_a 17.295287
_cell_length_b 9.741487
_cell_length_c 11.031815
_cell_angle_alpha 90.000000
_cell_angle_beta 52.073055
_cell_angle_gamma 90.000000
_cell_volume 1466.102079
_symmetry_space_group_name_H-M "P 2/M"
_symmetry_group_IT_number 10
_symmetry_cell_setting 'monoclinic'
loop_
_space_group_symop_operation_xyz
x,y,z
-x,y,-z
-x,-y,-z
x,-y,z
loop_
_atom_site_type_symbol
_atom_site_label
_atom_site_fract_x
_atom_site_fract_y
_atom_site_fract_z
Si Si1 0.256553 0.156916 0.223799
Si Si2 0.599383 0.842266 0.344214
Si Si3 0.543707 0.846955 0.118816
Si Si4 0.046704 0.836446 0.321828
Si Si5 0.262084 0.343957 0.653623
Si Si6 0.357588 0.341886 0.302919
Si Si7 0.035208 0.335878 0.828164
O O1 0.163137 0.184087 0.229647
O O2 0.270016 0.263962 0.318606
O O3 0.245743 0.000000 0.279408
O O4 0.358687 0.167386 0.053651
O O5 0.500000 0.785209 0.500000
O O6 0.579997 0.840448 0.221200
O O7 0.693892 0.757968 0.290885
O O8 0.610243 0.000000 0.375823
O O9 0.459267 0.736311 0.180895
O O10 0.501090 0.000000 0.139461
O O11 0.000000 0.801593 0.500000
O O12 0.009479 0.749722 0.241712
O O13 0.028224 0.000000 0.319836
O O14 0.263074 0.500000 0.699203
O O15 0.332307 0.335570 0.469138
O O16 0.152101 0.313367 0.718333
O O17 0.363213 0.500000 0.259732
O O18 0.016333 0.500000 0.829137
O O19 0.000000 0.300608 0.000000
#
# Coordination Sequence:
#
# PCOD9149931 Si02
#       7
#     4   4   4   4   4   4   4
#     4  10  22  38  58  82 114 150 185 232 288 340
#     4  10  20  35  57  84 111 146 190 229 273 338
#     4  10  21  37  55  80 115 150 185 229 283 337
#     4  10  22  41  64  91 119 152 200 251 298 351
#     4  10  22  38  57  82 115 151 187 231 284 338
#     4  11  22  36  56  84 114 148 191 232 275 337
#     4  10  23  42  62  88 121 157 198 245 299 356
#
# _framework density 19.098261000000001
#
# number of rings (size 3 to 8) (size 9 to 14) (size 15 to 20)
#    0.000    1.857    1.429    1.714    2.000    5.429 
#    0.000    0.000    0.000    0.000    0.000    0.000 
#    0.000    0.000    0.000    0.000    0.000    0.000 
#
# Total GULP energy -156262.361995 kJ/mol
# GULP energy per Si atom -5580.798643 kJ/mol
# Density = 1.905479 g / cm^3
# Si number density = 19.098261 Si / 1000 Ang^3
#
#
#
# Elastic Constant Matrix: (Units=GPa)
#
#
# Indices 1 2 3 4 5 6 
#
# 1 140.1474 94.4214 35.2102 0.0000 5.0661 0.0000
# 2 94.4214 106.1962 36.9953 0.0000 3.2099 0.0000
# 3 35.2102 36.9953 64.8399 0.0000 4.6180 0.0000
# 4 0.0000 0.0000 0.0000 17.4072 0.0000 0.2282
# 5 5.0661 3.2099 4.6180 0.0000 33.6671 0.0000
# 6 0.0000 0.0000 0.0000 0.2282 0.0000 22.4213
#
#
#
# Elastic Compliance Matrix: (Units=1/GPa)
#
#
# Indices 1 2 3 4 5 6 
#
# 1 0.017868 -0.015602 -0.000723 0.000000 -0.001102 0.000000
# 2 -0.015602 0.025377 -0.006061 0.000000 0.000760 0.000000
# 3 -0.000723 -0.006061 0.019414 0.000000 -0.001976 0.000000
# 4 0.000000 0.000000 0.000000 0.057455 0.000000 -0.000585
# 5 -0.001102 0.000760 -0.001976 0.000000 0.030067 0.000000
# 6 0.000000 0.000000 0.000000 -0.000585 0.000000 0.044606
#
#
# Mechanical properties :
#
#
# Convention : Reuss Voigt Hill
#
# Bulk Modulus (GPa) = 55.90297 71.60413 63.75355
# Shear Modulus (GPa) = 20.36480 24.33623 22.35052
#
# Velocity S-wave (km/s) = 3.26899 3.57356 3.42466
# Velocity P-wave (km/s) = 6.60176 7.38925 7.00657
#
# Compressibility (1/GPa) = 0.01788814
#
# Stress axis : x y z
#
# Youngs Moduli (GPa) = 55.96520 39.40563 51.50941
#
# Poissons Ratio (x) = 0.61481 0.03722
# Poissons Ratio (y) = 0.87317 0.31219
# Poissons Ratio (z) = 0.04044 0.23883
#
# Static dielectric constant tensor:
#      x y z
#    x 1.644790 0.000000 0.005430 
#    y 0.000000 1.668400 0.000000 
#    z 0.005430 0.000000 1.691050 
# 
# From -- ./inp_files/49570.got.cif
#   From: 2010.05.17/outbox.cif.g08.bks.cpg/sg10_25_cif.got.tgz:49570.got - 2010.06.03 11:33:40.
