data_PCOD9149670
_publ_section_title
;
Structure prediction by ZEFSAII (Michael W. Deem and Ramdas Pophale) SiO2 
 PCOD9149670
Probable space group: P 2/M
;
_chemical_formula_sum "Si O2"
_cell_formula_units_Z 26
_cell_length_a 9.764522
_cell_length_b 11.670388
_cell_length_c 13.077638
_cell_angle_alpha 90.000000
_cell_angle_beta 65.947318
_cell_angle_gamma 90.000000
_cell_volume 1360.873469
_symmetry_space_group_name_H-M "P 2/M"
_symmetry_group_IT_number 10
_symmetry_cell_setting 'monoclinic'
loop_
_space_group_symop_operation_xyz
x,y,z
-x,y,-z
-x,-y,-z
x,-y,z
loop_
_atom_site_type_symbol
_atom_site_label
_atom_site_fract_x
_atom_site_fract_y
_atom_site_fract_z
Si Si1 0.714940 0.500000 0.261125
Si Si2 0.345512 0.754163 0.305655
Si Si3 0.901526 0.500000 0.412204
Si Si4 0.646415 0.864854 0.252480
Si Si5 0.098942 0.291034 0.870605
Si Si6 0.264074 0.863214 0.546710
Si Si7 0.965902 0.737642 0.690224
Si Si8 0.629811 0.500000 0.654847
O O1 0.806426 0.500000 0.337664
O O2 0.774867 0.388967 0.183204
O O3 0.539031 0.500000 0.339057
O O4 0.504568 0.812605 0.237548
O O5 0.314243 0.790683 0.433299
O O6 0.197849 0.784244 0.286645
O O7 0.361990 0.618415 0.287719
O O8 0.772495 0.500000 0.536489
O O9 0.998212 0.617051 0.379115
O O10 0.802782 0.824066 0.157310
O O11 0.654121 0.829869 0.371365
O O12 0.633300 0.000000 0.256716
O O13 0.995810 0.287401 0.800554
O O14 0.000000 0.309992 0.000000
O O15 0.091377 0.828802 0.617555
O O16 0.284153 0.000000 0.523757
#
# Coordination Sequence:
#
# PCOD9149670 Si02
#       8
#     2   4   2   4   4   4   4   2
#     4  10  20  36  59  89 111 142 191 232 273 335
#     4  12  22  34  55  83 123 151 181 223 278 336
#     4  10  20  35  54  82 123 154 184 222 267 332
#     4  10  22  39  58  83 113 148 191 234 275 327
#     4  10  21  41  65  82 105 143 192 242 285 330
#     4  10  21  36  55  81 116 157 192 218 263 333
#     4  10  22  36  55  85 115 151 187 230 276 328
#     4  12  22  31  57  87 120 153 180 219 279 335
#
# _framework density 19.105378000000002
#
# number of rings (size 3 to 8) (size 9 to 14) (size 15 to 20)
#    0.000    1.538    3.077    2.308    0.000    5.231 
#    0.000    0.769    0.000    1.846    0.000    0.000 
#    0.000    0.000    0.000    0.000    0.000    0.000 
#
# Total GULP energy -145117.627516 kJ/mol
# GULP energy per Si atom -5581.447212 kJ/mol
# Density = 1.906189 g / cm^3
# Si number density = 19.105378 Si / 1000 Ang^3
#
#
#
# Elastic Constant Matrix: (Units=GPa)
#
#
# Indices 1 2 3 4 5 6 
#
# 1 139.3581 24.5686 23.3484 0.0000 -18.7675 0.0000
# 2 24.5686 57.0248 7.6122 0.0000 -1.7613 0.0000
# 3 23.3484 7.6122 54.6415 0.0000 -1.2647 0.0000
# 4 0.0000 0.0000 0.0000 6.0286 0.0000 -2.5705
# 5 -18.7675 -1.7613 -1.2647 0.0000 10.3416 0.0000
# 6 0.0000 0.0000 0.0000 -2.5705 0.0000 -2.0020
#
#
#
# Elastic Compliance Matrix: (Units=1/GPa)
#
#
# Indices 1 2 3 4 5 6 
#
# 1 0.010987 -0.003651 -0.003750 0.000000 0.018859 0.000000
# 2 -0.003651 0.019160 -0.001190 0.000000 -0.003508 0.000000
# 3 -0.003750 -0.001190 0.019964 0.000000 -0.004566 0.000000
# 4 0.000000 0.000000 0.000000 0.107192 0.000000 -0.137630
# 5 0.018859 -0.003508 -0.004566 0.000000 0.129766 0.000000
# 6 0.000000 0.000000 0.000000 -0.137630 0.000000 -0.322788
#
#
# Mechanical properties :
#
#
# Convention : Reuss Voigt Hill
#
# Bulk Modulus (GPa) = 30.36865 40.23141 35.30003
# Shear Modulus (GPa) = -661.22747 15.90667 -322.66040
#
# Velocity S-wave (km/s) = -18.62381 2.88857 -13.00966
# Velocity P-wave (km/s) = 21.13130 5.67701 14.39277
#
# Compressibility (1/GPa) = 0.03292870
#
# Stress axis : x y z
#
# Youngs Moduli (GPa) = 91.01311 52.19291 50.09130
#
# Poissons Ratio (x) = 0.19054 0.18783
# Poissons Ratio (y) = 0.33227 0.05963
# Poissons Ratio (z) = 0.34128 0.06213
#
# Static dielectric constant tensor:
#      x y z
#    x 1.687730 0.000000 -0.009470 
#    y 0.000000 1.700620 0.000000 
#    z -0.009470 0.000000 1.649690 
# 
# From -- ./inp_files/60897.got.cif
#   From: 2010.05.17/outbox.cif.g08.bks.cpg/sg10_31_cif.got.tgz:60897.got - 2010.06.03 11:33:40.
