data_PCOD9149145
_publ_section_title
;
Structure prediction by ZEFSAII (Michael W. Deem and Ramdas Pophale) SiO2 
 PCOD9149145
Probable space group: P 2/M
;
_chemical_formula_sum "Si O2"
_cell_formula_units_Z 28
_cell_length_a 30.106650
_cell_length_b 12.038135
_cell_length_c 24.092619
_cell_angle_alpha 90.000000
_cell_angle_beta 9.925069
_cell_angle_gamma 90.000000
_cell_volume 1505.020468
_symmetry_space_group_name_H-M "P 2/M"
_symmetry_group_IT_number 10
_symmetry_cell_setting 'monoclinic'
loop_
_space_group_symop_operation_xyz
x,y,z
-x,y,-z
-x,-y,-z
x,-y,z
loop_
_atom_site_type_symbol
_atom_site_label
_atom_site_fract_x
_atom_site_fract_y
_atom_site_fract_z
Si Si1 0.887354 0.735102 0.757388
Si Si2 0.591169 0.263051 0.734285
Si Si3 0.323213 0.872173 0.162683
Si Si4 0.050550 0.867776 0.876739
Si Si5 0.349029 0.871556 0.857812
Si Si6 0.448413 0.500000 0.943786
Si Si7 0.070480 0.867369 0.093102
Si Si8 0.958488 0.500000 0.460989
O O1 0.010127 0.613457 0.611233
O O2 0.068300 0.806367 0.493993
O O3 0.613533 0.729151 0.063812
O O4 0.839658 0.795343 0.874208
O O5 0.608937 0.388429 0.735546
O O6 0.843569 0.203391 0.400439
O O7 0.467828 0.188874 0.934836
O O8 0.269038 0.000000 0.215050
O O9 0.500000 0.870220 0.000000
O O10 0.354688 0.853601 0.491054
O O11 0.899599 0.830413 0.007531
O O12 0.997229 0.000000 0.946441
O O13 0.000000 0.819114 0.000000
O O14 0.284150 0.000000 0.950268
O O15 0.310200 0.856046 0.839740
O O16 0.201311 0.500000 0.205508
O O17 0.305519 0.500000 0.179080
O O18 0.003006 0.000000 0.175643
#
# Coordination Sequence:
#
# PCOD9149145 Si02
#       8
#     4   4   4   4   4   2   4   2
#     4  11  20  34  54  73 100 139 182 223 268 315
#     4  11  20  34  54  73 100 139 182 223 268 315
#     4  11  23  34  45  68 102 139 180 222 266 316
#     4   9  18  34  56  82 111 142 174 208 259 327
#     4  10  20  34  53  80 113 143 175 218 263 313
#     4   9  18  34  52  72  98 134 181 234 273 306
#     4  10  20  34  53  80 113 143 175 218 263 313
#     4   9  18  34  52  72  98 134 181 234 273 306
#
# _framework density 18.604398
#
# number of rings (size 3 to 8) (size 9 to 14) (size 15 to 20)
#    0.000    1.857    2.857    2.143    0.000    5.143 
#    0.000    6.429    0.000    0.000    0.000    2.000 
#    0.000    2.286    0.000    0.000    0.000    0.000 
#
# Total GULP energy -156287.355571 kJ/mol
# GULP energy per Si atom -5581.691270 kJ/mol
# Density = 1.856205 g / cm^3
# Si number density = 18.604398 Si / 1000 Ang^3
#
#
#
# Elastic Constant Matrix: (Units=GPa)
#
#
# Indices 1 2 3 4 5 6 
#
# 1 104.2928 25.5099 13.9938 0.0000 16.9331 0.0000
# 2 25.5099 102.3417 5.4898 0.0000 11.8006 0.0000
# 3 13.9938 5.4898 -35.5005 0.0000 -6.1256 0.0000
# 4 0.0000 0.0000 0.0000 38.6588 0.0000 -34.9409
# 5 16.9331 11.8006 -6.1256 0.0000 28.8686 0.0000
# 6 0.0000 0.0000 0.0000 -34.9409 0.0000 29.5038
#
#
#
# Elastic Compliance Matrix: (Units=1/GPa)
#
#
# Indices 1 2 3 4 5 6 
#
# 1 0.010235 -0.002311 0.004389 0.000000 -0.004127 0.000000
# 2 -0.002311 0.010597 0.001198 0.000000 -0.002722 0.000000
# 3 0.004389 0.001198 -0.024816 0.000000 -0.008330 0.000000
# 4 0.000000 0.000000 0.000000 -0.367489 0.000000 -0.435212
# 5 -0.004127 -0.002722 -0.008330 0.000000 0.036406 0.000000
# 6 0.000000 0.000000 0.000000 -0.435212 0.000000 -0.481520
#
#
# Mechanical properties :
#
#
# Convention : Reuss Voigt Hill
#
# Bulk Modulus (GPa) = 389.42562 29.01344 209.21953
# Shear Modulus (GPa) = -6.08062 27.81561 10.86749
#
# Velocity S-wave (km/s) = -1.80983 3.87086 2.41951
# Velocity P-wave (km/s) = 14.33200 5.96715 10.97755
#
# Compressibility (1/GPa) = 0.00256788
#
# Stress axis : x y z
#
# Youngs Moduli (GPa) = 97.70617 94.36816 -40.29663
#
# Poissons Ratio (x) = 0.21805 0.17687
# Poissons Ratio (y) = 0.22577 0.04826
# Poissons Ratio (z) = -0.42886 -0.11301
#
# Static dielectric constant tensor:
#      x y z
#    x 1.697030 0.000000 -0.035400 
#    y 0.000000 1.620550 0.000000 
#    z -0.035400 0.000000 1.633150 
# 
# From -- ./inp_files/77835.got.cif
#   From: 2010.05.17/outbox.cif.g08.bks.cpg/sg10_39_cif.got.tgz:77835.got - 2010.06.03 11:33:40.
