data_PCOD9149271
_publ_section_title
;
Structure prediction by ZEFSAII (Michael W. Deem and Ramdas Pophale) SiO2 
 PCOD9149271
Probable space group: P 2/M
;
_chemical_formula_sum "Si O2"
_cell_formula_units_Z 21
_cell_length_a 17.001511
_cell_length_b 9.141984
_cell_length_c 7.905547
_cell_angle_alpha 90.000000
_cell_angle_beta 103.444024
_cell_angle_gamma 90.000000
_cell_volume 1195.069224
_symmetry_space_group_name_H-M "P 2/M"
_symmetry_group_IT_number 10
_symmetry_cell_setting 'monoclinic'
loop_
_space_group_symop_operation_xyz
x,y,z
-x,y,-z
-x,-y,-z
x,-y,z
loop_
_atom_site_type_symbol
_atom_site_label
_atom_site_fract_x
_atom_site_fract_y
_atom_site_fract_z
Si Si1 0.332610 0.338662 0.416304
Si Si2 0.090894 0.329289 0.093272
Si Si3 0.909106 0.329289 0.502377
Si Si4 0.748546 0.825873 0.315641
Si Si5 0.251454 0.174127 0.067093
Si Si6 0.500000 0.500000 0.500000
O O1 0.291112 0.500000 0.395555
O O2 0.304495 0.253301 0.568519
O O3 0.427413 0.375188 0.463706
O O4 0.304495 0.253300 0.235974
O O5 0.099937 0.500000 0.047004
O O6 0.100100 0.319707 0.300050
O O7 0.160386 0.233443 0.044093
O O8 0.000000 0.284012 0.000000
O O9 0.900062 0.500000 0.447066
O O10 0.839614 0.233443 0.383708
O O11 0.000000 0.284012 0.500000
O O12 0.721012 0.793030 0.110507
O O13 0.746970 0.000000 0.339746
O O14 0.253030 0.000000 0.092774
#
# Coordination Sequence:
#
# PCOD9149271 Si02
#       6
#     4   4   4   4   4   1
#     4  10  21  43  67  93 119 152 206 255 313 372
#     4  10  20  34  54  84 122 167 217 262 299 346
#     4  10  20  34  54  84 122 167 217 262 299 346
#     4  11  23  38  60  91 127 169 205 246 309 371
#     4  11  23  38  60  91 127 169 205 246 309 371
#     4   8  24  44  72 100 116 150 198 260 330 368
#
# _framework density 17.572203999999999
#
# number of rings (size 3 to 8) (size 9 to 14) (size 15 to 20)
#    0.571    1.143    1.905    2.857    0.000    5.333 
#    0.000    3.810    0.000    2.286    0.000    0.000 
#    0.000    0.000    0.000    0.000    0.000    0.000 
#
# Total GULP energy -116951.276499 kJ/mol
# GULP energy per Si atom -5569.108405 kJ/mol
# Density = 1.753221 g / cm^3
# Si number density = 17.572204 Si / 1000 Ang^3
#
#
#
# Elastic Constant Matrix: (Units=GPa)
#
#
# Indices 1 2 3 4 5 6 
#
# 1 125.9142 58.9392 70.3861 0.0000 10.2024 0.0000
# 2 58.9392 94.1533 80.6946 0.0000 -4.9127 0.0000
# 3 70.3861 80.6946 131.3189 0.0000 -11.4220 0.0000
# 4 0.0000 0.0000 0.0000 2.9350 0.0000 -1.9678
# 5 10.2024 -4.9127 -11.4220 0.0000 10.0595 0.0000
# 6 0.0000 0.0000 0.0000 -1.9678 0.0000 -5.7782
#
#
#
# Elastic Compliance Matrix: (Units=1/GPa)
#
#
# Indices 1 2 3 4 5 6 
#
# 1 0.017991 -0.004855 -0.009379 0.000000 -0.031267 0.000000
# 2 -0.004855 0.023997 -0.011868 0.000000 0.003168 0.000000
# 3 -0.009379 -0.011868 0.022479 0.000000 0.029240 0.000000
# 4 0.000000 0.000000 0.000000 0.277380 0.000000 -0.094463
# 5 -0.031267 0.003168 0.029240 0.000000 0.165866 0.000000
# 6 0.000000 0.000000 0.000000 -0.094463 0.000000 -0.140894
#
#
# Mechanical properties :
#
#
# Convention : Reuss Voigt Hill
#
# Bulk Modulus (GPa) = 81.55660 85.71401 83.63531
# Shear Modulus (GPa) = 11.81720 10.86771 11.34245
#
# Velocity S-wave (km/s) = 2.59606 2.48958 2.54338
# Velocity P-wave (km/s) = 7.44977 7.55964 7.50491
#
# Compressibility (1/GPa) = 0.01226142
#
# Stress axis : x y z
#
# Youngs Moduli (GPa) = 55.58315 41.67118 44.48687
#
# Poissons Ratio (x) = 0.20232 0.41725
# Poissons Ratio (y) = 0.26987 0.52799
# Poissons Ratio (z) = 0.52133 0.49457
#
# Static dielectric constant tensor:
#      x y z
#    x 1.574710 0.000000 -0.007510 
#    y 0.000000 1.595500 0.000000 
#    z -0.007510 0.000000 1.607960 
# 
# From -- ./inp_files/30993.got.cif
#   From: 2010.05.17/outbox.cif.g08.bks.cpg/sg10_16_cif.got.tgz:30993.got - 2010.06.03 11:33:40.
