data_PCOD9149798
_publ_section_title
;
Structure prediction by ZEFSAII (Michael W. Deem and Ramdas Pophale) SiO2 
 PCOD9149798
Probable space group: P 2/M
;
_chemical_formula_sum "Si O2"
_cell_formula_units_Z 30
_cell_length_a 12.236630
_cell_length_b 14.112068
_cell_length_c 8.898929
_cell_angle_alpha 90.000000
_cell_angle_beta 97.915169
_cell_angle_gamma 90.000000
_cell_volume 1522.063914
_symmetry_space_group_name_H-M "P 2/M"
_symmetry_group_IT_number 10
_symmetry_cell_setting 'monoclinic'
loop_
_space_group_symop_operation_xyz
x,y,z
-x,y,-z
-x,-y,-z
x,-y,z
loop_
_atom_site_type_symbol
_atom_site_label
_atom_site_fract_x
_atom_site_fract_y
_atom_site_fract_z
Si Si1 0.837751 0.392138 0.633496
Si Si2 0.341895 0.266940 0.256585
Si Si3 0.373000 0.893115 0.020604
Si Si4 0.465951 0.391099 0.819711
Si Si5 0.697075 0.898197 0.333059
Si Si6 0.500000 0.153126 0.500000
Si Si7 0.058376 0.389852 0.852214
Si Si8 0.234023 0.303881 0.686550
O O1 0.803079 0.500000 0.663413
O O2 0.770805 0.315098 0.716449
O O3 0.810022 0.370864 0.455162
O O4 0.964756 0.384995 0.705951
O O5 0.333799 0.190906 0.120801
O O6 0.426309 0.351792 0.239768
O O7 0.405118 0.211933 0.400085
O O8 0.365086 0.000000 0.086200
O O9 0.500000 0.875207 0.000000
O O10 0.313294 0.895053 0.849184
O O11 0.441417 0.500000 0.778392
O O12 0.359839 0.329322 0.754676
O O13 0.500000 0.384086 0.000000
O O14 0.574128 0.895542 0.384241
O O15 0.765024 0.802993 0.376897
O O16 0.745791 0.000000 0.388175
O O17 0.096491 0.500000 0.871695
O O18 0.158287 0.324232 0.817050
O O19 0.000000 0.366242 0.000000
#
# Coordination Sequence:
#
# PCOD9149798 Si02
#       8
#     4   4   4   4   4   2   4   4
#     4  11  24  41  63  92 126 164 204 254 308 370
#     4  12  21  37  56  89 126 162 199 248 303 374
#     4  10  20  35  56  80 115 160 207 251 294 351
#     4  11  23  35  56  89 126 168 203 246 306 373
#     4  11  23  38  59  90 123 161 207 256 306 365
#     4  12  21  36  57  88 126 164 201 242 305 364
#     4  10  24  43  67  94 118 157 214 266 309 362
#     4  12  22  42  65  89 123 166 207 256 313 369
#
# _framework density 19.710077999999999
#
# number of rings (size 3 to 8) (size 9 to 14) (size 15 to 20)
#    0.000    0.933    4.000    3.400    3.733    1.600 
#    0.000    2.000    0.000    2.800    0.000    0.000 
#    0.000    0.000    0.000    0.000    0.000    0.000 
#
# Total GULP energy -167488.036524 kJ/mol
# GULP energy per Si atom -5582.934551 kJ/mol
# Density = 1.966522 g / cm^3
# Si number density = 19.710078 Si / 1000 Ang^3
#
#
#
# Elastic Constant Matrix: (Units=GPa)
#
#
# Indices 1 2 3 4 5 6 
#
# 1 49.2232 20.2583 5.4065 0.0000 -16.2451 0.0000
# 2 20.2583 106.0189 15.1541 0.0000 -12.5927 0.0000
# 3 5.4065 15.1541 58.9339 0.0000 -6.6458 0.0000
# 4 0.0000 0.0000 0.0000 2547.0936 0.0000 -702.9478
# 5 -16.2451 -12.5927 -6.6458 0.0000 31.7200 0.0000
# 6 0.0000 0.0000 0.0000 -702.9478 0.0000 207.9477
#
#
#
# Elastic Compliance Matrix: (Units=1/GPa)
#
#
# Indices 1 2 3 4 5 6 
#
# 1 0.025632 -0.003487 -0.000134 0.000000 0.011715 0.000000
# 2 -0.003487 0.010648 -0.002195 0.000000 0.001981 0.000000
# 3 -0.000134 -0.002195 0.017861 0.000000 0.002802 0.000000
# 4 0.000000 0.000000 0.000000 0.005853 0.000000 0.019787
# 5 0.011715 0.001981 0.002802 0.000000 0.038899 0.000000
# 6 0.000000 0.000000 0.000000 0.019787 0.000000 0.071695
#
#
# Mechanical properties :
#
#
# Convention : Reuss Voigt Hill
#
# Bulk Modulus (GPa) = 23.52438 32.86820 28.19629
# Shear Modulus (GPa) = 25.45975 568.90940 297.18457
#
# Velocity S-wave (km/s) = 3.59794 17.00781 12.29249
# Velocity P-wave (km/s) = 5.40568 20.05989 14.69048
#
# Compressibility (1/GPa) = 0.04250910
#
# Stress axis : x y z
#
# Youngs Moduli (GPa) = 39.01429 93.91750 55.98864
#
# Poissons Ratio (x) = 0.32751 0.00749
# Poissons Ratio (y) = 0.13605 0.12287
# Poissons Ratio (z) = 0.00522 0.20611
#
# Static dielectric constant tensor:
#      x y z
#    x 1.634110 0.000000 -0.004430 
#    y 0.000000 1.732260 0.000000 
#    z -0.004430 0.000000 1.708930 
# 
# From -- ./inp_files/25008.got.cif
#   From: 2010.05.17/outbox.cif.g08.bks.cpg/sg10_13_cif.got.tgz:25008.got - 2010.06.03 11:33:40.
