data_PCOD9149843
_publ_section_title
;
Structure prediction by ZEFSAII (Michael W. Deem and Ramdas Pophale) SiO2 
 PCOD9149843
Probable space group: P 2/M
;
_chemical_formula_sum "Si O2"
_cell_formula_units_Z 28
_cell_length_a 14.849947
_cell_length_b 8.731152
_cell_length_c 22.181709
_cell_angle_alpha 90.000000
_cell_angle_beta 149.414946
_cell_angle_gamma 90.000000
_cell_volume 1463.365986
_symmetry_space_group_name_H-M "P 2/M"
_symmetry_group_IT_number 10
_symmetry_cell_setting 'monoclinic'
loop_
_space_group_symop_operation_xyz
x,y,z
-x,y,-z
-x,-y,-z
x,-y,z
loop_
_atom_site_type_symbol
_atom_site_label
_atom_site_fract_x
_atom_site_fract_y
_atom_site_fract_z
Si Si1 0.051912 0.681941 0.121541
Si Si2 0.263161 0.182748 0.132904
Si Si3 0.740372 0.317872 0.280638
Si Si4 0.678316 0.182160 0.371300
Si Si5 0.428025 0.182529 0.025868
Si Si6 0.987151 0.183105 0.210114
Si Si7 0.930788 0.682931 0.614557
O O1 0.068581 0.500000 0.125954
O O2 0.186416 0.763137 0.152908
O O3 0.073904 0.737884 0.202294
O O4 0.857874 0.734268 0.986468
O O5 0.469708 0.218400 0.247041
O O6 0.239358 0.000000 0.112490
O O7 0.749513 0.500000 0.294279
O O8 0.764799 0.237611 0.358832
O O9 0.552450 0.269641 0.144318
O O10 0.891831 0.272186 0.320244
O O11 0.768923 0.264826 0.479697
O O12 0.697996 0.000000 0.389087
O O13 0.443871 0.000000 0.046633
O O14 0.500000 0.212302 0.000000
O O15 0.222075 0.224144 0.910388
O O16 0.066402 0.238391 0.318910
O O17 0.000433 0.000000 0.212474
O O18 0.931759 0.500000 0.622390
#
# Coordination Sequence:
#
# PCOD9149843 Si02
#       7
#     4   4   4   4   4   4   4
#     4  11  22  37  62  93 121 150 186 233 292 349
#     4  10  21  40  63  89 118 149 191 239 288 342
#     4  11  23  37  57  85 118 155 194 240 292 342
#     4  11  24  40  61  85 112 152 199 242 286 340
#     4  10  20  35  56  83 114 151 193 235 280 336
#     4  11  22  38  60  85 118 157 195 237 287 342
#     4  11  24  40  57  82 118 156 196 241 288 341
#
# _framework density 19.133967999999999
#
# number of rings (size 3 to 8) (size 9 to 14) (size 15 to 20)
#    0.000    1.286    1.429    5.571    0.000   10.571 
#    0.000    0.714    0.000    4.286    0.000    0.000 
#    0.000    0.000    0.000    0.000    0.000    0.000 
#
# Total GULP energy -156629.404333 kJ/mol
# GULP energy per Si atom -5593.907298 kJ/mol
# Density = 1.909042 g / cm^3
# Si number density = 19.133968 Si / 1000 Ang^3
#
#
#
# Elastic Constant Matrix: (Units=GPa)
#
#
# Indices 1 2 3 4 5 6 
#
# 1 73.3043 13.0389 21.4073 0.0000 -24.0762 0.0000
# 2 13.0389 26.6983 11.8434 0.0000 -0.8870 0.0000
# 3 21.4073 11.8434 53.2515 0.0000 -13.0956 0.0000
# 4 0.0000 0.0000 0.0000 43.2781 0.0000 0.0510
# 5 -24.0762 -0.8870 -13.0956 0.0000 21.6938 0.0000
# 6 0.0000 0.0000 0.0000 0.0510 0.0000 28.0138
#
#
#
# Elastic Compliance Matrix: (Units=1/GPa)
#
#
# Indices 1 2 3 4 5 6 
#
# 1 0.024356 -0.010563 -0.001058 0.000000 0.025961 0.000000
# 2 -0.010563 0.046524 -0.010000 0.000000 -0.015858 0.000000
# 3 -0.001058 -0.010000 0.024707 0.000000 0.013332 0.000000
# 4 0.000000 0.000000 0.000000 0.023106 0.000000 -0.000042
# 5 0.025961 -0.015858 0.013332 0.000000 0.082307 0.000000
# 6 0.000000 0.000000 0.000000 -0.000042 0.000000 0.035697
#
#
# Mechanical properties :
#
#
# Convention : Reuss Voigt Hill
#
# Bulk Modulus (GPa) = 19.10452 27.31481 23.20966
# Shear Modulus (GPa) = 16.81308 25.72812 21.27060
#
# Velocity S-wave (km/s) = 2.96751 3.67090 3.33778
# Velocity P-wave (km/s) = 4.66345 5.68101 5.19719
#
# Compressibility (1/GPa) = 0.05234365
#
# Stress axis : x y z
#
# Youngs Moduli (GPa) = 41.05742 21.49438 40.47489
#
# Poissons Ratio (x) = 0.22705 0.04281
# Poissons Ratio (y) = 0.43370 0.40477
# Poissons Ratio (z) = 0.04343 0.21495
#
# Static dielectric constant tensor:
#      x y z
#    x 1.661360 0.000000 0.006730 
#    y 0.000000 1.636740 0.000000 
#    z 0.006730 0.000000 1.643580 
# 
# From -- ./inp_files/84988.got.cif
#   From: 2010.05.17/outbox.cif.g08.bks.cpg/sg10_43_cif.got.tgz:84988.got - 2010.06.03 11:33:40.
