data_PCOD9149394
_publ_section_title
;
Structure prediction by ZEFSAII (Michael W. Deem and Ramdas Pophale) SiO2 
 PCOD9149394
Probable space group: P 2/M
;
_chemical_formula_sum "Si O2"
_cell_formula_units_Z 18
_cell_length_a 7.134186
_cell_length_b 9.880610
_cell_length_c 10.861851
_cell_angle_alpha 90.000000
_cell_angle_beta 89.534560
_cell_angle_gamma 90.000000
_cell_volume 765.627804
_symmetry_space_group_name_H-M "P 2/M"
_symmetry_group_IT_number 10
_symmetry_cell_setting 'monoclinic'
loop_
_space_group_symop_operation_xyz
x,y,z
-x,y,-z
-x,-y,-z
x,-y,z
loop_
_atom_site_type_symbol
_atom_site_label
_atom_site_fract_x
_atom_site_fract_y
_atom_site_fract_z
Si Si1 0.189904 0.846623 0.829509
Si Si2 0.718017 0.345864 0.954198
Si Si3 0.373040 0.148782 0.253617
Si Si4 0.873249 0.648642 0.379859
Si Si5 0.500000 0.736740 0.500000
O O1 0.411304 0.854924 0.794291
O O2 0.098744 0.772026 0.713302
O O3 0.127077 0.000000 0.853029
O O4 0.181861 0.746935 0.945101
O O5 0.784842 0.500000 0.946207
O O6 0.719784 0.267896 0.824419
O O7 0.500000 0.351523 0.000000
O O8 0.388223 0.177504 0.398485
O O9 0.292182 0.000000 0.229609
O O10 0.907370 0.500000 0.322823
O O11 0.656822 0.654570 0.425299
O O12 0.000000 0.660528 0.500000
#
# Coordination Sequence:
#
# PCOD9149394 Si02
#       5
#     4   4   4   4   2
#     4   9  17  30  49  73 103 139 178 220 265 314
#     4   9  16  26  44  72 104 138 178 221 265 315
#     4   9  17  29  47  73 105 140 178 219 264 314
#     4  10  21  36  55  80 109 141 177 218 264 314
#     4  10  20  34  56  80 108 142 178 218 262 314
#
# _framework density 23.510117999999999
#
# number of rings (size 3 to 8) (size 9 to 14) (size 15 to 20)
#    0.000    2.667    0.000    2.000    0.000   10.222 
#    0.000    0.000    0.000    1.333    0.000    7.778 
#    0.000    0.000    0.000    0.000    0.000    0.000 
#
# Total GULP energy -100661.931307 kJ/mol
# GULP energy per Si atom -5592.329517 kJ/mol
# Density = 2.345661 g / cm^3
# Si number density = 23.510118 Si / 1000 Ang^3
#
#
#
# Elastic Constant Matrix: (Units=GPa)
#
#
# Indices 1 2 3 4 5 6 
#
# 1 75.7538 13.5866 1.7989 0.0000 -7.9332 0.0000
# 2 13.5866 262.9618 108.4078 0.0000 20.6323 0.0000
# 3 1.7989 108.4078 137.3412 0.0000 18.3751 0.0000
# 4 0.0000 0.0000 0.0000 18.1618 0.0000 -19.1782
# 5 -7.9332 20.6323 18.3751 0.0000 27.8858 0.0000
# 6 0.0000 0.0000 0.0000 -19.1782 0.0000 68.4350
#
#
#
# Elastic Compliance Matrix: (Units=1/GPa)
#
#
# Indices 1 2 3 4 5 6 
#
# 1 0.013895 -0.001117 0.000066 0.000000 0.004736 0.000000
# 2 -0.001117 0.005774 -0.004309 0.000000 -0.001751 0.000000
# 3 0.000066 -0.004309 0.011244 0.000000 -0.004202 0.000000
# 4 0.000000 0.000000 0.000000 0.078202 0.000000 0.021915
# 5 0.004736 -0.001751 -0.004202 0.000000 0.041272 0.000000
# 6 0.000000 0.000000 0.000000 0.021915 0.000000 0.020754
#
#
# Mechanical properties :
#
#
# Convention : Reuss Voigt Hill
#
# Bulk Modulus (GPa) = 49.52061 80.40482 64.96271
# Shear Modulus (GPa) = 26.51217 46.38075 36.44646
#
# Velocity S-wave (km/s) = 3.36176 4.44644 3.94159
# Velocity P-wave (km/s) = 6.01480 7.78688 6.95749
#
# Compressibility (1/GPa) = 0.02019361
#
# Stress axis : x y z
#
# Youngs Moduli (GPa) = 71.96658 173.18140 88.93871
#
# Poissons Ratio (x) = 0.19338 -0.00585
# Poissons Ratio (y) = 0.08036 0.38324
# Poissons Ratio (z) = -0.00473 0.74624
#
# Static dielectric constant tensor:
#      x y z
#    x 1.924020 0.000000 0.002000 
#    y 0.000000 1.852920 0.000000 
#    z 0.002000 0.000000 1.847640 
# 
# From -- ./inp_files/22262.got.cif
#   From: 2010.05.17/outbox.cif.g08.bks.cpg/sg10_12_cif.got.tgz:22262.got - 2010.06.03 11:33:40.
