data_PCOD9149989
_publ_section_title
;
Structure prediction by ZEFSAII (Michael W. Deem and Ramdas Pophale) SiO2 
 PCOD9149989
Probable space group: P 2/M
;
_chemical_formula_sum "Si O2"
_cell_formula_units_Z 28
_cell_length_a 7.758237
_cell_length_b 14.438671
_cell_length_c 18.295815
_cell_angle_alpha 90.000000
_cell_angle_beta 127.113451
_cell_angle_gamma 90.000000
_cell_volume 1634.335783
_symmetry_space_group_name_H-M "P 2/M"
_symmetry_group_IT_number 10
_symmetry_cell_setting 'monoclinic'
loop_
_space_group_symop_operation_xyz
x,y,z
-x,y,-z
-x,-y,-z
x,-y,z
loop_
_atom_site_type_symbol
_atom_site_label
_atom_site_fract_x
_atom_site_fract_y
_atom_site_fract_z
Si Si1 0.164735 0.111310 0.202131
Si Si2 0.321722 0.395239 0.139245
Si Si3 0.685539 0.891360 0.600615
Si Si4 0.537153 0.791806 0.221037
Si Si5 0.897476 0.106431 0.394909
Si Si6 0.829740 0.394657 0.066345
Si Si7 0.295466 0.204159 0.898206
O O1 0.271051 0.144328 0.306685
O O2 0.315016 0.152639 0.177329
O O3 0.921949 0.149641 0.136944
O O4 0.163125 0.000000 0.200373
O O5 0.400246 0.500000 0.169761
O O6 0.477706 0.316016 0.207664
O O7 0.087076 0.387519 0.117850
O O8 0.276732 0.381462 0.041098
O O9 0.500000 0.850917 0.500000
O O10 0.910299 0.886943 0.614588
O O11 0.627261 0.000000 0.595881
O O12 0.706630 0.825662 0.324568
O O13 0.641578 0.812675 0.169319
O O14 0.000000 0.123977 0.500000
O O15 0.815026 0.000000 0.373401
O O16 0.781382 0.500000 0.078515
O O17 0.752107 0.312950 0.098607
O O18 0.500000 0.177530 0.000000
#
# Coordination Sequence:
#
# PCOD9149989 Si02
#       7
#     4   4   4   4   4   4   4
#     4  11  24  40  55  77 115 157 197 239 285 337
#     4   9  18  34  60  86 112 146 186 235 292 349
#     4   9  17  33  56  80 108 141 182 238 293 332
#     4  12  22  36  61  85 116 148 193 241 291 339
#     4  10  20  35  57  87 115 145 193 242 285 338
#     4   9  18  36  59  84 113 145 186 240 294 339
#     4  12  24  37  58  83 115 154 197 239 279 348
#
# _framework density 17.132342000000001
#
# number of rings (size 3 to 8) (size 9 to 14) (size 15 to 20)
#    0.000    1.714    4.286    2.143    0.000    4.571 
#    0.000    0.714    0.000    0.429    0.000    0.000 
#    0.000    5.143    0.000    0.000    0.000    0.000 
#
# Total GULP energy -156308.353807 kJ/mol
# GULP energy per Si atom -5582.441207 kJ/mol
# Density = 1.709335 g / cm^3
# Si number density = 17.132342 Si / 1000 Ang^3
#
#
#
# Elastic Constant Matrix: (Units=GPa)
#
#
# Indices 1 2 3 4 5 6 
#
# 1 92.2438 40.9244 25.1840 0.0000 0.5675 0.0000
# 2 40.9244 95.0292 52.0119 0.0000 12.2165 0.0000
# 3 25.1840 52.0119 75.7062 0.0000 15.5391 0.0000
# 4 0.0000 0.0000 0.0000 17.9061 0.0000 11.6120
# 5 0.5675 12.2165 15.5391 0.0000 28.2034 0.0000
# 6 0.0000 0.0000 0.0000 11.6120 0.0000 20.8991
#
#
#
# Elastic Compliance Matrix: (Units=1/GPa)
#
#
# Indices 1 2 3 4 5 6 
#
# 1 0.013630 -0.005504 -0.001337 0.000000 0.002846 0.000000
# 2 -0.005504 0.019114 -0.010851 0.000000 -0.002190 0.000000
# 3 -0.001337 -0.010851 0.022706 0.000000 -0.007783 0.000000
# 4 0.000000 0.000000 0.000000 0.087304 0.000000 -0.048508
# 5 0.002846 -0.002190 -0.007783 0.000000 0.040636 0.000000
# 6 0.000000 0.000000 0.000000 -0.048508 0.000000 0.074801
#
#
# Mechanical properties :
#
#
# Convention : Reuss Voigt Hill
#
# Bulk Modulus (GPa) = 49.83580 55.46884 52.65232
# Shear Modulus (GPa) = 16.65196 23.05900 19.85548
#
# Velocity S-wave (km/s) = 3.12101 3.67268 3.40802
# Velocity P-wave (km/s) = 6.49149 7.10153 6.80335
#
# Compressibility (1/GPa) = 0.02006590
#
# Stress axis : x y z
#
# Youngs Moduli (GPa) = 73.36638 52.31715 44.04029
#
# Poissons Ratio (x) = 0.28795 0.05888
# Poissons Ratio (y) = 0.40381 0.47790
# Poissons Ratio (z) = 0.09809 0.56772
#
# Static dielectric constant tensor:
#      x y z
#    x 1.611560 0.000000 0.001100 
#    y 0.000000 1.569170 0.000000 
#    z 0.001100 0.000000 1.577430 
# 
# From -- ./inp_files/75330.got.cif
#   From: 2010.05.17/outbox.cif.g08.bks.cpg/sg10_38_cif.got.tgz:75330.got - 2010.06.03 11:33:40.
