data_PCOD9149534
_publ_section_title
;
Structure prediction by ZEFSAII (Michael W. Deem and Ramdas Pophale) SiO2 
 PCOD9149534
Probable space group: P 2/M
;
_chemical_formula_sum "Si O2"
_cell_formula_units_Z 30
_cell_length_a 15.899051
_cell_length_b 18.017664
_cell_length_c 5.749134
_cell_angle_alpha 90.000000
_cell_angle_beta 61.535021
_cell_angle_gamma 90.000000
_cell_volume 1447.820253
_symmetry_space_group_name_H-M "P 2/M"
_symmetry_group_IT_number 10
_symmetry_cell_setting 'monoclinic'
loop_
_space_group_symop_operation_xyz
x,y,z
-x,y,-z
-x,-y,-z
x,-y,z
loop_
_atom_site_type_symbol
_atom_site_label
_atom_site_fract_x
_atom_site_fract_y
_atom_site_fract_z
Si Si1 0.264934 0.317491 0.377657
Si Si2 0.108855 0.148608 0.274085
Si Si3 0.611282 0.842753 0.378126
Si Si4 0.608149 0.662336 0.404994
Si Si5 0.893491 0.711890 0.044262
Si Si6 0.056326 0.000000 0.169317
Si Si7 0.701359 0.155200 0.766167
Si Si8 0.208085 0.412745 0.066899
O O1 0.355515 0.353800 0.383184
O O2 0.188298 0.282336 0.655635
O O3 0.305062 0.244738 0.200482
O O4 0.205557 0.380797 0.328681
O O5 0.186002 0.136131 0.374270
O O6 0.000000 0.155838 0.500000
O O7 0.113408 0.076806 0.104147
O O8 0.129377 0.224800 0.113608
O O9 0.500000 0.863524 0.500000
O O10 0.615058 0.752096 0.375292
O O11 0.653552 0.864988 0.579286
O O12 0.660461 0.871124 0.072452
O O13 0.500000 0.640022 0.500000
O O14 0.688956 0.620583 0.149343
O O15 0.874557 0.631072 0.960430
O O16 0.000000 0.721821 0.000000
O O17 0.000000 0.000000 0.500000
O O18 0.000000 0.000000 0.000000
O O19 0.203510 0.500000 0.049851
#
# Coordination Sequence:
#
# PCOD9149534 Si02
#       8
#     4   4   4   4   4   2   4   4
#     4  10  20  37  55  82 117 151 202 260 307 366
#     4  11  22  40  68  97 131 165 205 250 310 386
#     4  10  20  34  58  91 124 159 213 272 317 361
#     4   9  19  35  56  79 111 155 200 251 322 386
#     4  11  23  39  63  84 112 160 208 251 307 373
#     4  10  24  42  62 100 143 172 201 254 316 380
#     4  11  19  35  59  88 124 165 209 255 309 379
#     4  11  23  39  55  80 116 153 205 268 319 363
#
# _framework density 20.720803
#
# number of rings (size 3 to 8) (size 9 to 14) (size 15 to 20)
#    0.000    1.600    2.667    3.200    0.000    6.400 
#    0.000    1.333    0.000    0.000    0.000    2.800 
#    0.000    0.000    0.000    0.000    0.000    0.000 
#
# Total GULP energy -167122.195312 kJ/mol
# GULP energy per Si atom -5570.739844 kJ/mol
# Density = 2.067364 g / cm^3
# Si number density = 20.720803 Si / 1000 Ang^3
#
#
#
# Elastic Constant Matrix: (Units=GPa)
#
#
# Indices 1 2 3 4 5 6 
#
# 1 171.7065 4.8102 54.1908 0.0000 19.7075 0.0000
# 2 4.8102 17.8006 5.8576 0.0000 -2.7417 0.0000
# 3 54.1908 5.8576 78.5384 0.0000 15.1889 0.0000
# 4 0.0000 0.0000 0.0000 -36.7412 0.0000 -3.7754
# 5 19.7075 -2.7417 15.1889 0.0000 29.4254 0.0000
# 6 0.0000 0.0000 0.0000 -3.7754 0.0000 0.9464
#
#
#
# Elastic Compliance Matrix: (Units=1/GPa)
#
#
# Indices 1 2 3 4 5 6 
#
# 1 0.007643 -0.000964 -0.004660 0.000000 -0.002804 0.000000
# 2 -0.000964 0.059656 -0.005537 0.000000 0.009062 0.000000
# 3 -0.004660 -0.005537 0.017615 0.000000 -0.006488 0.000000
# 4 0.000000 0.000000 0.000000 -0.019304 0.000000 -0.077007
# 5 -0.002804 0.009062 -0.006488 0.000000 0.040055 0.000000
# 6 0.000000 0.000000 0.000000 -0.077007 0.000000 0.749415
#
#
# Mechanical properties :
#
#
# Convention : Reuss Voigt Hill
#
# Bulk Modulus (GPa) = 15.97598 44.19586 30.08592
# Shear Modulus (GPa) = 5.56628 12.27194 8.91911
#
# Velocity S-wave (km/s) = 1.64078 2.43626 2.07696
# Velocity P-wave (km/s) = 3.36398 5.41196 4.50587
#
# Compressibility (1/GPa) = 0.06259397
#
# Stress axis : x y z
#
# Youngs Moduli (GPa) = 130.83384 16.76278 56.76837
#
# Poissons Ratio (x) = 0.01616 0.26452
# Poissons Ratio (y) = 0.12611 0.31431
# Poissons Ratio (z) = 0.60965 0.09281
#
# Static dielectric constant tensor:
#      x y z
#    x 1.790610 0.000000 0.039380 
#    y 0.000000 1.724570 0.000000 
#    z 0.039380 0.000000 1.899370 
# 
# From -- ./inp_files/9809.got.cif
#   From: 2010.05.17/outbox.cif.g08.bks.cpg/sg10_5_cif.got.tgz:9809.got - 2010.06.03 11:33:40.
