data_PCOD9149135
_publ_section_title
;
Structure prediction by ZEFSAII (Michael W. Deem and Ramdas Pophale) SiO2 
 PCOD9149135
Probable space group: P 2/M
;
_chemical_formula_sum "Si O2"
_cell_formula_units_Z 32
_cell_length_a 21.723518
_cell_length_b 9.103551
_cell_length_c 14.565145
_cell_angle_alpha 90.000000
_cell_angle_beta 35.926239
_cell_angle_gamma 90.000000
_cell_volume 1690.066951
_symmetry_space_group_name_H-M "P 2/M"
_symmetry_group_IT_number 10
_symmetry_cell_setting 'monoclinic'
loop_
_space_group_symop_operation_xyz
x,y,z
-x,y,-z
-x,-y,-z
x,-y,z
loop_
_atom_site_type_symbol
_atom_site_label
_atom_site_fract_x
_atom_site_fract_y
_atom_site_fract_z
Si Si1 0.232731 0.329634 0.370403
Si Si2 0.704173 0.176811 0.189892
Si Si3 0.405721 0.825606 0.043511
Si Si4 0.539565 0.822995 0.228764
Si Si5 0.941211 0.828059 0.867034
Si Si6 0.964273 0.164002 0.438792
Si Si7 0.158569 0.323165 0.655301
Si Si8 0.657018 0.323691 0.434852
O O1 0.259461 0.500000 0.338012
O O2 0.306710 0.246619 0.211070
O O3 0.115748 0.295407 0.478868
O O4 0.227535 0.277388 0.482552
O O5 0.636457 0.207207 0.180485
O O6 0.652980 0.255898 0.338573
O O7 0.702661 0.000000 0.204948
O O8 0.825859 0.224574 0.034589
O O9 0.388563 0.000000 0.058557
O O10 0.500000 0.797317 0.000000
O O11 0.433047 0.774886 0.907877
O O12 0.436332 0.744094 0.391909
O O13 0.522364 0.000000 0.249014
O O14 0.950305 0.819869 0.744824
O O15 0.043177 0.747210 0.785675
O O16 0.949636 0.000000 0.881646
O O17 0.000000 0.164942 0.500000
O O18 0.915877 0.000000 0.480490
O O19 0.146724 0.500000 0.665468
O O20 0.229677 0.285697 0.656877
O O21 0.648096 0.500000 0.443878
#
# Coordination Sequence:
#
# PCOD9149135 Si02
#       8
#     4   4   4   4   4   4   4   4
#     4  10  20  34  53  79 112 148 182 221 273 330
#     4  10  22  39  58  82 114 148 185 230 284 337
#     4  10  21  36  57  85 113 145 187 231 274 327
#     4  10  22  39  60  83 114 150 184 231 285 335
#     4   9  19  35  56  84 112 145 188 232 276 330
#     4   9  18  32  55  80 107 145 185 225 268 320
#     4   9  20  38  57  80 114 152 185 229 284 334
#     4  11  23  39  60  83 109 145 191 237 284 336
#
# _framework density 18.934159999999999
#
# number of rings (size 3 to 8) (size 9 to 14) (size 15 to 20)
#    0.000    2.250    0.000    1.875    1.750    5.500 
#    0.000    2.500    0.000    0.000    0.000    0.000 
#    0.000    0.000    0.000    0.000    0.000    0.000 
#
# Total GULP energy -178469.331226 kJ/mol
# GULP energy per Si atom -5577.166601 kJ/mol
# Density = 1.889107 g / cm^3
# Si number density = 18.934160 Si / 1000 Ang^3
#
#
#
# Elastic Constant Matrix: (Units=GPa)
#
#
# Indices 1 2 3 4 5 6 
#
# 1 111.4267 15.2870 37.9451 0.0000 16.4523 0.0000
# 2 15.2870 32.6993 19.9260 0.0000 -0.8775 0.0000
# 3 37.9451 19.9260 87.2403 0.0000 -1.9351 0.0000
# 4 0.0000 0.0000 0.0000 29.2645 0.0000 15.4443
# 5 16.4523 -0.8775 -1.9351 0.0000 24.5141 0.0000
# 6 0.0000 0.0000 0.0000 15.4443 0.0000 30.0585
#
#
#
# Elastic Compliance Matrix: (Units=1/GPa)
#
#
# Indices 1 2 3 4 5 6 
#
# 1 0.012346 -0.003040 -0.004871 0.000000 -0.008779 0.000000
# 2 -0.003040 0.036285 -0.006903 0.000000 0.002794 0.000000
# 3 -0.004871 -0.006903 0.015252 0.000000 0.004226 0.000000
# 4 0.000000 0.000000 0.000000 0.046884 0.000000 -0.024090
# 5 -0.008779 0.002794 0.004226 0.000000 0.047119 0.000000
# 6 0.000000 0.000000 0.000000 -0.024090 0.000000 0.045646
#
#
# Mechanical properties :
#
#
# Convention : Reuss Voigt Hill
#
# Bulk Modulus (GPa) = 29.19262 41.96471 35.57867
# Shear Modulus (GPa) = 20.44345 27.31463 23.87904
#
# Velocity S-wave (km/s) = 3.28946 3.80229 3.55514
# Velocity P-wave (km/s) = 5.46616 6.44113 5.97357
#
# Compressibility (1/GPa) = 0.03425523
#
# Stress axis : x y z
#
# Youngs Moduli (GPa) = 80.99512 27.55997 65.56713
#
# Poissons Ratio (x) = 0.08377 0.31935
# Poissons Ratio (y) = 0.24619 0.45264
# Poissons Ratio (z) = 0.39449 0.19026
#
# Static dielectric constant tensor:
#      x y z
#    x 1.775340 0.000000 -0.190360 
#    y 0.000000 1.644430 0.000000 
#    z -0.190360 0.000000 2.048840 
# 
# From -- ./inp_files/71547.got.cif
#   From: 2010.05.17/outbox.cif.g08.bks.cpg/sg10_36_cif.got.tgz:71547.got - 2010.06.03 11:33:40.
