data_PCOD9149866
_publ_section_title
;
Structure prediction by ZEFSAII (Michael W. Deem and Ramdas Pophale) SiO2 
 PCOD9149866
Probable space group: P 2/M
;
_chemical_formula_sum "Si O2"
_cell_formula_units_Z 20
_cell_length_a 31.273731
_cell_length_b 7.800409
_cell_length_c 10.510102
_cell_angle_alpha 90.000000
_cell_angle_beta 25.808031
_cell_angle_gamma 90.000000
_cell_volume 1116.220061
_symmetry_space_group_name_H-M "P 2/M"
_symmetry_group_IT_number 10
_symmetry_cell_setting 'monoclinic'
loop_
_space_group_symop_operation_xyz
x,y,z
-x,y,-z
-x,-y,-z
x,-y,z
loop_
_atom_site_type_symbol
_atom_site_label
_atom_site_fract_x
_atom_site_fract_y
_atom_site_fract_z
Si Si1 0.157113 0.500000 0.147813
Si Si2 0.512915 0.206554 0.319459
Si Si3 0.051373 0.500000 0.161079
Si Si4 0.296158 0.800600 0.866469
Si Si5 0.915104 0.804737 0.123277
Si Si6 0.276597 0.299043 0.213000
O O1 0.115806 0.500000 0.115951
O O2 0.062613 0.500000 0.493155
O O3 0.221961 0.667879 0.002538
O O4 0.500000 0.266653 0.500000
O O5 0.409512 0.248872 0.531040
O O6 0.519697 0.000000 0.302038
O O7 0.618604 0.276645 0.997110
O O8 0.074224 0.666612 0.015859
O O9 0.280261 0.000000 0.875193
O O10 0.285077 0.784105 0.049918
O O11 0.811353 0.781941 0.472006
O O12 0.925784 0.000000 0.048685
O O13 0.000000 0.772661 0.000000
O O14 0.256641 0.500000 0.248333
#
# Coordination Sequence:
#
# PCOD9149866 Si02
#       6
#     2   4   2   4   4   4
#     4  11  24  40  60  79 109 147 189 233 270 323
#     4   8  16  29  48  80 118 147 178 221 274 332
#     4  11  25  42  57  83 111 144 187 231 277 322
#     4  10  20  35  56  85 117 149 185 225 273 329
#     4  11  23  39  61  85 113 146 181 225 280 336
#     4  11  19  30  56  88 118 147 179 227 284 333
#
# _framework density 17.917614
#
# number of rings (size 3 to 8) (size 9 to 14) (size 15 to 20)
#    0.000    1.800    2.000    4.500    1.400    4.400 
#    0.000    2.000    0.000    2.400    0.000    4.200 
#    0.000    0.000    0.000    0.000    0.000    0.000 
#
# Total GULP energy -111617.558127 kJ/mol
# GULP energy per Si atom -5580.877906 kJ/mol
# Density = 1.787683 g / cm^3
# Si number density = 17.917614 Si / 1000 Ang^3
#
#
#
# Elastic Constant Matrix: (Units=GPa)
#
#
# Indices 1 2 3 4 5 6 
#
# 1 67.4651 52.5124 58.9693 0.0000 -21.8288 0.0000
# 2 52.5124 100.1645 45.3542 0.0000 -13.7525 0.0000
# 3 58.9693 45.3542 123.1951 0.0000 -24.8578 0.0000
# 4 0.0000 0.0000 0.0000 24.7054 0.0000 -11.5611
# 5 -21.8288 -13.7525 -24.8578 0.0000 28.5169 0.0000
# 6 0.0000 0.0000 0.0000 -11.5611 0.0000 10.7478
#
#
#
# Elastic Compliance Matrix: (Units=1/GPa)
#
#
# Indices 1 2 3 4 5 6 
#
# 1 0.040071 -0.014006 -0.011161 0.000000 0.014190 0.000000
# 2 -0.014006 0.017007 -0.000079 0.000000 -0.002588 0.000000
# 3 -0.011161 -0.000079 0.014267 0.000000 0.003854 0.000000
# 4 0.000000 0.000000 0.000000 0.081502 0.000000 0.087669
# 5 0.014190 -0.002588 0.003854 0.000000 0.048040 0.000000
# 6 0.000000 0.000000 0.000000 0.087669 0.000000 0.187345
#
#
# Mechanical properties :
#
#
# Convention : Reuss Voigt Hill
#
# Bulk Modulus (GPa) = 47.95742 67.16627 57.56185
# Shear Modulus (GPa) = 11.21897 21.72661 16.47279
#
# Velocity S-wave (km/s) = 2.50500 3.48600 3.03539
# Velocity P-wave (km/s) = 5.93214 7.33283 6.66936
#
# Compressibility (1/GPa) = 0.02085183
#
# Stress axis : x y z
#
# Youngs Moduli (GPa) = 24.95583 58.80046 70.09381
#
# Poissons Ratio (x) = 0.82353 0.78234
# Poissons Ratio (y) = 0.34952 0.00556
# Poissons Ratio (z) = 0.27854 0.00466
#
# Static dielectric constant tensor:
#      x y z
#    x 1.590150 0.000000 -0.029690 
#    y 0.000000 1.611860 0.000000 
#    z -0.029690 0.000000 1.626480 
# 
# From -- ./inp_files/36636.got.cif
#   From: 2010.05.17/outbox.cif.g08.bks.cpg/sg10_19_cif.got.tgz:36636.got - 2010.06.03 11:33:40.
