data_PCOD9149853
_publ_section_title
;
Structure prediction by ZEFSAII (Michael W. Deem and Ramdas Pophale) SiO2 
 PCOD9149853
Probable space group: P 2/M
;
_chemical_formula_sum "Si O2"
_cell_formula_units_Z 32
_cell_length_a 15.215141
_cell_length_b 8.677987
_cell_length_c 12.126209
_cell_angle_alpha 90.000000
_cell_angle_beta 92.977524
_cell_angle_gamma 90.000000
_cell_volume 1598.944270
_symmetry_space_group_name_H-M "P 2/M"
_symmetry_group_IT_number 10
_symmetry_cell_setting 'monoclinic'
loop_
_space_group_symop_operation_xyz
x,y,z
-x,y,-z
-x,-y,-z
x,-y,z
loop_
_atom_site_type_symbol
_atom_site_label
_atom_site_fract_x
_atom_site_fract_y
_atom_site_fract_z
Si Si1 0.676013 0.316029 0.754846
Si Si2 0.092010 0.317370 0.451606
Si Si3 0.282158 0.182791 0.482547
Si Si4 0.661524 0.683951 0.292845
Si Si5 0.499500 0.687808 0.872352
Si Si6 0.177475 0.816550 0.075524
Si Si7 0.971230 0.816558 0.773492
Si Si8 0.172771 0.186039 0.821305
O O1 0.674300 0.500000 0.741760
O O2 0.688812 0.243404 0.635311
O O3 0.586768 0.266354 0.811283
O O4 0.755600 0.268336 0.839730
O O5 0.100179 0.500000 0.469981
O O6 0.181442 0.237887 0.496721
O O7 0.080004 0.277220 0.322650
O O8 0.000000 0.263557 0.500000
O O9 0.342264 0.247068 0.584978
O O10 0.283741 0.000000 0.483217
O O11 0.656879 0.500000 0.300449
O O12 0.585358 0.737270 0.203727
O O13 0.754348 0.734819 0.247896
O O14 0.498371 0.500000 0.875730
O O15 0.500000 0.740733 0.000000
O O16 0.078857 0.792709 0.114653
O O17 0.194655 0.000000 0.083957
O O18 0.187015 0.769893 0.949740
O O19 0.073114 0.772441 0.782881
O O20 0.965318 0.000000 0.747810
O O21 0.180218 0.000000 0.812894
#
# Coordination Sequence:
#
# PCOD9149853 Si02
#       8
#     4   4   4   4   4   4   4   4
#     4  11  22  39  65  93 122 159 206 258 308 361
#     4  11  23  38  58  86 120 158 206 260 305 354
#     4  12  25  42  62  87 123 163 204 249 308 373
#     4  11  23  41  64  90 121 157 203 255 304 357
#     4   9  20  40  66  95 125 159 198 243 305 372
#     4  10  20  36  58  87 123 163 204 247 300 365
#     4  10  20  35  56  83 119 163 205 245 297 362
#     4  10  21  37  58  87 124 165 206 247 302 366
#
# _framework density 20.013204000000002
#
# number of rings (size 3 to 8) (size 9 to 14) (size 15 to 20)
#    0.000    1.500    1.250    4.125    0.000    7.000 
#    0.000    5.000    0.000    6.750    0.000    0.000 
#    0.000    0.000    0.000    0.000    0.000    0.000 
#
# Total GULP energy -178876.878160 kJ/mol
# GULP energy per Si atom -5589.902443 kJ/mol
# Density = 1.996765 g / cm^3
# Si number density = 20.013204 Si / 1000 Ang^3
#
#
#
# Elastic Constant Matrix: (Units=GPa)
#
#
# Indices 1 2 3 4 5 6 
#
# 1 117.0257 28.3346 43.3013 0.0000 7.9508 0.0000
# 2 28.3346 36.3894 18.2465 0.0000 7.0413 0.0000
# 3 43.3013 18.2465 89.3254 0.0000 21.3907 0.0000
# 4 0.0000 0.0000 0.0000 33.7402 0.0000 -3.9016
# 5 7.9508 7.0413 21.3907 0.0000 34.5207 0.0000
# 6 0.0000 0.0000 0.0000 -3.9016 0.0000 25.9083
#
#
#
# Elastic Compliance Matrix: (Units=1/GPa)
#
#
# Indices 1 2 3 4 5 6 
#
# 1 0.011926 -0.007250 -0.004693 0.000000 0.001640 0.000000
# 2 -0.007250 0.035253 -0.002777 0.000000 -0.003800 0.000000
# 3 -0.004693 -0.002777 0.016020 0.000000 -0.008279 0.000000
# 4 0.000000 0.000000 0.000000 0.030164 0.000000 0.004542
# 5 0.001640 -0.003800 -0.008279 0.000000 0.034496 0.000000
# 6 0.000000 0.000000 0.000000 0.004542 0.000000 0.039282
#
#
# Mechanical properties :
#
#
# Convention : Reuss Voigt Hill
#
# Bulk Modulus (GPa) = 29.62103 46.94503 38.28303
# Shear Modulus (GPa) = 24.05790 29.02437 26.54113
#
# Velocity S-wave (km/s) = 3.47089 3.81236 3.64563
# Velocity P-wave (km/s) = 5.55839 6.54880 6.07381
#
# Compressibility (1/GPa) = 0.03375980
#
# Stress axis : x y z
#
# Youngs Moduli (GPa) = 83.85383 28.36606 62.42312
#
# Poissons Ratio (x) = 0.20566 0.29294
# Poissons Ratio (y) = 0.60795 0.17332
# Poissons Ratio (z) = 0.39351 0.07876
#
# Static dielectric constant tensor:
#      x y z
#    x 1.701470 0.000000 -0.010010 
#    y 0.000000 1.677900 0.000000 
#    z -0.010010 0.000000 1.703020 
# 
# From -- ./inp_files/49804.got.cif
#   From: 2010.05.17/outbox.cif.g08.bks.cpg/sg10_25_cif.got.tgz:49804.got - 2010.06.03 11:33:40.
