data_PCOD9149316
_publ_section_title
;
Structure prediction by ZEFSAII (Michael W. Deem and Ramdas Pophale) SiO2 
 PCOD9149316
Probable space group: P 2/M
;
_chemical_formula_sum "Si O2"
_cell_formula_units_Z 24
_cell_length_a 12.547333
_cell_length_b 10.806096
_cell_length_c 11.958172
_cell_angle_alpha 90.000000
_cell_angle_beta 132.943181
_cell_angle_gamma 90.000000
_cell_volume 1186.898886
_symmetry_space_group_name_H-M "P 2/M"
_symmetry_group_IT_number 10
_symmetry_cell_setting 'monoclinic'
loop_
_space_group_symop_operation_xyz
x,y,z
-x,y,-z
-x,-y,-z
x,-y,z
loop_
_atom_site_type_symbol
_atom_site_label
_atom_site_fract_x
_atom_site_fract_y
_atom_site_fract_z
Si Si1 0.206189 0.351342 0.825315
Si Si2 0.443587 0.732151 0.158109
Si Si3 0.522313 0.000000 0.146235
Si Si4 0.215990 0.725119 0.581707
Si Si5 0.075291 0.639429 0.267712
Si Si6 0.351685 0.350381 0.331183
Si Si7 0.846355 0.000000 0.453513
O O1 0.194896 0.500000 0.804266
O O2 0.175626 0.289654 0.683211
O O3 0.084538 0.305715 0.827311
O O4 0.361811 0.319281 0.990429
O O5 0.454998 0.879200 0.153429
O O6 0.612257 0.694697 0.294072
O O7 0.361360 0.688607 0.209897
O O8 0.697124 0.000000 0.277050
O O9 0.500000 0.000000 0.000000
O O10 0.138680 0.636375 0.439034
O O11 0.173095 0.863246 0.506710
O O12 0.052101 0.500000 0.208144
O O13 0.204014 0.696003 0.285143
O O14 0.500000 0.308226 0.500000
O O15 0.350525 0.500000 0.337722
O O16 0.000000 0.000000 0.500000
#
# Coordination Sequence:
#
# PCOD9149316 Si02
#       7
#     4   4   2   4   4   4   2
#     4  11  23  35  55  87 117 147 189 244 294 345
#     4  11  22  38  59  84 113 152 196 235 284 346
#     4  10  22  40  60  85 118 157 189 234 296 346
#     4  11  21  36  57  83 116 151 191 237 292 351
#     4  10  21  37  57  83 116 153 189 234 295 346
#     4  10  20  37  61  84 113 155 196 236 286 344
#     4  10  20  34  55  81 109 148 189 227 275 336
#
# _framework density 20.220762000000001
#
# number of rings (size 3 to 8) (size 9 to 14) (size 15 to 20)
#    0.000    1.500    1.667    5.000    0.000    4.667 
#    0.000    3.750    0.000    1.000    0.000    0.000 
#    0.000    0.000    0.000    0.000    0.000    0.000 
#
# Total GULP energy -133799.378049 kJ/mol
# GULP energy per Si atom -5574.974085 kJ/mol
# Density = 2.017474 g / cm^3
# Si number density = 20.220762 Si / 1000 Ang^3
#
#
#
# Elastic Constant Matrix: (Units=GPa)
#
#
# Indices 1 2 3 4 5 6 
#
# 1 130.8021 1.0310 10.2725 0.0000 11.0390 0.0000
# 2 1.0310 45.5397 11.8057 0.0000 10.2056 0.0000
# 3 10.2725 11.8057 32.8810 0.0000 3.3766 0.0000
# 4 0.0000 0.0000 0.0000 -163.7203 0.0000 344.1216
# 5 11.0390 10.2056 3.3766 0.0000 29.4876 0.0000
# 6 0.0000 0.0000 0.0000 344.1216 0.0000 -614.8182
#
#
#
# Elastic Compliance Matrix: (Units=1/GPa)
#
#
# Indices 1 2 3 4 5 6 
#
# 1 0.008109 0.001208 -0.002643 0.000000 -0.003151 0.000000
# 2 0.001208 0.026137 -0.008891 0.000000 -0.008480 0.000000
# 3 -0.002643 -0.008891 0.034418 0.000000 0.000125 0.000000
# 4 0.000000 0.000000 0.000000 0.034615 0.000000 0.019375
# 5 -0.003151 -0.008480 0.000125 0.000000 0.038013 0.000000
# 6 0.000000 0.000000 0.000000 0.019375 0.000000 0.009218
#
#
# Mechanical properties :
#
#
# Convention : Reuss Voigt Hill
#
# Bulk Modulus (GPa) = 20.82857 28.38234 24.60545
# Shear Modulus (GPa) = 26.71433 -137.40258 -55.34413
#
# Velocity S-wave (km/s) = 3.63868 -8.25220 -5.23731
# Velocity P-wave (km/s) = 5.28926 8.75966 4.93737
#
# Compressibility (1/GPa) = 0.04801099
#
# Stress axis : x y z
#
# Youngs Moduli (GPa) = 123.31731 38.26041 29.05476
#
# Poissons Ratio (x) = -0.04621 0.07681
# Poissons Ratio (y) = -0.14895 0.25832
# Poissons Ratio (z) = 0.32599 0.34016
#
# Static dielectric constant tensor:
#      x y z
#    x 1.787050 0.000000 0.020280 
#    y 0.000000 1.762630 0.000000 
#    z 0.020280 0.000000 1.699490 
# 
# From -- ./inp_files/46803.got.cif
#   From: 2010.05.17/outbox.cif.g08.bks.cpg/sg10_24_cif.got.tgz:46803.got - 2010.06.03 11:33:40.
