data_PCOD9149758
_publ_section_title
;
Structure prediction by ZEFSAII (Michael W. Deem and Ramdas Pophale) SiO2 
 PCOD9149758
Probable space group: P 2/M
;
_chemical_formula_sum "Si O2"
_cell_formula_units_Z 32
_cell_length_a 21.040455
_cell_length_b 14.218218
_cell_length_c 5.440199
_cell_angle_alpha 90.000000
_cell_angle_beta 71.685346
_cell_angle_gamma 90.000000
_cell_volume 1545.038172
_symmetry_space_group_name_H-M "P 2/M"
_symmetry_group_IT_number 10
_symmetry_cell_setting 'monoclinic'
loop_
_space_group_symop_operation_xyz
x,y,z
-x,y,-z
-x,-y,-z
x,-y,z
loop_
_atom_site_type_symbol
_atom_site_label
_atom_site_fract_x
_atom_site_fract_y
_atom_site_fract_z
Si Si1 0.600904 0.391482 0.343412
Si Si2 0.716716 0.763506 0.724054
Si Si3 0.179525 0.110924 0.660380
Si Si4 0.745504 0.606949 0.350034
Si Si5 0.572855 0.281452 0.885978
Si Si6 0.835854 0.256619 0.959157
Si Si7 0.036031 0.114329 0.702107
Si Si8 0.042963 0.607289 0.199049
O O1 0.581974 0.500000 0.408851
O O2 0.682296 0.388255 0.243181
O O3 0.578665 0.328929 0.606679
O O4 0.575753 0.355264 0.110515
O O5 0.751949 0.837481 0.496268
O O6 0.716262 0.656949 0.624194
O O7 0.638395 0.783444 0.853174
O O8 0.771436 0.757798 0.868305
O O9 0.114597 0.139099 0.579217
O O10 0.187786 0.000000 0.650082
O O11 0.153741 0.152632 0.948745
O O12 0.765038 0.500000 0.362231
O O13 0.806975 0.672253 0.202854
O O14 0.500000 0.234802 0.000000
O O15 0.901318 0.314068 0.811134
O O16 0.000000 0.146963 0.500000
O O17 0.033726 0.000000 0.712157
O O18 0.000000 0.146027 0.000000
O O19 0.070772 0.500000 0.131762
O O20 0.000000 0.604446 0.500000
O O21 0.000000 0.626807 0.000000
#
# Coordination Sequence:
#
# PCOD9149758 Si02
#       8
#     4   4   4   4   4   4   4   4
#     4  10  20  35  55  86 125 165 208 249 301 376
#     4  10  23  40  60  93 123 160 217 260 314 388
#     4  10  24  43  64  91 125 166 207 266 332 388
#     4   9  19  35  58  87 123 163 206 257 307 364
#     4  11  22  38  59  86 126 168 206 257 317 376
#     4  11  22  40  63  90 120 164 214 271 311 379
#     4   9  19  37  60  88 119 152 193 238 300 380
#     4  10  24  44  65  92 128 172 219 265 315 366
#
# _framework density 20.711462999999998
#
# number of rings (size 3 to 8) (size 9 to 14) (size 15 to 20)
#    0.000    2.000    1.250    1.125    5.250    4.000 
#    0.000    0.000    0.000    0.750    0.000    0.875 
#    0.000    0.000    0.000    0.000    0.000    0.000 
#
# Total GULP energy -178283.390818 kJ/mol
# GULP energy per Si atom -5571.355963 kJ/mol
# Density = 2.066432 g / cm^3
# Si number density = 20.711463 Si / 1000 Ang^3
#
#
#
# Elastic Constant Matrix: (Units=GPa)
#
#
# Indices 1 2 3 4 5 6 
#
# 1 112.3582 29.8182 36.6584 0.0000 -18.5253 0.0000
# 2 29.8182 62.0637 14.3154 0.0000 -11.5557 0.0000
# 3 36.6584 14.3154 89.2407 0.0000 -2.1921 0.0000
# 4 0.0000 0.0000 0.0000 -3.2969 0.0000 1.2218
# 5 -18.5253 -11.5557 -2.1921 0.0000 39.6454 0.0000
# 6 0.0000 0.0000 0.0000 1.2218 0.0000 15.0961
#
#
#
# Elastic Compliance Matrix: (Units=1/GPa)
#
#
# Indices 1 2 3 4 5 6 
#
# 1 0.012032 -0.004029 -0.004193 0.000000 0.004216 0.000000
# 2 -0.004029 0.019018 -0.001308 0.000000 0.003588 0.000000
# 3 -0.004193 -0.001308 0.013098 0.000000 -0.001616 0.000000
# 4 0.000000 0.000000 0.000000 -0.294485 0.000000 0.023834
# 5 0.004216 0.003588 -0.001616 0.000000 0.028150 0.000000
# 6 0.000000 0.000000 0.000000 0.023834 0.000000 0.064313
#
#
# Mechanical properties :
#
#
# Convention : Reuss Voigt Hill
#
# Bulk Modulus (GPa) = 39.85685 47.24961 43.55323
# Shear Modulus (GPa) = -38.32838 22.48031 -7.92403
#
# Velocity S-wave (km/s) = -4.30651 3.29812 -1.95812
# Velocity P-wave (km/s) = 2.33290 6.11280 3.99524
#
# Compressibility (1/GPa) = 0.02508979
#
# Stress axis : x y z
#
# Youngs Moduli (GPa) = 83.10876 52.58232 76.34720
#
# Poissons Ratio (x) = 0.21184 0.32011
# Poissons Ratio (y) = 0.33483 0.09983
# Poissons Ratio (z) = 0.34846 0.06876
#
# Static dielectric constant tensor:
#      x y z
#    x 1.690330 0.000000 -0.048040 
#    y 0.000000 1.736120 0.000000 
#    z -0.048040 0.000000 1.833070 
# 
# From -- ./inp_files/12698.got.cif
#   From: 2010.05.17/outbox.cif.g08.bks.cpg/sg10_7_cif.got.tgz:12698.got - 2010.06.03 11:33:40.
