data_PCOD9149600
_publ_section_title
;
Structure prediction by ZEFSAII (Michael W. Deem and Ramdas Pophale) SiO2 
 PCOD9149600
Probable space group: P 2/M
;
_chemical_formula_sum "Si O2"
_cell_formula_units_Z 28
_cell_length_a 32.361816
_cell_length_b 7.576189
_cell_length_c 9.717195
_cell_angle_alpha 90.000000
_cell_angle_beta 145.688363
_cell_angle_gamma 90.000000
_cell_volume 1342.974842
_symmetry_space_group_name_H-M "P 2/M"
_symmetry_group_IT_number 10
_symmetry_cell_setting 'monoclinic'
loop_
_space_group_symop_operation_xyz
x,y,z
-x,y,-z
-x,-y,-z
x,-y,z
loop_
_atom_site_type_symbol
_atom_site_label
_atom_site_fract_x
_atom_site_fract_y
_atom_site_fract_z
Si Si1 0.713048 0.792234 0.929170
Si Si2 0.071787 0.297605 0.772914
Si Si3 0.420543 0.286354 0.231297
Si Si4 0.761293 0.703365 0.766656
Si Si5 0.056569 0.212274 0.041591
Si Si6 0.337386 0.698113 0.747575
Si Si7 0.211875 0.788208 0.602577
O O1 0.640299 0.760149 0.820572
O O2 0.722937 0.704603 0.809356
O O3 0.718079 0.000000 0.916415
O O4 0.778812 0.738464 0.213006
O O5 0.077963 0.500000 0.738285
O O6 0.000000 0.217619 0.500000
O O7 0.155369 0.220910 0.992981
O O8 0.052347 0.294115 0.880279
O O9 0.500000 0.226306 0.500000
O O10 0.421094 0.500000 0.223529
O O11 0.399570 0.220807 0.019087
O O12 0.772111 0.500000 0.749712
O O13 0.703911 0.782588 0.497407
O O14 0.135228 0.246659 0.323272
O O15 0.047601 0.000000 0.000067
O O16 0.000000 0.274672 0.000000
O O17 0.361667 0.500000 0.773493
O O18 0.272398 0.691443 0.680179
O O19 0.226232 0.000000 0.633885
#
# Coordination Sequence:
#
# PCOD9149600 Si02
#       7
#     4   4   4   4   4   4   4
#     4  10  21  34  53  80 108 139 176 214 258 310
#     4  10  22  38  53  75 106 140 179 223 268 309
#     4   9  18  35  59  84 108 135 170 213 261 313
#     4  10  20  35  53  75 106 140 176 218 260 310
#     4  10  21  35  52  74 102 135 175 220 266 315
#     4   9  17  32  55  78 100 132 172 211 256 307
#     4   9  18  33  50  72 100 132 173 218 258 304
#
# _framework density 20.849235
#
# number of rings (size 3 to 8) (size 9 to 14) (size 15 to 20)
#    0.000    2.429    1.429    0.429    2.000    2.571 
#    0.000    0.714    0.000    4.286    0.000    0.000 
#    0.000    0.000    0.000    0.000    0.000    0.000 
#
# Total GULP energy -155983.633493 kJ/mol
# GULP energy per Si atom -5570.844053 kJ/mol
# Density = 2.080178 g / cm^3
# Si number density = 20.849235 Si / 1000 Ang^3
#
#
#
# Elastic Constant Matrix: (Units=GPa)
#
#
# Indices 1 2 3 4 5 6 
#
# 1 74.2392 -3.9157 55.3440 0.0000 -22.8093 0.0000
# 2 -3.9157 34.6513 26.6073 0.0000 1.4346 0.0000
# 3 55.3440 26.6073 180.2243 0.0000 -24.0581 0.0000
# 4 0.0000 0.0000 0.0000 -3.1683 0.0000 0.3246
# 5 -22.8093 1.4346 -24.0581 0.0000 32.1167 0.0000
# 6 0.0000 0.0000 0.0000 0.3246 0.0000 22.4067
#
#
#
# Elastic Compliance Matrix: (Units=1/GPa)
#
#
# Indices 1 2 3 4 5 6 
#
# 1 0.021720 0.006856 -0.006293 0.000000 0.010405 0.000000
# 2 0.006856 0.035650 -0.007701 0.000000 -0.002492 0.000000
# 3 -0.006293 -0.007701 0.008964 0.000000 0.002589 0.000000
# 4 0.000000 0.000000 0.000000 -0.315162 0.000000 0.004566
# 5 0.010405 -0.002492 0.002589 0.000000 0.040577 0.000000
# 6 0.000000 0.000000 0.000000 0.004566 0.000000 0.044563
#
#
# Mechanical properties :
#
#
# Convention : Reuss Voigt Hill
#
# Bulk Modulus (GPa) = 19.20975 49.46511 34.33743
# Shear Modulus (GPa) = -37.86197 24.34297 -6.75950
#
# Velocity S-wave (km/s) = -4.26606 3.42068 -1.80253
# Velocity P-wave (km/s) = 3.87712 6.27519 3.48898
#
# Compressibility (1/GPa) = 0.05205689
#
# Stress axis : x y z
#
# Youngs Moduli (GPa) = 46.04108 28.05024 111.56094
#
# Poissons Ratio (x) = -0.19230 0.70205
# Poissons Ratio (y) = -0.31564 0.85915
# Poissons Ratio (z) = 0.28973 0.21602
#
# Static dielectric constant tensor:
#      x y z
#    x 1.707130 0.000000 0.019920 
#    y 0.000000 1.676180 0.000000 
#    z 0.019920 0.000000 1.834970 
# 
# From -- ./inp_files/31613.got.cif
#   From: 2010.05.17/outbox.cif.g08.bks.cpg/sg10_16_cif.got.tgz:31613.got - 2010.06.03 11:33:40.
