data_PCOD9149148
_publ_section_title
;
Structure prediction by ZEFSAII (Michael W. Deem and Ramdas Pophale) SiO2 
 PCOD9149148
Probable space group: P 2/M
;
_chemical_formula_sum "Si O2"
_cell_formula_units_Z 28
_cell_length_a 14.827416
_cell_length_b 8.790009
_cell_length_c 20.794977
_cell_angle_alpha 90.000000
_cell_angle_beta 32.294820
_cell_angle_gamma 90.000000
_cell_volume 1448.034284
_symmetry_space_group_name_H-M "P 2/M"
_symmetry_group_IT_number 10
_symmetry_cell_setting 'monoclinic'
loop_
_space_group_symop_operation_xyz
x,y,z
-x,y,-z
-x,-y,-z
x,-y,z
loop_
_atom_site_type_symbol
_atom_site_label
_atom_site_fract_x
_atom_site_fract_y
_atom_site_fract_z
Si Si1 0.477534 0.682023 0.802425
Si Si2 0.757921 0.818157 0.442661
Si Si3 0.819611 0.818097 0.637763
Si Si4 0.606392 0.183738 0.279353
Si Si5 0.138167 0.182109 0.763925
Si Si6 0.787751 0.683078 0.933704
Si Si7 0.111073 0.317939 0.268480
O O1 0.487619 0.500000 0.795472
O O2 0.663985 0.751311 0.691987
O O3 0.381499 0.741160 0.797411
O O4 0.375176 0.731271 0.927821
O O5 0.577263 0.777140 0.580600
O O6 0.765818 0.787702 0.361403
O O7 0.915681 0.732316 0.379167
O O8 0.782874 0.000000 0.436900
O O9 0.811775 0.758302 0.715242
O O10 0.000000 0.770011 0.500000
O O11 0.811810 0.000000 0.640879
O O12 0.750594 0.231670 0.242599
O O13 0.613060 0.000000 0.269439
O O14 0.956074 0.257875 0.867168
O O15 0.116414 0.000000 0.781219
O O16 0.791761 0.500000 0.931148
O O17 0.799848 0.731714 0.851942
O O18 0.122485 0.500000 0.267115
#
# Coordination Sequence:
#
# PCOD9149148 Si02
#       7
#     4   4   4   4   4   4   4
#     4  11  24  40  57  78 108 146 185 223 266 320
#     4   9  17  32  54  81 113 145 179 222 273 325
#     4  11  24  41  60  84 113 141 171 214 270 326
#     4  10  20  34  53  80 113 146 182 227 275 318
#     4   9  18  33  56  82 108 144 186 225 268 322
#     4   9  21  40  57  78 110 145 181 224 271 315
#     4  10  20  36  59  83 109 142 180 223 269 318
#
# _framework density 19.336559000000001
#
# number of rings (size 3 to 8) (size 9 to 14) (size 15 to 20)
#    0.000    2.143    0.000    2.571    0.000   10.286 
#    0.000    5.714    0.000    4.286    0.000    0.000 
#    0.000    0.000    0.000    0.000    0.000    0.000 
#
# Total GULP energy -156407.209530 kJ/mol
# GULP energy per Si atom -5585.971769 kJ/mol
# Density = 1.929255 g / cm^3
# Si number density = 19.336559 Si / 1000 Ang^3
#
#
#
# Elastic Constant Matrix: (Units=GPa)
#
#
# Indices 1 2 3 4 5 6 
#
# 1 82.6782 10.4266 -0.1932 0.0000 11.5019 0.0000
# 2 10.4266 13.4781 13.7566 0.0000 5.5973 0.0000
# 3 -0.1932 13.7566 69.4896 0.0000 8.4536 0.0000
# 4 0.0000 0.0000 0.0000 25.9549 0.0000 3.2289
# 5 11.5019 5.5973 8.4536 0.0000 12.0256 0.0000
# 6 0.0000 0.0000 0.0000 3.2289 0.0000 28.8605
#
#
#
# Elastic Compliance Matrix: (Units=1/GPa)
#
#
# Indices 1 2 3 4 5 6 
#
# 1 0.015086 -0.010245 0.003549 0.000000 -0.012156 0.000000
# 2 -0.010245 0.113854 -0.018932 0.000000 -0.029885 0.000000
# 3 0.003549 -0.018932 0.019125 0.000000 -0.008027 0.000000
# 4 0.000000 0.000000 0.000000 0.039072 0.000000 -0.004371
# 5 -0.012156 -0.029885 -0.008027 0.000000 0.114335 0.000000
# 6 0.000000 0.000000 0.000000 -0.004371 0.000000 0.035139
#
#
# Mechanical properties :
#
#
# Convention : Reuss Voigt Hill
#
# Bulk Modulus (GPa) = 10.32964 23.73623 17.03294
# Shear Modulus (GPa) = 11.90091 22.81194 17.35643
#
# Velocity S-wave (km/s) = 2.48354 3.43845 2.99924
# Velocity P-wave (km/s) = 3.68478 5.29772 4.56308
#
# Compressibility (1/GPa) = 0.09680881
#
# Stress axis : x y z
#
# Youngs Moduli (GPa) = 66.28470 8.78321 52.28790
#
# Poissons Ratio (x) = 0.08998 -0.18556
# Poissons Ratio (y) = 0.67908 0.98992
# Poissons Ratio (z) = -0.23524 0.16628
#
# Static dielectric constant tensor:
#      x y z
#    x 1.659890 0.000000 0.022580 
#    y 0.000000 1.648510 0.000000 
#    z 0.022580 0.000000 1.674690 
# 
# From -- ./inp_files/49625.got.cif
#   From: 2010.05.17/outbox.cif.g08.bks.cpg/sg10_25_cif.got.tgz:49625.got - 2010.06.03 11:33:40.
