data_PCOD9149174
_publ_section_title
;
Structure prediction by ZEFSAII (Michael W. Deem and Ramdas Pophale) SiO2 
 PCOD9149174
Probable space group: P 2/M
;
_chemical_formula_sum "Si O2"
_cell_formula_units_Z 26
_cell_length_a 17.231145
_cell_length_b 9.701692
_cell_length_c 7.013274
_cell_angle_alpha 90.000000
_cell_angle_beta 81.949747
_cell_angle_gamma 90.000000
_cell_volume 1160.864414
_symmetry_space_group_name_H-M "P 2/M"
_symmetry_group_IT_number 10
_symmetry_cell_setting 'monoclinic'
loop_
_space_group_symop_operation_xyz
x,y,z
-x,y,-z
-x,-y,-z
x,-y,z
loop_
_atom_site_type_symbol
_atom_site_label
_atom_site_fract_x
_atom_site_fract_y
_atom_site_fract_z
Si Si1 0.065593 0.839879 0.634718
Si Si2 0.500000 0.232023 0.000000
Si Si3 0.192154 0.162180 0.267823
Si Si4 0.294075 0.350996 0.735815
Si Si5 0.572805 0.845112 0.363017
Si Si6 0.660371 0.653332 0.835492
Si Si7 0.878180 0.337717 0.058242
O O1 0.145109 0.831988 0.482226
O O2 0.063278 0.740067 0.817766
O O3 0.000000 0.806650 0.500000
O O4 0.055198 0.000000 0.698645
O O5 0.452568 0.153449 0.850654
O O6 0.568037 0.314041 0.863499
O O7 0.277109 0.233953 0.257043
O O8 0.198283 0.000000 0.209545
O O9 0.143922 0.249394 0.123061
O O10 0.312696 0.500000 0.647792
O O11 0.347554 0.235118 0.627982
O O12 0.201857 0.335174 0.788647
O O13 0.321842 0.351760 0.945209
O O14 0.500000 0.780997 0.500000
O O15 0.582953 0.000000 0.429512
O O16 0.678004 0.500000 0.757472
O O17 0.895665 0.500000 0.012087
#
# Coordination Sequence:
#
# PCOD9149174 Si02
#       7
#     4   2   4   4   4   4   4
#     4  10  23  42  62  87 119 154 193 235 282 344
#     4  10  20  34  54  76 106 148 184 224 280 330
#     4  10  21  38  61  87 116 153 195 238 287 343
#     4   8  17  34  53  75 104 140 181 222 272 334
#     4  10  21  34  49  73 103 136 179 229 276 325
#     4   9  18  34  56  81 111 147 189 234 279 333
#     4  10  21  38  61  87 116 150 187 234 289 340
#
# _framework density 22.397103999999999
#
# number of rings (size 3 to 8) (size 9 to 14) (size 15 to 20)
#    0.000    2.462    0.000    2.308    0.000   11.077 
#    0.000    7.692    0.000    0.000    0.000    0.000 
#    0.000    0.000    0.000    0.000    0.000    0.000 
#
# Total GULP energy -145043.928716 kJ/mol
# GULP energy per Si atom -5578.612643 kJ/mol
# Density = 2.234613 g / cm^3
# Si number density = 22.397104 Si / 1000 Ang^3
#
#
#
# Elastic Constant Matrix: (Units=GPa)
#
#
# Indices 1 2 3 4 5 6 
#
# 1 61.6140 32.6142 16.3803 0.0000 0.5293 0.0000
# 2 32.6142 132.1744 45.8780 0.0000 11.0568 0.0000
# 3 16.3803 45.8780 95.8839 0.0000 18.3009 0.0000
# 4 0.0000 0.0000 0.0000 64.8659 0.0000 1.0020
# 5 0.5293 11.0568 18.3009 0.0000 37.7954 0.0000
# 6 0.0000 0.0000 0.0000 1.0020 0.0000 10.7811
#
#
#
# Elastic Compliance Matrix: (Units=1/GPa)
#
#
# Indices 1 2 3 4 5 6 
#
# 1 0.018881 -0.004280 -0.001505 0.000000 0.001717 0.000000
# 2 -0.004280 0.010055 -0.003890 0.000000 -0.000998 0.000000
# 3 -0.001505 -0.003890 0.013581 0.000000 -0.005417 0.000000
# 4 0.000000 0.000000 0.000000 0.015439 0.000000 -0.001435
# 5 0.001717 -0.000998 -0.005417 0.000000 0.029349 0.000000
# 6 0.000000 0.000000 0.000000 -0.001435 0.000000 0.092888
#
#
# Mechanical properties :
#
#
# Convention : Reuss Voigt Hill
#
# Bulk Modulus (GPa) = 43.16251 53.26861 48.21556
# Shear Modulus (GPa) = 24.12353 35.67514 29.89934
#
# Velocity S-wave (km/s) = 3.28545 3.99538 3.65768
# Velocity P-wave (km/s) = 5.80565 6.71710 6.27794
#
# Compressibility (1/GPa) = 0.02316825
#
# Stress axis : x y z
#
# Youngs Moduli (GPa) = 52.96304 99.44855 73.62980
#
# Poissons Ratio (x) = 0.42564 0.11083
# Poissons Ratio (y) = 0.22668 0.28639
# Poissons Ratio (z) = 0.07972 0.38681
#
# Static dielectric constant tensor:
#      x y z
#    x 1.906110 0.000000 0.000280 
#    y 0.000000 1.820420 0.000000 
#    z 0.000280 0.000000 1.829980 
# 
# From -- ./inp_files/31598.got.cif
#   From: 2010.05.17/outbox.cif.g08.bks.cpg/sg10_16_cif.got.tgz:31598.got - 2010.06.03 11:33:40.
