data_PCOD9149589
_publ_section_title
;
Structure prediction by ZEFSAII (Michael W. Deem and Ramdas Pophale) SiO2 
 PCOD9149589
Probable space group: P 2/M
;
_chemical_formula_sum "Si O2"
_cell_formula_units_Z 26
_cell_length_a 15.472593
_cell_length_b 19.607119
_cell_length_c 14.935972
_cell_angle_alpha 90.000000
_cell_angle_beta 160.945269
_cell_angle_gamma 90.000000
_cell_volume 1479.296575
_symmetry_space_group_name_H-M "P 2/M"
_symmetry_group_IT_number 10
_symmetry_cell_setting 'monoclinic'
loop_
_space_group_symop_operation_xyz
x,y,z
-x,y,-z
-x,-y,-z
x,-y,z
loop_
_atom_site_type_symbol
_atom_site_label
_atom_site_fract_x
_atom_site_fract_y
_atom_site_fract_z
Si Si1 0.235058 0.000000 0.301224
Si Si2 0.762833 0.000000 0.197653
Si Si3 0.330946 0.795102 0.078987
Si Si4 0.237604 0.851344 0.802734
Si Si5 0.089546 0.420824 0.191983
Si Si6 0.204229 0.853262 0.359661
Si Si7 0.392262 0.664331 0.247138
Si Si8 0.500000 0.235714 0.500000
O O1 0.500000 0.000000 0.500000
O O2 0.209469 0.068153 0.335537
O O3 0.000000 0.000000 0.000000
O O4 0.778841 0.926821 0.166801
O O5 0.000000 0.000000 0.500000
O O6 0.500000 0.000000 0.000000
O O7 0.588106 0.839795 0.356691
O O8 0.408311 0.718518 0.183134
O O9 0.253251 0.799799 0.899652
O O10 0.081817 0.824326 0.892019
O O11 0.000000 0.842879 0.500000
O O12 0.500000 0.848935 0.000000
O O13 0.142577 0.500000 0.263866
O O14 0.342606 0.375375 0.465007
O O15 0.000000 0.417554 0.000000
O O16 0.838004 0.389287 0.995517
O O17 0.321093 0.810159 0.389975
O O18 0.330562 0.714447 0.270690
#
# Coordination Sequence:
#
# PCOD9149589 Si02
#       8
#     2   2   4   4   4   4   4   2
#     4  12  24  40  54  74 104 152 206 242 283 311
#     4   8  16  30  52  78  96 131 167 206 269 343
#     4  11  24  38  56  86 109 141 188 235 281 340
#     4  10  20  37  59  80 110 141 176 228 293 351
#     4  11  21  35  53  80 110 148 189 220 261 316
#     4  11  24  37  55  75 107 146 195 240 275 324
#     4  11  21  34  55  77 112 144 185 221 266 320
#     4  10  20  35  53  72 104 152 186 216 282 308
#
# _framework density 17.575921999999998
#
# number of rings (size 3 to 8) (size 9 to 14) (size 15 to 20)
#    0.000    1.385    2.308    4.154    2.154    2.462 
#    0.000    1.538    0.000    0.000    0.000    0.000 
#    0.000   12.308    0.000    0.000    0.000    0.000 
#
# Total GULP energy -145105.919236 kJ/mol
# GULP energy per Si atom -5580.996894 kJ/mol
# Density = 1.753592 g / cm^3
# Si number density = 17.575922 Si / 1000 Ang^3
#
#
#
# Elastic Constant Matrix: (Units=GPa)
#
#
# Indices 1 2 3 4 5 6 
#
# 1 49.3007 41.5860 22.9252 0.0000 -14.3134 0.0000
# 2 41.5860 133.1453 55.2856 0.0000 -12.3788 0.0000
# 3 22.9252 55.2856 134.6293 0.0000 2.1163 0.0000
# 4 0.0000 0.0000 0.0000 27.8113 0.0000 -2.0237
# 5 -14.3134 -12.3788 2.1163 0.0000 27.2831 0.0000
# 6 0.0000 0.0000 0.0000 -2.0237 0.0000 16.3854
#
#
#
# Elastic Compliance Matrix: (Units=1/GPa)
#
#
# Indices 1 2 3 4 5 6 
#
# 1 0.031779 -0.007651 -0.002480 0.000000 0.013393 0.000000
# 2 -0.007651 0.011457 -0.003425 0.000000 0.001450 0.000000
# 3 -0.002480 -0.003425 0.009313 0.000000 -0.003577 0.000000
# 4 0.000000 0.000000 0.000000 0.036283 0.000000 0.004481
# 5 0.013393 0.001450 -0.003577 0.000000 0.044615 0.000000
# 6 0.000000 0.000000 0.000000 0.004481 0.000000 0.061583
#
#
# Mechanical properties :
#
#
# Convention : Reuss Voigt Hill
#
# Bulk Modulus (GPa) = 39.31230 61.85209 50.58220
# Shear Modulus (GPa) = 21.68066 27.44785 24.56426
#
# Velocity S-wave (km/s) = 3.51599 3.95609 3.74252
# Velocity P-wave (km/s) = 6.23688 7.49235 6.89326
#
# Compressibility (1/GPa) = 0.02543733
#
# Stress axis : x y z
#
# Youngs Moduli (GPa) = 31.46739 87.28214 107.37896
#
# Poissons Ratio (x) = 0.66777 0.26632
# Poissons Ratio (y) = 0.24075 0.36776
# Poissons Ratio (z) = 0.07805 0.29893
#
# Static dielectric constant tensor:
#      x y z
#    x 1.593450 0.000000 0.002720 
#    y 0.000000 1.644380 0.000000 
#    z 0.002720 0.000000 1.610230 
# 
# From -- ./inp_files/67840.got.cif
#   From: 2010.05.17/outbox.cif.g08.bks.cpg/sg10_34_cif.got.tgz:67840.got - 2010.06.03 11:33:40.
