data_PCOD9149846
_publ_section_title
;
Structure prediction by ZEFSAII (Michael W. Deem and Ramdas Pophale) SiO2 
 PCOD9149846
Probable space group: P 2/M
;
_chemical_formula_sum "Si O2"
_cell_formula_units_Z 25
_cell_length_a 16.831501
_cell_length_b 7.644051
_cell_length_c 16.018538
_cell_angle_alpha 90.000000
_cell_angle_beta 34.079512
_cell_angle_gamma 90.000000
_cell_volume 1154.843516
_symmetry_space_group_name_H-M "P 2/M"
_symmetry_group_IT_number 10
_symmetry_cell_setting 'monoclinic'
loop_
_space_group_symop_operation_xyz
x,y,z
-x,y,-z
-x,-y,-z
x,-y,z
loop_
_atom_site_type_symbol
_atom_site_label
_atom_site_fract_x
_atom_site_fract_y
_atom_site_fract_z
Si Si1 0.630231 0.293616 0.169128
Si Si2 0.086194 0.288430 0.004481
Si Si3 0.671801 0.792520 0.598484
Si Si4 0.280846 0.298458 0.087097
Si Si5 0.000000 0.500000 0.500000
Si Si6 0.242887 0.199545 0.297717
Si Si7 0.983025 0.792672 0.279324
O O1 0.658307 0.500000 0.136391
O O2 0.749958 0.228195 0.128718
O O3 0.465487 0.272358 0.330922
O O4 0.661327 0.218372 0.049533
O O5 0.085080 0.500000 0.999963
O O6 0.000000 0.220720 0.000000
O O7 0.014568 0.238599 0.154548
O O8 0.657770 0.758599 0.709654
O O9 0.826647 0.725140 0.437527
O O10 0.674904 0.000000 0.582904
O O11 0.325711 0.500000 0.055451
O O12 0.313761 0.206802 0.145148
O O13 0.109382 0.294201 0.222144
O O14 0.122182 0.345605 0.402543
O O15 0.189364 0.000000 0.357958
O O16 0.989920 0.000000 0.290856
#
# Coordination Sequence:
#
# PCOD9149846 Si02
#       7
#     4   4   4   4   1   4   4
#     4   9  20  36  59  84 113 151 195 241 293 363
#     4   9  19  39  63  88 113 142 187 241 294 358
#     4  10  23  38  53  81 121 157 193 241 297 352
#     4  10  20  37  57  84 113 155 207 250 297 340
#     4  12  22  36  56  80 112 160 196 258 302 338
#     4  11  23  37  55  84 118 160 210 253 297 352
#     4  10  20  35  56  83 115 150 192 242 291 351
#
# _framework density 21.647953000000001
#
# number of rings (size 3 to 8) (size 9 to 14) (size 15 to 20)
#    0.000    2.080    0.800    3.120    1.120    6.720 
#    0.000    4.000    0.000    4.800    0.000    0.000 
#    0.000    0.000    0.000    0.000    0.000    0.000 
#
# Total GULP energy -139327.115041 kJ/mol
# GULP energy per Si atom -5573.084602 kJ/mol
# Density = 2.159868 g / cm^3
# Si number density = 21.647953 Si / 1000 Ang^3
#
#
#
# Elastic Constant Matrix: (Units=GPa)
#
#
# Indices 1 2 3 4 5 6 
#
# 1 102.3228 6.0127 28.9937 0.0000 -4.9879 0.0000
# 2 6.0127 85.6686 -12.1481 0.0000 -5.0860 0.0000
# 3 28.9937 -12.1481 55.0992 0.0000 -21.8209 0.0000
# 4 0.0000 0.0000 0.0000 35.8841 0.0000 -18.5539
# 5 -4.9879 -5.0860 -21.8209 0.0000 25.8593 0.0000
# 6 0.0000 0.0000 0.0000 -18.5539 0.0000 40.3256
#
#
#
# Elastic Compliance Matrix: (Units=1/GPa)
#
#
# Indices 1 2 3 4 5 6 
#
# 1 0.012308 -0.002570 -0.009467 0.000000 -0.006120 0.000000
# 2 -0.002570 0.013473 0.007773 0.000000 0.008714 0.000000
# 3 -0.009467 0.007773 0.037137 0.000000 0.031041 0.000000
# 4 0.000000 0.000000 0.000000 0.036567 0.000000 0.016824
# 5 -0.006120 0.008714 0.031041 0.000000 0.065397 0.000000
# 6 0.000000 0.000000 0.000000 0.016824 0.000000 0.032539
#
#
# Mechanical properties :
#
#
# Convention : Reuss Voigt Hill
#
# Bulk Modulus (GPa) = 18.38483 32.08970 25.23726
# Shear Modulus (GPa) = 22.31367 35.09595 28.70481
#
# Velocity S-wave (km/s) = 3.21402 4.03080 3.64535
# Velocity P-wave (km/s) = 4.72062 6.04307 5.42231
#
# Compressibility (1/GPa) = 0.05439268
#
# Stress axis : x y z
#
# Youngs Moduli (GPa) = 81.24717 74.22327 26.92703
#
# Poissons Ratio (x) = 0.19072 0.25491
# Poissons Ratio (y) = 0.20877 -0.20932
# Poissons Ratio (z) = 0.76915 -0.57697
#
# Static dielectric constant tensor:
#      x y z
#    x 1.789870 0.000000 0.000150 
#    y 0.000000 1.785060 0.000000 
#    z 0.000150 0.000000 1.833360 
# 
# From -- ./inp_files/78624.got.cif
#   From: 2010.05.17/outbox.cif.g08.bks.cpg/sg10_40_cif.got.tgz:78624.got - 2010.06.03 11:33:40.
