data_PCOD9149173
_publ_section_title
;
Structure prediction by ZEFSAII (Michael W. Deem and Ramdas Pophale) SiO2 
 PCOD9149173
Probable space group: P 2/M
;
_chemical_formula_sum "Si O2"
_cell_formula_units_Z 22
_cell_length_a 11.553037
_cell_length_b 9.627440
_cell_length_c 11.068897
_cell_angle_alpha 90.000000
_cell_angle_beta 72.674153
_cell_angle_gamma 90.000000
_cell_volume 1175.289458
_symmetry_space_group_name_H-M "P 2/M"
_symmetry_group_IT_number 10
_symmetry_cell_setting 'monoclinic'
loop_
_space_group_symop_operation_xyz
x,y,z
-x,y,-z
-x,-y,-z
x,-y,z
loop_
_atom_site_type_symbol
_atom_site_label
_atom_site_fract_x
_atom_site_fract_y
_atom_site_fract_z
Si Si1 0.194879 0.667834 0.609453
Si Si2 0.000000 0.233974 0.000000
Si Si3 0.453658 0.662146 0.877201
Si Si4 0.255524 0.842325 0.822053
Si Si5 0.702328 0.331666 0.686239
Si Si6 0.070069 0.663306 0.237555
O O1 0.201419 0.500000 0.627628
O O2 0.255670 0.751179 0.699777
O O3 0.254846 0.699056 0.462438
O O4 0.052728 0.710374 0.657028
O O5 0.882419 0.155531 0.086351
O O6 0.048577 0.316470 0.101909
O O7 0.423803 0.500000 0.858831
O O8 0.339804 0.759652 0.889078
O O9 0.566822 0.712686 0.760899
O O10 0.500000 0.666164 0.000000
O O11 0.296172 0.000000 0.790060
O O12 0.697385 0.500000 0.699361
O O13 0.805336 0.277707 0.746950
O O14 0.076411 0.500000 0.259423
#
# Coordination Sequence:
#
# PCOD9149173 Si02
#       6
#     4   2   4   4   4   4
#     4   9  18  33  55  81 107 138 177 219 262 309
#     4  10  20  34  54  76 105 142 175 214 269 320
#     4  10  21  37  57  81 109 140 175 215 260 313
#     4  11  23  38  55  76 106 140 177 220 264 314
#     4   9  17  31  53  80 110 141 173 215 265 312
#     4   9  16  28  52  85 112 135 172 220 264 309
#
# _framework density 18.718792000000001
#
# number of rings (size 3 to 8) (size 9 to 14) (size 15 to 20)
#    0.000    2.364    0.000    2.727    0.000    6.909 
#    0.000    4.545    0.000   10.909    0.000    0.000 
#    0.000    0.000    0.000    0.000    0.000    0.000 
#
# Total GULP energy -122618.828461 kJ/mol
# GULP energy per Si atom -5573.583112 kJ/mol
# Density = 1.867619 g / cm^3
# Si number density = 18.718792 Si / 1000 Ang^3
#
#
#
# Elastic Constant Matrix: (Units=GPa)
#
#
# Indices 1 2 3 4 5 6 
#
# 1 90.3586 44.0438 27.6938 0.0000 6.9189 0.0000
# 2 44.0438 50.5341 8.8163 0.0000 1.5482 0.0000
# 3 27.6938 8.8163 74.5845 0.0000 -11.7689 0.0000
# 4 0.0000 0.0000 0.0000 -1.6321 0.0000 -5.4377
# 5 6.9189 1.5482 -11.7689 0.0000 22.3369 0.0000
# 6 0.0000 0.0000 0.0000 -5.4377 0.0000 6.5599
#
#
#
# Elastic Compliance Matrix: (Units=1/GPa)
#
#
# Indices 1 2 3 4 5 6 
#
# 1 0.023464 -0.018721 -0.008117 0.000000 -0.010247 0.000000
# 2 -0.018721 0.035315 0.003605 0.000000 0.005251 0.000000
# 3 -0.008117 0.003605 0.017835 0.000000 0.011661 0.000000
# 4 0.000000 0.000000 0.000000 -0.162877 0.000000 -0.135013
# 5 -0.010247 0.005251 0.011661 0.000000 0.053723 0.000000
# 6 0.000000 0.000000 0.000000 -0.135013 0.000000 0.040525
#
#
# Mechanical properties :
#
#
# Convention : Reuss Voigt Hill
#
# Bulk Modulus (GPa) = 33.16681 41.84280 37.50481
# Shear Modulus (GPa) = 77.51950 14.44782 45.98366
#
# Velocity S-wave (km/s) = 6.44225 2.78121 4.96174
# Velocity P-wave (km/s) = 8.54948 5.71973 7.27355
#
# Compressibility (1/GPa) = 0.03015062
#
# Stress axis : x y z
#
# Youngs Moduli (GPa) = 42.61773 28.31642 56.06879
#
# Poissons Ratio (x) = 0.53011 0.45508
# Poissons Ratio (y) = 0.79784 -0.20214
# Poissons Ratio (z) = 0.34591 -0.10209
#
# Static dielectric constant tensor:
#      x y z
#    x 1.670820 0.000000 -0.012390 
#    y 0.000000 1.623080 0.000000 
#    z -0.012390 0.000000 1.649870 
# 
# From -- ./inp_files/45056.got.cif
#   From: 2010.05.17/outbox.cif.g08.bks.cpg/sg10_23_cif.got.tgz:45056.got - 2010.06.03 11:33:40.
