data_PCOD9149882
_publ_section_title
;
Structure prediction by ZEFSAII (Michael W. Deem and Ramdas Pophale) SiO2 
 PCOD9149882
Probable space group: P 2/M
;
_chemical_formula_sum "Si O2"
_cell_formula_units_Z 24
_cell_length_a 10.285212
_cell_length_b 19.013596
_cell_length_c 10.218452
_cell_angle_alpha 90.000000
_cell_angle_beta 135.578647
_cell_angle_gamma 90.000000
_cell_volume 1398.675460
_symmetry_space_group_name_H-M "P 2/M"
_symmetry_group_IT_number 10
_symmetry_cell_setting 'monoclinic'
loop_
_space_group_symop_operation_xyz
x,y,z
-x,y,-z
-x,-y,-z
x,-y,z
loop_
_atom_site_type_symbol
_atom_site_label
_atom_site_fract_x
_atom_site_fract_y
_atom_site_fract_z
Si Si1 0.391406 0.079565 0.219723
Si Si2 0.129202 0.656265 0.964234
Si Si3 0.214595 0.080235 0.385939
Si Si4 0.090169 0.818385 0.918452
Si Si5 0.505654 0.584338 0.660435
Si Si6 0.912734 0.415387 0.573743
O O1 0.301623 0.080623 0.301454
O O2 0.609720 0.093415 0.394236
O O3 0.365240 0.000000 0.151263
O O4 0.277911 0.136495 0.057977
O O5 0.130652 0.737343 0.919579
O O6 0.032717 0.612075 0.780821
O O7 0.329065 0.626171 0.150568
O O8 0.000000 0.651567 0.000000
O O9 0.057817 0.139608 0.276448
O O10 0.145361 0.000000 0.357200
O O11 0.000000 0.819417 0.000000
O O12 0.500000 0.597465 0.500000
O O13 0.533851 0.500000 0.698810
O O14 0.303044 0.604928 0.567996
O O15 0.916817 0.500000 0.579948
O O16 0.000000 0.391255 0.500000
#
# Coordination Sequence:
#
# PCOD9149882 Si02
#       6
#     4   4   4   4   4   4
#     4   8  13  22  35  53  80 121 168 208 245 292
#     4  11  21  33  51  78 109 141 174 215 268 319
#     4   8  13  22  36  53  81 124 167 204 246 296
#     4   9  17  25  36  61  92 128 164 206 253 302
#     4  10  20  35  57  80 102 136 177 216 262 314
#     4  10  22  39  58  80 105 136 178 224 264 310
#
# _framework density 17.159092999999999
#
# number of rings (size 3 to 8) (size 9 to 14) (size 15 to 20)
#    0.000    2.667    1.667    2.000    0.000    4.667 
#    3.000    2.500    0.000    0.000    0.000    0.000 
#    0.000    2.667    0.000   11.333    0.000    9.667 
#
# Total GULP energy -133724.001846 kJ/mol
# GULP energy per Si atom -5571.833410 kJ/mol
# Density = 1.712004 g / cm^3
# Si number density = 17.159093 Si / 1000 Ang^3
#
#
#
# Elastic Constant Matrix: (Units=GPa)
#
#
# Indices 1 2 3 4 5 6 
#
# 1 76.0668 43.3813 55.1050 0.0000 16.7823 0.0000
# 2 43.3813 66.0356 61.2064 0.0000 24.3525 0.0000
# 3 55.1050 61.2064 112.9895 0.0000 33.2558 0.0000
# 4 0.0000 0.0000 0.0000 -5.6504 0.0000 3.8080
# 5 16.7823 24.3525 33.2558 0.0000 25.5156 0.0000
# 6 0.0000 0.0000 0.0000 3.8080 0.0000 6.0852
#
#
#
# Elastic Compliance Matrix: (Units=1/GPa)
#
#
# Indices 1 2 3 4 5 6 
#
# 1 0.023076 -0.010123 -0.006728 0.000000 0.003253 0.000000
# 2 -0.010123 0.037416 -0.011000 0.000000 -0.014715 0.000000
# 3 -0.006728 -0.011000 0.022223 0.000000 -0.014040 0.000000
# 4 0.000000 0.000000 0.000000 -0.124481 0.000000 0.077897
# 5 0.003253 -0.014715 -0.014040 0.000000 0.069396 0.000000
# 6 0.000000 0.000000 0.000000 0.077897 0.000000 0.115586
#
#
# Mechanical properties :
#
#
# Convention : Reuss Voigt Hill
#
# Bulk Modulus (GPa) = 37.02004 63.83081 50.42542
# Shear Modulus (GPa) = 24.04756 11.55002 17.79879
#
# Velocity S-wave (km/s) = 3.74765 2.59726 3.22418
# Velocity P-wave (km/s) = 6.35200 6.80254 6.58113
#
# Compressibility (1/GPa) = 0.02701240
#
# Stress axis : x y z
#
# Youngs Moduli (GPa) = 43.33552 26.72658 44.99908
#
# Poissons Ratio (x) = 0.27056 0.30274
# Poissons Ratio (y) = 0.43869 0.49499
# Poissons Ratio (z) = 0.29155 0.29400
#
# Static dielectric constant tensor:
#      x y z
#    x 1.578890 0.000000 0.010130 
#    y 0.000000 1.581340 0.000000 
#    z 0.010130 0.000000 1.560910 
# 
# From -- ./inp_files/20269.got.cif
#   From: 2010.05.17/outbox.cif.g08.bks.cpg/sg10_11_cif.got.tgz:20269.got - 2010.06.03 11:33:40.
