data_PCOD9149594
_publ_section_title
;
Structure prediction by ZEFSAII (Michael W. Deem and Ramdas Pophale) SiO2 
 PCOD9149594
Probable space group: P 2/M
;
_chemical_formula_sum "Si O2"
_cell_formula_units_Z 32
_cell_length_a 15.552146
_cell_length_b 13.711273
_cell_length_c 21.391491
_cell_angle_alpha 90.000000
_cell_angle_beta 158.298899
_cell_angle_gamma 90.000000
_cell_volume 1686.687022
_symmetry_space_group_name_H-M "P 2/M"
_symmetry_group_IT_number 10
_symmetry_cell_setting 'monoclinic'
loop_
_space_group_symop_operation_xyz
x,y,z
-x,y,-z
-x,-y,-z
x,-y,z
loop_
_atom_site_type_symbol
_atom_site_label
_atom_site_fract_x
_atom_site_fract_y
_atom_site_fract_z
Si Si1 0.990669 0.304323 0.621107
Si Si2 0.858334 0.892793 0.497789
Si Si3 0.400734 0.617730 0.334260
Si Si4 0.454754 0.609804 0.695993
Si Si5 0.383739 0.891411 0.799806
Si Si6 0.702596 0.708144 0.052816
Si Si7 0.303916 0.387616 0.729347
Si Si8 0.871719 0.617858 0.730003
O O1 0.834267 0.206768 0.518826
O O2 0.807570 0.390169 0.509533
O O3 0.190163 0.291288 0.806146
O O4 0.103369 0.328110 0.629693
O O5 0.700785 0.885351 0.329310
O O6 0.133853 0.888398 0.666158
O O7 0.815967 0.000000 0.497306
O O8 0.396474 0.500000 0.326457
O O9 0.395166 0.654454 0.258940
O O10 0.643956 0.639987 0.533790
O O11 0.197575 0.643184 0.245484
O O12 0.540483 0.500000 0.765741
O O13 0.405278 0.651881 0.731744
O O14 0.483398 0.000000 0.877954
O O15 0.559259 0.806511 0.939093
O O16 0.914215 0.680870 0.149927
O O17 0.519224 0.621524 0.921362
O O18 0.238345 0.500000 0.676542
O O19 0.914577 0.500000 0.755222
#
# Coordination Sequence:
#
# PCOD9149594 Si02
#       8
#     4   4   4   4   4   4   4   4
#     4  12  22  32  51  77 106 144 179 212 259 310
#     4   9  19  37  57  73  96 139 185 221 255 303
#     4   8  15  32  55  76  98 136 184 227 262 300
#     4  10  20  35  53  73 101 143 189 222 251 302
#     4   9  19  36  56  75 101 137 176 219 266 313
#     4  12  22  33  50  80 112 141 170 217 270 318
#     4  11  24  35  45  69 111 150 179 210 251 309
#     4   9  17  31  53  79 108 138 175 220 266 309
#
# _framework density 18.972102
#
# number of rings (size 3 to 8) (size 9 to 14) (size 15 to 20)
#    0.000    2.000    2.500    3.750    1.750    3.500 
#    0.000    1.875    0.000    3.000    0.000    2.625 
#    0.000    3.000    0.000    0.000    0.000    0.125 
#
# Total GULP energy -178225.971676 kJ/mol
# GULP energy per Si atom -5569.561615 kJ/mol
# Density = 1.892892 g / cm^3
# Si number density = 18.972102 Si / 1000 Ang^3
#
#
#
# Elastic Constant Matrix: (Units=GPa)
#
#
# Indices 1 2 3 4 5 6 
#
# 1 118.4730 18.7028 14.1042 0.0000 0.9421 0.0000
# 2 18.7028 93.2989 16.7662 0.0000 -1.9622 0.0000
# 3 14.1042 16.7662 47.0185 0.0000 -7.6509 0.0000
# 4 0.0000 0.0000 0.0000 25.2345 0.0000 -0.4012
# 5 0.9421 -1.9622 -7.6509 0.0000 25.9032 0.0000
# 6 0.0000 0.0000 0.0000 -0.4012 0.0000 10.4358
#
#
#
# Elastic Compliance Matrix: (Units=1/GPa)
#
#
# Indices 1 2 3 4 5 6 
#
# 1 0.008952 -0.001392 -0.002373 0.000000 -0.001132 0.000000
# 2 -0.001392 0.011672 -0.003774 0.000000 -0.000180 0.000000
# 3 -0.002373 -0.003774 0.024469 0.000000 0.007028 0.000000
# 4 0.000000 0.000000 0.000000 0.039652 0.000000 0.001525
# 5 -0.001132 -0.000180 0.007028 0.000000 0.040709 0.000000
# 6 0.000000 0.000000 0.000000 0.001525 0.000000 0.095883
#
#
# Mechanical properties :
#
#
# Convention : Reuss Voigt Hill
#
# Bulk Modulus (GPa) = 33.31619 39.77073 36.54346
# Shear Modulus (GPa) = 20.29059 26.26251 23.27655
#
# Velocity S-wave (km/s) = 3.27386 3.72461 3.50649
# Velocity P-wave (km/s) = 5.64709 6.28532 5.97473
#
# Compressibility (1/GPa) = 0.03001544
#
# Stress axis : x y z
#
# Youngs Moduli (GPa) = 111.70686 85.67787 40.86743
#
# Poissons Ratio (x) = 0.11925 0.09699
# Poissons Ratio (y) = 0.15548 0.15422
# Poissons Ratio (z) = 0.26510 0.32332
#
# Static dielectric constant tensor:
#      x y z
#    x 1.735900 0.000000 -0.019590 
#    y 0.000000 1.701710 0.000000 
#    z -0.019590 0.000000 1.702980 
# 
# From -- ./inp_files/85429.got.cif
#   From: 2010.05.17/outbox.cif.g08.bks.cpg/sg10_43_cif.got.tgz:85429.got - 2010.06.03 11:33:40.
