data_PCOD9149862
_publ_section_title
;
Structure prediction by ZEFSAII (Michael W. Deem and Ramdas Pophale) SiO2 
 PCOD9149862
Probable space group: P 2/M
;
_chemical_formula_sum "Si O2"
_cell_formula_units_Z 24
_cell_length_a 10.064937
_cell_length_b 13.488539
_cell_length_c 10.220949
_cell_angle_alpha 90.000000
_cell_angle_beta 57.769175
_cell_angle_gamma 90.000000
_cell_volume 1173.787507
_symmetry_space_group_name_H-M "P 2/M"
_symmetry_group_IT_number 10
_symmetry_cell_setting 'monoclinic'
loop_
_space_group_symop_operation_xyz
x,y,z
-x,y,-z
-x,-y,-z
x,-y,z
loop_
_atom_site_type_symbol
_atom_site_label
_atom_site_fract_x
_atom_site_fract_y
_atom_site_fract_z
Si Si1 0.806332 0.389255 0.796807
Si Si2 0.323961 0.689557 0.879827
Si Si3 0.826919 0.183414 0.645035
Si Si4 0.669598 0.111677 0.978134
Si Si5 0.839834 0.386295 0.282527
Si Si6 0.605911 0.247181 0.563893
O O1 0.787368 0.500000 0.752290
O O2 0.803534 0.299450 0.696495
O O3 0.978547 0.381856 0.773072
O O4 0.685208 0.368512 0.978608
O O5 0.196120 0.648287 0.845998
O O6 0.488682 0.689242 0.717062
O O7 0.297134 0.804118 0.933391
O O8 0.792081 0.124176 0.795250
O O9 0.694069 0.166214 0.605589
O O10 0.000000 0.167245 0.500000
O O11 0.669104 0.000000 0.029177
O O12 0.500000 0.132455 0.000000
O O13 0.787446 0.500000 0.323384
O O14 0.738517 0.315733 0.429024
O O15 0.500000 0.207761 0.500000
#
# Coordination Sequence:
#
# PCOD9149862 Si02
#       6
#     4   4   4   4   4   4
#     4  10  21  34  55  86 117 156 197 235 282 335
#     4  10  20  35  58  80 116 148 194 236 285 339
#     4  11  21  38  61  86 115 152 194 243 287 339
#     4  10  21  39  64  87 111 148 191 242 304 353
#     4  10  20  35  56  84 120 163 195 226 280 342
#     4  10  21  36  55  83 117 153 190 233 287 340
#
# _framework density 20.446631
#
# number of rings (size 3 to 8) (size 9 to 14) (size 15 to 20)
#    0.000    1.833    3.333    1.000    0.000    6.333 
#    0.000    0.833    0.000   17.000    0.000    0.000 
#    0.000    0.000    0.000    0.000    0.000    0.000 
#
# Total GULP energy -134053.688883 kJ/mol
# GULP energy per Si atom -5585.570370 kJ/mol
# Density = 2.040009 g / cm^3
# Si number density = 20.446631 Si / 1000 Ang^3
#
#
#
# Elastic Constant Matrix: (Units=GPa)
#
#
# Indices 1 2 3 4 5 6 
#
# 1 57.7758 -10.7826 -4.8732 0.0000 1.2731 0.0000
# 2 -10.7826 50.0032 -25.3421 0.0000 8.3674 0.0000
# 3 -4.8732 -25.3421 88.7494 0.0000 -11.0010 0.0000
# 4 0.0000 0.0000 0.0000 -0.1163 0.0000 6.5612
# 5 1.2731 8.3674 -11.0010 0.0000 21.1888 0.0000
# 6 0.0000 0.0000 0.0000 6.5612 0.0000 10.4152
#
#
#
# Elastic Compliance Matrix: (Units=1/GPa)
#
#
# Indices 1 2 3 4 5 6 
#
# 1 0.018587 0.005546 0.002345 0.000000 -0.002089 0.000000
# 2 0.005546 0.025816 0.006809 0.000000 -0.006992 0.000000
# 3 0.002345 0.006809 0.013884 0.000000 0.004378 0.000000
# 4 0.000000 0.000000 0.000000 -0.235319 0.000000 0.148242
# 5 -0.002089 -0.006992 0.004378 0.000000 0.052355 0.000000
# 6 0.000000 0.000000 0.000000 0.148242 0.000000 0.002627
#
#
# Mechanical properties :
#
#
# Convention : Reuss Voigt Hill
#
# Bulk Modulus (GPa) = 11.40389 12.72584 12.06487
# Shear Modulus (GPa) = -40.90862 22.13264 -9.38799
#
# Velocity S-wave (km/s) = -4.47783 3.29364 -2.14509
# Velocity P-wave (km/s) = 4.59838 4.54990 0.47092
#
# Compressibility (1/GPa) = 0.08768935
#
# Stress axis : x y z
#
# Youngs Moduli (GPa) = 53.80027 38.73578 72.02746
#
# Poissons Ratio (x) = -0.21485 -0.16893
# Poissons Ratio (y) = -0.29840 -0.49047
# Poissons Ratio (z) = -0.12618 -0.26377
#
# Static dielectric constant tensor:
#      x y z
#    x 1.739190 0.000000 0.000280 
#    y 0.000000 1.701000 0.000000 
#    z 0.000280 0.000000 1.733460 
# 
# From -- ./inp_files/46503.got.cif
#   From: 2010.05.17/outbox.cif.g08.bks.cpg/sg10_24_cif.got.tgz:46503.got - 2010.06.03 11:33:40.
