data_PCOD9149930
_publ_section_title
;
Structure prediction by ZEFSAII (Michael W. Deem and Ramdas Pophale) SiO2 
 PCOD9149930
Probable space group: P 2/M
;
_chemical_formula_sum "Si O2"
_cell_formula_units_Z 28
_cell_length_a 13.815754
_cell_length_b 20.926694
_cell_length_c 5.096440
_cell_angle_alpha 90.000000
_cell_angle_beta 75.767542
_cell_angle_gamma 90.000000
_cell_volume 1428.246388
_symmetry_space_group_name_H-M "P 2/M"
_symmetry_group_IT_number 10
_symmetry_cell_setting 'monoclinic'
loop_
_space_group_symop_operation_xyz
x,y,z
-x,y,-z
-x,-y,-z
x,-y,z
loop_
_atom_site_type_symbol
_atom_site_label
_atom_site_fract_x
_atom_site_fract_y
_atom_site_fract_z
Si Si1 0.748557 0.634336 0.799153
Si Si2 0.620552 0.851596 0.912924
Si Si3 0.566130 0.669362 0.217178
Si Si4 0.696889 0.255516 0.473265
Si Si5 0.112354 0.297853 0.912179
Si Si6 0.099769 0.568481 0.606689
Si Si7 0.379102 0.071625 0.584648
O O1 0.661946 0.627203 0.070215
O O2 0.834586 0.681915 0.852808
O O3 0.698350 0.674054 0.600578
O O4 0.805764 0.574166 0.649841
O O5 0.667939 0.792188 0.723970
O O6 0.647206 0.908836 0.692675
O O7 0.500000 0.843766 0.000000
O O8 0.653229 0.875469 0.179386
O O9 0.500000 0.643270 0.500000
O O10 0.385959 0.735645 0.700406
O O11 0.500000 0.679183 0.000000
O O12 0.807905 0.251278 0.280075
O O13 0.104086 0.367397 0.775400
O O14 0.000000 0.272604 0.000000
O O15 0.101815 0.500000 0.747720
O O16 0.000000 0.571024 0.500000
O O17 0.500000 0.071864 0.500000
O O18 0.346317 0.000000 0.674804
#
# Coordination Sequence:
#
# PCOD9149930 Si02
#       7
#     4   4   4   4   4   4   4
#     4  10  21  37  54  80 112 150 180 237 281 344
#     4  10  21  32  50  78 114 148 191 236 267 326
#     4  11  22  36  56  78 110 150 188 229 275 334
#     4  10  23  34  53  84 113 150 189 234 283 336
#     4  10  20  36  56  80 115 150 182 225 294 348
#     4  10  20  35  57  84 111 142 187 237 286 346
#     4   9  18  33  51  73 107 153 191 228 279 323
#
# _framework density 19.604462000000002
#
# number of rings (size 3 to 8) (size 9 to 14) (size 15 to 20)
#    0.000    2.000    2.857    0.429    6.000    3.143 
#    0.000    0.000    0.000    0.857    0.000    0.000 
#    0.000    3.429    0.000    0.000    0.000    0.000 
#
# Total GULP energy -156092.545095 kJ/mol
# GULP energy per Si atom -5574.733753 kJ/mol
# Density = 1.955984 g / cm^3
# Si number density = 19.604462 Si / 1000 Ang^3
#
#
#
# Elastic Constant Matrix: (Units=GPa)
#
#
# Indices 1 2 3 4 5 6 
#
# 1 88.6948 9.5929 39.0606 0.0000 -12.2154 0.0000
# 2 9.5929 71.3082 21.6429 0.0000 -9.2253 0.0000
# 3 39.0606 21.6429 108.2955 0.0000 -11.8771 0.0000
# 4 0.0000 0.0000 0.0000 24.1852 0.0000 -0.3136
# 5 -12.2154 -9.2253 -11.8771 0.0000 41.1194 0.0000
# 6 0.0000 0.0000 0.0000 -0.3136 0.0000 8.5726
#
#
#
# Elastic Compliance Matrix: (Units=1/GPa)
#
#
# Indices 1 2 3 4 5 6 
#
# 1 0.013694 -0.000088 -0.004624 0.000000 0.002713 0.000000
# 2 -0.000088 0.015197 -0.002721 0.000000 0.002598 0.000000
# 3 -0.004624 -0.002721 0.011595 0.000000 0.001365 0.000000
# 4 0.000000 0.000000 0.000000 0.041367 0.000000 0.001513
# 5 0.002713 0.002598 0.001365 0.000000 0.026102 0.000000
# 6 0.000000 0.000000 0.000000 0.001513 0.000000 0.116706
#
#
# Mechanical properties :
#
#
# Convention : Reuss Voigt Hill
#
# Bulk Modulus (GPa) = 39.02973 45.43237 42.23105
# Shear Modulus (GPa) = 20.15579 27.97559 24.06569
#
# Velocity S-wave (km/s) = 3.20991 3.78167 3.50746
# Velocity P-wave (km/s) = 5.80430 6.50329 6.16371
#
# Compressibility (1/GPa) = 0.02562150
#
# Stress axis : x y z
#
# Youngs Moduli (GPa) = 73.02358 65.80143 86.24157
#
# Poissons Ratio (x) = 0.00578 0.39880
# Poissons Ratio (y) = 0.00641 0.23463
# Poissons Ratio (z) = 0.33768 0.17902
#
# Static dielectric constant tensor:
#      x y z
#    x 1.738500 0.000000 0.026820 
#    y 0.000000 1.717560 0.000000 
#    z 0.026820 0.000000 1.794180 
# 
# From -- ./inp_files/7688.got.cif
#   From: 2010.05.17/outbox.cif.g08.bks.cpg/sg10_4_cif.got.tgz:7688.got - 2010.06.03 11:33:40.
