data_PCOD9149958
_publ_section_title
;
Structure prediction by ZEFSAII (Michael W. Deem and Ramdas Pophale) SiO2 
 PCOD9149958
Probable space group: P 2/M
;
_chemical_formula_sum "Si O2"
_cell_formula_units_Z 28
_cell_length_a 9.677534
_cell_length_b 7.600022
_cell_length_c 25.858885
_cell_angle_alpha 90.000000
_cell_angle_beta 139.759566
_cell_angle_gamma 90.000000
_cell_volume 1228.625553
_symmetry_space_group_name_H-M "P 2/M"
_symmetry_group_IT_number 10
_symmetry_cell_setting 'monoclinic'
loop_
_space_group_symop_operation_xyz
x,y,z
-x,y,-z
-x,-y,-z
x,-y,z
loop_
_atom_site_type_symbol
_atom_site_label
_atom_site_fract_x
_atom_site_fract_y
_atom_site_fract_z
Si Si1 0.332235 0.793987 0.340928
Si Si2 0.807646 0.798130 0.809644
Si Si3 0.782401 0.790478 0.912935
Si Si4 0.958601 0.293113 0.645266
Si Si5 0.737701 0.712891 0.084114
Si Si6 0.671557 0.711893 0.179449
Si Si7 0.829259 0.713738 0.494952
O O1 0.250559 0.717130 0.262571
O O2 0.219384 0.720420 0.360295
O O3 0.587009 0.771196 0.414964
O O4 0.277652 0.000000 0.326282
O O5 0.726427 0.716752 0.839922
O O6 0.064129 0.792271 0.889568
O O7 0.731045 0.000000 0.785049
O O8 0.574591 0.762999 0.887975
O O9 0.813781 0.000000 0.915185
O O10 0.000000 0.718327 0.000000
O O11 0.994887 0.500000 0.646984
O O12 0.891763 0.221742 0.570392
O O13 0.178301 0.219025 0.731935
O O14 0.749919 0.500000 0.083110
O O15 0.766720 0.767499 0.151856
O O16 0.500000 0.765782 0.000000
O O17 0.679399 0.500000 0.182273
O O18 0.827927 0.500000 0.494482
O O19 0.000000 0.769850 0.500000
#
# Coordination Sequence:
#
# PCOD9149958 Si02
#       7
#     4   4   4   4   4   4   4
#     4  11  23  39  60  88 119 152 191 233 284 340
#     4  10  22  38  56  83 116 152 193 232 279 343
#     4  10  22  39  57  80 114 155 195 236 285 339
#     4  10  21  40  62  86 116 151 191 235 284 341
#     4  10  20  35  57  85 114 145 187 237 284 334
#     4  10  21  36  57  86 115 145 188 237 284 336
#     4  10  23  41  63  89 116 150 191 232 282 343
#
# _framework density 22.789691000000001
#
# number of rings (size 3 to 8) (size 9 to 14) (size 15 to 20)
#    0.000    1.857    1.429    1.714    2.000    5.429 
#    0.000    0.000    0.000    0.000    0.000    0.000 
#    0.000    0.000    0.000    0.000    0.000    0.000 
#
# Total GULP energy -156422.111891 kJ/mol
# GULP energy per Si atom -5586.503996 kJ/mol
# Density = 2.273782 g / cm^3
# Si number density = 22.789691 Si / 1000 Ang^3
#
#
#
# Elastic Constant Matrix: (Units=GPa)
#
#
# Indices 1 2 3 4 5 6 
#
# 1 81.5986 -9.9402 12.5821 0.0000 -3.3617 0.0000
# 2 -9.9402 49.9981 -2.7866 0.0000 -9.7824 0.0000
# 3 12.5821 -2.7866 104.8836 0.0000 -0.2250 0.0000
# 4 0.0000 0.0000 0.0000 14.0116 0.0000 11.1754
# 5 -3.3617 -9.7824 -0.2250 0.0000 42.3774 0.0000
# 6 0.0000 0.0000 0.0000 11.1754 0.0000 12.2940
#
#
#
# Elastic Compliance Matrix: (Units=1/GPa)
#
#
# Indices 1 2 3 4 5 6 
#
# 1 0.012892 0.002807 -0.001468 0.000000 0.001663 0.000000
# 2 0.002807 0.021592 0.000248 0.000000 0.005208 0.000000
# 3 -0.001468 0.000248 0.009717 0.000000 -0.000008 0.000000
# 4 0.000000 0.000000 0.000000 0.259530 0.000000 -0.235914
# 5 0.001663 0.005208 -0.000008 0.000000 0.024932 0.000000
# 6 0.000000 0.000000 0.000000 -0.235914 0.000000 0.295788
#
#
# Mechanical properties :
#
#
# Convention : Reuss Voigt Hill
#
# Bulk Modulus (GPa) = 21.10898 26.24343 23.67620
# Shear Modulus (GPa) = 7.84845 29.51160 18.68002
#
# Velocity S-wave (km/s) = 1.85778 3.60245 2.86609
# Velocity P-wave (km/s) = 3.72618 5.37066 4.62214
#
# Compressibility (1/GPa) = 0.04737321
#
# Stress axis : x y z
#
# Youngs Moduli (GPa) = 77.56793 46.31432 102.91126
#
# Poissons Ratio (x) = -0.12998 0.15112
# Poissons Ratio (y) = -0.21770 -0.02554
# Poissons Ratio (z) = 0.11390 -0.01149
#
# Static dielectric constant tensor:
#      x y z
#    x 1.805250 0.000000 -0.053320 
#    y 0.000000 1.863990 0.000000 
#    z -0.053320 0.000000 1.857510 
# 
# From -- ./inp_files/36948.got.cif
#   From: 2010.05.17/outbox.cif.g08.bks.cpg/sg10_19_cif.got.tgz:36948.got - 2010.06.03 11:33:40.
