data_PCOD9149713
_publ_section_title
;
Structure prediction by ZEFSAII (Michael W. Deem and Ramdas Pophale) SiO2 
 PCOD9149713
Probable space group: P 2/M
;
_chemical_formula_sum "Si O2"
_cell_formula_units_Z 32
_cell_length_a 12.326040
_cell_length_b 18.312461
_cell_length_c 9.285506
_cell_angle_alpha 90.000000
_cell_angle_beta 133.779492
_cell_angle_gamma 90.000000
_cell_volume 1513.274881
_symmetry_space_group_name_H-M "P 2/M"
_symmetry_group_IT_number 10
_symmetry_cell_setting 'monoclinic'
loop_
_space_group_symop_operation_xyz
x,y,z
-x,y,-z
-x,-y,-z
x,-y,z
loop_
_atom_site_type_symbol
_atom_site_label
_atom_site_fract_x
_atom_site_fract_y
_atom_site_fract_z
Si Si1 0.849725 0.584360 0.143458
Si Si2 0.850792 0.087072 0.790484
Si Si3 0.328878 0.354911 0.789823
Si Si4 0.420090 0.847893 0.283104
Si Si5 0.296451 0.912775 0.631334
Si Si6 0.329192 0.798923 0.899606
Si Si7 0.182572 0.585524 0.402096
Si Si8 0.358725 0.585053 0.284404
O O1 0.863928 0.500000 0.109662
O O2 0.785691 0.588161 0.244048
O O3 0.015875 0.615147 0.278813
O O4 0.713716 0.618235 0.924747
O O5 0.707346 0.103544 0.758316
O O6 0.822303 0.111293 0.600212
O O7 0.865342 0.000000 0.794449
O O8 0.000000 0.118298 0.000000
O O9 0.265179 0.276697 0.781418
O O10 0.307961 0.368575 0.602414
O O11 0.500000 0.365139 0.000000
O O12 0.500000 0.813113 0.500000
O O13 0.545925 0.891678 0.304867
O O14 0.337816 0.803002 0.080263
O O15 0.271829 0.869217 0.757615
O O16 0.293299 0.000000 0.651257
O O17 0.500000 0.794414 0.000000
O O18 0.193537 0.500000 0.453496
O O19 0.221849 0.586811 0.270731
O O20 0.500000 0.617078 0.500000
O O21 0.402447 0.500000 0.291666
#
# Coordination Sequence:
#
# PCOD9149713 Si02
#       8
#     4   4   4   4   4   4   4   4
#     4  10  20  35  55  79 107 138 175 219 265 313
#     4   9  17  30  49  77 110 137 167 213 264 310
#     4  11  22  36  52  74 106 142 179 218 263 315
#     4   9  17  32  55  78 100 132 175 216 258 310
#     4   9  17  32  56  81 104 135 175 217 261 311
#     4   9  20  36  53  78 108 137 173 219 268 312
#     4  10  20  35  56  80 106 138 175 217 265 315
#     4   9  17  31  53  82 110 135 170 217 266 315
#
# _framework density 21.146191000000002
#
# number of rings (size 3 to 8) (size 9 to 14) (size 15 to 20)
#    0.000    2.500    0.000    2.250    0.000    8.750 
#    0.000    8.750    0.000    2.250    0.000    0.000 
#    0.000    0.000    0.000    0.000    0.000    0.000 
#
# Total GULP energy -178151.074408 kJ/mol
# GULP energy per Si atom -5567.221075 kJ/mol
# Density = 2.109806 g / cm^3
# Si number density = 21.146191 Si / 1000 Ang^3
#
#
#
# Elastic Constant Matrix: (Units=GPa)
#
#
# Indices 1 2 3 4 5 6 
#
# 1 53.1230 -1.6465 16.7282 0.0000 -6.8180 0.0000
# 2 -1.6465 47.8595 25.8969 0.0000 -9.7831 0.0000
# 3 16.7282 25.8969 97.1815 0.0000 -11.6264 0.0000
# 4 0.0000 0.0000 0.0000 13.9274 0.0000 -3.4384
# 5 -6.8180 -9.7831 -11.6264 0.0000 40.9369 0.0000
# 6 0.0000 0.0000 0.0000 -3.4384 0.0000 2.2212
#
#
#
# Elastic Compliance Matrix: (Units=1/GPa)
#
#
# Indices 1 2 3 4 5 6 
#
# 1 0.020638 0.003585 -0.004135 0.000000 0.003120 0.000000
# 2 0.003585 0.025730 -0.006901 0.000000 0.004786 0.000000
# 3 -0.004135 -0.006901 0.013003 0.000000 0.001355 0.000000
# 4 0.000000 0.000000 0.000000 0.116213 0.000000 0.179897
# 5 0.003120 0.004786 0.001355 0.000000 0.026476 0.000000
# 6 0.000000 0.000000 0.000000 0.179897 0.000000 0.728689
#
#
# Mechanical properties :
#
#
# Convention : Reuss Voigt Hill
#
# Bulk Modulus (GPa) = 22.48735 31.12456 26.80596
# Shear Modulus (GPa) = 5.20576 21.89613 13.55095
#
# Velocity S-wave (km/s) = 1.57071 3.22135 2.53419
# Velocity P-wave (km/s) = 3.73455 5.34667 4.61160
#
# Compressibility (1/GPa) = 0.04446944
#
# Stress axis : x y z
#
# Youngs Moduli (GPa) = 48.45504 38.86460 76.90627
#
# Poissons Ratio (x) = -0.13933 0.31797
# Poissons Ratio (y) = -0.17371 0.53074
# Poissons Ratio (z) = 0.20034 0.26821
#
# Static dielectric constant tensor:
#      x y z
#    x 1.722290 0.000000 0.022560 
#    y 0.000000 1.788080 0.000000 
#    z 0.022560 0.000000 1.842040 
# 
# From -- ./inp_files/26101.got.cif
#   From: 2010.05.17/outbox.cif.g08.bks.cpg/sg10_14_cif.got.tgz:26101.got - 2010.06.03 11:33:40.
