data_PCOD9149729
_publ_section_title
;
Structure prediction by ZEFSAII (Michael W. Deem and Ramdas Pophale) SiO2 
 PCOD9149729
Probable space group: P 2/M
;
_chemical_formula_sum "Si O2"
_cell_formula_units_Z 24
_cell_length_a 15.755051
_cell_length_b 17.646843
_cell_length_c 7.893414
_cell_angle_alpha 90.000000
_cell_angle_beta 33.118756
_cell_angle_gamma 90.000000
_cell_volume 1199.067026
_symmetry_space_group_name_H-M "P 2/M"
_symmetry_group_IT_number 10
_symmetry_cell_setting 'monoclinic'
loop_
_space_group_symop_operation_xyz
x,y,z
-x,y,-z
-x,-y,-z
x,-y,z
loop_
_atom_site_type_symbol
_atom_site_label
_atom_site_fract_x
_atom_site_fract_y
_atom_site_fract_z
Si Si1 0.827671 0.583011 0.370602
Si Si2 0.896578 0.256446 0.344184
Si Si3 0.590374 0.662776 0.519520
Si Si4 0.618405 0.792028 0.979622
Si Si5 0.804425 0.795930 0.012690
Si Si6 0.597752 0.913831 0.514040
O O1 0.793414 0.500000 0.502243
O O2 0.848140 0.656122 0.455587
O O3 0.692813 0.604734 0.459853
O O4 0.000000 0.578313 0.000000
O O5 0.732706 0.213810 0.628837
O O6 0.000000 0.252518 0.000000
O O7 0.016254 0.222666 0.277149
O O8 0.500000 0.634615 0.500000
O O9 0.713215 0.724804 0.246897
O O10 0.472917 0.713157 0.830608
O O11 0.732432 0.802462 0.948508
O O12 0.502013 0.862128 0.192202
O O13 0.754947 0.869692 0.202422
O O14 0.500000 0.914307 0.500000
O O15 0.619850 0.000000 0.532456
#
# Coordination Sequence:
#
# PCOD9149729 Si02
#       6
#     4   4   4   4   4   4
#     4  10  20  35  55  80 111 148 183 224 283 332
#     4  11  20  34  53  78 106 149 187 227 265 327
#     4   9  17  34  55  81 107 137 184 230 275 326
#     4   9  19  31  56  82 107 140 185 231 268 322
#     4   9  16  33  54  81 108 139 181 224 274 329
#     4   8  15  31  56  84 110 137 178 233 279 318
#
# _framework density 20.015563
#
# number of rings (size 3 to 8) (size 9 to 14) (size 15 to 20)
#    0.000    2.667    3.333    2.500    0.000    1.000 
#    0.000    2.500    0.000   10.000    0.000    0.000 
#    0.000    0.000    0.000    0.000    0.000    0.000 
#
# Total GULP energy -133666.129673 kJ/mol
# GULP energy per Si atom -5569.422070 kJ/mol
# Density = 1.997001 g / cm^3
# Si number density = 20.015563 Si / 1000 Ang^3
#
#
#
# Elastic Constant Matrix: (Units=GPa)
#
#
# Indices 1 2 3 4 5 6 
#
# 1 98.9488 38.9007 31.8394 0.0000 -26.0784 0.0000
# 2 38.9007 130.6753 47.5522 0.0000 -15.7689 0.0000
# 3 31.8394 47.5522 113.5400 0.0000 -8.4955 0.0000
# 4 0.0000 0.0000 0.0000 13.2181 0.0000 5.6450
# 5 -26.0784 -15.7689 -8.4955 0.0000 29.2117 0.0000
# 6 0.0000 0.0000 0.0000 5.6450 0.0000 34.6817
#
#
#
# Elastic Compliance Matrix: (Units=1/GPa)
#
#
# Indices 1 2 3 4 5 6 
#
# 1 0.014682 -0.002148 -0.002375 0.000000 0.011257 0.000000
# 2 -0.002148 0.009789 -0.003318 0.000000 0.002402 0.000000
# 3 -0.002375 -0.003318 0.010806 0.000000 -0.000769 0.000000
# 4 0.000000 0.000000 0.000000 0.081306 0.000000 -0.013234
# 5 0.011257 0.002402 -0.000769 0.000000 0.045355 0.000000
# 6 0.000000 0.000000 0.000000 -0.013234 0.000000 0.030988
#
#
# Mechanical properties :
#
#
# Convention : Reuss Voigt Hill
#
# Bulk Modulus (GPa) = 51.03473 64.41652 57.72563
# Shear Modulus (GPa) = 23.24088 30.41376 26.82732
#
# Velocity S-wave (km/s) = 3.41125 3.90231 3.66501
# Velocity P-wave (km/s) = 6.40846 7.24963 6.84198
#
# Compressibility (1/GPa) = 0.01959450
#
# Stress axis : x y z
#
# Youngs Moduli (GPa) = 68.11204 102.15409 92.54498
#
# Poissons Ratio (x) = 0.21941 0.21982
# Poissons Ratio (y) = 0.14630 0.30704
# Poissons Ratio (z) = 0.16179 0.33893
#
# Static dielectric constant tensor:
#      x y z
#    x 1.839770 0.000000 0.059190 
#    y 0.000000 1.699170 0.000000 
#    z 0.059190 0.000000 1.771900 
# 
# From -- ./inp_files/32956.got.cif
#   From: 2010.05.17/outbox.cif.g08.bks.cpg/sg10_17_cif.got.tgz:32956.got - 2010.06.03 11:33:40.
