data_PCOD9149185
_publ_section_title
;
Structure prediction by ZEFSAII (Michael W. Deem and Ramdas Pophale) SiO2 
 PCOD9149185
Probable space group: P 2/M
;
_chemical_formula_sum "Si O2"
_cell_formula_units_Z 28
_cell_length_a 9.758033
_cell_length_b 7.782271
_cell_length_c 31.924088
_cell_angle_alpha 90.000000
_cell_angle_beta 40.167760
_cell_angle_gamma 90.000000
_cell_volume 1563.743674
_symmetry_space_group_name_H-M "P 2/M"
_symmetry_group_IT_number 10
_symmetry_cell_setting 'monoclinic'
loop_
_space_group_symop_operation_xyz
x,y,z
-x,y,-z
-x,-y,-z
x,-y,z
loop_
_atom_site_type_symbol
_atom_site_label
_atom_site_fract_x
_atom_site_fract_y
_atom_site_fract_z
Si Si1 0.672800 0.705668 0.192727
Si Si2 0.363566 0.294332 0.192727
Si Si3 0.671278 0.302570 0.664905
Si Si4 0.081771 0.000000 0.433665
Si Si5 0.476754 0.206892 0.071942
Si Si6 0.250094 0.000000 0.566335
Si Si7 0.163537 0.206892 0.071942
Si Si8 0.995803 0.302570 0.335095
O O1 0.648426 0.500000 0.198696
O O2 0.541866 0.773946 0.183254
O O3 0.551876 0.761512 0.263321
O O4 0.919571 0.743690 0.131325
O O5 0.358092 0.500000 0.198696
O O6 0.423806 0.256310 0.131325
O O7 0.131520 0.238488 0.263321
O O8 0.653781 0.500000 0.653578
O O9 0.775234 0.168222 0.609083
O O10 0.829318 0.306679 0.668273
O O11 0.000000 0.000000 0.500000
O O12 0.890179 0.000000 0.443929
O O13 0.296290 0.266972 0.081484
O O14 0.477981 0.000000 0.070177
O O15 0.702826 0.266054 0.000000
O O16 0.500000 0.000000 0.500000
O O17 0.179354 0.831778 0.609083
O O18 0.171136 0.000000 0.070177
O O19 0.921672 0.500000 0.346422
#
# Coordination Sequence:
#
# PCOD9149185 Si02
#       8
#     4   4   4   2   4   2   4   4
#     4   9  18  32  51  75  98 123 164 213 253 293
#     4   9  18  32  51  75  98 123 164 213 253 293
#     4   8  16  32  52  75 103 133 166 205 249 298
#     4  10  20  34  54  78 103 134 167 199 244 299
#     4   9  19  34  48  66  97 135 170 204 248 301
#     4  10  20  34  54  78 103 134 167 199 244 299
#     4   9  19  34  48  66  97 135 170 204 248 301
#     4   8  16  32  52  75 103 133 166 205 249 298
#
# _framework density 17.905747999999999
#
# number of rings (size 3 to 8) (size 9 to 14) (size 15 to 20)
#    0.000    3.143    0.000    2.571    2.000    2.857 
#    0.000    5.714    0.000    1.714    0.000    0.000 
#    0.000    0.000    0.000    0.000    0.000    0.000 
#
# Total GULP energy -155947.553381 kJ/mol
# GULP energy per Si atom -5569.555478 kJ/mol
# Density = 1.786499 g / cm^3
# Si number density = 17.905748 Si / 1000 Ang^3
#
#
#
# Elastic Constant Matrix: (Units=GPa)
#
#
# Indices 1 2 3 4 5 6 
#
# 1 46.4458 23.8907 77.0283 0.0000 -5.0870 0.0000
# 2 23.8907 62.7778 63.5537 0.0000 -1.9875 0.0000
# 3 77.0283 63.5537 214.8112 0.0000 -3.3497 0.0000
# 4 0.0000 0.0000 0.0000 43.5495 0.0000 -1.0195
# 5 -5.0870 -1.9875 -3.3497 0.0000 35.3806 0.0000
# 6 0.0000 0.0000 0.0000 -1.0195 0.0000 23.2039
#
#
#
# Elastic Compliance Matrix: (Units=1/GPa)
#
#
# Indices 1 2 3 4 5 6 
#
# 1 0.054423 -0.001228 -0.019059 0.000000 0.005951 0.000000
# 2 -0.001228 0.022782 -0.006292 0.000000 0.000508 0.000000
# 3 -0.019059 -0.006292 0.013323 0.000000 -0.001832 0.000000
# 4 0.000000 0.000000 0.000000 0.022986 0.000000 0.001010
# 5 0.005951 0.000508 -0.001832 0.000000 0.028975 0.000000
# 6 0.000000 0.000000 0.000000 0.001010 0.000000 0.043141
#
#
# Mechanical properties :
#
#
# Convention : Reuss Voigt Hill
#
# Bulk Modulus (GPa) = 26.75997 72.55339 49.65668
# Shear Modulus (GPa) = 19.90097 31.06427 25.48262
#
# Velocity S-wave (km/s) = 3.33743 4.16970 3.77656
# Velocity P-wave (km/s) = 5.46155 7.98683 6.84171
#
# Compressibility (1/GPa) = 0.03736924
#
# Stress axis : x y z
#
# Youngs Moduli (GPa) = 18.37469 43.89335 75.06053
#
# Poissons Ratio (x) = 0.05390 1.43059
# Poissons Ratio (y) = 0.02256 0.47229
# Poissons Ratio (z) = 0.35020 0.27618
#
# Static dielectric constant tensor:
#      x y z
#    x 1.597620 0.000000 -0.001520 
#    y 0.000000 1.648060 0.000000 
#    z -0.001520 0.000000 1.627940 
# 
# From -- ./inp_files/92038.got.cif
#   From: 2010.05.17/outbox.cif.g08.bks.cpg/sg10_47_cif.got.tgz:92038.got - 2010.06.03 11:33:40.
