data_PCOD9149284
_publ_section_title
;
Structure prediction by ZEFSAII (Michael W. Deem and Ramdas Pophale) SiO2 
 PCOD9149284
Probable space group: P 2/M
;
_chemical_formula_sum "Si O2"
_cell_formula_units_Z 26
_cell_length_a 15.154846
_cell_length_b 17.361795
_cell_length_c 5.723447
_cell_angle_alpha 90.000000
_cell_angle_beta 112.927581
_cell_angle_gamma 90.000000
_cell_volume 1386.955401
_symmetry_space_group_name_H-M "P 2/M"
_symmetry_group_IT_number 10
_symmetry_cell_setting 'monoclinic'
loop_
_space_group_symop_operation_xyz
x,y,z
-x,y,-z
-x,-y,-z
x,-y,z
loop_
_atom_site_type_symbol
_atom_site_label
_atom_site_fract_x
_atom_site_fract_y
_atom_site_fract_z
Si Si1 0.095370 0.914575 0.940757
Si Si2 0.243569 0.830176 0.404448
Si Si3 0.287373 0.712396 0.068634
Si Si4 0.104099 0.236875 0.642600
Si Si5 0.448303 0.407570 0.197157
Si Si6 0.388378 0.852279 0.928487
Si Si7 0.441705 0.000000 0.196019
O O1 0.187601 0.891031 0.187576
O O2 0.105890 0.000000 0.846824
O O3 0.087139 0.844381 0.754826
O O4 0.000000 0.914901 0.000000
O O5 0.290261 0.758620 0.314746
O O6 0.160737 0.789005 0.471214
O O7 0.324894 0.872655 0.638451
O O8 0.345826 0.634319 0.110210
O O9 0.341465 0.773381 0.959986
O O10 0.177500 0.712156 0.870294
O O11 0.000000 0.272880 0.500000
O O12 0.500000 0.386936 0.500000
O O13 0.439924 0.500000 0.184712
O O14 0.500000 0.386094 0.000000
O O15 0.383246 0.920969 0.110878
O O16 0.500000 0.838876 0.000000
O O17 0.500000 0.000000 0.500000
O O18 0.500000 0.000000 0.000000
#
# Coordination Sequence:
#
# PCOD9149284 Si02
#       7
#     4   4   4   4   4   4   2
#     4  10  20  34  55  77 107 152 203 271 329 374
#     4  10  22  37  53  82 110 155 205 253 312 368
#     4  10  23  36  62  88 117 157 204 245 307 373
#     4  10  20  38  54  79 115 152 205 256 311 368
#     4  10  23  42  69 103 137 166 195 246 308 373
#     4  10  23  38  55  79 111 159 199 254 298 361
#     4  10  24  40  58  76 110 159 210 253 306 350
#
# _framework density 18.746098
#
# number of rings (size 3 to 8) (size 9 to 14) (size 15 to 20)
#    0.000    2.000    1.538    0.462   11.846    0.923 
#   11.077    0.000    0.000    0.462    0.000    1.077 
#    0.000    0.000    0.000    0.000    0.000    0.000 
#
# Total GULP energy -144918.785114 kJ/mol
# GULP energy per Si atom -5573.799427 kJ/mol
# Density = 1.870343 g / cm^3
# Si number density = 18.746098 Si / 1000 Ang^3
#
#
#
# Elastic Constant Matrix: (Units=GPa)
#
#
# Indices 1 2 3 4 5 6 
#
# 1 96.1754 27.2365 45.8026 0.0000 17.3432 0.0000
# 2 27.2365 38.6114 26.2062 0.0000 6.9556 0.0000
# 3 45.8026 26.2062 119.4829 0.0000 24.2378 0.0000
# 4 0.0000 0.0000 0.0000 5.1179 0.0000 -15.2177
# 5 17.3432 6.9556 24.2378 0.0000 36.0178 0.0000
# 6 0.0000 0.0000 0.0000 -15.2177 0.0000 24.4040
#
#
#
# Elastic Compliance Matrix: (Units=1/GPa)
#
#
# Indices 1 2 3 4 5 6 
#
# 1 0.014715 -0.007527 -0.003298 0.000000 -0.003413 0.000000
# 2 -0.007527 0.034359 -0.004678 0.000000 0.000137 0.000000
# 3 -0.003298 -0.004678 0.011760 0.000000 -0.005422 0.000000
# 4 0.000000 0.000000 0.000000 -0.228755 0.000000 -0.142646
# 5 -0.003413 0.000137 -0.005422 0.000000 0.033030 0.000000
# 6 0.000000 0.000000 0.000000 -0.142646 0.000000 -0.047973
#
#
# Mechanical properties :
#
#
# Convention : Reuss Voigt Hill
#
# Bulk Modulus (GPa) = 33.52606 50.30669 41.91638
# Shear Modulus (GPa) = -35.23234 23.44291 -5.89472
#
# Velocity S-wave (km/s) = -4.33996 3.54015 -1.77520
# Velocity P-wave (km/s) = 2.68153 6.60335 4.26695
#
# Compressibility (1/GPa) = 0.02982754
#
# Stress axis : x y z
#
# Youngs Moduli (GPa) = 67.95652 29.10418 85.03720
#
# Poissons Ratio (x) = 0.21907 0.28043
# Poissons Ratio (y) = 0.51152 0.39784
# Poissons Ratio (z) = 0.22410 0.13616
#
# Static dielectric constant tensor:
#      x y z
#    x 1.737970 0.000000 -0.029620 
#    y 0.000000 1.621130 0.000000 
#    z -0.029620 0.000000 1.756880 
# 
# From -- ./inp_files/9716.got.cif
#   From: 2010.05.17/outbox.cif.g08.bks.cpg/sg10_5_cif.got.tgz:9716.got - 2010.06.03 11:33:40.
