data_PCOD9149457
_publ_section_title
;
Structure prediction by ZEFSAII (Michael W. Deem and Ramdas Pophale) SiO2 
 PCOD9149457
Probable space group: P 2/M
;
_chemical_formula_sum "Si O2"
_cell_formula_units_Z 28
_cell_length_a 10.412061
_cell_length_b 14.026167
_cell_length_c 8.847713
_cell_angle_alpha 90.000000
_cell_angle_beta 78.444862
_cell_angle_gamma 90.000000
_cell_volume 1265.943148
_symmetry_space_group_name_H-M "P 2/M"
_symmetry_group_IT_number 10
_symmetry_cell_setting 'monoclinic'
loop_
_space_group_symop_operation_xyz
x,y,z
-x,y,-z
-x,-y,-z
x,-y,z
loop_
_atom_site_type_symbol
_atom_site_label
_atom_site_fract_x
_atom_site_fract_y
_atom_site_fract_z
Si Si1 0.580283 0.895072 0.116799
Si Si2 0.810719 0.889236 0.285694
Si Si3 0.629349 0.661696 0.758129
Si Si4 0.987297 0.500000 0.272550
Si Si5 0.390353 0.160794 0.413466
Si Si6 0.925489 0.296398 0.164529
Si Si7 0.334120 0.385625 0.903939
Si Si8 0.770100 0.500000 0.556131
O O1 0.716073 0.864666 0.163234
O O2 0.479174 0.900657 0.279887
O O3 0.612404 0.000000 0.048231
O O4 0.500000 0.843514 0.000000
O O5 0.716572 0.886741 0.454757
O O6 0.907431 0.797667 0.273140
O O7 0.858026 0.000000 0.257736
O O8 0.672035 0.762733 0.683886
O O9 0.472385 0.653538 0.810591
O O10 0.682342 0.589145 0.620801
O O11 0.678290 0.636818 0.914311
O O12 0.998039 0.395745 0.193100
O O13 0.841590 0.500000 0.379660
O O14 0.105189 0.500000 0.362569
O O15 0.500000 0.206467 0.500000
O O16 0.782801 0.336908 0.156870
O O17 0.000000 0.259730 0.000000
O O18 0.333980 0.500000 0.889711
#
# Coordination Sequence:
#
# PCOD9149457 Si02
#       8
#     4   4   4   2   4   4   4   2
#     4   9  18  33  56  88 124 160 201 254 317 384
#     4  10  22  41  62  90 124 165 218 269 324 379
#     4  11  21  35  59  91 129 163 207 256 321 375
#     4  11  25  43  63  90 128 168 221 257 312 391
#     4  10  20  34  56  87 129 168 205 249 319 386
#     4  12  25  42  66  90 122 170 217 270 324 388
#     4  11  21  38  60  91 129 168 208 263 320 382
#     4  11  22  40  61  87 122 172 208 261 309 378
#
# _framework density 22.117896999999999
#
# number of rings (size 3 to 8) (size 9 to 14) (size 15 to 20)
#    0.000    1.429    2.143    4.500    4.000    2.000 
#    0.000    1.071    0.000    0.000    0.000    6.000 
#    0.000    0.000    0.000    0.000    0.000    0.000 
#
# Total GULP energy -156106.459202 kJ/mol
# GULP energy per Si atom -5575.230686 kJ/mol
# Density = 2.206756 g / cm^3
# Si number density = 22.117897 Si / 1000 Ang^3
#
#
#
# Elastic Constant Matrix: (Units=GPa)
#
#
# Indices 1 2 3 4 5 6 
#
# 1 38.0539 7.0412 3.4064 0.0000 -5.0887 0.0000
# 2 7.0412 130.4270 13.3573 0.0000 1.0019 0.0000
# 3 3.4064 13.3573 76.7068 0.0000 -12.1150 0.0000
# 4 0.0000 0.0000 0.0000 20.3801 0.0000 17.6153
# 5 -5.0887 1.0019 -12.1150 0.0000 27.2241 0.0000
# 6 0.0000 0.0000 0.0000 17.6153 0.0000 -27.8813
#
#
#
# Elastic Compliance Matrix: (Units=1/GPa)
#
#
# Indices 1 2 3 4 5 6 
#
# 1 0.027248 -0.001495 -0.000147 0.000000 0.005083 0.000000
# 2 -0.001495 0.007912 -0.001507 0.000000 -0.001241 0.000000
# 3 -0.000147 -0.001507 0.014316 0.000000 0.006399 0.000000
# 4 0.000000 0.000000 0.000000 0.031737 0.000000 0.020051
# 5 0.005083 -0.001241 0.006399 0.000000 0.040575 0.000000
# 6 0.000000 0.000000 0.000000 0.020051 0.000000 -0.023198
#
#
# Mechanical properties :
#
#
# Convention : Reuss Voigt Hill
#
# Bulk Modulus (GPa) = 23.16027 32.53306 27.84667
# Shear Modulus (GPa) = 41.91785 18.70345 30.31065
#
# Velocity S-wave (km/s) = 4.35811 2.91112 3.70592
# Velocity P-wave (km/s) = 5.98483 5.10297 5.56141
#
# Compressibility (1/GPa) = 0.04317740
#
# Stress axis : x y z
#
# Youngs Moduli (GPa) = 36.70000 126.39440 69.85045
#
# Poissons Ratio (x) = 0.18896 0.01026
# Poissons Ratio (y) = 0.05487 0.10529
# Poissons Ratio (z) = 0.00539 0.19052
#
# Static dielectric constant tensor:
#      x y z
#    x 1.822460 0.000000 0.031960 
#    y 0.000000 1.896070 0.000000 
#    z 0.031960 0.000000 1.822670 
# 
# From -- ./inp_files/24979.got.cif
#   From: 2010.05.17/outbox.cif.g08.bks.cpg/sg10_13_cif.got.tgz:24979.got - 2010.06.03 11:33:40.
