data_PCOD9149691
_publ_section_title
;
Structure prediction by ZEFSAII (Michael W. Deem and Ramdas Pophale) SiO2 
 PCOD9149691
Probable space group: P 2/M
;
_chemical_formula_sum "Si O2"
_cell_formula_units_Z 32
_cell_length_a 10.734121
_cell_length_b 7.806652
_cell_length_c 22.392181
_cell_angle_alpha 90.000000
_cell_angle_beta 130.992183
_cell_angle_gamma 90.000000
_cell_volume 1416.312425
_symmetry_space_group_name_H-M "P 2/M"
_symmetry_group_IT_number 10
_symmetry_cell_setting 'monoclinic'
loop_
_space_group_symop_operation_xyz
x,y,z
-x,y,-z
-x,-y,-z
x,-y,z
loop_
_atom_site_type_symbol
_atom_site_label
_atom_site_fract_x
_atom_site_fract_y
_atom_site_fract_z
Si Si1 0.758842 0.299435 0.662695
Si Si2 0.930159 0.196985 0.388859
Si Si3 0.710460 0.804962 0.778753
Si Si4 0.307953 0.290139 0.935196
Si Si5 0.849702 0.698456 0.237873
Si Si6 0.626849 0.796013 0.363015
Si Si7 0.037459 0.300442 0.946033
Si Si8 0.699951 0.302329 0.515179
O O1 0.711805 0.500000 0.657355
O O2 0.731989 0.195863 0.714132
O O3 0.681291 0.231096 0.576458
O O4 0.955658 0.299792 0.714873
O O5 0.834601 0.204922 0.295597
O O6 0.803604 0.271114 0.397113
O O7 0.103951 0.289032 0.436268
O O8 0.971077 0.000000 0.416446
O O9 0.526151 0.727753 0.724153
O O10 0.865154 0.710547 0.856027
O O11 0.712839 0.000000 0.802153
O O12 0.299034 0.500000 0.932614
O O13 0.240573 0.234040 0.849330
O O14 0.185076 0.230592 0.949996
O O15 0.500000 0.241995 0.000000
O O16 0.800107 0.500000 0.231749
O O17 0.611715 0.769394 0.429067
O O18 0.629192 0.000000 0.353260
O O19 0.080901 0.500000 0.969342
O O20 0.000000 0.224445 0.000000
O O21 0.655651 0.500000 0.505497
#
# Coordination Sequence:
#
# PCOD9149691 Si02
#       8
#     4   4   4   4   4   4   4   4
#     4   9  18  35  56  80 110 143 183 232 283 327
#     4  10  20  35  55  77 109 150 186 227 281 337
#     4  11  23  38  58  81 110 151 193 230 276 335
#     4   9  17  32  56  85 115 144 179 231 289 340
#     4   9  17  32  55  81 109 140 180 230 278 330
#     4  10  23  39  52  76 115 154 189 230 280 336
#     4  10  21  39  62  87 115 150 191 235 288 348
#     4  10  21  36  57  84 111 143 186 239 287 331
#
# _framework density 22.593886000000001
#
# number of rings (size 3 to 8) (size 9 to 14) (size 15 to 20)
#    0.000    2.250    1.250    2.250    0.000    7.750 
#    0.000    3.750    0.000    1.500    0.000    0.000 
#    0.000    0.000    0.000    0.000    0.000    0.000 
#
# Total GULP energy -178613.025703 kJ/mol
# GULP energy per Si atom -5581.657053 kJ/mol
# Density = 2.254246 g / cm^3
# Si number density = 22.593886 Si / 1000 Ang^3
#
#
#
# Elastic Constant Matrix: (Units=GPa)
#
#
# Indices 1 2 3 4 5 6 
#
# 1 95.7657 -0.6777 53.4982 0.0000 -2.4932 0.0000
# 2 -0.6777 30.5028 -3.6667 0.0000 0.8209 0.0000
# 3 53.4982 -3.6667 151.1848 0.0000 -2.0113 0.0000
# 4 0.0000 0.0000 0.0000 121.8776 0.0000 -50.8929
# 5 -2.4932 0.8209 -2.0113 0.0000 35.0248 0.0000
# 6 0.0000 0.0000 0.0000 -50.8929 0.0000 33.7053
#
#
#
# Elastic Compliance Matrix: (Units=1/GPa)
#
#
# Indices 1 2 3 4 5 6 
#
# 1 0.013033 -0.000283 -0.004610 0.000000 0.000670 0.000000
# 2 -0.000283 0.032904 0.000888 0.000000 -0.000740 0.000000
# 3 -0.004610 0.000888 0.008269 0.000000 0.000126 0.000000
# 4 0.000000 0.000000 0.000000 0.022206 0.000000 0.033530
# 5 0.000670 -0.000740 0.000126 0.000000 0.028623 0.000000
# 6 0.000000 0.000000 0.000000 0.033530 0.000000 0.080297
#
#
# Mechanical properties :
#
#
# Convention : Reuss Voigt Hill
#
# Bulk Modulus (GPa) = 21.64613 41.75119 31.69866
# Shear Modulus (GPa) = 23.95327 53.34152 38.64740
#
# Velocity S-wave (km/s) = 3.25955 4.86416 4.14034
# Velocity P-wave (km/s) = 4.87520 7.07572 6.07591
#
# Compressibility (1/GPa) = 0.04619763
#
# Stress axis : x y z
#
# Youngs Moduli (GPa) = 76.72993 30.39118 120.93616
#
# Poissons Ratio (x) = 0.00859 0.55748
# Poissons Ratio (y) = 0.02168 -0.10741
# Poissons Ratio (z) = 0.35370 -0.02699
#
# Static dielectric constant tensor:
#      x y z
#    x 1.893070 0.000000 0.012160 
#    y 0.000000 1.817500 0.000000 
#    z 0.012160 0.000000 1.829250 
# 
# From -- ./inp_files/88551.got.cif
#   From: 2010.05.17/outbox.cif.g08.bks.cpg/sg10_45_cif.got.tgz:88551.got - 2010.06.03 11:33:40.
