data_PCOD9149162
_publ_section_title
;
Structure prediction by ZEFSAII (Michael W. Deem and Ramdas Pophale) SiO2 
 PCOD9149162
Probable space group: P 2/M
;
_chemical_formula_sum "Si O2"
_cell_formula_units_Z 32
_cell_length_a 9.068082
_cell_length_b 23.285406
_cell_length_c 14.556808
_cell_angle_alpha 90.000000
_cell_angle_beta 25.633229
_cell_angle_gamma 90.000000
_cell_volume 1329.721390
_symmetry_space_group_name_H-M "P 2/M"
_symmetry_group_IT_number 10
_symmetry_cell_setting 'monoclinic'
loop_
_space_group_symop_operation_xyz
x,y,z
-x,y,-z
-x,-y,-z
x,-y,z
loop_
_atom_site_type_symbol
_atom_site_label
_atom_site_fract_x
_atom_site_fract_y
_atom_site_fract_z
Si Si1 0.087835 0.938591 0.734155
Si Si2 0.253093 0.358211 0.264122
Si Si3 0.821646 0.437636 0.389321
Si Si4 0.363168 0.596014 0.802434
Si Si5 0.860336 0.239582 0.681156
Si Si6 0.020988 0.120956 0.595617
Si Si7 0.209933 0.166281 0.789842
Si Si8 0.445689 0.708924 0.631511
O O1 0.500000 0.942424 0.500000
O O2 0.958034 0.928867 0.703750
O O3 0.038929 0.879921 0.818097
O O4 0.963100 0.000000 0.842453
O O5 0.546477 0.396356 0.142381
O O6 0.000000 0.354593 0.500000
O O7 0.086120 0.386432 0.267513
O O8 0.391116 0.293264 0.174131
O O9 0.500000 0.431093 0.500000
O O10 0.980059 0.500000 0.280431
O O11 0.638707 0.438630 0.591502
O O12 0.346035 0.658820 0.758915
O O13 0.000000 0.568473 0.000000
O O14 0.776731 0.175310 0.755671
O O15 0.185332 0.266804 0.548188
O O16 0.000000 0.230395 0.500000
O O17 0.403443 0.144929 0.404813
O O18 0.000000 0.105092 0.500000
O O19 0.222564 0.232814 0.751750
O O20 0.000000 0.165182 0.000000
O O21 0.500000 0.685063 0.500000
#
# Coordination Sequence:
#
# PCOD9149162 Si02
#       8
#     4   4   4   4   4   4   4   4
#     4   9  18  35  54  77 110 148 195 236 275 347
#     4   9  17  33  55  81 110 151 187 230 274 341
#     4  10  21  39  62  85 109 149 203 239 270 332
#     4  11  22  35  54  87 119 148 184 236 294 339
#     4   9  14  28  51  76 102 133 182 222 271 327
#     4   9  18  31  54  82 104 147 187 234 281 347
#     4  10  20  34  53  83 111 142 186 239 294 340
#     4  11  19  32  56  80 108 144 189 227 280 342
#
# _framework density 24.065192
#
# number of rings (size 3 to 8) (size 9 to 14) (size 15 to 20)
#    0.000    2.250    3.750    2.625    0.000    3.000 
#    0.000    1.250    0.000    2.250    0.000    0.000 
#    0.000    0.000    0.000    0.000    0.000    0.000 
#
# Total GULP energy -178332.124887 kJ/mol
# GULP energy per Si atom -5572.878903 kJ/mol
# Density = 2.401042 g / cm^3
# Si number density = 24.065192 Si / 1000 Ang^3
#
#
#
# Elastic Constant Matrix: (Units=GPa)
#
#
# Indices 1 2 3 4 5 6 
#
# 1 137.8770 44.2313 -4.3619 0.0000 9.8390 0.0000
# 2 44.2313 164.7125 -0.5271 0.0000 11.7947 0.0000
# 3 -4.3619 -0.5271 26.0929 0.0000 8.2848 0.0000
# 4 0.0000 0.0000 0.0000 -3.1238 0.0000 -2.9950
# 5 9.8390 11.7947 8.2848 0.0000 25.0783 0.0000
# 6 0.0000 0.0000 0.0000 -2.9950 0.0000 -32.1821
#
#
#
# Elastic Compliance Matrix: (Units=1/GPa)
#
#
# Indices 1 2 3 4 5 6 
#
# 1 0.008174 -0.001970 0.002291 0.000000 -0.003037 0.000000
# 2 -0.001970 0.006791 0.000644 0.000000 -0.002634 0.000000
# 3 0.002291 0.000644 0.043684 0.000000 -0.015633 0.000000
# 4 0.000000 0.000000 0.000000 -0.351481 0.000000 0.032710
# 5 -0.003037 -0.002634 -0.015633 0.000000 0.047470 0.000000
# 6 0.000000 0.000000 0.000000 0.032710 0.000000 -0.034117
#
#
# Mechanical properties :
#
#
# Convention : Reuss Voigt Hill
#
# Bulk Modulus (GPa) = 16.50741 45.26300 30.88520
# Shear Modulus (GPa) = -19.14124 17.24382 -0.94871
#
# Velocity S-wave (km/s) = -2.82333 2.67974 -0.62855
# Velocity P-wave (km/s) = 1.93750 5.33142 3.51213
#
# Compressibility (1/GPa) = 0.06057887
#
# Stress axis : x y z
#
# Youngs Moduli (GPa) = 122.33750 147.25563 22.89155
#
# Poissons Ratio (x) = 0.29013 -0.05244
# Poissons Ratio (y) = 0.24103 -0.01474
# Poissons Ratio (z) = -0.28027 -0.09484
#
# Static dielectric constant tensor:
#      x y z
#    x 1.971980 0.000000 -0.124900 
#    y 0.000000 2.016060 0.000000 
#    z -0.124900 0.000000 1.959980 
# 
# From -- ./inp_files/62699.got.cif
#   From: 2010.05.17/outbox.cif.g08.bks.cpg/sg10_32_cif.got.tgz:62699.got - 2010.06.03 11:33:40.
