data_PCOD9149555
_publ_section_title
;
Structure prediction by ZEFSAII (Michael W. Deem and Ramdas Pophale) SiO2 
 PCOD9149555
Probable space group: P 2/M
;
_chemical_formula_sum "Si O2"
_cell_formula_units_Z 22
_cell_length_a 9.567134
_cell_length_b 9.815364
_cell_length_c 11.306953
_cell_angle_alpha 90.000000
_cell_angle_beta 107.446969
_cell_angle_gamma 90.000000
_cell_volume 1012.931066
_symmetry_space_group_name_H-M "P 2/M"
_symmetry_group_IT_number 10
_symmetry_cell_setting 'monoclinic'
loop_
_space_group_symop_operation_xyz
x,y,z
-x,y,-z
-x,-y,-z
x,-y,z
loop_
_atom_site_type_symbol
_atom_site_label
_atom_site_fract_x
_atom_site_fract_y
_atom_site_fract_z
Si Si1 0.851529 0.162607 0.540280
Si Si2 0.581536 0.654463 0.396278
Si Si3 0.000000 0.500000 0.000000
Si Si4 0.741560 0.845935 0.090201
Si Si5 0.000000 0.000000 0.000000
Si Si6 0.462145 0.153166 0.183587
Si Si7 0.948004 0.250565 0.822898
O O1 0.722171 0.247944 0.446296
O O2 0.000000 0.174228 0.500000
O O3 0.876112 0.225967 0.677230
O O4 0.818071 0.000000 0.540244
O O5 0.500000 0.647561 0.500000
O O6 0.619530 0.500000 0.368361
O O7 0.469837 0.729102 0.279957
O O8 0.923127 0.381882 0.895945
O O9 0.622834 0.852162 0.163200
O O10 0.875014 0.750007 0.153794
O O11 0.808084 0.000000 0.087256
O O12 0.648449 0.814781 0.950651
O O13 0.078360 0.120579 0.101667
O O14 0.433210 0.000000 0.222087
#
# Coordination Sequence:
#
# PCOD9149555 Si02
#       7
#     4   4   1   4   1   4   4
#     4  11  24  44  74 102 128 167 224 283 328 387
#     4  11  26  45  60  90 136 181 216 260 321 389
#     4  10  28  38  54  84 134 166 206 246 314 386
#     4   9  17  36  67  94 121 154 204 273 321 364
#     4  10  20  34  62  84 122 162 202 254 314 378
#     4   9  19  38  64  95 121 157 214 264 314 376
#     4  11  21  42  59  95 127 167 209 263 324 388
#
# _framework density 21.719147
#
# number of rings (size 3 to 8) (size 9 to 14) (size 15 to 20)
#    0.000    1.818    1.818    2.727    1.273    7.636 
#    9.818    0.909    0.000    0.000    0.000    0.000 
#    0.000    0.000    0.000    0.000    0.000    0.000 
#
# Total GULP energy -122510.218677 kJ/mol
# GULP energy per Si atom -5568.646304 kJ/mol
# Density = 2.166971 g / cm^3
# Si number density = 21.719147 Si / 1000 Ang^3
#
#
#
# Elastic Constant Matrix: (Units=GPa)
#
#
# Indices 1 2 3 4 5 6 
#
# 1 63.1799 10.2473 -15.8686 0.0000 3.7369 0.0000
# 2 10.2473 163.0866 59.3762 0.0000 -0.0603 0.0000
# 3 -15.8686 59.3762 116.5431 0.0000 -4.1859 0.0000
# 4 0.0000 0.0000 0.0000 -11.8468 0.0000 9.6726
# 5 3.7369 -0.0603 -4.1859 0.0000 23.0475 0.0000
# 6 0.0000 0.0000 0.0000 9.6726 0.0000 3.6299
#
#
#
# Elastic Compliance Matrix: (Units=1/GPa)
#
#
# Indices 1 2 3 4 5 6 
#
# 1 0.017204 -0.002340 0.003457 0.000000 -0.002168 0.000000
# 2 -0.002340 0.007857 -0.004336 0.000000 -0.000387 0.000000
# 3 0.003457 -0.004336 0.011313 0.000000 0.001483 0.000000
# 4 0.000000 0.000000 0.000000 -0.026581 0.000000 0.070830
# 5 -0.002168 -0.000387 0.001483 0.000000 0.044008 0.000000
# 6 0.000000 0.000000 0.000000 0.070830 0.000000 0.086751
#
#
# Mechanical properties :
#
#
# Convention : Reuss Voigt Hill
#
# Bulk Modulus (GPa) = 33.40411 50.03548 41.71980
# Shear Modulus (GPa) = 31.85325 22.23644 27.04485
#
# Velocity S-wave (km/s) = 3.83377 3.20319 3.53258
# Velocity P-wave (km/s) = 5.91697 6.06367 5.99077
#
# Compressibility (1/GPa) = 0.02993644
#
# Stress axis : x y z
#
# Youngs Moduli (GPa) = 58.12628 127.27288 88.39077
#
# Poissons Ratio (x) = 0.29787 -0.30557
# Poissons Ratio (y) = 0.13604 0.38323
# Poissons Ratio (z) = -0.20094 0.55181
#
# Static dielectric constant tensor:
#      x y z
#    x 1.745880 0.000000 0.053130 
#    y 0.000000 1.762730 0.000000 
#    z 0.053130 0.000000 1.772000 
# 
# From -- ./inp_files/44713.got.cif
#   From: 2010.05.17/outbox.cif.g08.bks.cpg/sg10_23_cif.got.tgz:44713.got - 2010.06.03 11:33:40.
