data_PCOD9149610
_publ_section_title
;
Structure prediction by ZEFSAII (Michael W. Deem and Ramdas Pophale) SiO2 
 PCOD9149610
Probable space group: P 2/M
;
_chemical_formula_sum "Si O2"
_cell_formula_units_Z 32
_cell_length_a 20.671800
_cell_length_b 8.629721
_cell_length_c 29.919866
_cell_angle_alpha 90.000000
_cell_angle_beta 160.139400
_cell_angle_gamma 90.000000
_cell_volume 1813.310865
_symmetry_space_group_name_H-M "P 2/M"
_symmetry_group_IT_number 10
_symmetry_cell_setting 'monoclinic'
loop_
_space_group_symop_operation_xyz
x,y,z
-x,y,-z
-x,-y,-z
x,-y,z
loop_
_atom_site_type_symbol
_atom_site_label
_atom_site_fract_x
_atom_site_fract_y
_atom_site_fract_z
Si Si1 0.550527 0.311738 0.815266
Si Si2 0.931939 0.814623 0.645369
Si Si3 0.992880 0.687037 0.112033
Si Si4 0.675279 0.813135 0.145256
Si Si5 0.180208 0.185084 0.147828
Si Si6 0.053760 0.686526 0.817355
Si Si7 0.566589 0.685719 0.357252
Si Si8 0.496527 0.313056 0.115947
O O1 0.547825 0.500000 0.813941
O O2 0.445338 0.259533 0.702199
O O3 0.470426 0.261697 0.811350
O O4 0.773936 0.268207 0.958531
O O5 0.747252 0.751516 0.500481
O O6 0.124780 0.760582 0.745562
O O7 0.946981 0.758866 0.706188
O O8 0.929184 0.000000 0.642759
O O9 0.005460 0.500000 0.116609
O O10 0.130877 0.763827 0.166015
O O11 0.023878 0.729563 0.184027
O O12 0.635197 0.754844 0.169017
O O13 0.673759 0.000000 0.144274
O O14 0.500000 0.759822 0.000000
O O15 0.371497 0.262151 0.254003
O O16 0.198713 0.000000 0.157134
O O17 0.000000 0.233046 0.000000
O O18 0.046472 0.500000 0.809496
O O19 0.277867 0.731202 0.962052
O O20 0.575881 0.500000 0.363361
O O21 0.506065 0.500000 0.120883
#
# Coordination Sequence:
#
# PCOD9149610 Si02
#       8
#     4   4   4   4   4   4   4   4
#     4   8  16  32  54  81 109 139 176 224 275 317
#     4  11  23  38  55  77 114 150 181 225 275 330
#     4   9  17  33  57  83 110 140 180 228 272 318
#     4  10  20  35  53  78 110 146 184 221 270 329
#     4  11  22  35  54  85 118 144 180 225 268 321
#     4   9  18  33  55  83 111 140 180 227 274 323
#     4  11  22  38  60  80 108 148 188 224 270 329
#     4   9  17  31  55  84 109 134 177 233 273 311
#
# _framework density 17.647278
#
# number of rings (size 3 to 8) (size 9 to 14) (size 15 to 20)
#    0.000    2.250    2.500    2.625    0.000    2.250 
#    0.000    4.375    0.000    7.500    0.000    0.000 
#    0.000    0.000    0.000    0.000    0.000    0.000 
#
# Total GULP energy -178540.864322 kJ/mol
# GULP energy per Si atom -5579.402010 kJ/mol
# Density = 1.760711 g / cm^3
# Si number density = 17.647278 Si / 1000 Ang^3
#
#
#
# Elastic Constant Matrix: (Units=GPa)
#
#
# Indices 1 2 3 4 5 6 
#
# 1 149.7869 27.1787 80.0881 0.0000 -22.5174 0.0000
# 2 27.1787 20.5261 31.8239 0.0000 -6.7073 0.0000
# 3 80.0881 31.8239 127.8289 0.0000 -18.9747 0.0000
# 4 0.0000 0.0000 0.0000 5.4249 0.0000 27.8474
# 5 -22.5174 -6.7073 -18.9747 0.0000 26.7271 0.0000
# 6 0.0000 0.0000 0.0000 27.8474 0.0000 -49.0269
#
#
#
# Elastic Compliance Matrix: (Units=1/GPa)
#
#
# Indices 1 2 3 4 5 6 
#
# 1 0.010913 -0.005579 -0.004797 0.000000 0.004389 0.000000
# 2 -0.005579 0.083245 -0.016572 0.000000 0.004425 0.000000
# 3 -0.004797 -0.016572 0.015355 0.000000 0.002701 0.000000
# 4 0.000000 0.000000 0.000000 0.047076 0.000000 0.026739
# 5 0.004389 0.004425 0.002701 0.000000 0.044141 0.000000
# 6 0.000000 0.000000 0.000000 0.026739 0.000000 -0.005209
#
#
# Mechanical properties :
#
#
# Convention : Reuss Voigt Hill
#
# Bulk Modulus (GPa) = 17.98002 64.03591 41.00797
# Shear Modulus (GPa) = 18.65979 7.22845 12.94412
#
# Velocity S-wave (km/s) = 3.25526 2.02607 2.71124
# Velocity P-wave (km/s) = 4.93352 6.46828 5.75231
#
# Compressibility (1/GPa) = 0.05561729
#
# Stress axis : x y z
#
# Youngs Moduli (GPa) = 91.63419 12.01270 65.12469
#
# Poissons Ratio (x) = 0.06701 0.31240
# Poissons Ratio (y) = 0.51118 1.07928
# Poissons Ratio (z) = 0.43957 0.19908
#
# Static dielectric constant tensor:
#      x y z
#    x 1.604300 0.000000 -0.013710 
#    y 0.000000 1.594880 0.000000 
#    z -0.013710 0.000000 1.579330 
# 
# From -- ./inp_files/95670.got.cif
#   From: 2010.05.17/outbox.cif.g08.bks.cpg/sg10_48_cif.got.tgz:95670.got - 2010.06.03 11:33:40.
