data_PCOD9149664
_publ_section_title
;
Structure prediction by ZEFSAII (Michael W. Deem and Ramdas Pophale) SiO2 
 PCOD9149664
Probable space group: P 2/M
;
_chemical_formula_sum "Si O2"
_cell_formula_units_Z 32
_cell_length_a 12.575991
_cell_length_b 7.479123
_cell_length_c 32.782245
_cell_angle_alpha 90.000000
_cell_angle_beta 28.402919
_cell_angle_gamma 90.000000
_cell_volume 1466.683665
_symmetry_space_group_name_H-M "P 2/M"
_symmetry_group_IT_number 10
_symmetry_cell_setting 'monoclinic'
loop_
_space_group_symop_operation_xyz
x,y,z
-x,y,-z
-x,-y,-z
x,-y,z
loop_
_atom_site_type_symbol
_atom_site_label
_atom_site_fract_x
_atom_site_fract_y
_atom_site_fract_z
Si Si1 0.953391 0.219234 0.561760
Si Si2 0.475532 0.790451 0.753336
Si Si3 0.955925 0.283393 0.152027
Si Si4 0.204957 0.215682 0.637943
Si Si5 0.251529 0.787147 0.910500
Si Si6 0.142081 0.709989 0.174695
Si Si7 0.289821 0.782081 0.518267
Si Si8 0.615858 0.284861 0.044125
O O1 0.710950 0.282261 0.658617
O O2 0.000000 0.276739 0.500000
O O3 0.142629 0.276459 0.529899
O O4 0.954390 0.000000 0.561158
O O5 0.281304 0.776367 0.785301
O O6 0.378784 0.713193 0.828163
O O7 0.517806 0.000000 0.746788
O O8 0.950685 0.500000 0.153279
O O9 0.015991 0.219399 0.177244
O O10 0.156982 0.222845 0.054390
O O11 0.450827 0.273952 0.570289
O O12 0.188227 0.273193 0.596367
O O13 0.010577 0.273451 0.733820
O O14 0.203680 0.000000 0.638372
O O15 0.377446 0.759766 0.910457
O O16 0.771191 0.000000 0.088468
O O17 0.000000 0.713874 0.000000
O O18 0.174713 0.500000 0.155319
O O19 0.389478 0.784174 0.099568
O O20 0.290784 0.000000 0.517976
O O21 0.615484 0.500000 0.040904
#
# Coordination Sequence:
#
# PCOD9149664 Si02
#       8
#     4   4   4   4   4   4   4   4
#     4   9  18  31  51  79 110 141 174 216 264 316
#     4  10  21  35  55  83 111 142 179 221 269 321
#     4  10  21  38  57  75 105 145 181 221 268 319
#     4   9  18  33  56  80 103 137 178 221 264 315
#     4  10  20  35  54  81 116 144 170 219 279 322
#     4  10  22  37  54  79 108 138 179 227 273 314
#     4   8  16  32  51  77 109 137 173 217 262 313
#     4  10  21  37  57  78 104 143 187 221 257 318
#
# _framework density 21.817927999999998
#
# number of rings (size 3 to 8) (size 9 to 14) (size 15 to 20)
#    0.000    2.500    1.250    1.125    3.500    3.250 
#    0.000    1.250    0.000    3.375    0.000    0.000 
#    0.000    0.000    0.000    0.000    0.000    0.000 
#
# Total GULP energy -178762.349966 kJ/mol
# GULP energy per Si atom -5586.323436 kJ/mol
# Density = 2.176827 g / cm^3
# Si number density = 21.817928 Si / 1000 Ang^3
#
#
#
# Elastic Constant Matrix: (Units=GPa)
#
#
# Indices 1 2 3 4 5 6 
#
# 1 141.9812 -6.4711 45.1707 0.0000 2.6272 0.0000
# 2 -6.4711 57.6775 5.0770 0.0000 2.8741 0.0000
# 3 45.1707 5.0770 95.7266 0.0000 0.3844 0.0000
# 4 0.0000 0.0000 0.0000 8.7036 0.0000 0.4129
# 5 2.6272 2.8741 0.3844 0.0000 23.3816 0.0000
# 6 0.0000 0.0000 0.0000 0.4129 0.0000 15.4191
#
#
#
# Elastic Compliance Matrix: (Units=1/GPa)
#
#
# Indices 1 2 3 4 5 6 
#
# 1 0.008408 0.001351 -0.004035 0.000000 -0.001044 0.000000
# 2 0.001351 0.017742 -0.001569 0.000000 -0.002307 0.000000
# 3 -0.004035 -0.001569 0.012432 0.000000 0.000442 0.000000
# 4 0.000000 0.000000 0.000000 0.115042 0.000000 -0.003081
# 5 -0.001044 -0.002307 0.000442 0.000000 0.043162 0.000000
# 6 0.000000 0.000000 0.000000 -0.003081 0.000000 0.064937
#
#
# Mechanical properties :
#
#
# Convention : Reuss Voigt Hill
#
# Bulk Modulus (GPa) = 33.24989 42.54871 37.89930
# Shear Modulus (GPa) = 17.84092 26.27477 22.05785
#
# Velocity S-wave (km/s) = 2.86268 3.47403 3.18307
# Velocity P-wave (km/s) = 5.11853 5.96958 5.56036
#
# Compressibility (1/GPa) = 0.03007529
#
# Stress axis : x y z
#
# Youngs Moduli (GPa) = 118.93837 56.36226 80.43906
#
# Poissons Ratio (x) = -0.07612 0.32456
# Poissons Ratio (y) = -0.16063 0.12621
# Poissons Ratio (z) = 0.47989 0.08843
#
# Static dielectric constant tensor:
#      x y z
#    x 1.762630 0.000000 0.001310 
#    y 0.000000 1.826690 0.000000 
#    z 0.001310 0.000000 1.761380 
# 
# From -- ./inp_files/94936.got.cif
#   From: 2010.05.17/outbox.cif.g08.bks.cpg/sg10_48_cif.got.tgz:94936.got - 2010.06.03 11:33:40.
