data_PCOD9149005
_publ_section_title
;
Structure prediction by ZEFSAII (Michael W. Deem and Ramdas Pophale) SiO2 
 PCOD9149005
Probable space group: P 2/M
;
_chemical_formula_sum "Si O2"
_cell_formula_units_Z 32
_cell_length_a 15.092668
_cell_length_b 13.761640
_cell_length_c 9.695878
_cell_angle_alpha 90.000000
_cell_angle_beta 123.129414
_cell_angle_gamma 90.000000
_cell_volume 1686.460403
_symmetry_space_group_name_H-M "P 2/M"
_symmetry_group_IT_number 10
_symmetry_cell_setting 'monoclinic'
loop_
_space_group_symop_operation_xyz
x,y,z
-x,y,-z
-x,-y,-z
x,-y,z
loop_
_atom_site_type_symbol
_atom_site_label
_atom_site_fract_x
_atom_site_fract_y
_atom_site_fract_z
Si Si1 0.400960 0.883121 0.080838
Si Si2 0.764672 0.215795 0.243355
Si Si3 0.639878 0.885814 0.358936
Si Si4 0.034097 0.111640 0.688243
Si Si5 0.890362 0.612202 0.475699
Si Si6 0.896557 0.177391 0.818804
Si Si7 0.327372 0.109625 0.318397
Si Si8 0.895408 0.393457 0.812765
O O1 0.527508 0.875891 0.188254
O O2 0.362854 0.853742 0.201304
O O3 0.374453 0.000000 0.031412
O O4 0.341061 0.807643 0.932049
O O5 0.738045 0.155711 0.358798
O O6 0.857441 0.172058 0.226182
O O7 0.800648 0.319617 0.333073
O O8 0.632322 0.842386 0.506216
O O9 0.659924 0.000000 0.390361
O O10 0.000000 0.109362 0.500000
O O11 0.945013 0.159630 0.708370
O O12 0.051434 0.000000 0.749025
O O13 0.871439 0.500000 0.420852
O O14 0.907748 0.612556 0.656341
O O15 0.000000 0.645248 0.500000
O O16 0.799272 0.109589 0.773961
O O17 0.850851 0.286339 0.804693
O O18 0.000000 0.162812 0.000000
O O19 0.370342 0.000000 0.354039
O O20 0.843635 0.500000 0.794273
O O21 0.000000 0.395119 0.000000
#
# Coordination Sequence:
#
# PCOD9149005 Si02
#       8
#     4   4   4   4   4   4   4   4
#     4  10  21  36  54  78 107 140 182 231 275 316
#     4  12  21  33  54  78 106 139 177 218 269 323
#     4  10  20  35  55  78 105 140 184 230 273 318
#     4  11  22  33  46  70 106 142 172 204 249 311
#     4  10  21  37  56  79 108 141 177 217 263 320
#     4  11  21  32  49  75 107 140 173 213 263 321
#     4  10  20  34  52  74 104 144 184 219 261 318
#     4   9  18  33  52  73  98 131 172 215 255 299
#
# _framework density 18.974653
#
# number of rings (size 3 to 8) (size 9 to 14) (size 15 to 20)
#    0.000    1.625    0.000    6.375    0.000    7.500 
#    0.000    0.000    0.000    1.500    0.000    0.000 
#    0.000    5.000    0.000    0.000    0.000    0.000 
#
# Total GULP energy -178258.360536 kJ/mol
# GULP energy per Si atom -5570.573767 kJ/mol
# Density = 1.893147 g / cm^3
# Si number density = 18.974653 Si / 1000 Ang^3
#
#
#
# Elastic Constant Matrix: (Units=GPa)
#
#
# Indices 1 2 3 4 5 6 
#
# 1 73.7331 16.6771 18.2253 0.0000 -5.2307 0.0000
# 2 16.6771 89.6471 28.1930 0.0000 7.0432 0.0000
# 3 18.2253 28.1930 84.5777 0.0000 5.4532 0.0000
# 4 0.0000 0.0000 0.0000 24.3192 0.0000 6.2658
# 5 -5.2307 7.0432 5.4532 0.0000 24.4205 0.0000
# 6 0.0000 0.0000 0.0000 6.2658 0.0000 8.3149
#
#
#
# Elastic Compliance Matrix: (Units=1/GPa)
#
#
# Indices 1 2 3 4 5 6 
#
# 1 0.015087 -0.002287 -0.002780 0.000000 0.004512 0.000000
# 2 -0.002287 0.012987 -0.003615 0.000000 -0.003428 0.000000
# 3 -0.002780 -0.003615 0.013797 0.000000 -0.002634 0.000000
# 4 0.000000 0.000000 0.000000 0.051027 0.000000 -0.038451
# 5 0.004512 -0.003428 -0.002634 0.000000 0.043492 0.000000
# 6 0.000000 0.000000 0.000000 -0.038451 0.000000 0.149241
#
#
# Mechanical properties :
#
#
# Convention : Reuss Voigt Hill
#
# Bulk Modulus (GPa) = 40.80396 41.57209 41.18802
# Shear Modulus (GPa) = 16.06875 23.73510 19.90193
#
# Velocity S-wave (km/s) = 2.91323 3.54062 3.24214
# Velocity P-wave (km/s) = 5.73298 6.21864 5.98074
#
# Compressibility (1/GPa) = 0.02450743
#
# Stress axis : x y z
#
# Youngs Moduli (GPa) = 66.28306 77.00290 72.47817
#
# Poissons Ratio (x) = 0.17610 0.20146
# Poissons Ratio (y) = 0.15158 0.26201
# Poissons Ratio (z) = 0.18424 0.27837
#
# Static dielectric constant tensor:
#      x y z
#    x 1.657130 0.000000 -0.031230 
#    y 0.000000 1.684260 0.000000 
#    z -0.031230 0.000000 1.748230 
# 
# From -- ./inp_files/29493.got.cif
#   From: 2010.05.17/outbox.cif.g08.bks.cpg/sg10_15_cif.got.tgz:29493.got - 2010.06.03 11:33:40.
