data_PCOD9149865
_publ_section_title
;
Structure prediction by ZEFSAII (Michael W. Deem and Ramdas Pophale) SiO2 
 PCOD9149865
Probable space group: P 2/M
;
_chemical_formula_sum "Si O2"
_cell_formula_units_Z 28
_cell_length_a 8.916605
_cell_length_b 19.817395
_cell_length_c 15.741340
_cell_angle_alpha 90.000000
_cell_angle_beta 150.782683
_cell_angle_gamma 90.000000
_cell_volume 1357.742715
_symmetry_space_group_name_H-M "P 2/M"
_symmetry_group_IT_number 10
_symmetry_cell_setting 'monoclinic'
loop_
_space_group_symop_operation_xyz
x,y,z
-x,y,-z
-x,-y,-z
x,-y,z
loop_
_atom_site_type_symbol
_atom_site_label
_atom_site_fract_x
_atom_site_fract_y
_atom_site_fract_z
Si Si1 0.804398 0.324697 0.490051
Si Si2 0.127670 0.422958 0.325490
Si Si3 0.733744 0.775020 0.995276
Si Si4 0.800150 0.926961 0.986079
Si Si5 0.941612 0.210610 0.284448
Si Si6 0.915245 0.643595 0.873545
Si Si7 0.852909 0.924508 0.661378
O O1 0.942045 0.376939 0.627400
O O2 0.448726 0.342870 0.302261
O O3 0.000000 0.323977 0.500000
O O4 0.814403 0.252130 0.541693
O O5 0.500000 0.422827 0.500000
O O6 0.026745 0.500000 0.286651
O O7 0.010025 0.391341 0.179242
O O8 0.692825 0.848732 0.932106
O O9 0.944127 0.781268 0.184018
O O10 0.885144 0.712370 0.023666
O O11 0.385598 0.760135 0.849536
O O12 0.988427 0.927905 0.167830
O O13 0.620648 0.000000 0.899646
O O14 0.000000 0.931323 0.000000
O O15 0.975637 0.130317 0.311177
O O16 0.000000 0.602519 0.000000
O O17 0.500000 0.903248 0.500000
O O18 0.854137 0.000000 0.625724
#
# Coordination Sequence:
#
# PCOD9149865 Si02
#       7
#     4   4   4   4   4   4   4
#     4  11  23  39  62  92 122 159 202 247 299 357
#     4   9  20  40  65  92 123 161 200 239 294 360
#     4  10  20  35  56  85 115 155 197 250 298 354
#     4   9  18  32  52  78 108 146 192 242 294 352
#     4  10  21  35  57  83 117 151 199 253 298 352
#     4  11  22  38  64  90 123 162 199 247 297 357
#     4   9  19  34  55  80 110 153 200 248 303 363
#
# _framework density 20.622463
#
# number of rings (size 3 to 8) (size 9 to 14) (size 15 to 20)
#    0.000    2.143    1.429    1.286    4.000    1.143 
#    0.000    2.857    0.000    6.429    0.000    0.000 
#    0.000    0.000    0.000    0.000    0.000    0.000 
#
# Total GULP energy -155943.479292 kJ/mol
# GULP energy per Si atom -5569.409975 kJ/mol
# Density = 2.057553 g / cm^3
# Si number density = 20.622463 Si / 1000 Ang^3
#
#
#
# Elastic Constant Matrix: (Units=GPa)
#
#
# Indices 1 2 3 4 5 6 
#
# 1 83.5576 48.8723 16.8935 0.0000 -17.6419 0.0000
# 2 48.8723 112.5198 19.4450 0.0000 -18.3265 0.0000
# 3 16.8935 19.4450 48.5267 0.0000 -15.5533 0.0000
# 4 0.0000 0.0000 0.0000 0.7151 0.0000 2.7535
# 5 -17.6419 -18.3265 -15.5533 0.0000 26.7493 0.0000
# 6 0.0000 0.0000 0.0000 2.7535 0.0000 14.9902
#
#
#
# Elastic Compliance Matrix: (Units=1/GPa)
#
#
# Indices 1 2 3 4 5 6 
#
# 1 0.017216 -0.006202 -0.001513 0.000000 0.006225 0.000000
# 2 -0.006202 0.012438 -0.001726 0.000000 0.003427 0.000000
# 3 -0.001513 -0.001726 0.025966 0.000000 0.012917 0.000000
# 4 0.000000 0.000000 0.000000 4.776738 0.000000 -0.877420
# 5 0.006225 0.003427 0.012917 0.000000 0.051349 0.000000
# 6 0.000000 0.000000 0.000000 -0.877420 0.000000 0.227880
#
#
# Mechanical properties :
#
#
# Convention : Reuss Voigt Hill
#
# Bulk Modulus (GPa) = 27.22074 46.11397 36.66736
# Shear Modulus (GPa) = 0.97225 19.11714 10.04470
#
# Velocity S-wave (km/s) = 0.68737 3.04798 2.20937
# Velocity P-wave (km/s) = 3.72266 5.89886 4.93228
#
# Compressibility (1/GPa) = 0.03673669
#
# Stress axis : x y z
#
# Youngs Moduli (GPa) = 58.08683 80.40065 38.51236
#
# Poissons Ratio (x) = 0.49866 0.05826
# Poissons Ratio (y) = 0.36026 0.06649
# Poissons Ratio (z) = 0.08787 0.13880
#
# Static dielectric constant tensor:
#      x y z
#    x 1.743740 0.000000 -0.015360 
#    y 0.000000 1.797880 0.000000 
#    z -0.015360 0.000000 1.759440 
# 
# From -- ./inp_files/30485.got.cif
#   From: 2010.05.17/outbox.cif.g08.bks.cpg/sg10_16_cif.got.tgz:30485.got - 2010.06.03 11:33:40.
