data_PCOD9149103
_publ_section_title
;
Structure prediction by ZEFSAII (Michael W. Deem and Ramdas Pophale) SiO2 
 PCOD9149103
Probable space group: P 2/M
;
_chemical_formula_sum "Si O2"
_cell_formula_units_Z 32
_cell_length_a 8.109447
_cell_length_b 24.665829
_cell_length_c 13.922692
_cell_angle_alpha 90.000000
_cell_angle_beta 148.330118
_cell_angle_gamma 90.000000
_cell_volume 1462.142200
_symmetry_space_group_name_H-M "P 2/M"
_symmetry_group_IT_number 10
_symmetry_cell_setting 'monoclinic'
loop_
_space_group_symop_operation_xyz
x,y,z
-x,y,-z
-x,-y,-z
x,-y,z
loop_
_atom_site_type_symbol
_atom_site_label
_atom_site_fract_x
_atom_site_fract_y
_atom_site_fract_z
Si Si1 0.207178 0.145741 0.504106
Si Si2 0.358204 0.059897 0.206803
Si Si3 0.627552 0.560568 0.837797
Si Si4 0.982926 0.328630 0.271513
Si Si5 0.773455 0.440214 0.556621
Si Si6 0.684473 0.268226 0.410239
Si Si7 0.370406 0.319631 0.083425
Si Si8 0.761728 0.939714 0.210745
O O1 0.510896 0.108208 0.665504
O O2 0.310830 0.207567 0.545620
O O3 0.000000 0.145838 0.500000
O O4 0.989524 0.112043 0.322815
O O5 0.577121 0.059844 0.220563
O O6 0.385014 0.000000 0.264729
O O7 0.000000 0.067837 0.000000
O O8 0.560413 0.500000 0.844660
O O9 0.400208 0.566869 0.631996
O O10 0.590884 0.616473 0.876005
O O11 0.000000 0.559672 0.000000
O O12 0.675018 0.304803 0.171080
O O13 0.995907 0.392837 0.297022
O O14 0.273823 0.306887 0.477525
O O15 0.933042 0.314334 0.135453
O O16 0.500000 0.439344 0.500000
O O17 0.918090 0.500000 0.629141
O O18 0.407827 0.285943 0.200315
O O19 0.000000 0.274146 0.500000
O O20 0.913289 0.000000 0.277054
O O21 0.500000 0.935294 0.000000
#
# Coordination Sequence:
#
# PCOD9149103 Si02
#       8
#     4   4   4   4   4   4   4   4
#     4   9  17  32  53  76 104 144 182 223 263 313
#     4   9  17  31  53  79 108 143 179 220 274 327
#     4  10  20  34  53  77 104 134 169 213 265 321
#     4  10  20  35  55  77 104 136 172 213 266 314
#     4  10  20  34  54  77 104 133 169 217 264 320
#     4   9  18  35  52  76 106 136 181 222 258 311
#     4  10  20  35  55  78 103 137 171 216 262 315
#     4   9  17  31  52  83 113 140 182 228 271 324
#
# _framework density 21.885695999999999
#
# number of rings (size 3 to 8) (size 9 to 14) (size 15 to 20)
#    0.000    2.500    1.250    1.125    0.000    3.500 
#    9.000    3.750    0.000    3.000    0.000    0.000 
#    0.000    0.000    0.000    0.000    0.000    0.000 
#
# Total GULP energy -178403.298341 kJ/mol
# GULP energy per Si atom -5575.103073 kJ/mol
# Density = 2.183588 g / cm^3
# Si number density = 21.885696 Si / 1000 Ang^3
#
#
#
# Elastic Constant Matrix: (Units=GPa)
#
#
# Indices 1 2 3 4 5 6 
#
# 1 35.3383 12.5362 15.9871 0.0000 -2.1463 0.0000
# 2 12.5362 130.4468 61.7734 0.0000 -21.9814 0.0000
# 3 15.9871 61.7734 124.0712 0.0000 -28.6166 0.0000
# 4 0.0000 0.0000 0.0000 42.5782 0.0000 15.8342
# 5 -2.1463 -21.9814 -28.6166 0.0000 29.4926 0.0000
# 6 0.0000 0.0000 0.0000 15.8342 0.0000 23.9228
#
#
#
# Elastic Compliance Matrix: (Units=1/GPa)
#
#
# Indices 1 2 3 4 5 6 
#
# 1 0.030389 -0.001596 -0.003717 0.000000 -0.002585 0.000000
# 2 -0.001596 0.010385 -0.004131 0.000000 0.003616 0.000000
# 3 -0.003717 -0.004131 0.012655 0.000000 0.008930 0.000000
# 4 0.000000 0.000000 0.000000 0.031155 0.000000 -0.020621
# 5 -0.002585 0.003616 0.008930 0.000000 0.045078 0.000000
# 6 0.000000 0.000000 0.000000 -0.020621 0.000000 0.055450
#
#
# Mechanical properties :
#
#
# Convention : Reuss Voigt Hill
#
# Bulk Modulus (GPa) = 28.95113 52.27219 40.61166
# Shear Modulus (GPa) = 23.20044 32.50270 27.85157
#
# Velocity S-wave (km/s) = 3.25941 3.85790 3.57121
# Velocity P-wave (km/s) = 5.23661 6.61668 5.96668
#
# Compressibility (1/GPa) = 0.03454096
#
# Stress axis : x y z
#
# Youngs Moduli (GPa) = 32.90692 96.29499 79.01831
#
# Poissons Ratio (x) = 0.15364 0.29375
# Poissons Ratio (y) = 0.05250 0.32642
# Poissons Ratio (z) = 0.12233 0.39779
#
# Static dielectric constant tensor:
#      x y z
#    x 1.789780 0.000000 -0.081370 
#    y 0.000000 1.808520 0.000000 
#    z -0.081370 0.000000 1.711400 
# 
# From -- ./inp_files/62727.got.cif
#   From: 2010.05.17/outbox.cif.g08.bks.cpg/sg10_32_cif.got.tgz:62727.got - 2010.06.03 11:33:40.
