data_PCOD9149010
_publ_section_title
;
Structure prediction by ZEFSAII (Michael W. Deem and Ramdas Pophale) SiO2 
 PCOD9149010
Probable space group: P 2/M
;
_chemical_formula_sum "Si O2"
_cell_formula_units_Z 28
_cell_length_a 14.420123
_cell_length_b 8.520449
_cell_length_c 12.874417
_cell_angle_alpha 90.000000
_cell_angle_beta 75.745654
_cell_angle_gamma 90.000000
_cell_volume 1533.126202
_symmetry_space_group_name_H-M "P 2/M"
_symmetry_group_IT_number 10
_symmetry_cell_setting 'monoclinic'
loop_
_space_group_symop_operation_xyz
x,y,z
-x,y,-z
-x,-y,-z
x,-y,z
loop_
_atom_site_type_symbol
_atom_site_label
_atom_site_fract_x
_atom_site_fract_y
_atom_site_fract_z
Si Si1 0.797773 0.187152 0.447490
Si Si2 0.998634 0.312093 0.671461
Si Si3 0.937292 0.312117 0.114142
Si Si4 0.213206 0.687337 0.329052
Si Si5 0.584249 0.191317 0.116385
Si Si6 0.369369 0.189482 0.127712
Si Si7 0.736208 0.811119 0.238806
O O1 0.909382 0.234418 0.406699
O O2 0.757206 0.256931 0.564666
O O3 0.747884 0.245230 0.354516
O O4 0.790095 0.000000 0.453254
O O5 0.005738 0.500000 0.651811
O O6 0.009081 0.283054 0.791751
O O7 0.895589 0.256336 0.661389
O O8 0.924447 0.500000 0.107856
O O9 0.833431 0.235367 0.152848
O O10 0.000000 0.256263 0.000000
O O11 0.211205 0.500000 0.326733
O O12 0.284179 0.746829 0.220836
O O13 0.473267 0.239104 0.143572
O O14 0.645877 0.246450 0.197341
O O15 0.584482 0.000000 0.117464
O O16 0.631506 0.238241 0.993206
O O17 0.366297 0.000000 0.130647
O O18 0.731295 0.000000 0.244433
#
# Coordination Sequence:
#
# PCOD9149010 Si02
#       7
#     4   4   4   4   4   4   4
#     4  10  20  34  52  75 101 132 173 212 246 294
#     4   9  19  34  49  69 101 139 170 202 250 296
#     4   9  18  31  47  70 102 135 167 201 239 296
#     4  11  22  34  51  74 104 136 169 209 252 295
#     4   8  16  34  57  78 102 130 162 205 258 305
#     4   9  18  34  56  79 101 129 166 207 251 302
#     4   9  18  33  53  75  99 130 166 206 252 297
#
# _framework density 18.263337
#
# number of rings (size 3 to 8) (size 9 to 14) (size 15 to 20)
#    0.000    2.714    0.000    2.143    2.000    3.714 
#    0.000    2.857    0.000    4.286    0.000    0.000 
#    0.000    0.000    0.000    0.000    0.000    0.000 
#
# Total GULP energy -156159.535127 kJ/mol
# GULP energy per Si atom -5577.126255 kJ/mol
# Density = 1.822177 g / cm^3
# Si number density = 18.263337 Si / 1000 Ang^3
#
#
#
# Elastic Constant Matrix: (Units=GPa)
#
#
# Indices 1 2 3 4 5 6 
#
# 1 94.9432 13.9130 41.2380 0.0000 23.0416 0.0000
# 2 13.9130 10.9608 18.3536 0.0000 1.8584 0.0000
# 3 41.2380 18.3536 72.8049 0.0000 1.2379 0.0000
# 4 0.0000 0.0000 0.0000 38.3304 0.0000 -15.5325
# 5 23.0416 1.8584 1.2379 0.0000 16.3946 0.0000
# 6 0.0000 0.0000 0.0000 -15.5325 0.0000 23.9908
#
#
#
# Elastic Compliance Matrix: (Units=1/GPa)
#
#
# Indices 1 2 3 4 5 6 
#
# 1 0.024520 -0.005576 -0.011923 0.000000 -0.032929 0.000000
# 2 -0.005576 0.162872 -0.037768 0.000000 -0.007774 0.000000
# 3 -0.011923 -0.037768 0.029690 0.000000 0.018796 0.000000
# 4 0.000000 0.000000 0.000000 0.035368 0.000000 0.022899
# 5 -0.032929 -0.007774 0.018796 0.000000 0.106737 0.000000
# 6 0.000000 0.000000 0.000000 0.022899 0.000000 0.056508
#
#
# Mechanical properties :
#
#
# Convention : Reuss Voigt Hill
#
# Bulk Modulus (GPa) = 9.38549 36.19090 22.78819
# Shear Modulus (GPa) = 8.90081 22.75677 15.82879
#
# Velocity S-wave (km/s) = 2.21002 3.53375 2.94717
# Velocity P-wave (km/s) = 3.41502 6.04227 4.90772
#
# Compressibility (1/GPa) = 0.10654747
#
# Stress axis : x y z
#
# Youngs Moduli (GPa) = 40.78347 6.13977 33.68121
#
# Poissons Ratio (x) = 0.03424 0.40157
# Poissons Ratio (y) = 0.22742 1.27208
# Poissons Ratio (z) = 0.48625 0.23189
#
# Static dielectric constant tensor:
#      x y z
#    x 1.624990 0.000000 0.031610 
#    y 0.000000 1.621420 0.000000 
#    z 0.031610 0.000000 1.621960 
# 
# From -- ./inp_files/49187.got.cif
#   From: 2010.05.17/outbox.cif.g08.bks.cpg/sg10_25_cif.got.tgz:49187.got - 2010.06.03 11:33:40.
