data_PCOD9149618
_publ_section_title
;
Structure prediction by ZEFSAII (Michael W. Deem and Ramdas Pophale) SiO2 
 PCOD9149618
Probable space group: P 2/M
;
_chemical_formula_sum "Si O2"
_cell_formula_units_Z 28
_cell_length_a 15.034854
_cell_length_b 14.369357
_cell_length_c 7.397274
_cell_angle_alpha 90.000000
_cell_angle_beta 75.758612
_cell_angle_gamma 90.000000
_cell_volume 1549.002378
_symmetry_space_group_name_H-M "P 2/M"
_symmetry_group_IT_number 10
_symmetry_cell_setting 'monoclinic'
loop_
_space_group_symop_operation_xyz
x,y,z
-x,y,-z
-x,-y,-z
x,-y,z
loop_
_atom_site_type_symbol
_atom_site_label
_atom_site_fract_x
_atom_site_fract_y
_atom_site_fract_z
Si Si1 0.104544 0.106076 0.728172
Si Si2 0.104543 0.893924 0.167286
Si Si3 0.895966 0.610359 0.552015
Si Si4 0.393628 0.605205 0.587964
Si Si5 0.779966 0.718131 0.328180
Si Si6 0.220034 0.281868 0.108149
Si Si7 0.393627 0.605205 0.018409
O O1 0.181805 0.180329 0.636144
O O2 0.000001 0.132060 0.724947
O O3 0.121770 0.000000 0.660348
O O4 0.103836 0.105234 0.948083
O O5 0.181803 0.819671 0.182054
O O6 0.121768 0.000000 0.217884
O O7 0.893932 0.500000 0.553032
O O8 0.846144 0.647640 0.398670
O O9 0.846143 0.647640 0.755183
O O10 0.000000 0.643757 0.500000
O O11 0.500000 0.626831 0.500000
O O12 0.374746 0.500000 0.525352
O O13 0.321715 0.683933 0.564948
O O14 0.383021 0.599380 0.808490
O O15 0.787281 0.711880 0.106359
O O16 0.321716 0.316066 0.113337
O O17 0.374744 0.500000 0.099903
O O18 0.500000 0.626829 0.000000
#
# Coordination Sequence:
#
# PCOD9149618 Si02
#       7
#     4   4   4   4   4   4   4
#     4   8  14  27  50  77 101 129 168 211 255 304
#     4   8  14  27  50  77 101 129 168 211 255 304
#     4  11  24  36  49  75 107 141 178 210 252 311
#     4   9  18  31  49  73  97 128 171 215 262 309
#     4  10  20  35  54  75 103 138 173 215 260 310
#     4  10  20  35  54  75 103 138 173 215 260 310
#     4   9  18  31  49  73  97 128 171 215 262 309
#
# _framework density 18.076150999999999
#
# number of rings (size 3 to 8) (size 9 to 14) (size 15 to 20)
#    0.000    2.714    0.000    2.571    2.000    3.429 
#    0.000    2.143    0.000    3.429    0.000    0.000 
#    0.000    0.000    0.000    0.000    0.000    0.000 
#
# Total GULP energy -156017.789221 kJ/mol
# GULP energy per Si atom -5572.063901 kJ/mol
# Density = 1.803501 g / cm^3
# Si number density = 18.076151 Si / 1000 Ang^3
#
#
#
# Elastic Constant Matrix: (Units=GPa)
#
#
# Indices 1 2 3 4 5 6 
#
# 1 131.8390 90.5276 24.8831 0.0000 -32.0191 0.0000
# 2 90.5276 132.0055 23.2008 0.0000 -26.0452 0.0000
# 3 24.8831 23.2008 55.7106 0.0000 2.5689 0.0000
# 4 0.0000 0.0000 0.0000 14.3143 0.0000 -7.1524
# 5 -32.0191 -26.0452 2.5689 0.0000 25.4762 0.0000
# 6 0.0000 0.0000 0.0000 -7.1524 0.0000 32.8030
#
#
#
# Elastic Compliance Matrix: (Units=1/GPa)
#
#
# Indices 1 2 3 4 5 6 
#
# 1 0.017876 -0.008560 -0.005076 0.000000 0.014228 0.000000
# 2 -0.008560 0.014811 -0.002559 0.000000 0.004642 0.000000
# 3 -0.005076 -0.002559 0.021799 0.000000 -0.011193 0.000000
# 4 0.000000 0.000000 0.000000 0.078402 0.000000 0.017095
# 5 0.014228 0.004642 -0.011193 0.000000 0.063009 0.000000
# 6 0.000000 0.000000 0.000000 0.017095 0.000000 0.034212
#
#
# Mechanical properties :
#
#
# Convention : Reuss Voigt Hill
#
# Bulk Modulus (GPa) = 45.25464 66.30868 55.78166
# Shear Modulus (GPa) = 18.52786 26.58161 22.55474
#
# Velocity S-wave (km/s) = 3.20502 3.83892 3.53620
# Velocity P-wave (km/s) = 6.22785 7.51081 6.89922
#
# Compressibility (1/GPa) = 0.02209718
#
# Stress axis : x y z
#
# Youngs Moduli (GPa) = 55.94055 67.51582 45.87409
#
# Poissons Ratio (x) = 0.57793 0.23284
# Poissons Ratio (y) = 0.47885 0.11739
# Poissons Ratio (z) = 0.28393 0.17277
#
# Static dielectric constant tensor:
#      x y z
#    x 1.781200 0.000000 0.473070 
#    y 0.000000 1.626300 0.000000 
#    z 0.473070 0.000000 3.004140 
# 
# From -- ./inp_files/28219.got.cif
#   From: 2010.05.17/outbox.cif.g08.bks.cpg/sg10_15_cif.got.tgz:28219.got - 2010.06.03 11:33:40.
