data_PCOD9149784
_publ_section_title
;
Structure prediction by ZEFSAII (Michael W. Deem and Ramdas Pophale) SiO2 
 PCOD9149784
Probable space group: P 2/M
;
_chemical_formula_sum "Si O2"
_cell_formula_units_Z 28
_cell_length_a 13.929123
_cell_length_b 7.587457
_cell_length_c 14.056927
_cell_angle_alpha 90.000000
_cell_angle_beta 60.688464
_cell_angle_gamma 90.000000
_cell_volume 1295.425103
_symmetry_space_group_name_H-M "P 2/M"
_symmetry_group_IT_number 10
_symmetry_cell_setting 'monoclinic'
loop_
_space_group_symop_operation_xyz
x,y,z
-x,y,-z
-x,-y,-z
x,-y,z
loop_
_atom_site_type_symbol
_atom_site_label
_atom_site_fract_x
_atom_site_fract_y
_atom_site_fract_z
Si Si1 0.792668 0.796909 0.453750
Si Si2 0.764261 0.712071 0.689020
Si Si3 0.907149 0.284440 0.969986
Si Si4 0.329648 0.284217 0.837784
Si Si5 0.391507 0.298142 0.600090
Si Si6 0.039577 0.286798 0.270056
Si Si7 0.527761 0.284599 0.879536
O O1 0.777988 0.753663 0.571617
O O2 0.706821 0.698338 0.427866
O O3 0.917942 0.763461 0.362260
O O4 0.766396 0.000000 0.452014
O O5 0.763543 0.500000 0.697760
O O6 0.867010 0.776579 0.701954
O O7 0.647382 0.775522 0.786258
O O8 0.907235 0.500000 0.968950
O O9 0.934773 0.226942 0.849589
O O10 0.787013 0.226529 0.063043
O O11 0.000000 0.229262 0.000000
O O12 0.325391 0.500000 0.840029
O O13 0.350231 0.222240 0.720106
O O14 0.431318 0.230911 0.854653
O O15 0.500000 0.215591 0.500000
O O16 0.423365 0.500000 0.608739
O O17 0.043382 0.500000 0.267752
O O18 0.529420 0.500000 0.878745
O O19 0.500000 0.228676 0.000000
#
# Coordination Sequence:
#
# PCOD9149784 Si02
#       7
#     4   4   4   4   4   4   4
#     4  12  25  38  54  77 108 145 183 225 273 322
#     4  10  20  35  56  81 109 142 181 225 271 320
#     4   9  16  27  47  77 109 138 172 219 272 322
#     4   9  16  27  48  79 111 141 173 214 266 320
#     4  10  20  36  59  84 110 142 180 221 265 316
#     4  10  20  35  56  80 106 139 181 226 271 321
#     4   9  16  28  50  83 117 140 166 213 270 322
#
# _framework density 21.614526000000001
#
# number of rings (size 3 to 8) (size 9 to 14) (size 15 to 20)
#    0.000    2.143    0.000    4.286    0.000   10.571 
#    0.000    0.000    0.000    4.286    0.000    2.000 
#    0.000    0.000    0.000    0.000    0.000    0.000 
#
# Total GULP energy -156515.816630 kJ/mol
# GULP energy per Si atom -5589.850594 kJ/mol
# Density = 2.156533 g / cm^3
# Si number density = 21.614526 Si / 1000 Ang^3
#
#
#
# Elastic Constant Matrix: (Units=GPa)
#
#
# Indices 1 2 3 4 5 6 
#
# 1 173.3553 -6.4803 118.1604 0.0000 -5.0193 0.0000
# 2 -6.4803 49.0189 -4.2733 0.0000 -1.0194 0.0000
# 3 118.1604 -4.2733 240.3977 0.0000 -3.4041 0.0000
# 4 0.0000 0.0000 0.0000 -87.1300 0.0000 42.4546
# 5 -5.0193 -1.0194 -3.4041 0.0000 49.3077 0.0000
# 6 0.0000 0.0000 0.0000 42.4546 0.0000 -70.0601
#
#
#
# Elastic Compliance Matrix: (Units=1/GPa)
#
#
# Indices 1 2 3 4 5 6 
#
# 1 0.008723 0.000794 -0.004265 0.000000 0.000610 0.000000
# 2 0.000794 0.020514 -0.000018 0.000000 0.000504 0.000000
# 3 -0.004265 -0.000018 0.006256 0.000000 -0.000003 0.000000
# 4 0.000000 0.000000 0.000000 -0.016286 0.000000 -0.009869
# 5 0.000610 0.000504 -0.000003 0.000000 0.020353 0.000000
# 6 0.000000 0.000000 0.000000 -0.009869 0.000000 -0.020254
#
#
# Mechanical properties :
#
#
# Convention : Reuss Voigt Hill
#
# Bulk Modulus (GPa) = 35.07024 75.28727 55.17875
# Shear Modulus (GPa) = 139.70786 2.11452 70.91119
#
# Velocity S-wave (km/s) = 8.04838 0.99016 5.73397
# Velocity P-wave (km/s) = 10.13060 6.01786 8.33198
#
# Compressibility (1/GPa) = 0.02851421
#
# Stress axis : x y z
#
# Youngs Moduli (GPa) = 114.64444 48.74686 159.85827
#
# Poissons Ratio (x) = -0.03871 0.68173
# Poissons Ratio (y) = -0.09103 0.00296
# Poissons Ratio (z) = 0.48891 0.00090
#
# Static dielectric constant tensor:
#      x y z
#    x 1.738300 0.000000 0.003750 
#    y 0.000000 1.815220 0.000000 
#    z 0.003750 0.000000 1.747420 
# 
# From -- ./inp_files/63615.got.cif
#   From: 2010.05.17/outbox.cif.g08.bks.cpg/sg10_32_cif.got.tgz:63615.got - 2010.06.03 11:33:40.
