data_PCOD9149892
_publ_section_title
;
Structure prediction by ZEFSAII (Michael W. Deem and Ramdas Pophale) SiO2 
 PCOD9149892
Probable space group: P 2/M
;
_chemical_formula_sum "Si O2"
_cell_formula_units_Z 32
_cell_length_a 10.068083
_cell_length_b 9.275405
_cell_length_c 19.487290
_cell_angle_alpha 90.000000
_cell_angle_beta 50.693206
_cell_angle_gamma 90.000000
_cell_volume 1408.121903
_symmetry_space_group_name_H-M "P 2/M"
_symmetry_group_IT_number 10
_symmetry_cell_setting 'monoclinic'
loop_
_space_group_symop_operation_xyz
x,y,z
-x,y,-z
-x,-y,-z
x,-y,z
loop_
_atom_site_type_symbol
_atom_site_label
_atom_site_fract_x
_atom_site_fract_y
_atom_site_fract_z
Si Si1 0.040451 0.830877 0.854141
Si Si2 0.139268 0.666156 0.600910
Si Si3 0.575655 0.657563 0.705696
Si Si4 0.798800 0.843424 0.553664
Si Si5 0.307536 0.340704 0.684176
Si Si6 0.157502 0.172337 0.217767
Si Si7 0.229332 0.668794 0.909289
Si Si8 0.538674 0.172884 0.066019
O O1 0.203653 0.788412 0.753220
O O2 0.082067 0.737934 0.908881
O O3 0.890208 0.801402 0.847537
O O4 0.035522 0.000000 0.873619
O O5 0.098979 0.500000 0.598539
O O6 0.202232 0.747144 0.513596
O O7 0.287059 0.670556 0.610392
O O8 0.975402 0.740491 0.691917
O O9 0.648634 0.500000 0.697997
O O10 0.717084 0.777700 0.649513
O O11 0.493432 0.656637 0.655960
O O12 0.406019 0.678259 0.806452
O O13 0.000000 0.857417 0.500000
O O14 0.719458 0.000000 0.566969
O O15 0.228768 0.500000 0.729334
O O16 0.357753 0.209535 0.162816
O O17 0.136163 0.000000 0.235423
O O18 0.197473 0.500000 0.932748
O O19 0.295020 0.753527 0.954932
O O20 0.561789 0.000000 0.062101
O O21 0.500000 0.211780 0.000000
#
# Coordination Sequence:
#
# PCOD9149892 Si02
#       8
#     4   4   4   4   4   4   4   4
#     4   9  16  30  55  85 113 146 185 228 277 331
#     4  10  20  35  57  81 107 143 182 223 276 332
#     4   9  19  36  56  78 105 139 179 223 272 326
#     4  11  25  39  49  69 106 146 187 233 274 315
#     4   8  16  32  53  79 108 136 174 225 275 326
#     4   9  19  36  59  86 116 147 187 234 279 334
#     4  10  21  37  59  86 116 149 188 233 280 335
#     4  10  22  40  61  86 116 150 187 229 279 336
#
# _framework density 22.725304000000001
#
# number of rings (size 3 to 8) (size 9 to 14) (size 15 to 20)
#    0.000    2.500    0.000    2.250    1.750    5.750 
#    0.000    3.125    0.000    3.750    0.000    0.000 
#    0.000    0.000    0.000    0.000    0.000    0.000 
#
# Total GULP energy -178579.975637 kJ/mol
# GULP energy per Si atom -5580.624239 kJ/mol
# Density = 2.267358 g / cm^3
# Si number density = 22.725304 Si / 1000 Ang^3
#
#
#
# Elastic Constant Matrix: (Units=GPa)
#
#
# Indices 1 2 3 4 5 6 
#
# 1 103.8956 29.7442 3.4952 0.0000 8.9513 0.0000
# 2 29.7442 75.7089 25.5274 0.0000 5.0537 0.0000
# 3 3.4952 25.5274 85.7238 0.0000 3.8831 0.0000
# 4 0.0000 0.0000 0.0000 20.2860 0.0000 18.3222
# 5 8.9513 5.0537 3.8831 0.0000 35.7120 0.0000
# 6 0.0000 0.0000 0.0000 18.3222 0.0000 41.7210
#
#
#
# Elastic Compliance Matrix: (Units=1/GPa)
#
#
# Indices 1 2 3 4 5 6 
#
# 1 0.011085 -0.004543 0.001003 0.000000 -0.002245 0.000000
# 2 -0.004543 0.016638 -0.004737 0.000000 -0.000700 0.000000
# 3 0.001003 -0.004737 0.013081 0.000000 -0.001003 0.000000
# 4 0.000000 0.000000 0.000000 0.081702 0.000000 -0.035880
# 5 -0.002245 -0.000700 -0.001003 0.000000 0.028773 0.000000
# 6 0.000000 0.000000 0.000000 -0.035880 0.000000 0.039726
#
#
# Mechanical properties :
#
#
# Convention : Reuss Voigt Hill
#
# Bulk Modulus (GPa) = 41.24180 42.54022 41.89101
# Shear Modulus (GPa) = 23.18647 33.31457 28.25052
#
# Velocity S-wave (km/s) = 3.19767 3.83295 3.52963
# Velocity P-wave (km/s) = 5.64099 6.19263 5.92324
#
# Compressibility (1/GPa) = 0.02424724
#
# Stress axis : x y z
#
# Youngs Moduli (GPa) = 90.20830 60.10471 76.44860
#
# Poissons Ratio (x) = 0.27308 -0.07665
# Poissons Ratio (y) = 0.40986 0.36217
# Poissons Ratio (z) = -0.09045 0.28474
#
# Static dielectric constant tensor:
#      x y z
#    x 1.880950 0.000000 -0.000130 
#    y 0.000000 1.884590 0.000000 
#    z -0.000130 0.000000 1.890450 
# 
# From -- ./inp_files/83538.got.cif
#   From: 2010.05.17/outbox.cif.g08.bks.cpg/sg10_42_cif.got.tgz:83538.got - 2010.06.03 11:33:40.
