data_PCOD9149166
_publ_section_title
;
Structure prediction by ZEFSAII (Michael W. Deem and Ramdas Pophale) SiO2 
 PCOD9149166
Probable space group: P 2/M
;
_chemical_formula_sum "Si O2"
_cell_formula_units_Z 26
_cell_length_a 12.060053
_cell_length_b 7.899868
_cell_length_c 15.281592
_cell_angle_alpha 90.000000
_cell_angle_beta 110.895172
_cell_angle_gamma 90.000000
_cell_volume 1360.171176
_symmetry_space_group_name_H-M "P 2/M"
_symmetry_group_IT_number 10
_symmetry_cell_setting 'monoclinic'
loop_
_space_group_symop_operation_xyz
x,y,z
-x,y,-z
-x,-y,-z
x,-y,z
loop_
_atom_site_type_symbol
_atom_site_label
_atom_site_fract_x
_atom_site_fract_y
_atom_site_fract_z
Si Si1 0.901706 0.500000 0.894858
Si Si2 0.595485 0.500000 0.606771
Si Si3 0.455874 0.304574 0.897743
Si Si4 0.384193 0.500000 0.180980
Si Si5 0.965578 0.812555 0.789884
Si Si6 0.201870 0.699671 0.770101
Si Si7 0.758058 0.804300 0.593657
Si Si8 0.866531 0.795771 0.441938
O O1 0.928257 0.665982 0.844883
O O2 0.758633 0.500000 0.871729
O O3 0.000000 0.500000 0.000000
O O4 0.500000 0.500000 0.500000
O O5 0.572091 0.500000 0.705471
O O6 0.671775 0.669593 0.612553
O O7 0.422293 0.500000 0.912426
O O8 0.556826 0.338755 0.853239
O O9 0.333376 0.232980 0.827437
O O10 0.500000 0.223182 0.000000
O O11 0.100292 0.790834 0.796807
O O12 0.882641 0.798100 0.680611
O O13 0.946592 0.000000 0.821871
O O14 0.190643 0.500000 0.786407
O O15 0.177505 0.722906 0.661009
O O16 0.783297 0.755490 0.500640
O O17 0.716392 0.000000 0.585878
O O18 0.000000 0.737392 0.500000
O O19 0.870114 0.000000 0.435390
#
# Coordination Sequence:
#
# PCOD9149166 Si02
#       8
#     2   2   4   2   4   4   4   4
#     4  12  26  40  70  96 121 163 213 254 328 380
#     4  12  26  39  63  85 121 168 214 252 309 365
#     4   8  19  36  61  86 120 161 201 254 313 362
#     4  10  21  41  58  93 124 158 212 259 303 381
#     4  11  22  41  64  93 130 162 204 265 315 373
#     4  11  21  33  61  94 123 157 209 250 315 374
#     4  10  22  40  59  85 126 165 205 254 312 369
#     4  10  20  34  53  83 121 160 191 242 306 360
#
# _framework density 19.115241999999999
#
# number of rings (size 3 to 8) (size 9 to 14) (size 15 to 20)
#    0.462    1.231    3.846    0.462    5.385    0.923 
#    0.000    0.000    0.000    3.692    0.000    0.000 
#    0.000    0.000    0.000    0.000    0.000    0.000 
#
# Total GULP energy -144925.495328 kJ/mol
# GULP energy per Si atom -5574.057513 kJ/mol
# Density = 1.907174 g / cm^3
# Si number density = 19.115242 Si / 1000 Ang^3
#
#
#
# Elastic Constant Matrix: (Units=GPa)
#
#
# Indices 1 2 3 4 5 6 
#
# 1 122.6423 37.6679 64.3914 0.0000 5.2852 0.0000
# 2 37.6679 64.8639 22.0271 0.0000 -7.8191 0.0000
# 3 64.3914 22.0271 108.9701 0.0000 19.2550 0.0000
# 4 0.0000 0.0000 0.0000 61.9248 0.0000 12.2235
# 5 5.2852 -7.8191 19.2550 0.0000 28.1129 0.0000
# 6 0.0000 0.0000 0.0000 12.2235 0.0000 -12.2299
#
#
#
# Elastic Compliance Matrix: (Units=1/GPa)
#
#
# Indices 1 2 3 4 5 6 
#
# 1 0.013431 -0.005328 -0.006998 0.000000 0.000786 0.000000
# 2 -0.005328 0.020342 -0.002435 0.000000 0.008327 0.000000
# 3 -0.006998 -0.002435 0.015577 0.000000 -0.010030 0.000000
# 4 0.000000 0.000000 0.000000 0.013488 0.000000 0.013481
# 5 0.000786 0.008327 -0.010030 0.000000 0.044609 0.000000
# 6 0.000000 0.000000 0.000000 0.013481 0.000000 -0.068293
#
#
# Mechanical properties :
#
#
# Convention : Reuss Voigt Hill
#
# Bulk Modulus (GPa) = 50.43703 60.51657 55.47680
# Shear Modulus (GPa) = 66.41526 27.05420 46.73473
#
# Velocity S-wave (km/s) = 5.90085 3.76616 4.94995
# Velocity P-wave (km/s) = 8.53638 7.11614 7.85841
#
# Compressibility (1/GPa) = 0.01982670
#
# Stress axis : x y z
#
# Youngs Moduli (GPa) = 74.45634 49.16009 64.19871
#
# Poissons Ratio (x) = 0.26193 0.44928
# Poissons Ratio (y) = 0.39672 0.15631
# Poissons Ratio (z) = 0.52106 0.11969
#
# Static dielectric constant tensor:
#      x y z
#    x 1.663880 0.000000 0.021560 
#    y 0.000000 1.675040 0.000000 
#    z 0.021560 0.000000 1.695510 
# 
# From -- ./inp_files/63590.got.cif
#   From: 2010.05.17/outbox.cif.g08.bks.cpg/sg10_32_cif.got.tgz:63590.got - 2010.06.03 11:33:40.
