data_PCOD9149391
_publ_section_title
;
Structure prediction by ZEFSAII (Michael W. Deem and Ramdas Pophale) SiO2 
 PCOD9149391
Probable space group: P 2/M
;
_chemical_formula_sum "Si O2"
_cell_formula_units_Z 24
_cell_length_a 7.328574
_cell_length_b 8.620780
_cell_length_c 17.157248
_cell_angle_alpha 90.000000
_cell_angle_beta 111.578878
_cell_angle_gamma 90.000000
_cell_volume 1007.988510
_symmetry_space_group_name_H-M "P 2/M"
_symmetry_group_IT_number 10
_symmetry_cell_setting 'monoclinic'
loop_
_space_group_symop_operation_xyz
x,y,z
-x,y,-z
-x,-y,-z
x,-y,z
loop_
_atom_site_type_symbol
_atom_site_label
_atom_site_fract_x
_atom_site_fract_y
_atom_site_fract_z
Si Si1 0.380946 0.500000 0.399100
Si Si2 0.621819 0.176102 0.162940
Si Si3 0.949055 0.500000 0.402738
Si Si4 0.203214 0.179430 0.117648
Si Si5 0.808415 0.323320 0.051554
Si Si6 0.617403 0.833644 0.600628
Si Si7 0.087051 0.168420 0.652167
O O1 0.500000 0.500000 0.500000
O O2 0.148970 0.500000 0.383216
O O3 0.424685 0.666569 0.367750
O O4 0.423694 0.214998 0.178591
O O5 0.658697 0.288179 0.096688
O O6 0.809345 0.172889 0.247802
O O7 0.593846 0.000000 0.128614
O O8 0.000000 0.500000 0.500000
O O9 0.851440 0.332512 0.374450
O O10 0.026670 0.286380 0.118310
O O11 0.156091 0.000000 0.126601
O O12 0.214227 0.210894 0.025978
O O13 0.795665 0.500000 0.022960
O O14 0.500000 0.834901 0.500000
O O15 0.850952 0.832679 0.620203
O O16 0.576339 0.000000 0.634355
O O17 0.141081 0.000000 0.623854
#
# Coordination Sequence:
#
# PCOD9149391 Si02
#       7
#     2   4   2   4   4   4   4
#     4   8  14  26  46  68  94 123 156 208 252 310
#     4  10  21  37  60  84 115 160 202 243 301 358
#     4  10  20  34  56  80 105 139 184 226 289 352
#     4  10  20  37  60  83 117 159 205 250 286 347
#     4  11  22  35  56  88 121 156 199 246 300 353
#     4   8  13  24  46  71  95 126 166 213 265 317
#     4   9  19  35  55  80 112 147 188 239 291 355
#
# _framework density 23.809795999999999
#
# number of rings (size 3 to 8) (size 9 to 14) (size 15 to 20)
#    0.000    2.500    0.000    3.500    1.167    3.667 
#    0.000    0.000   14.667    0.000    0.000    0.000 
#    0.000    0.000    0.000    0.000    0.000    0.000 
#
# Total GULP energy -133908.596598 kJ/mol
# GULP energy per Si atom -5579.524858 kJ/mol
# Density = 2.375560 g / cm^3
# Si number density = 23.809796 Si / 1000 Ang^3
#
#
#
# Elastic Constant Matrix: (Units=GPa)
#
#
# Indices 1 2 3 4 5 6 
#
# 1 83.0095 10.8789 14.7535 0.0000 28.3014 0.0000
# 2 10.8789 212.1639 12.1348 0.0000 -15.0497 0.0000
# 3 14.7535 12.1348 53.4467 0.0000 16.5157 0.0000
# 4 0.0000 0.0000 0.0000 161.8936 0.0000 62.3703
# 5 28.3014 -15.0497 16.5157 0.0000 28.5284 0.0000
# 6 0.0000 0.0000 0.0000 62.3703 0.0000 17.1285
#
#
#
# Elastic Compliance Matrix: (Units=1/GPa)
#
#
# Indices 1 2 3 4 5 6 
#
# 1 0.019518 -0.002670 0.001994 0.000000 -0.021925 0.000000
# 2 -0.002670 0.005511 -0.002717 0.000000 0.007129 0.000000
# 3 0.001994 -0.002717 0.024152 0.000000 -0.017393 0.000000
# 4 0.000000 0.000000 0.000000 -0.015334 0.000000 0.055834
# 5 -0.021925 0.007129 -0.017393 0.000000 0.070634 0.000000
# 6 0.000000 0.000000 0.000000 0.055834 0.000000 -0.144929
#
#
# Mechanical properties :
#
#
# Convention : Reuss Voigt Hill
#
# Bulk Modulus (GPa) = 23.58877 47.12826 35.35851
# Shear Modulus (GPa) = -256.02226 62.23363 -96.89432
#
# Velocity S-wave (km/s) = -10.38083 5.11806 -6.38620
# Velocity P-wave (km/s) = 11.56518 7.40018 6.28453
#
# Compressibility (1/GPa) = 0.04239306
#
# Stress axis : x y z
#
# Youngs Moduli (GPa) = 51.23596 181.44257 41.40516
#
# Poissons Ratio (x) = 0.48446 -0.08255
# Poissons Ratio (y) = 0.13680 0.11251
# Poissons Ratio (z) = -0.10215 0.49304
#
# Static dielectric constant tensor:
#      x y z
#    x 1.912980 0.000000 0.073680 
#    y 0.000000 1.884310 0.000000 
#    z 0.073680 0.000000 1.887660 
# 
# From -- ./inp_files/82050.got.cif
#   From: 2010.05.17/outbox.cif.g08.bks.cpg/sg10_42_cif.got.tgz:82050.got - 2010.06.03 11:33:40.
