data_PCOD9149329
_publ_section_title
;
Structure prediction by ZEFSAII (Michael W. Deem and Ramdas Pophale) SiO2 
 PCOD9149329
Probable space group: P 2/M
;
_chemical_formula_sum "Si O2"
_cell_formula_units_Z 24
_cell_length_a 24.103196
_cell_length_b 7.715556
_cell_length_c 12.469021
_cell_angle_alpha 90.000000
_cell_angle_beta 26.796896
_cell_angle_gamma 90.000000
_cell_volume 1045.409009
_symmetry_space_group_name_H-M "P 2/M"
_symmetry_group_IT_number 10
_symmetry_cell_setting 'monoclinic'
loop_
_space_group_symop_operation_xyz
x,y,z
-x,y,-z
-x,-y,-z
x,-y,z
loop_
_atom_site_type_symbol
_atom_site_label
_atom_site_fract_x
_atom_site_fract_y
_atom_site_fract_z
Si Si1 0.473737 0.293173 0.204844
Si Si2 0.575375 0.708176 0.470552
Si Si3 0.198097 0.805854 0.628085
Si Si4 0.956413 0.286887 0.457762
Si Si5 0.848518 0.291459 0.055830
Si Si6 0.735786 0.699748 0.708389
O O1 0.453476 0.500000 0.217353
O O2 0.493847 0.269815 0.297325
O O3 0.344163 0.206511 0.402390
O O4 0.597974 0.227585 0.934492
O O5 0.500000 0.778423 0.500000
O O6 0.587583 0.500000 0.433584
O O7 0.714122 0.773750 0.249592
O O8 0.133100 0.751682 0.850569
O O9 0.189302 0.703268 0.532207
O O10 0.161820 0.000000 0.665037
O O11 0.954453 0.500000 0.460931
O O12 0.821776 0.225997 0.652849
O O13 0.000000 0.232748 0.500000
O O14 0.050568 0.230850 0.202592
O O15 0.845567 0.500000 0.056363
O O16 0.712488 0.500000 0.777144
#
# Coordination Sequence:
#
# PCOD9149329 Si02
#       6
#     4   4   4   4   4   4
#     4   9  18  32  52  81 112 141 173 217 274 328
#     4   8  14  24  45  76 104 135 172 209 253 308
#     4  11  22  36  55  78 107 142 186 231 269 315
#     4   9  19  34  56  87 114 138 175 224 270 317
#     4   9  18  34  55  79 111 143 175 220 271 320
#     4  10  20  34  55  82 113 144 176 218 271 326
#
# _framework density 22.957519999999999
#
# number of rings (size 3 to 8) (size 9 to 14) (size 15 to 20)
#    0.000    2.667    0.000    3.000    2.333    3.333 
#    0.000    4.167    0.000   10.000    0.000    0.000 
#    0.000    0.000    0.000    0.000    0.000    0.000 
#
# Total GULP energy -133961.039740 kJ/mol
# GULP energy per Si atom -5581.709989 kJ/mol
# Density = 2.290527 g / cm^3
# Si number density = 22.957520 Si / 1000 Ang^3
#
#
#
# Elastic Constant Matrix: (Units=GPa)
#
#
# Indices 1 2 3 4 5 6 
#
# 1 96.5200 -6.7448 8.3907 0.0000 4.8705 0.0000
# 2 -6.7448 37.5176 3.7029 0.0000 0.8567 0.0000
# 3 8.3907 3.7029 93.8076 0.0000 8.6582 0.0000
# 4 0.0000 0.0000 0.0000 -5.2387 0.0000 -10.9509
# 5 4.8705 0.8567 8.6582 0.0000 20.1107 0.0000
# 6 0.0000 0.0000 0.0000 -10.9509 0.0000 76.6142
#
#
#
# Elastic Compliance Matrix: (Units=1/GPa)
#
#
# Indices 1 2 3 4 5 6 
#
# 1 0.010693 0.002057 -0.000823 0.000000 -0.002323 0.000000
# 2 0.002057 0.027164 -0.001149 0.000000 -0.001160 0.000000
# 3 -0.000823 -0.001149 0.011201 0.000000 -0.004574 0.000000
# 4 0.000000 0.000000 0.000000 -0.146973 0.000000 -0.021008
# 5 -0.002323 -0.001160 -0.004574 0.000000 0.052306 0.000000
# 6 0.000000 0.000000 0.000000 -0.021008 0.000000 0.010050
#
#
# Mechanical properties :
#
#
# Convention : Reuss Voigt Hill
#
# Bulk Modulus (GPa) = 20.31414 26.50474 23.40944
# Shear Modulus (GPa) = -258.80820 33.13034 -112.83893
#
# Velocity S-wave (km/s) = -10.62912 3.80296 -7.01840
# Velocity P-wave (km/s) = 11.90672 5.55459 7.44703
#
# Compressibility (1/GPa) = 0.04922679
#
# Stress axis : x y z
#
# Youngs Moduli (GPa) = 93.51869 36.81368 89.27541
#
# Poissons Ratio (x) = -0.07571 0.07349
# Poissons Ratio (y) = -0.19234 0.10259
# Poissons Ratio (z) = 0.07699 0.04230
#
# Static dielectric constant tensor:
#      x y z
#    x 1.862020 0.000000 -0.023020 
#    y 0.000000 1.858320 0.000000 
#    z -0.023020 0.000000 1.881550 
# 
# From -- ./inp_files/56537.got.cif
#   From: 2010.05.17/outbox.cif.g08.bks.cpg/sg10_29_cif.got.tgz:56537.got - 2010.06.03 11:33:40.
