data_PCOD9149770
_publ_section_title
;
Structure prediction by ZEFSAII (Michael W. Deem and Ramdas Pophale) SiO2 
 PCOD9149770
Probable space group: P 2/M
;
_chemical_formula_sum "Si O2"
_cell_formula_units_Z 28
_cell_length_a 30.184303
_cell_length_b 8.720679
_cell_length_c 9.423856
_cell_angle_alpha 90.000000
_cell_angle_beta 140.968332
_cell_angle_gamma 90.000000
_cell_volume 1562.169499
_symmetry_space_group_name_H-M "P 2/M"
_symmetry_group_IT_number 10
_symmetry_cell_setting 'monoclinic'
loop_
_space_group_symop_operation_xyz
x,y,z
-x,y,-z
-x,-y,-z
x,-y,z
loop_
_atom_site_type_symbol
_atom_site_label
_atom_site_fract_x
_atom_site_fract_y
_atom_site_fract_z
Si Si1 0.631808 0.183071 0.994168
Si Si2 0.499545 0.316760 0.162555
Si Si3 0.070514 0.684890 0.592726
Si Si4 0.785746 0.183075 0.063578
Si Si5 0.932490 0.313354 0.745990
Si Si6 0.778938 0.682858 0.363302
Si Si7 0.370038 0.183572 0.344423
O O1 0.567021 0.248380 0.920526
O O2 0.624971 0.227267 0.810198
O O3 0.631364 0.000000 0.997925
O O4 0.707142 0.241947 0.238054
O O5 0.494505 0.500000 0.153183
O O6 0.570583 0.264946 0.417320
O O7 0.500000 0.265408 0.000000
O O8 0.078067 0.500000 0.618324
O O9 0.142326 0.760501 0.828415
O O10 0.062491 0.729423 0.407222
O O11 0.000000 0.727993 0.500000
O O12 0.783286 0.269753 0.208465
O O13 0.788349 0.000000 0.094898
O O14 0.710068 0.216647 0.805685
O O15 0.933304 0.500000 0.752081
O O16 0.855398 0.266991 0.612149
O O17 0.000000 0.257409 0.000000
O O18 0.773338 0.500000 0.361859
O O19 0.380694 0.000000 0.378729
#
# Coordination Sequence:
#
# PCOD9149770 Si02
#       7
#     4   4   4   4   4   4   4
#     4  10  20  35  56  79 102 130 167 208 250 299
#     4  11  24  38  52  75 105 134 166 204 248 298
#     4   9  17  29  46  69  96 127 164 202 243 292
#     4   9  17  30  49  73 100 127 161 204 247 294
#     4   8  14  26  45  68  94 125 159 196 239 284
#     4   9  16  28  49  74  99 127 163 206 248 289
#     4   9  19  35  55  78 100 128 168 208 249 300
#
# _framework density 17.923791999999999
#
# number of rings (size 3 to 8) (size 9 to 14) (size 15 to 20)
#    0.000    2.714    0.000    3.857    0.000    6.571 
#    0.000    1.429    0.000   14.143    0.000    0.000 
#    0.000    0.000    0.000    0.000    0.000    0.000 
#
# Total GULP energy -156009.324411 kJ/mol
# GULP energy per Si atom -5571.761586 kJ/mol
# Density = 1.788300 g / cm^3
# Si number density = 17.923792 Si / 1000 Ang^3
#
#
#
# Elastic Constant Matrix: (Units=GPa)
#
#
# Indices 1 2 3 4 5 6 
#
# 1 113.3769 35.9225 77.9771 0.0000 36.5140 0.0000
# 2 35.9225 32.3777 38.5544 0.0000 10.7898 0.0000
# 3 77.9771 38.5544 142.7620 0.0000 38.4886 0.0000
# 4 0.0000 0.0000 0.0000 59.7112 0.0000 2.7039
# 5 36.5140 10.7898 38.4886 0.0000 29.7877 0.0000
# 6 0.0000 0.0000 0.0000 2.7039 0.0000 24.0279
#
#
#
# Elastic Compliance Matrix: (Units=1/GPa)
#
#
# Indices 1 2 3 4 5 6 
#
# 1 0.020499 -0.013582 -0.003193 0.000000 -0.016083 0.000000
# 2 -0.013582 0.054541 -0.009934 0.000000 0.009728 0.000000
# 3 -0.003193 -0.009934 0.014434 0.000000 -0.011139 0.000000
# 4 0.000000 0.000000 0.000000 0.016833 0.000000 -0.001894
# 5 -0.016083 0.009728 -0.011139 0.000000 0.064154 0.000000
# 6 0.000000 0.000000 0.000000 -0.001894 0.000000 0.041831
#
#
# Mechanical properties :
#
#
# Convention : Reuss Voigt Hill
#
# Bulk Modulus (GPa) = 27.73323 65.93608 46.83466
# Shear Modulus (GPa) = 18.00322 31.77619 24.88970
#
# Velocity S-wave (km/s) = 3.17271 4.21509 3.73049
# Velocity P-wave (km/s) = 5.37847 7.78178 6.68895
#
# Compressibility (1/GPa) = 0.03605782
#
# Stress axis : x y z
#
# Youngs Moduli (GPa) = 48.78310 18.33480 69.28007
#
# Poissons Ratio (x) = 0.24902 0.22119
# Poissons Ratio (y) = 0.66256 0.68820
# Poissons Ratio (z) = 0.15575 0.18213
#
# Static dielectric constant tensor:
#      x y z
#    x 1.625300 0.000000 0.023840 
#    y 0.000000 1.603050 0.000000 
#    z 0.023840 0.000000 1.628530 
# 
# From -- ./inp_files/38015.got.cif
#   From: 2010.05.17/outbox.cif.g08.bks.cpg/sg10_20_cif.got.tgz:38015.got - 2010.06.03 11:33:40.
