data_PCOD9149689
_publ_section_title
;
Structure prediction by ZEFSAII (Michael W. Deem and Ramdas Pophale) SiO2 
 PCOD9149689
Probable space group: P 2/M
;
_chemical_formula_sum "Si O2"
_cell_formula_units_Z 32
_cell_length_a 17.110436
_cell_length_b 17.808143
_cell_length_c 10.870343
_cell_angle_alpha 90.000000
_cell_angle_beta 33.397886
_cell_angle_gamma 90.000000
_cell_volume 1823.227173
_symmetry_space_group_name_H-M "P 2/M"
_symmetry_group_IT_number 10
_symmetry_cell_setting 'monoclinic'
loop_
_space_group_symop_operation_xyz
x,y,z
-x,y,-z
-x,-y,-z
x,-y,z
loop_
_atom_site_type_symbol
_atom_site_label
_atom_site_fract_x
_atom_site_fract_y
_atom_site_fract_z
Si Si1 0.536926 0.914390 0.593573
Si Si2 0.340130 0.704918 0.975473
Si Si3 0.773666 0.914898 0.879403
Si Si4 0.811405 0.214248 0.625757
Si Si5 0.883498 0.796266 0.887655
Si Si6 0.346608 0.588744 0.763877
Si Si7 0.349774 0.223424 0.414047
Si Si8 0.147197 0.689505 0.856006
O O1 0.500000 0.896536 0.500000
O O2 0.635932 0.850977 0.521191
O O3 0.593007 0.000000 0.522931
O O4 0.391480 0.913514 0.863984
O O5 0.348412 0.625367 0.897222
O O6 0.494306 0.739739 0.797405
O O7 0.248961 0.715139 0.218445
O O8 0.254879 0.756656 0.989651
O O9 0.801699 0.857517 0.730208
O O10 0.858560 0.882959 0.886487
O O11 0.813109 0.000000 0.797341
O O12 0.713833 0.203145 0.634685
O O13 0.972524 0.226325 0.371464
O O14 0.890843 0.764004 0.014129
O O15 0.500000 0.603367 0.500000
O O16 0.322096 0.500000 0.799143
O O17 0.230276 0.631748 0.834290
O O18 0.247791 0.282955 0.614509
O O19 0.000000 0.657268 0.000000
#
# Coordination Sequence:
#
# PCOD9149689 Si02
#       8
#     4   4   4   4   4   4   4   4
#     4  10  21  35  53  78 111 147 191 243 289 330
#     4  10  20  35  60  83 111 147 184 228 273 327
#     4  10  20  35  55  77 107 151 196 238 287 337
#     4  11  22  35  53  85 118 147 184 235 282 335
#     4  10  20  36  56  81 112 147 190 237 274 333
#     4  10  21  38  63  92 115 143 185 228 273 331
#     4  12  21  35  59  85 113 147 192 239 279 329
#     4  11  22  38  60  89 114 149 183 233 288 331
#
# _framework density 17.551296000000001
#
# number of rings (size 3 to 8) (size 9 to 14) (size 15 to 20)
#    0.000    1.500    5.000    2.625    1.750    1.750 
#    0.000    1.250    0.000    9.000    0.000    0.000 
#    0.000    0.000    0.000    0.000    0.000    0.000 
#
# Total GULP energy -178456.299218 kJ/mol
# GULP energy per Si atom -5576.759351 kJ/mol
# Density = 1.751135 g / cm^3
# Si number density = 17.551296 Si / 1000 Ang^3
#
#
#
# Elastic Constant Matrix: (Units=GPa)
#
#
# Indices 1 2 3 4 5 6 
#
# 1 76.2196 41.8153 7.9537 0.0000 -8.4899 0.0000
# 2 41.8153 87.4099 23.7516 0.0000 -2.0797 0.0000
# 3 7.9537 23.7516 81.2495 0.0000 -9.6424 0.0000
# 4 0.0000 0.0000 0.0000 18.7161 0.0000 3.7270
# 5 -8.4899 -2.0797 -9.6424 0.0000 30.2943 0.0000
# 6 0.0000 0.0000 0.0000 3.7270 0.0000 17.1840
#
#
#
# Elastic Compliance Matrix: (Units=1/GPa)
#
#
# Indices 1 2 3 4 5 6 
#
# 1 0.018548 -0.009149 0.001456 0.000000 0.005033 0.000000
# 2 -0.009149 0.016943 -0.004389 0.000000 -0.002798 0.000000
# 3 0.001456 -0.004389 0.013989 0.000000 0.004559 0.000000
# 4 0.000000 0.000000 0.000000 0.055842 0.000000 -0.012111
# 5 0.005033 -0.002798 0.004559 0.000000 0.035679 0.000000
# 6 0.000000 0.000000 0.000000 -0.012111 0.000000 0.060820
#
#
# Mechanical properties :
#
#
# Convention : Reuss Voigt Hill
#
# Bulk Modulus (GPa) = 39.50039 43.54669 41.52354
# Shear Modulus (GPa) = 21.32879 24.66278 22.99578
#
# Velocity S-wave (km/s) = 3.48979 3.75264 3.62360
# Velocity P-wave (km/s) = 6.22838 6.60616 6.42005
#
# Compressibility (1/GPa) = 0.02531620
#
# Stress axis : x y z
#
# Youngs Moduli (GPa) = 53.91438 59.02077 71.48227
#
# Poissons Ratio (x) = 0.53998 -0.10409
# Poissons Ratio (y) = 0.49326 0.31377
# Poissons Ratio (z) = -0.07851 0.25907
#
# Static dielectric constant tensor:
#      x y z
#    x 1.605950 0.000000 0.003300 
#    y 0.000000 1.600610 0.000000 
#    z 0.003300 0.000000 1.615050 
# 
# From -- ./inp_files/54135.got.cif
#   From: 2010.05.17/outbox.cif.g08.bks.cpg/sg10_28_cif.got.tgz:54135.got - 2010.06.03 11:33:40.
