data_PCOD9149902
_publ_section_title
;
Structure prediction by ZEFSAII (Michael W. Deem and Ramdas Pophale) SiO2 
 PCOD9149902
Probable space group: P 2/M
;
_chemical_formula_sum "Si O2"
_cell_formula_units_Z 28
_cell_length_a 5.471783
_cell_length_b 9.101588
_cell_length_c 31.134205
_cell_angle_alpha 90.000000
_cell_angle_beta 125.449848
_cell_angle_gamma 90.000000
_cell_volume 1263.108787
_symmetry_space_group_name_H-M "P 2/M"
_symmetry_group_IT_number 10
_symmetry_cell_setting 'monoclinic'
loop_
_space_group_symop_operation_xyz
x,y,z
-x,y,-z
-x,-y,-z
x,-y,z
loop_
_atom_site_type_symbol
_atom_site_label
_atom_site_fract_x
_atom_site_fract_y
_atom_site_fract_z
Si Si1 0.183634 0.155588 0.896626
Si Si2 0.600766 0.676844 0.308996
Si Si3 0.359412 0.672327 0.533204
Si Si4 0.942175 0.663768 0.044026
Si Si5 0.744057 0.822683 0.644624
Si Si6 0.539158 0.839749 0.787251
Si Si7 0.589376 0.658330 0.151816
O O1 0.293272 0.295174 0.882018
O O2 0.209692 0.198937 0.948519
O O3 0.851538 0.141256 0.843480
O O4 0.340658 0.000000 0.902895
O O5 0.622612 0.500000 0.316662
O O6 0.415174 0.750213 0.329427
O O7 0.435997 0.722710 0.248020
O O8 0.932606 0.749055 0.334629
O O9 0.500000 0.693368 0.500000
O O10 0.414881 0.500000 0.550438
O O11 0.526400 0.778324 0.583229
O O12 0.000000 0.694606 0.500000
O O13 0.809056 0.500000 0.032670
O O14 0.238845 0.652818 0.104101
O O15 0.000000 0.692569 0.000000
O O16 0.767720 0.000000 0.651715
O O17 0.330785 0.776306 0.803799
O O18 0.441600 0.000000 0.761325
O O19 0.693758 0.500000 0.177181
#
# Coordination Sequence:
#
# PCOD9149902 Si02
#       7
#     4   4   4   4   4   4   4
#     4  10  21  36  56  81 112 148 188 241 301 369
#     4  12  26  45  69  97 134 180 228 278 336 405
#     4  10  21  39  66  98 135 180 227 277 333 395
#     4   9  19  36  55  77 107 144 188 239 294 357
#     4  12  26  45  69 102 142 180 226 284 341 397
#     4  10  22  40  60  84 116 155 200 252 314 376
#     4  10  20  35  57  82 110 146 193 244 297 367
#
# _framework density 22.167527
#
# number of rings (size 3 to 8) (size 9 to 14) (size 15 to 20)
#    0.000    1.571    0.000    4.714    2.000    4.857 
#    0.000    2.857    0.000    0.000    0.000    0.000 
#    0.000    0.000    0.000    0.000    0.000    0.000 
#
# Total GULP energy -156103.753695 kJ/mol
# GULP energy per Si atom -5575.134061 kJ/mol
# Density = 2.211707 g / cm^3
# Si number density = 22.167527 Si / 1000 Ang^3
#
#
#
# Elastic Constant Matrix: (Units=GPa)
#
#
# Indices 1 2 3 4 5 6 
#
# 1 110.3613 60.4343 34.7594 0.0000 -5.2394 0.0000
# 2 60.4343 138.6045 48.9348 0.0000 -9.2932 0.0000
# 3 34.7594 48.9348 85.2484 0.0000 -11.7430 0.0000
# 4 0.0000 0.0000 0.0000 34.6230 0.0000 -1.3701
# 5 -5.2394 -9.2932 -11.7430 0.0000 30.8525 0.0000
# 6 0.0000 0.0000 0.0000 -1.3701 0.0000 -15.6455
#
#
#
# Elastic Compliance Matrix: (Units=1/GPa)
#
#
# Indices 1 2 3 4 5 6 
#
# 1 0.012292 -0.004507 -0.002453 0.000000 -0.000204 0.000000
# 2 -0.004507 0.010720 -0.004196 0.000000 0.000866 0.000000
# 3 -0.002453 -0.004196 0.015733 0.000000 0.004308 0.000000
# 4 0.000000 0.000000 0.000000 0.028783 0.000000 -0.002521
# 5 -0.000204 0.000866 0.004308 0.000000 0.034278 0.000000
# 6 0.000000 0.000000 0.000000 -0.002521 0.000000 -0.063695
#
#
# Mechanical properties :
#
#
# Convention : Reuss Voigt Hill
#
# Bulk Modulus (GPa) = 60.85742 69.16347 65.01045
# Shear Modulus (GPa) = 75.87235 22.63836 49.25536
#
# Velocity S-wave (km/s) = 5.85671 3.19915 4.71888
# Velocity P-wave (km/s) = 8.55849 6.70180 7.68642
#
# Compressibility (1/GPa) = 0.01643185
#
# Stress axis : x y z
#
# Youngs Moduli (GPa) = 81.35202 93.28677 63.56213
#
# Poissons Ratio (x) = 0.42048 0.15591
# Poissons Ratio (y) = 0.36668 0.26672
# Poissons Ratio (z) = 0.19954 0.39145
#
# Static dielectric constant tensor:
#      x y z
#    x 2.012110 0.000000 0.045560 
#    y 0.000000 1.871390 0.000000 
#    z 0.045560 0.000000 1.789880 
# 
# From -- ./inp_files/94301.got.cif
#   From: 2010.05.17/outbox.cif.g08.bks.cpg/sg10_48_cif.got.tgz:94301.got - 2010.06.03 11:33:40.
