data_PCOD9149530
_publ_section_title
;
Structure prediction by ZEFSAII (Michael W. Deem and Ramdas Pophale) SiO2 
 PCOD9149530
Probable space group: P 2/M
;
_chemical_formula_sum "Si O2"
_cell_formula_units_Z 26
_cell_length_a 18.683408
_cell_length_b 16.796418
_cell_length_c 8.977789
_cell_angle_alpha 90.000000
_cell_angle_beta 151.285680
_cell_angle_gamma 90.000000
_cell_volume 1353.579514
_symmetry_space_group_name_H-M "P 2/M"
_symmetry_group_IT_number 10
_symmetry_cell_setting 'monoclinic'
loop_
_space_group_symop_operation_xyz
x,y,z
-x,y,-z
-x,-y,-z
x,-y,z
loop_
_atom_site_type_symbol
_atom_site_label
_atom_site_fract_x
_atom_site_fract_y
_atom_site_fract_z
Si Si1 0.254748 0.756699 0.700075
Si Si2 0.897417 0.410044 0.960464
Si Si3 0.323529 0.173333 0.140113
Si Si4 0.500000 0.135881 0.000000
Si Si5 0.057945 0.744157 0.775964
Si Si6 0.560010 0.000000 0.348636
Si Si7 0.676099 0.410187 0.314251
Si Si8 0.717154 0.000000 0.930903
O O1 0.267946 0.663850 0.681155
O O2 0.079817 0.779975 0.380693
O O3 0.315723 0.774251 0.977018
O O4 0.360091 0.809092 0.786895
O O5 0.917183 0.500000 0.049718
O O6 0.736151 0.400345 0.591597
O O7 0.925675 0.345117 0.135264
O O8 0.000000 0.398790 0.000000
O O9 0.500000 0.160238 0.500000
O O10 0.233463 0.090219 0.946838
O O11 0.220558 0.215458 0.076085
O O12 0.455128 0.077305 0.782490
O O13 0.000000 0.746106 0.500000
O O14 0.695420 0.000000 0.711957
O O15 0.425379 0.000000 0.219697
O O16 0.722793 0.500000 0.350354
O O17 0.500000 0.407392 0.000000
#
# Coordination Sequence:
#
# PCOD9149530 Si02
#       8
#     4   4   4   2   4   2   4   2
#     4  11  21  37  58  91 121 155 195 250 299 346
#     4  10  20  38  62  86 117 162 200 238 298 354
#     4  11  22  39  64  83 113 161 206 242 301 360
#     4  11  20  34  61  88 118 152 197 246 302 355
#     4  10  24  40  57  90 124 155 206 246 293 355
#     4  10  20  34  58  89 113 151 201 246 292 361
#     4  10  21  35  57  88 121 153 195 244 294 350
#     4  11  18  40  59  84 115 153 202 243 292 369
#
# _framework density 19.208328000000002
#
# number of rings (size 3 to 8) (size 9 to 14) (size 15 to 20)
#    0.000    1.538    5.385    0.000    2.154    1.538 
#    0.000    7.308    0.000    1.846    0.000    0.000 
#    0.000    0.000    0.000    0.000    0.000    0.000 
#
# Total GULP energy -144742.763052 kJ/mol
# GULP energy per Si atom -5567.029348 kJ/mol
# Density = 1.916461 g / cm^3
# Si number density = 19.208328 Si / 1000 Ang^3
#
#
#
# Elastic Constant Matrix: (Units=GPa)
#
#
# Indices 1 2 3 4 5 6 
#
# 1 82.6582 52.7157 24.5003 0.0000 17.5983 0.0000
# 2 52.7157 135.0427 15.0953 0.0000 7.1997 0.0000
# 3 24.5003 15.0953 70.5375 0.0000 22.5451 0.0000
# 4 0.0000 0.0000 0.0000 16.1671 0.0000 -10.0442
# 5 17.5983 7.1997 22.5451 0.0000 28.7033 0.0000
# 6 0.0000 0.0000 0.0000 -10.0442 0.0000 29.4426
#
#
#
# Elastic Compliance Matrix: (Units=1/GPa)
#
#
# Indices 1 2 3 4 5 6 
#
# 1 0.018745 -0.006611 -0.002607 0.000000 -0.007786 0.000000
# 2 -0.006611 0.009933 -0.000439 0.000000 0.001906 0.000000
# 3 -0.002607 -0.000439 0.019534 0.000000 -0.013635 0.000000
# 4 0.000000 0.000000 0.000000 0.078490 0.000000 0.026776
# 5 -0.007786 0.001906 -0.013635 0.000000 0.049844 0.000000
# 6 0.000000 0.000000 0.000000 0.026776 0.000000 0.043099
#
#
# Mechanical properties :
#
#
# Convention : Reuss Voigt Hill
#
# Bulk Modulus (GPa) = 34.60409 52.54010 43.57209
# Shear Modulus (GPa) = 20.11334 27.92441 24.01888
#
# Velocity S-wave (km/s) = 3.23943 3.81696 3.53999
# Velocity P-wave (km/s) = 5.66093 6.84381 6.28028
#
# Compressibility (1/GPa) = 0.02889832
#
# Stress axis : x y z
#
# Youngs Moduli (GPa) = 53.34882 100.67421 51.19216
#
# Poissons Ratio (x) = 0.66552 0.13347
# Poissons Ratio (y) = 0.35267 0.02247
# Poissons Ratio (z) = 0.13909 0.04418
#
# Static dielectric constant tensor:
#      x y z
#    x 1.671900 0.000000 0.031960 
#    y 0.000000 1.700370 0.000000 
#    z 0.031960 0.000000 1.741580 
# 
# From -- ./inp_files/33076.got.cif
#   From: 2010.05.17/outbox.cif.g08.bks.cpg/sg10_17_cif.got.tgz:33076.got - 2010.06.03 11:33:40.
