data_PCOD9149650
_publ_section_title
;
Structure prediction by ZEFSAII (Michael W. Deem and Ramdas Pophale) SiO2 
 PCOD9149650
Probable space group: P 2/M
;
_chemical_formula_sum "Si O2"
_cell_formula_units_Z 20
_cell_length_a 9.820648
_cell_length_b 10.549694
_cell_length_c 20.143734
_cell_angle_alpha 90.000000
_cell_angle_beta 148.195391
_cell_angle_gamma 90.000000
_cell_volume 1099.893185
_symmetry_space_group_name_H-M "P 2/M"
_symmetry_group_IT_number 10
_symmetry_cell_setting 'monoclinic'
loop_
_space_group_symop_operation_xyz
x,y,z
-x,y,-z
-x,-y,-z
x,-y,z
loop_
_atom_site_type_symbol
_atom_site_label
_atom_site_fract_x
_atom_site_fract_y
_atom_site_fract_z
Si Si1 0.975882 0.000000 0.176081
Si Si2 0.839566 0.500000 0.564711
Si Si3 0.151914 0.766689 0.495472
Si Si4 0.033001 0.000000 0.668051
Si Si5 0.764518 0.742681 0.768204
Si Si6 0.361370 0.000000 0.084387
Si Si7 0.000000 0.209778 0.000000
Si Si8 0.210161 0.500000 0.305081
O O1 0.122547 0.875187 0.211015
O O2 0.976692 0.000000 0.255942
O O3 0.708961 0.000000 0.023176
O O4 0.928634 0.628514 0.565923
O O5 0.524993 0.500000 0.435728
O O6 0.906224 0.500000 0.669841
O O7 0.455779 0.755749 0.637101
O O8 0.000000 0.796941 0.500000
O O9 0.097341 0.875791 0.418651
O O10 0.336754 0.000000 0.776663
O O11 0.866006 0.717726 0.884364
O O12 0.858631 0.628250 0.761234
O O13 0.219708 0.119834 0.059024
#
# Coordination Sequence:
#
# PCOD9149650 Si02
#       8
#     2   2   4   2   4   2   2   2
#     4  10  21  36  55  76 105 141 174 214 258 312
#     4   9  19  36  52  71 108 146 166 201 265 318
#     4  11  22  34  53  80 108 136 173 217 261 311
#     4  12  22  33  55  82 107 133 173 225 260 297
#     4  10  20  35  54  79 105 137 178 213 259 310
#     4   9  19  35  53  77 107 141 175 206 261 315
#     4   9  18  35  56  74 106 142 170 216 260 304
#     4   9  18  33  54  77 103 135 175 214 250 311
#
# _framework density 18.183582999999999
#
# number of rings (size 3 to 8) (size 9 to 14) (size 15 to 20)
#    0.000    2.000    0.000    4.500    0.000    3.600 
#    0.000    0.000    0.000    4.800    0.000   19.600 
#    0.000    0.000    0.000    0.000    0.000    0.000 
#
# Total GULP energy -111595.531058 kJ/mol
# GULP energy per Si atom -5579.776553 kJ/mol
# Density = 1.814220 g / cm^3
# Si number density = 18.183583 Si / 1000 Ang^3
#
#
#
# Elastic Constant Matrix: (Units=GPa)
#
#
# Indices 1 2 3 4 5 6 
#
# 1 64.7185 9.8327 29.5609 0.0000 -28.5022 0.0000
# 2 9.8327 104.9843 32.0323 0.0000 -20.6076 0.0000
# 3 29.5609 32.0323 106.3682 0.0000 -21.0594 0.0000
# 4 0.0000 0.0000 0.0000 -16.6109 0.0000 25.4631
# 5 -28.5022 -20.6076 -21.0594 0.0000 39.8093 0.0000
# 6 0.0000 0.0000 0.0000 25.4631 0.0000 -10.8103
#
#
#
# Elastic Compliance Matrix: (Units=1/GPa)
#
#
# Indices 1 2 3 4 5 6 
#
# 1 0.024172 0.002194 -0.004163 0.000000 0.016240 0.000000
# 2 0.002194 0.011356 -0.002854 0.000000 0.005940 0.000000
# 3 -0.004163 -0.002854 0.011768 0.000000 0.001767 0.000000
# 4 0.000000 0.000000 0.000000 0.023060 0.000000 0.054316
# 5 0.016240 0.005940 0.001767 0.000000 0.040757 0.000000
# 6 0.000000 0.000000 0.000000 0.054316 0.000000 0.035433
#
#
# Mechanical properties :
#
#
# Convention : Reuss Voigt Hill
#
# Bulk Modulus (GPa) = 26.56021 46.54699 36.55360
# Shear Modulus (GPa) = 29.63134 16.12062 22.87598
#
# Velocity S-wave (km/s) = 4.04117 2.98073 3.55076
# Velocity P-wave (km/s) = 6.03433 6.12374 6.07920
#
# Compressibility (1/GPa) = 0.03765030
#
# Stress axis : x y z
#
# Youngs Moduli (GPa) = 41.37063 88.05598 84.97961
#
# Poissons Ratio (x) = -0.19320 0.35378
# Poissons Ratio (y) = -0.09077 0.24250
# Poissons Ratio (z) = 0.17223 0.25128
#
# Static dielectric constant tensor:
#      x y z
#    x 1.609710 0.000000 -0.021490 
#    y 0.000000 1.601720 0.000000 
#    z -0.021490 0.000000 1.629960 
# 
# From -- ./inp_files/41682.got.cif
#   From: 2010.05.17/outbox.cif.g08.bks.cpg/sg10_21_cif.got.tgz:41682.got - 2010.06.03 11:33:40.
