data_PCOD9149167
_publ_section_title
;
Structure prediction by ZEFSAII (Michael W. Deem and Ramdas Pophale) SiO2 
 PCOD9149167
Probable space group: P 2/M
;
_chemical_formula_sum "Si O2"
_cell_formula_units_Z 22
_cell_length_a 17.310587
_cell_length_b 7.319250
_cell_length_c 15.391862
_cell_angle_alpha 90.000000
_cell_angle_beta 24.033395
_cell_angle_gamma 90.000000
_cell_volume 794.238491
_symmetry_space_group_name_H-M "P 2/M"
_symmetry_group_IT_number 10
_symmetry_cell_setting 'monoclinic'
loop_
_space_group_symop_operation_xyz
x,y,z
-x,y,-z
-x,-y,-z
x,-y,z
loop_
_atom_site_type_symbol
_atom_site_label
_atom_site_fract_x
_atom_site_fract_y
_atom_site_fract_z
Si Si1 0.730140 0.284271 0.262002
Si Si2 0.118040 0.000000 0.749267
Si Si3 0.288391 0.708340 0.469795
Si Si4 0.685391 0.287840 0.123986
Si Si5 0.817003 0.782050 0.797440
Si Si6 0.738607 0.781568 0.693492
O O1 0.500000 0.269850 0.500000
O O2 0.777309 0.500000 0.225467
O O3 0.826845 0.160532 0.234733
O O4 0.780575 0.208809 0.112863
O O5 0.122131 0.157749 0.666343
O O6 0.247919 0.500000 0.535712
O O7 0.472601 0.785610 0.330482
O O8 0.345881 0.710130 0.309346
O O9 0.662582 0.500000 0.170582
O O10 0.769058 0.284472 0.942121
O O11 0.702401 0.716953 0.829284
O O12 0.037307 0.744836 0.552150
O O13 0.791042 0.000000 0.826083
O O14 0.707857 0.000000 0.724618
#
# Coordination Sequence:
#
# PCOD9149167 Si02
#       6
#     4   2   4   4   4   4
#     4  10  20  34  53  84 118 150 193 239 282 345
#     4  12  21  34  60  81 118 154 200 223 307 334
#     4  11  23  36  57  89 121 150 193 241 284 345
#     4  10  22  36  53  88 121 146 190 244 286 334
#     4   9  20  36  63  84 115 150 198 236 280 349
#     4   9  19  40  58  86 115 156 193 236 286 347
#
# _framework density 27.699490000000001
#
# number of rings (size 3 to 8) (size 9 to 14) (size 15 to 20)
#    0.000    2.000    2.727    1.909    2.545    2.182 
#    0.000    5.455    0.000    2.182    0.000    3.818 
#    0.000    0.000    0.000    0.000    0.000    0.000 
#
# Total GULP energy -122739.020499 kJ/mol
# GULP energy per Si atom -5579.046386 kJ/mol
# Density = 2.763645 g / cm^3
# Si number density = 27.699490 Si / 1000 Ang^3
#
#
#
# Elastic Constant Matrix: (Units=GPa)
#
#
# Indices 1 2 3 4 5 6 
#
# 1 217.1393 24.1969 40.3336 0.0000 35.8928 0.0000
# 2 24.1969 151.3483 -4.7860 0.0000 14.6780 0.0000
# 3 40.3336 -4.7860 116.4569 0.0000 37.1992 0.0000
# 4 0.0000 0.0000 0.0000 -0.3646 0.0000 18.6463
# 5 35.8928 14.6780 37.1992 0.0000 61.7636 0.0000
# 6 0.0000 0.0000 0.0000 18.6463 0.0000 56.4134
#
#
#
# Elastic Compliance Matrix: (Units=1/GPa)
#
#
# Indices 1 2 3 4 5 6 
#
# 1 0.005256 -0.000662 -0.001142 0.000000 -0.002210 0.000000
# 2 -0.000662 0.006938 0.001137 0.000000 -0.001949 0.000000
# 3 -0.001142 0.001137 0.011024 0.000000 -0.006246 0.000000
# 4 0.000000 0.000000 0.000000 -0.153193 0.000000 0.050635
# 5 -0.002210 -0.001949 -0.006246 0.000000 0.021700 0.000000
# 6 0.000000 0.000000 0.000000 0.050635 0.000000 0.000990
#
#
# Mechanical properties :
#
#
# Convention : Reuss Voigt Hill
#
# Bulk Modulus (GPa) = 45.69440 67.15927 56.42683
# Shear Modulus (GPa) = -50.68187 51.90915 0.61364
#
# Velocity S-wave (km/s) = -4.28214 4.33368 0.47118
# Velocity P-wave (km/s) = 2.81367 7.02420 4.55097
#
# Compressibility (1/GPa) = 0.02188452
#
# Stress axis : x y z
#
# Youngs Moduli (GPa) = 190.24117 144.13173 90.70846
#
# Poissons Ratio (x) = 0.09545 0.10358
# Poissons Ratio (y) = 0.12598 -0.10313
# Poissons Ratio (z) = 0.21725 -0.16387
#
# Static dielectric constant tensor:
#      x y z
#    x 2.203320 0.000000 -0.060890 
#    y 0.000000 2.080380 0.000000 
#    z -0.060890 0.000000 2.338870 
# 
# From -- ./inp_files/68476.got.cif
#   From: 2010.05.17/outbox.cif.g08.bks.cpg/sg10_35_cif.got.tgz:68476.got - 2010.06.03 11:33:40.
