data_PCOD9149090
_publ_section_title
;
Structure prediction by ZEFSAII (Michael W. Deem and Ramdas Pophale) SiO2 
 PCOD9149090
Probable space group: P 2/M
;
_chemical_formula_sum "Si O2"
_cell_formula_units_Z 24
_cell_length_a 24.868399
_cell_length_b 7.691571
_cell_length_c 18.792652
_cell_angle_alpha 90.000000
_cell_angle_beta 160.936031
_cell_angle_gamma 90.000000
_cell_volume 1174.082203
_symmetry_space_group_name_H-M "P 2/M"
_symmetry_group_IT_number 10
_symmetry_cell_setting 'monoclinic'
loop_
_space_group_symop_operation_xyz
x,y,z
-x,y,-z
-x,-y,-z
x,-y,z
loop_
_atom_site_type_symbol
_atom_site_label
_atom_site_fract_x
_atom_site_fract_y
_atom_site_fract_z
Si Si1 0.667956 0.204592 0.409297
Si Si2 0.494517 0.209708 0.573916
Si Si3 0.337266 0.791342 0.756735
Si Si4 0.833896 0.786896 0.754960
Si Si5 0.332494 0.706135 0.069782
Si Si6 0.996459 0.709905 0.577354
O O1 0.673483 0.279510 0.337160
O O2 0.797162 0.274822 0.628931
O O3 0.487303 0.220233 0.218960
O O4 0.704321 0.000000 0.448371
O O5 0.500000 0.274230 0.500000
O O6 0.323526 0.266000 0.395704
O O7 0.635415 0.259554 0.806575
O O8 0.494920 0.000000 0.571973
O O9 0.172210 0.757881 0.594493
O O10 0.356936 0.000000 0.775948
O O11 0.500000 0.723426 0.000000
O O12 0.836442 0.000000 0.756954
O O13 0.000000 0.728091 0.000000
O O14 0.337484 0.500000 0.065114
O O15 0.158408 0.772301 0.822367
O O16 0.003530 0.500000 0.584696
O O17 0.000000 0.771595 0.500000
#
# Coordination Sequence:
#
# PCOD9149090 Si02
#       6
#     4   4   4   4   4   4
#     4   9  18  33  52  74 101 132 167 209 258 310
#     4   9  18  32  51  74 100 134 173 210 255 310
#     4  10  21  35  53  79 105 130 167 216 265 308
#     4   8  14  26  45  68  93 122 158 199 240 288
#     4  10  20  34  53  76 103 137 176 217 259 303
#     4  10  22  38  54  75 104 140 179 213 253 311
#
# _framework density 20.441499
#
# number of rings (size 3 to 8) (size 9 to 14) (size 15 to 20)
#    0.000    2.667    0.000    2.500    0.000    4.333 
#    0.000    3.333    0.000    8.000    0.000    0.000 
#    0.000    0.000    0.000    0.000    0.000    0.000 
#
# Total GULP energy -133909.679423 kJ/mol
# GULP energy per Si atom -5579.569976 kJ/mol
# Density = 2.039497 g / cm^3
# Si number density = 20.441499 Si / 1000 Ang^3
#
#
#
# Elastic Constant Matrix: (Units=GPa)
#
#
# Indices 1 2 3 4 5 6 
#
# 1 178.7930 -2.2406 103.1737 0.0000 -42.4407 0.0000
# 2 -2.2406 30.9930 -3.2286 0.0000 -8.8028 0.0000
# 3 103.1737 -3.2286 209.1580 0.0000 -37.7298 0.0000
# 4 0.0000 0.0000 0.0000 26.4850 0.0000 7.9075
# 5 -42.4407 -8.8028 -37.7298 0.0000 30.1732 0.0000
# 6 0.0000 0.0000 0.0000 7.9075 0.0000 10.0103
#
#
#
# Elastic Compliance Matrix: (Units=1/GPa)
#
#
# Indices 1 2 3 4 5 6 
#
# 1 0.010024 0.003770 -0.002769 0.000000 0.011737 0.000000
# 2 0.003770 0.038218 0.002193 0.000000 0.019194 0.000000
# 3 -0.002769 0.002193 0.007223 0.000000 0.005776 0.000000
# 4 0.000000 0.000000 0.000000 0.049411 0.000000 -0.039031
# 5 0.011737 0.019194 0.005776 0.000000 0.062473 0.000000
# 6 0.000000 0.000000 0.000000 -0.039031 0.000000 0.130729
#
#
# Mechanical properties :
#
#
# Convention : Reuss Voigt Hill
#
# Bulk Modulus (GPa) = 16.16777 68.26145 42.21461
# Shear Modulus (GPa) = 16.00978 34.74967 25.37972
#
# Velocity S-wave (km/s) = 2.80161 4.12753 3.52743
# Velocity P-wave (km/s) = 4.28857 7.49542 6.10627
#
# Compressibility (1/GPa) = 0.06185145
#
# Stress axis : x y z
#
# Youngs Moduli (GPa) = 99.75584 26.16578 138.44603
#
# Poissons Ratio (x) = -0.09864 0.38343
# Poissons Ratio (y) = -0.37605 -0.30358
# Poissons Ratio (z) = 0.27627 -0.05738
#
# Static dielectric constant tensor:
#      x y z
#    x 1.704020 0.000000 -0.038810 
#    y 0.000000 1.744050 0.000000 
#    z -0.038810 0.000000 1.716010 
# 
# From -- ./inp_files/27201.got.cif
#   From: 2010.05.17/outbox.cif.g08.bks.cpg/sg10_14_cif.got.tgz:27201.got - 2010.06.03 11:33:40.
