data_PCOD9149614
_publ_section_title
;
Structure prediction by ZEFSAII (Michael W. Deem and Ramdas Pophale) SiO2 
 PCOD9149614
Probable space group: P 2/M
;
_chemical_formula_sum "Si O2"
_cell_formula_units_Z 30
_cell_length_a 10.880403
_cell_length_b 9.523767
_cell_length_c 18.632201
_cell_angle_alpha 90.000000
_cell_angle_beta 119.661719
_cell_angle_gamma 90.000000
_cell_volume 1677.717615
_symmetry_space_group_name_H-M "P 2/M"
_symmetry_group_IT_number 10
_symmetry_cell_setting 'monoclinic'
loop_
_space_group_symop_operation_xyz
x,y,z
-x,y,-z
-x,-y,-z
x,-y,z
loop_
_atom_site_type_symbol
_atom_site_label
_atom_site_fract_x
_atom_site_fract_y
_atom_site_fract_z
Si Si1 0.050037 0.844369 0.172016
Si Si2 0.440446 0.833249 0.646270
Si Si3 0.278073 0.163136 0.899596
Si Si4 0.721292 0.667692 0.682817
Si Si5 0.000000 0.748526 0.000000
Si Si6 0.669302 0.160238 0.532419
Si Si7 0.307417 0.659513 0.049600
Si Si8 0.538829 0.165339 0.186807
O O1 0.152490 0.725919 0.231702
O O2 0.035011 0.835122 0.081726
O O3 0.891319 0.826128 0.156019
O O4 0.103514 0.000000 0.207227
O O5 0.577149 0.738033 0.670621
O O6 0.326309 0.804789 0.550840
O O7 0.397078 0.810632 0.715929
O O8 0.477502 0.000000 0.649159
O O9 0.355854 0.197970 0.848132
O O10 0.310022 0.000000 0.926963
O O11 0.324201 0.259895 0.978953
O O12 0.713318 0.500000 0.680090
O O13 0.738165 0.731986 0.607559
O O14 0.142030 0.664531 0.022213
O O15 0.500000 0.161945 0.500000
O O16 0.718623 0.000000 0.558772
O O17 0.355699 0.500000 0.058285
O O18 0.398930 0.743512 0.134166
O O19 0.502453 0.000000 0.171609
#
# Coordination Sequence:
#
# PCOD9149614 Si02
#       8
#     4   4   4   4   2   4   4   4
#     4  10  20  35  54  73  96 129 168 206 246 292
#     4   9  18  32  52  76 101 130 162 201 248 294
#     4   9  20  37  54  71  94 129 170 210 248 286
#     4  11  21  31  48  76 106 133 162 197 243 298
#     4  10  22  36  52  74 102 132 166 206 244 286
#     4   8  15  30  50  72  99 130 163 199 242 292
#     4  11  22  34  50  73 102 135 167 201 244 292
#     4  10  20  35  54  75  99 127 165 209 248 290
#
# _framework density 17.881436000000001
#
# number of rings (size 3 to 8) (size 9 to 14) (size 15 to 20)
#    0.000    2.267    0.000    4.000    0.000   11.467 
#    0.000    0.000    0.000    0.800    0.000    5.600 
#    0.000    0.000    0.000    0.000    0.000    0.000 
#
# Total GULP energy -167343.882306 kJ/mol
# GULP energy per Si atom -5578.129410 kJ/mol
# Density = 1.784074 g / cm^3
# Si number density = 17.881436 Si / 1000 Ang^3
#
#
#
# Elastic Constant Matrix: (Units=GPa)
#
#
# Indices 1 2 3 4 5 6 
#
# 1 51.7954 25.6104 35.1197 0.0000 -14.9518 0.0000
# 2 25.6104 84.2763 47.4273 0.0000 -4.3124 0.0000
# 3 35.1197 47.4273 112.3650 0.0000 -19.8314 0.0000
# 4 0.0000 0.0000 0.0000 -12.9877 0.0000 8.7511
# 5 -14.9518 -4.3124 -19.8314 0.0000 22.5563 0.0000
# 6 0.0000 0.0000 0.0000 8.7511 0.0000 6.0646
#
#
#
# Elastic Compliance Matrix: (Units=1/GPa)
#
#
# Indices 1 2 3 4 5 6 
#
# 1 0.029177 -0.005823 -0.004077 0.000000 0.014643 0.000000
# 2 -0.005823 0.016936 -0.006437 0.000000 -0.006281 0.000000
# 3 -0.004077 -0.006437 0.014437 0.000000 0.008760 0.000000
# 4 0.000000 0.000000 0.000000 -0.039039 0.000000 0.056333
# 5 0.014643 -0.006281 0.008760 0.000000 0.060540 0.000000
# 6 0.000000 0.000000 0.000000 0.056333 0.000000 0.083604
#
#
# Mechanical properties :
#
#
# Convention : Reuss Voigt Hill
#
# Bulk Modulus (GPa) = 35.87326 51.63905 43.75615
# Shear Modulus (GPa) = 24.08209 12.47859 18.28034
#
# Velocity S-wave (km/s) = 3.67381 2.64455 3.20082
# Velocity P-wave (km/s) = 6.17261 6.18596 6.17929
#
# Compressibility (1/GPa) = 0.02787592
#
# Stress axis : x y z
#
# Youngs Moduli (GPa) = 34.27308 59.04435 69.26641
#
# Poissons Ratio (x) = 0.34380 0.28243
# Poissons Ratio (y) = 0.19956 0.44589
# Poissons Ratio (z) = 0.13975 0.38008
#
# Static dielectric constant tensor:
#      x y z
#    x 1.613880 0.000000 -0.020520 
#    y 0.000000 1.604790 0.000000 
#    z -0.020520 0.000000 1.635430 
# 
# From -- ./inp_files/76223.got.cif
#   From: 2010.05.17/outbox.cif.g08.bks.cpg/sg10_39_cif.got.tgz:76223.got - 2010.06.03 11:33:40.
