data_PCOD9149511
_publ_section_title
;
Structure prediction by ZEFSAII (Michael W. Deem and Ramdas Pophale) SiO2 
 PCOD9149511
Probable space group: P 2/M
;
_chemical_formula_sum "Si O2"
_cell_formula_units_Z 32
_cell_length_a 7.756424
_cell_length_b 14.558367
_cell_length_c 13.477525
_cell_angle_alpha 90.000000
_cell_angle_beta 90.000024
_cell_angle_gamma 90.000000
_cell_volume 1521.893811
_symmetry_space_group_name_H-M "P 2/M"
_symmetry_group_IT_number 10
_symmetry_cell_setting 'monoclinic'
loop_
_space_group_symop_operation_xyz
x,y,z
-x,y,-z
-x,-y,-z
x,-y,z
loop_
_atom_site_type_symbol
_atom_site_label
_atom_site_fract_x
_atom_site_fract_y
_atom_site_fract_z
Si Si1 0.294595 0.391757 0.500000
Si Si2 0.210015 0.892382 0.608360
Si Si3 0.789985 0.892382 0.608359
Si Si4 0.204207 0.396502 0.718160
Si Si5 0.792316 0.214194 0.802028
Si Si6 0.704629 0.104030 1.000000
Si Si7 0.795793 0.603498 0.718160
Si Si8 0.792316 0.785806 0.197971
O O1 0.500000 0.384423 0.500000
O O2 0.244918 0.500000 0.500000
O O3 0.226806 0.358117 0.605805
O O4 0.226806 0.358117 0.394195
O O5 0.268047 0.857225 0.500000
O O6 0.273374 0.840096 0.705239
O O7 1.000000 0.887947 0.608599
O O8 0.255412 0.000000 0.614947
O O9 0.726626 0.840096 0.705239
O O10 0.744588 0.000000 0.614947
O O11 0.278860 0.500000 0.724197
O O12 0.272267 0.319079 0.792653
O O13 0.000000 0.405045 0.734456
O O14 0.727732 0.319079 0.792653
O O15 1.000000 0.217870 0.794187
O O16 0.753511 0.160245 0.901968
O O17 0.753511 0.160245 0.098032
O O18 0.777921 0.000000 1.000000
O O19 0.500000 0.096251 0.000000
O O20 0.721140 0.500000 0.724197
#
# Coordination Sequence:
#
# PCOD9149511 Si02
#       8
#     4   4   4   4   4   4   4   4
#     4   9  17  29  47  73 108 153 196 227 261 316
#     4   8  14  25  44  74 107 132 162 214 271 317
#     4   8  14  25  44  74 107 132 162 214 271 317
#     4   9  18  32  51  79 114 147 182 230 282 323
#     4  10  20  34  58  83 105 141 189 230 270 327
#     4  11  25  43  60  79 108 142 177 227 286 337
#     4   9  18  32  51  79 114 147 182 230 282 323
#     4  10  20  34  58  83 105 141 189 230 270 327
#
# _framework density 21.026433999999998
#
# number of rings (size 3 to 8) (size 9 to 14) (size 15 to 20)
#    0.000    2.750    0.000    2.250    1.750    4.500 
#    0.000    0.625    0.000    3.750    0.000    3.500 
#    0.000    0.000    0.000    0.000    0.000    0.000 
#
# Total GULP energy -178515.968438 kJ/mol
# GULP energy per Si atom -5578.624014 kJ/mol
# Density = 2.097858 g / cm^3
# Si number density = 21.026434 Si / 1000 Ang^3
#
#
#
# Elastic Constant Matrix: (Units=GPa)
#
#
# Indices 1 2 3 4 5 6 
#
# 1 26.2038 8.5512 0.8688 0.0000 -0.0103 0.0000
# 2 8.5512 152.0012 111.8143 0.0000 -0.0128 0.0000
# 3 0.8688 111.8143 165.9698 0.0000 -0.0159 0.0000
# 4 0.0000 0.0000 0.0000 43.8199 0.0000 -0.0001
# 5 -0.0103 -0.0128 -0.0159 0.0000-1918.5952 0.0000
# 6 0.0000 0.0000 0.0000 -0.0001 0.0000 4.9538
#
#
#
# Elastic Compliance Matrix: (Units=1/GPa)
#
#
# Indices 1 2 3 4 5 6 
#
# 1 0.039414 -0.004095 0.002552 0.000000 0.000000 0.000000
# 2 -0.004095 0.013468 -0.009052 0.000000 0.000000 0.000000
# 3 0.002552 -0.009052 0.012110 0.000000 0.000000 0.000000
# 4 0.000000 0.000000 0.000000 0.022821 0.000000 0.000000
# 5 0.000000 0.000000 0.000000 0.000000 -0.000521 0.000000
# 6 0.000000 0.000000 0.000000 0.000000 0.000000 0.201863
#
#
# Mechanical properties :
#
#
# Convention : Reuss Voigt Hill
#
# Bulk Modulus (GPa) = 22.82934 65.18259 44.00596
# Shear Modulus (GPa) = 15.38720 -359.10158 -171.85719
#
# Velocity S-wave (km/s) = 2.70812 -13.08268 -9.05049
# Velocity P-wave (km/s) = 4.54528 14.04069 9.39366
#
# Compressibility (1/GPa) = 0.04380328
#
# Stress axis : x y z
#
# Youngs Moduli (GPa) = 25.37167 74.24961 82.57488
#
# Poissons Ratio (x) = 0.30405 -0.21077
# Poissons Ratio (y) = 0.10390 0.74747
# Poissons Ratio (z) = -0.06476 0.67211
#
# Static dielectric constant tensor:
#      x y z
#    x 1.748260 0.000000 0.000000 
#    y 0.000000 1.820450 0.000000 
#    z 0.000000 0.000000 1.740680 
# 
# From -- ./inp_files/42985.got.cif
#   From: 2010.05.17/outbox.cif.g08.bks.cpg/sg10_22_cif.got.tgz:42985.got - 2010.06.03 11:33:40.
