data_PCOD9149374
_publ_section_title
;
Structure prediction by ZEFSAII (Michael W. Deem and Ramdas Pophale) SiO2 
 PCOD9149374
Probable space group: P 2/M
;
_chemical_formula_sum "Si O2"
_cell_formula_units_Z 28
_cell_length_a 23.617340
_cell_length_b 9.246707
_cell_length_c 20.375271
_cell_angle_alpha 90.000000
_cell_angle_beta 160.788674
_cell_angle_gamma 90.000000
_cell_volume 1464.157344
_symmetry_space_group_name_H-M "P 2/M"
_symmetry_group_IT_number 10
_symmetry_cell_setting 'monoclinic'
loop_
_space_group_symop_operation_xyz
x,y,z
-x,y,-z
-x,-y,-z
x,-y,z
loop_
_atom_site_type_symbol
_atom_site_label
_atom_site_fract_x
_atom_site_fract_y
_atom_site_fract_z
Si Si1 0.797022 0.668816 0.788316
Si Si2 0.147704 0.657498 0.718970
Si Si3 0.877484 0.826914 0.658848
Si Si4 0.767473 0.670951 0.911549
Si Si5 0.700307 0.155903 0.213446
Si Si6 0.864144 0.331052 0.508524
Si Si7 0.417178 0.827239 0.556031
O O1 0.770886 0.500000 0.740596
O O2 0.751812 0.682951 0.815346
O O3 0.679750 0.769335 0.614996
O O4 0.000000 0.701311 0.000000
O O5 0.233639 0.500000 0.811741
O O6 0.261665 0.786035 0.817560
O O7 0.000000 0.652841 0.500000
O O8 0.057080 0.678675 0.689361
O O9 0.839012 0.763742 0.545024
O O10 0.717805 0.795792 0.532871
O O11 0.902062 0.000000 0.684526
O O12 0.053558 0.748770 0.874180
O O13 0.775815 0.500000 0.937182
O O14 0.600505 0.746258 0.760759
O O15 0.754631 0.268266 0.328624
O O16 0.787553 0.000000 0.319742
O O17 0.500000 0.140962 0.000000
O O18 0.828491 0.500000 0.481317
O O19 0.443760 0.000000 0.582147
#
# Coordination Sequence:
#
# PCOD9149374 Si02
#       7
#     4   4   4   4   4   4   4
#     4  10  20  37  62  90 120 157 202 253 305 360
#     4   8  16  32  54  79 105 136 179 227 274 330
#     4  11  24  42  62  86 122 163 202 249 305 364
#     4  11  23  40  64  90 119 158 205 252 303 363
#     4  10  20  34  55  86 119 150 187 234 288 344
#     4  10  21  38  60  84 112 151 195 239 290 349
#     4  11  24  40  61  90 124 160 201 253 308 363
#
# _framework density 19.123629000000001
#
# number of rings (size 3 to 8) (size 9 to 14) (size 15 to 20)
#    0.000    1.857    1.429    3.429    0.000    9.143 
#    2.571    0.000    0.000    0.000    0.000    0.000 
#    0.000    0.000    0.000    0.000    0.000    0.000 
#
# Total GULP energy -156182.997281 kJ/mol
# GULP energy per Si atom -5577.964189 kJ/mol
# Density = 1.908010 g / cm^3
# Si number density = 19.123629 Si / 1000 Ang^3
#
#
#
# Elastic Constant Matrix: (Units=GPa)
#
#
# Indices 1 2 3 4 5 6 
#
# 1 95.6951 63.1058 42.5726 0.0000 13.4309 0.0000
# 2 63.1058 112.4877 51.4200 0.0000 24.8603 0.0000
# 3 42.5726 51.4200 62.9563 0.0000 26.7147 0.0000
# 4 0.0000 0.0000 0.0000 35.7501 0.0000 1.4064
# 5 13.4309 24.8603 26.7147 0.0000 25.9626 0.0000
# 6 0.0000 0.0000 0.0000 1.4064 0.0000 40.3140
#
#
#
# Elastic Compliance Matrix: (Units=1/GPa)
#
#
# Indices 1 2 3 4 5 6 
#
# 1 0.018814 -0.007891 -0.009504 0.000000 0.007602 0.000000
# 2 -0.007891 0.017624 -0.006443 0.000000 -0.006164 0.000000
# 3 -0.009504 -0.006443 0.040593 0.000000 -0.030683 0.000000
# 4 0.000000 0.000000 0.000000 0.028010 0.000000 -0.000977
# 5 0.007602 -0.006164 -0.030683 0.000000 0.072059 0.000000
# 6 0.000000 0.000000 0.000000 -0.000977 0.000000 0.024839
#
#
# Mechanical properties :
#
#
# Convention : Reuss Voigt Hill
#
# Bulk Modulus (GPa) = 34.06380 65.03734 49.55057
# Shear Modulus (GPa) = 19.27525 28.00806 23.64165
#
# Velocity S-wave (km/s) = 3.17823 3.83113 3.51985
# Velocity P-wave (km/s) = 5.59637 7.32481 6.51813
#
# Compressibility (1/GPa) = 0.02935668
#
# Stress axis : x y z
#
# Youngs Moduli (GPa) = 53.15085 56.74070 24.63484
#
# Poissons Ratio (x) = 0.44772 0.23412
# Poissons Ratio (y) = 0.41939 0.15872
# Poissons Ratio (z) = 0.50513 0.36558
#
# Static dielectric constant tensor:
#      x y z
#    x 1.676710 0.000000 0.021680 
#    y 0.000000 1.720070 0.000000 
#    z 0.021680 0.000000 1.668940 
# 
# From -- ./inp_files/86427.got.cif
#   From: 2010.05.17/outbox.cif.g08.bks.cpg/sg10_44_cif.got.tgz:86427.got - 2010.06.03 11:33:40.
