data_PCOD9149588
_publ_section_title
;
Structure prediction by ZEFSAII (Michael W. Deem and Ramdas Pophale) SiO2 
 PCOD9149588
Probable space group: P 2/M
;
_chemical_formula_sum "Si O2"
_cell_formula_units_Z 28
_cell_length_a 19.379670
_cell_length_b 9.088312
_cell_length_c 15.109880
_cell_angle_alpha 90.000000
_cell_angle_beta 37.227796
_cell_angle_gamma 90.000000
_cell_volume 1610.035907
_symmetry_space_group_name_H-M "P 2/M"
_symmetry_group_IT_number 10
_symmetry_cell_setting 'monoclinic'
loop_
_space_group_symop_operation_xyz
x,y,z
-x,y,-z
-x,-y,-z
x,-y,z
loop_
_atom_site_type_symbol
_atom_site_label
_atom_site_fract_x
_atom_site_fract_y
_atom_site_fract_z
Si Si1 0.273628 0.673688 0.011514
Si Si2 0.914280 0.171843 0.900108
Si Si3 0.844468 0.325580 0.317924
Si Si4 0.362515 0.826652 0.387371
Si Si5 0.429136 0.826549 0.708748
Si Si6 0.753509 0.170301 0.238593
Si Si7 0.477002 0.676320 0.921534
O O1 0.250688 0.500000 0.032317
O O2 0.160061 0.762685 0.104438
O O3 0.360774 0.720225 0.844474
O O4 0.347014 0.709652 0.023996
O O5 0.030891 0.258287 0.794880
O O6 0.937328 0.000000 0.862937
O O7 0.836721 0.184059 0.068217
O O8 0.847615 0.500000 0.320692
O O9 0.754580 0.258242 0.479014
O O10 0.798219 0.274465 0.269377
O O11 0.439827 0.808366 0.397704
O O12 0.437474 0.761810 0.230828
O O13 0.343914 0.000000 0.394175
O O14 0.373562 0.801078 0.669765
O O15 0.401757 0.000000 0.756574
O O16 0.758776 0.000000 0.264084
O O17 0.492687 0.500000 0.892673
O O18 0.500000 0.711427 0.000000
#
# Coordination Sequence:
#
# PCOD9149588 Si02
#       7
#     4   4   4   4   4   4   4
#     4   9  16  28  50  78 104 130 162 201 244 290
#     4  10  20  35  53  71  97 135 176 214 251 293
#     4  12  24  34  47  70 101 136 173 214 258 299
#     4  10  20  35  53  74 102 135 171 207 249 301
#     4   8  16  31  50  70  96 132 169 207 250 296
#     4   9  18  33  51  71  96 130 173 216 255 294
#     4   9  18  34  57  84 111 134 157 193 245 303
#
# _framework density 17.390917000000002
#
# number of rings (size 3 to 8) (size 9 to 14) (size 15 to 20)
#    0.000    2.429    0.000    3.857    0.000    6.571 
#    0.000    2.857    0.000    0.857    0.000    6.000 
#    0.000    0.000    0.000    0.000    0.000    0.000 
#
# Total GULP energy -156154.882124 kJ/mol
# GULP energy per Si atom -5576.960076 kJ/mol
# Density = 1.735133 g / cm^3
# Si number density = 17.390917 Si / 1000 Ang^3
#
#
#
# Elastic Constant Matrix: (Units=GPa)
#
#
# Indices 1 2 3 4 5 6 
#
# 1 116.0575 66.7174 47.5131 0.0000 -2.3891 0.0000
# 2 66.7174 102.3159 48.3211 0.0000 -9.8963 0.0000
# 3 47.5131 48.3211 68.0376 0.0000 -14.7859 0.0000
# 4 0.0000 0.0000 0.0000 12.1296 0.0000 -3.4866
# 5 -2.3891 -9.8963 -14.7859 0.0000 24.6068 0.0000
# 6 0.0000 0.0000 0.0000 -3.4866 0.0000 26.5111
#
#
#
# Elastic Compliance Matrix: (Units=1/GPa)
#
#
# Indices 1 2 3 4 5 6 
#
# 1 0.015587 -0.007509 -0.006762 0.000000 -0.005570 0.000000
# 2 -0.007509 0.018327 -0.007280 0.000000 0.002267 0.000000
# 3 -0.006762 -0.007280 0.027388 0.000000 0.012873 0.000000
# 4 0.000000 0.000000 0.000000 0.085682 0.000000 0.011268
# 5 -0.005570 0.002267 0.012873 0.000000 0.048745 0.000000
# 6 0.000000 0.000000 0.000000 0.011268 0.000000 0.039202
#
#
# Mechanical properties :
#
#
# Convention : Reuss Voigt Hill
#
# Bulk Modulus (GPa) = 54.94553 67.94602 61.44577
# Shear Modulus (GPa) = 17.59939 20.90677 19.25308
#
# Velocity S-wave (km/s) = 3.18463 3.47099 3.33089
# Velocity P-wave (km/s) = 6.72201 7.43090 7.08533
#
# Compressibility (1/GPa) = 0.01819984
#
# Stress axis : x y z
#
# Youngs Moduli (GPa) = 64.15703 54.56340 36.51235
#
# Poissons Ratio (x) = 0.40970 0.24691
# Poissons Ratio (y) = 0.48174 0.26581
# Poissons Ratio (z) = 0.43386 0.39722
#
# Static dielectric constant tensor:
#      x y z
#    x 1.609840 0.000000 -0.013340 
#    y 0.000000 1.573330 0.000000 
#    z -0.013340 0.000000 1.585330 
# 
# From -- ./inp_files/52435.got.cif
#   From: 2010.05.17/outbox.cif.g08.bks.cpg/sg10_27_cif.got.tgz:52435.got - 2010.06.03 11:33:40.
