data_PCOD9149413
_publ_section_title
;
Structure prediction by ZEFSAII (Michael W. Deem and Ramdas Pophale) SiO2 
 PCOD9149413
Probable space group: P 2/M
;
_chemical_formula_sum "Si O2"
_cell_formula_units_Z 28
_cell_length_a 9.472546
_cell_length_b 7.492637
_cell_length_c 27.697943
_cell_angle_alpha 90.000000
_cell_angle_beta 141.177920
_cell_angle_gamma 90.000000
_cell_volume 1232.395322
_symmetry_space_group_name_H-M "P 2/M"
_symmetry_group_IT_number 10
_symmetry_cell_setting 'monoclinic'
loop_
_space_group_symop_operation_xyz
x,y,z
-x,y,-z
-x,-y,-z
x,-y,z
loop_
_atom_site_type_symbol
_atom_site_label
_atom_site_fract_x
_atom_site_fract_y
_atom_site_fract_z
Si Si1 0.944852 0.707528 0.762584
Si Si2 0.290392 0.281986 0.477494
Si Si3 0.254388 0.706414 0.928418
Si Si4 0.208798 0.783827 0.023026
Si Si5 0.784224 0.285634 0.335426
Si Si6 0.656941 0.789643 0.197214
Si Si7 0.435852 0.281496 0.622550
O O1 0.906845 0.500000 0.764711
O O2 0.695327 0.780615 0.690100
O O3 0.090680 0.787891 0.845162
O O4 0.107152 0.714609 0.759619
O O5 0.500000 0.223125 0.500000
O O6 0.292870 0.500000 0.476314
O O7 0.323465 0.228557 0.542114
O O8 0.040989 0.222629 0.395598
O O9 0.290836 0.500000 0.922905
O O10 0.500000 0.791672 0.000000
O O11 0.161401 0.713092 0.957225
O O12 0.445345 0.721503 0.109390
O O13 0.216904 0.000000 0.022952
O O14 0.000000 0.731563 0.000000
O O15 0.792286 0.500000 0.340655
O O16 0.637888 0.241509 0.249248
O O17 0.683780 0.222521 0.359816
O O18 0.666742 0.000000 0.191694
O O19 0.429616 0.500000 0.620912
#
# Coordination Sequence:
#
# PCOD9149413 Si02
#       7
#     4   4   4   4   4   4   4
#     4  10  20  36  57  81 110 142 180 225 273 324
#     4   9  16  29  53  84 113 143 178 218 264 316
#     4  10  20  35  56  83 110 138 176 226 277 322
#     4  10  23  40  56  76 106 146 187 224 267 323
#     4  10  20  34  56  83 112 144 178 222 272 318
#     4  11  23  38  55  78 108 144 185 225 267 321
#     4   9  18  32  54  85 114 140 178 223 267 320
#
# _framework density 22.719984
#
# number of rings (size 3 to 8) (size 9 to 14) (size 15 to 20)
#    0.000    2.143    1.429    1.714    2.000    5.714 
#    0.000    0.714    0.000    5.571    0.000    0.000 
#    0.000    0.000    0.000    0.000    0.000    0.000 
#
# Total GULP energy -156417.129851 kJ/mol
# GULP energy per Si atom -5586.326066 kJ/mol
# Density = 2.266827 g / cm^3
# Si number density = 22.719984 Si / 1000 Ang^3
#
#
#
# Elastic Constant Matrix: (Units=GPa)
#
#
# Indices 1 2 3 4 5 6 
#
# 1 101.3700 -9.1104 14.8313 0.0000 -12.5173 0.0000
# 2 -9.1104 61.0179 2.1901 0.0000 5.5514 0.0000
# 3 14.8313 2.1901 93.9321 0.0000 -14.8648 0.0000
# 4 0.0000 0.0000 0.0000 5.9234 0.0000 -15.9418
# 5 -12.5173 5.5514 -14.8648 0.0000 44.5930 0.0000
# 6 0.0000 0.0000 0.0000 -15.9418 0.0000 34.3182
#
#
#
# Elastic Compliance Matrix: (Units=1/GPa)
#
#
# Indices 1 2 3 4 5 6 
#
# 1 0.010471 0.001399 -0.001318 0.000000 0.002326 0.000000
# 2 0.001399 0.016814 -0.000931 0.000000 -0.002011 0.000000
# 3 -0.001318 -0.000931 0.011439 0.000000 0.003559 0.000000
# 4 0.000000 0.000000 0.000000 -0.674738 0.000000 -0.313436
# 5 0.002326 -0.002011 0.003559 0.000000 0.024515 0.000000
# 6 0.000000 0.000000 0.000000 -0.313436 0.000000 -0.116461
#
#
# Mechanical properties :
#
#
# Convention : Reuss Voigt Hill
#
# Bulk Modulus (GPa) = 27.00981 30.23801 28.62391
# Shear Modulus (GPa) = -7.00359 33.52753 13.26197
#
# Velocity S-wave (km/s) = -1.75763 3.84563 2.41864
# Velocity P-wave (km/s) = 2.79194 5.74947 4.51948
#
# Compressibility (1/GPa) = 0.03702359
#
# Stress axis : x y z
#
# Youngs Moduli (GPa) = 95.50584 59.47464 87.42020
#
# Poissons Ratio (x) = -0.08321 0.11520
# Poissons Ratio (y) = -0.13362 0.08140
# Poissons Ratio (z) = 0.12586 0.05538
#
# Static dielectric constant tensor:
#      x y z
#    x 1.890790 0.000000 -0.022170 
#    y 0.000000 1.896970 0.000000 
#    z -0.022170 0.000000 1.852040 
# 
# From -- ./inp_files/36921.got.cif
#   From: 2010.05.17/outbox.cif.g08.bks.cpg/sg10_19_cif.got.tgz:36921.got - 2010.06.03 11:33:40.
