data_PCOD9149327
_publ_section_title
;
Structure prediction by ZEFSAII (Michael W. Deem and Ramdas Pophale) SiO2 
 PCOD9149327
Probable space group: P 2/M
;
_chemical_formula_sum "Si O2"
_cell_formula_units_Z 28
_cell_length_a 14.446069
_cell_length_b 7.545318
_cell_length_c 21.189694
_cell_angle_alpha 90.000000
_cell_angle_beta 146.391741
_cell_angle_gamma 90.000000
_cell_volume 1278.434994
_symmetry_space_group_name_H-M "P 2/M"
_symmetry_group_IT_number 10
_symmetry_cell_setting 'monoclinic'
loop_
_space_group_symop_operation_xyz
x,y,z
-x,y,-z
-x,-y,-z
x,-y,z
loop_
_atom_site_type_symbol
_atom_site_label
_atom_site_fract_x
_atom_site_fract_y
_atom_site_fract_z
Si Si1 0.184390 0.794320 0.108439
Si Si2 0.650423 0.714605 0.668608
Si Si3 0.535618 0.786409 0.828136
Si Si4 0.279536 0.284199 0.434102
Si Si5 0.842580 0.288118 0.369782
Si Si6 0.923080 0.713856 0.276132
Si Si7 0.625906 0.789771 0.018835
O O1 0.244324 0.785867 0.214141
O O2 0.331656 0.718707 0.147959
O O3 0.167045 0.000000 0.078804
O O4 0.000000 0.712420 0.000000
O O5 0.654499 0.500000 0.673121
O O6 0.716883 0.767901 0.637462
O O7 0.456631 0.771528 0.563523
O O8 0.341025 0.743873 0.706291
O O9 0.544090 0.000000 0.832908
O O10 0.589709 0.719872 0.928443
O O11 0.279369 0.500000 0.435120
O O12 0.112779 0.223846 0.373991
O O13 0.862742 0.500000 0.377819
O O14 0.850024 0.221142 0.301550
O O15 0.000000 0.220292 0.500000
O O16 0.924536 0.500000 0.278782
O O17 0.808898 0.764233 0.151909
O O18 0.595046 0.000000 0.997403
O O19 0.500000 0.714274 0.000000
#
# Coordination Sequence:
#
# PCOD9149327 Si02
#       7
#     4   4   4   4   4   4   4
#     4  10  23  40  56  78 112 148 183 228 282 326
#     4   9  18  36  60  81 106 141 184 225 269 326
#     4  10  22  40  58  78 109 150 186 225 276 328
#     4   8  17  34  56  83 111 140 173 223 279 321
#     4  10  22  37  56  85 116 146 182 224 271 325
#     4  10  20  34  55  82 112 141 175 221 273 322
#     4  10  20  36  56  77 104 138 181 223 262 315
#
# _framework density 21.901778
#
# number of rings (size 3 to 8) (size 9 to 14) (size 15 to 20)
#    0.000    2.429    1.429    0.857    4.000    2.000 
#    0.000    2.143    0.000    0.000    0.000    0.000 
#    0.000    0.000    0.000    0.000    0.000    0.000 
#
# Total GULP energy -156357.310507 kJ/mol
# GULP energy per Si atom -5584.189661 kJ/mol
# Density = 2.185193 g / cm^3
# Si number density = 21.901778 Si / 1000 Ang^3
#
#
#
# Elastic Constant Matrix: (Units=GPa)
#
#
# Indices 1 2 3 4 5 6 
#
# 1 90.4085 0.1663 66.7195 0.0000 29.3222 0.0000
# 2 0.1663 50.6092 -6.6514 0.0000 -0.4933 0.0000
# 3 66.7195 -6.6514 154.9817 0.0000 9.6172 0.0000
# 4 0.0000 0.0000 0.0000 -3.1383 0.0000 8.8389
# 5 29.3222 -0.4933 9.6172 0.0000 34.6575 0.0000
# 6 0.0000 0.0000 0.0000 8.8389 0.0000 6.2409
#
#
#
# Elastic Compliance Matrix: (Units=1/GPa)
#
#
# Indices 1 2 3 4 5 6 
#
# 1 0.023322 -0.001432 -0.009031 0.000000 -0.017246 0.000000
# 2 -0.001432 0.019959 0.001404 0.000000 0.001106 0.000000
# 3 -0.009031 0.001404 0.010099 0.000000 0.004859 0.000000
# 4 0.000000 0.000000 0.000000 -0.063871 0.000000 0.090459
# 5 -0.017246 0.001106 0.004859 0.000000 0.042112 0.000000
# 6 0.000000 0.000000 0.000000 0.090459 0.000000 0.032118
#
#
# Mechanical properties :
#
#
# Convention : Reuss Voigt Hill
#
# Bulk Modulus (GPa) = 28.35843 46.27423 37.31633
# Shear Modulus (GPa) = 53.41219 23.26968 38.34094
#
# Velocity S-wave (km/s) = 4.94369 3.26307 4.18854
# Velocity P-wave (km/s) = 6.75003 5.94733 6.36136
#
# Compressibility (1/GPa) = 0.03526288
#
# Stress axis : x y z
#
# Youngs Moduli (GPa) = 42.87847 50.10199 99.01859
#
# Poissons Ratio (x) = 0.07173 0.89426
# Poissons Ratio (y) = 0.06139 -0.13905
# Poissons Ratio (z) = 0.38725 -0.07036
#
# Static dielectric constant tensor:
#      x y z
#    x 1.792830 0.000000 0.014220 
#    y 0.000000 1.829850 0.000000 
#    z 0.014220 0.000000 1.771830 
# 
# From -- ./inp_files/49134.got.cif
#   From: 2010.05.17/outbox.cif.g08.bks.cpg/sg10_25_cif.got.tgz:49134.got - 2010.06.03 11:33:40.
