data_PCOD9149447
_publ_section_title
;
Structure prediction by ZEFSAII (Michael W. Deem and Ramdas Pophale) SiO2 
 PCOD9149447
Probable space group: P 2/M
;
_chemical_formula_sum "Si O2"
_cell_formula_units_Z 32
_cell_length_a 9.181279
_cell_length_b 13.518179
_cell_length_c 18.540059
_cell_angle_alpha 90.000000
_cell_angle_beta 37.863496
_cell_angle_gamma 90.000000
_cell_volume 1412.364773
_symmetry_space_group_name_H-M "P 2/M"
_symmetry_group_IT_number 10
_symmetry_cell_setting 'monoclinic'
loop_
_space_group_symop_operation_xyz
x,y,z
-x,y,-z
-x,-y,-z
x,-y,z
loop_
_atom_site_type_symbol
_atom_site_label
_atom_site_fract_x
_atom_site_fract_y
_atom_site_fract_z
Si Si1 0.018060 0.105971 0.178627
Si Si2 0.025658 0.315077 0.765776
Si Si3 0.515466 0.611325 0.582202
Si Si4 0.084512 0.733572 0.590461
Si Si5 0.235678 0.193062 0.951550
Si Si6 0.338394 0.391288 0.992421
Si Si7 0.310219 0.885847 0.308604
Si Si8 0.553303 0.890550 0.578305
O O1 0.731343 0.108605 0.297640
O O2 0.094210 0.207101 0.186082
O O3 0.099122 0.000000 0.175894
O O4 0.128128 0.122619 0.056331
O O5 0.298574 0.316338 0.683656
O O6 0.007307 0.335038 0.688274
O O7 0.912626 0.385483 0.868690
O O8 0.500000 0.607101 0.500000
O O9 0.476949 0.500000 0.622606
O O10 0.759413 0.656650 0.516581
O O11 0.297529 0.811804 0.527349
O O12 0.876694 0.802213 0.642689
O O13 0.347614 0.294716 0.939208
O O14 0.436410 0.137992 0.827169
O O15 0.000000 0.222091 0.000000
O O16 0.379021 0.500000 0.943685
O O17 0.500000 0.380116 0.000000
O O18 0.339810 0.879544 0.383100
O O19 0.239750 0.000000 0.319002
O O20 0.615813 0.000000 0.526514
#
# Coordination Sequence:
#
# PCOD9149447 Si02
#       8
#     4   4   4   4   4   4   4   4
#     4  10  20  34  56  86 116 151 194 242 292 346
#     4  10  20  36  57  86 118 154 192 245 299 358
#     4   9  18  33  54  79 106 143 189 235 284 344
#     4  11  21  35  56  84 119 152 199 244 298 353
#     4  11  22  39  64  91 120 154 206 257 297 350
#     4  10  22  41  64  91 123 159 199 248 309 369
#     4  11  23  38  58  84 118 162 202 241 296 359
#     4  10  20  35  55  80 113 154 197 237 282 343
#
# _framework density 22.657036000000002
#
# number of rings (size 3 to 8) (size 9 to 14) (size 15 to 20)
#    0.000    1.750    2.500    2.250    0.000    3.250 
#    0.000    1.875    0.000    6.375    0.000    0.000 
#    0.000    0.000    0.000    0.000    0.000    0.000 
#
# Total GULP energy -178298.109181 kJ/mol
# GULP energy per Si atom -5571.815912 kJ/mol
# Density = 2.260547 g / cm^3
# Si number density = 22.657036 Si / 1000 Ang^3
#
#
#
# Elastic Constant Matrix: (Units=GPa)
#
#
# Indices 1 2 3 4 5 6 
#
# 1 49.6005 2.6882 13.2328 0.0000 -7.3367 0.0000
# 2 2.6882 129.8930 -0.7581 0.0000 -0.2955 0.0000
# 3 13.2328 -0.7581 57.1464 0.0000 -6.4632 0.0000
# 4 0.0000 0.0000 0.0000 36.0831 0.0000 -9.4442
# 5 -7.3367 -0.2955 -6.4632 0.0000 23.3151 0.0000
# 6 0.0000 0.0000 0.0000 -9.4442 0.0000 27.3873
#
#
#
# Elastic Compliance Matrix: (Units=1/GPa)
#
#
# Indices 1 2 3 4 5 6 
#
# 1 0.022238 -0.000473 -0.004506 0.000000 0.005743 0.000000
# 2 -0.000473 0.007710 0.000213 0.000000 0.000008 0.000000
# 3 -0.004506 0.000213 0.018980 0.000000 0.003846 0.000000
# 4 0.000000 0.000000 0.000000 0.030463 0.000000 0.010505
# 5 0.005743 0.000008 0.003846 0.000000 0.045764 0.000000
# 6 0.000000 0.000000 0.000000 0.010505 0.000000 0.040136
#
#
# Mechanical properties :
#
#
# Convention : Reuss Voigt Hill
#
# Bulk Modulus (GPa) = 25.38437 29.66287 27.52362
# Shear Modulus (GPa) = 26.60184 32.12223 29.36203
#
# Velocity S-wave (km/s) = 3.43025 3.76940 3.60381
# Velocity P-wave (km/s) = 5.18814 5.66260 5.43056
#
# Compressibility (1/GPa) = 0.03939432
#
# Stress axis : x y z
#
# Youngs Moduli (GPa) = 44.96719 129.70674 52.68644
#
# Poissons Ratio (x) = 0.06141 0.23742
# Poissons Ratio (y) = 0.02129 -0.01121
# Poissons Ratio (z) = 0.20264 -0.02760
#
# Static dielectric constant tensor:
#      x y z
#    x 1.939160 0.000000 -0.171860 
#    y 0.000000 1.864640 0.000000 
#    z -0.171860 0.000000 2.329570 
# 
# From -- ./inp_files/88913.got.cif
#   From: 2010.05.17/outbox.cif.g08.bks.cpg/sg10_45_cif.got.tgz:88913.got - 2010.06.03 11:33:40.
