data_PCOD9149079
_publ_section_title
;
Structure prediction by ZEFSAII (Michael W. Deem and Ramdas Pophale) SiO2 
 PCOD9149079
Probable space group: P 2/M
;
_chemical_formula_sum "Si O2"
_cell_formula_units_Z 32
_cell_length_a 19.859226
_cell_length_b 9.247911
_cell_length_c 11.336115
_cell_angle_alpha 90.000000
_cell_angle_beta 120.196010
_cell_angle_gamma 90.000000
_cell_volume 1799.449466
_symmetry_space_group_name_H-M "P 2/M"
_symmetry_group_IT_number 10
_symmetry_cell_setting 'monoclinic'
loop_
_space_group_symop_operation_xyz
x,y,z
-x,y,-z
-x,-y,-z
x,-y,z
loop_
_atom_site_type_symbol
_atom_site_label
_atom_site_fract_x
_atom_site_fract_y
_atom_site_fract_z
Si Si1 0.084406 0.826509 0.431861
Si Si2 0.227824 0.667886 0.461865
Si Si3 0.468882 0.172348 0.759718
Si Si4 0.241894 0.328043 0.930010
Si Si5 0.619839 0.672364 0.531261
Si Si6 0.657908 0.669733 0.212249
Si Si7 0.613517 0.671485 0.798641
Si Si8 0.092089 0.174060 0.714026
O O1 0.150705 0.760820 0.408362
O O2 0.100372 0.784424 0.582757
O O3 0.995475 0.783066 0.325832
O O4 0.087650 0.000000 0.430379
O O5 0.205907 0.500000 0.434362
O O6 0.288603 0.701498 0.411230
O O7 0.280728 0.685864 0.626098
O O8 0.427734 0.234037 0.604386
O O9 0.416986 0.236291 0.820080
O O10 0.555037 0.237996 0.827678
O O11 0.469114 0.000000 0.761955
O O12 0.226895 0.500000 0.911285
O O13 0.296182 0.290626 0.865268
O O14 0.161220 0.244779 0.848161
O O15 0.297001 0.297554 0.089872
O O16 0.607209 0.500000 0.495083
O O17 0.598502 0.699586 0.647537
O O18 0.635969 0.500000 0.186573
O O19 0.600639 0.500000 0.808704
O O20 0.096997 0.000000 0.724012
#
# Coordination Sequence:
#
# PCOD9149079 Si02
#       8
#     4   4   4   4   4   4   4   4
#     4   9  17  29  47  73 103 134 164 193 240 300
#     4   9  16  28  49  75 100 125 159 206 250 288
#     4  11  22  34  52  77 101 126 165 213 251 292
#     4  10  20  34  53  75  99 131 172 207 240 294
#     4   9  19  36  55  74  99 130 165 207 256 297
#     4   9  18  33  50  72 103 133 162 201 251 299
#     4  10  21  37  55  72  96 134 170 204 251 301
#     4   9  18  31  47  71 105 137 161 194 245 298
#
# _framework density 17.783218000000002
#
# number of rings (size 3 to 8) (size 9 to 14) (size 15 to 20)
#    0.000    2.500    1.250    3.000    0.000    6.000 
#    0.000    3.750    0.000    0.750    0.000    5.250 
#    0.000    0.000    0.000    0.000    0.000    0.000 
#
# Total GULP energy -178502.520739 kJ/mol
# GULP energy per Si atom -5578.203773 kJ/mol
# Density = 1.774274 g / cm^3
# Si number density = 17.783218 Si / 1000 Ang^3
#
#
#
# Elastic Constant Matrix: (Units=GPa)
#
#
# Indices 1 2 3 4 5 6 
#
# 1 73.0099 31.6565 6.3053 0.0000 24.8352 0.0000
# 2 31.6565 37.6136 14.5855 0.0000 17.2831 0.0000
# 3 6.3053 14.5855 36.9369 0.0000 18.3074 0.0000
# 4 0.0000 0.0000 0.0000 20.5608 0.0000 12.8804
# 5 24.8352 17.2831 18.3074 0.0000 28.9671 0.0000
# 6 0.0000 0.0000 0.0000 12.8804 0.0000 30.4333
#
#
#
# Elastic Compliance Matrix: (Units=1/GPa)
#
#
# Indices 1 2 3 4 5 6 
#
# 1 0.027874 -0.018943 0.013054 0.000000 -0.020846 0.000000
# 2 -0.018943 0.050224 -0.014264 0.000000 -0.004711 0.000000
# 3 0.013054 -0.014264 0.046314 0.000000 -0.031952 0.000000
# 4 0.000000 0.000000 0.000000 0.066184 0.000000 -0.028011
# 5 -0.020846 -0.004711 -0.031952 0.000000 0.075399 0.000000
# 6 0.000000 0.000000 0.000000 -0.028011 0.000000 0.044714
#
#
# Mechanical properties :
#
#
# Convention : Reuss Voigt Hill
#
# Bulk Modulus (GPa) = 11.88967 28.07278 19.98122
# Shear Modulus (GPa) = 13.19087 22.32645 17.75866
#
# Velocity S-wave (km/s) = 2.72648 3.54712 3.16352
# Velocity P-wave (km/s) = 4.07578 5.70933 4.96026
#
# Compressibility (1/GPa) = 0.08410660
#
# Stress axis : x y z
#
# Youngs Moduli (GPa) = 35.87608 19.91065 21.59170
#
# Poissons Ratio (x) = 0.37716 -0.28185
# Poissons Ratio (y) = 0.67959 0.30798
# Poissons Ratio (z) = -0.46832 0.28401
#
# Static dielectric constant tensor:
#      x y z
#    x 1.611440 0.000000 0.002680 
#    y 0.000000 1.589570 0.000000 
#    z 0.002680 0.000000 1.614520 
# 
# From -- ./inp_files/55345.got.cif
#   From: 2010.05.17/outbox.cif.g08.bks.cpg/sg10_28_cif.got.tgz:55345.got - 2010.06.03 11:33:40.
