data_PCOD9149745
_publ_section_title
;
Structure prediction by ZEFSAII (Michael W. Deem and Ramdas Pophale) SiO2 
 PCOD9149745
Probable space group: P 2/M
;
_chemical_formula_sum "Si O2"
_cell_formula_units_Z 28
_cell_length_a 27.332983
_cell_length_b 7.848502
_cell_length_c 9.223180
_cell_angle_alpha 90.000000
_cell_angle_beta 132.495857
_cell_angle_gamma 90.000000
_cell_volume 1458.861782
_symmetry_space_group_name_H-M "P 2/M"
_symmetry_group_IT_number 10
_symmetry_cell_setting 'monoclinic'
loop_
_space_group_symop_operation_xyz
x,y,z
-x,y,-z
-x,-y,-z
x,-y,z
loop_
_atom_site_type_symbol
_atom_site_label
_atom_site_fract_x
_atom_site_fract_y
_atom_site_fract_z
Si Si1 0.201736 0.803721 0.332174
Si Si2 0.571305 0.000000 0.068270
Si Si3 0.329707 0.699136 0.083651
Si Si4 0.195553 0.705636 0.986662
Si Si5 0.332911 0.310370 0.745717
Si Si6 0.934616 0.294266 0.784563
Si Si7 0.570325 0.000000 0.717898
Si Si8 0.933428 0.291531 0.449610
O O1 0.196154 0.777462 0.149255
O O2 0.264395 0.703602 0.521551
O O3 0.132750 0.752208 0.268278
O O4 0.214829 0.000000 0.392003
O O5 0.615166 0.834453 0.194900
O O6 0.500000 0.000000 0.000000
O O7 0.562334 0.000000 0.876163
O O8 0.345878 0.500000 0.145862
O O9 0.263014 0.744898 0.036159
O O10 0.387350 0.831792 0.236750
O O11 0.317678 0.713657 0.886497
O O12 0.191516 0.500000 0.990482
O O13 0.131804 0.763916 0.767705
O O14 0.361048 0.500000 0.783420
O O15 0.938311 0.500000 0.788280
O O16 0.933316 0.234037 0.615838
O O17 0.000000 0.232197 0.000000
O O18 0.500000 0.000000 0.500000
O O19 0.932785 0.500000 0.449873
O O20 0.000000 0.238653 0.500000
#
# Coordination Sequence:
#
# PCOD9149745 Si02
#       8
#     4   2   4   4   4   4   2   4
#     4  12  24  36  54  84 118 153 196 246 296 351
#     4  10  22  40  60  92 127 154 197 238 284 352
#     4   9  20  38  62  87 115 153 198 242 287 346
#     4  10  20  35  55  83 113 148 194 242 293 349
#     4  10  20  40  64  87 118 158 200 243 294 347
#     4  10  20  36  59  83 110 150 196 244 300 357
#     4  10  22  38  60  88 121 158 189 234 288 344
#     4   9  17  32  56  83 110 143 190 245 295 349
#
# _framework density 19.193045000000001
#
# number of rings (size 3 to 8) (size 9 to 14) (size 15 to 20)
#    0.000    2.000    0.714    3.000    1.000    6.571 
#    0.000    0.714    0.000    1.714    0.000    0.000 
#    0.000    0.000    0.000    0.000    0.000    0.000 
#
# Total GULP energy -156435.332279 kJ/mol
# GULP energy per Si atom -5586.976153 kJ/mol
# Density = 1.914936 g / cm^3
# Si number density = 19.193045 Si / 1000 Ang^3
#
#
#
# Elastic Constant Matrix: (Units=GPa)
#
#
# Indices 1 2 3 4 5 6 
#
# 1 154.0184 56.7505 67.6111 0.0000 20.7197 0.0000
# 2 56.7505 73.5115 52.5115 0.0000 9.5611 0.0000
# 3 67.6111 52.5115 146.2293 0.0000 17.1292 0.0000
# 4 0.0000 0.0000 0.0000 -2.6878 0.0000 33.8405
# 5 20.7197 9.5611 17.1292 0.0000 28.6881 0.0000
# 6 0.0000 0.0000 0.0000 33.8405 0.0000 -18.0358
#
#
#
# Elastic Compliance Matrix: (Units=1/GPa)
#
#
# Indices 1 2 3 4 5 6 
#
# 1 0.010093 -0.005740 -0.002124 0.000000 -0.004108 0.000000
# 2 -0.005740 0.021708 -0.005139 0.000000 -0.000021 0.000000
# 3 -0.002124 -0.005139 0.009984 0.000000 -0.002715 0.000000
# 4 0.000000 0.000000 0.000000 0.016445 0.000000 0.030857
# 5 -0.004108 -0.000021 -0.002715 0.000000 0.039452 0.000000
# 6 0.000000 0.000000 0.000000 0.030857 0.000000 0.002451
#
#
# Mechanical properties :
#
#
# Convention : Reuss Voigt Hill
#
# Bulk Modulus (GPa) = 63.37607 80.83395 72.10501
# Shear Modulus (GPa) = 38.05179 14.71865 26.38522
#
# Velocity S-wave (km/s) = 4.45745 2.77225 3.71176
# Velocity P-wave (km/s) = 7.71906 7.24257 7.48461
#
# Compressibility (1/GPa) = 0.01577883
#
# Stress axis : x y z
#
# Youngs Moduli (GPa) = 99.08043 46.06535 100.15891
#
# Poissons Ratio (x) = 0.26441 0.21274
# Poissons Ratio (y) = 0.56872 0.51473
# Poissons Ratio (z) = 0.21045 0.23674
#
# Static dielectric constant tensor:
#      x y z
#    x 1.623930 0.000000 -0.011100 
#    y 0.000000 1.683570 0.000000 
#    z -0.011100 0.000000 1.635410 
# 
# From -- ./inp_files/37428.got.cif
#   From: 2010.05.17/outbox.cif.g08.bks.cpg/sg10_19_cif.got.tgz:37428.got - 2010.06.03 11:33:40.
