data_PCOD9149315
_publ_section_title
;
Structure prediction by ZEFSAII (Michael W. Deem and Ramdas Pophale) SiO2 
 PCOD9149315
Probable space group: P 2/M
;
_chemical_formula_sum "Si O2"
_cell_formula_units_Z 28
_cell_length_a 20.550784
_cell_length_b 11.451932
_cell_length_c 6.408742
_cell_angle_alpha 90.000000
_cell_angle_beta 61.462603
_cell_angle_gamma 90.000000
_cell_volume 1325.026061
_symmetry_space_group_name_H-M "P 2/M"
_symmetry_group_IT_number 10
_symmetry_cell_setting 'monoclinic'
loop_
_space_group_symop_operation_xyz
x,y,z
-x,y,-z
-x,-y,-z
x,-y,z
loop_
_atom_site_type_symbol
_atom_site_label
_atom_site_fract_x
_atom_site_fract_y
_atom_site_fract_z
Si Si1 0.236053 0.130574 0.535142
Si Si2 0.916171 0.627407 0.301061
Si Si3 0.124435 0.240447 0.029837
Si Si4 0.776116 0.324205 0.762035
Si Si5 0.500000 0.251066 0.500000
Si Si6 0.000000 0.209843 0.500000
Si Si7 0.594804 0.138165 0.713760
Si Si8 0.603971 0.365756 0.008730
O O1 0.232584 0.196192 0.321369
O O2 0.319710 0.142689 0.488543
O O3 0.218423 0.000000 0.513495
O O4 0.178591 0.171423 0.795563
O O5 0.948691 0.500000 0.274851
O O6 0.829602 0.620742 0.504655
O O7 0.953416 0.714062 0.407237
O O8 0.918830 0.675166 0.063151
O O9 0.176287 0.317383 0.101564
O O10 0.066412 0.162052 0.251927
O O11 0.692767 0.368886 0.910584
O O12 0.541455 0.169764 0.604842
O O13 0.558384 0.331965 0.285797
O O14 0.583437 0.000000 0.802749
O O15 0.588835 0.251674 0.880400
O O16 0.584220 0.500000 0.968678
#
# Coordination Sequence:
#
# PCOD9149315 Si02
#       8
#     4   4   4   4   2   2   4   4
#     4   9  19  38  62  85 109 143 191 243 292 344
#     4  10  20  34  55  81 109 146 190 234 281 337
#     4  10  20  35  55  82 114 148 187 234 285 345
#     4   9  20  38  58  82 113 150 191 240 292 346
#     4  12  24  38  62  92 124 162 202 248 304 368
#     4  10  21  34  51  78 118 152 181 224 283 346
#     4  10  23  43  66  91 119 157 207 258 305 357
#     4  11  24  41  61  89 126 164 202 248 305 368
#
# _framework density 21.13166
#
# number of rings (size 3 to 8) (size 9 to 14) (size 15 to 20)
#    0.000    2.000    0.000    2.786    0.000    8.000 
#    0.000    3.214    0.000   11.143    0.000    0.000 
#    0.000    0.000    0.000    0.000    0.000    0.000 
#
# Total GULP energy -155895.648098 kJ/mol
# GULP energy per Si atom -5567.701718 kJ/mol
# Density = 2.108356 g / cm^3
# Si number density = 21.131660 Si / 1000 Ang^3
#
#
#
# Elastic Constant Matrix: (Units=GPa)
#
#
# Indices 1 2 3 4 5 6 
#
# 1 101.2218 14.3093 41.1400 0.0000 3.3903 0.0000
# 2 14.3093 122.4117 41.0941 0.0000 -0.0752 0.0000
# 3 41.1400 41.0941 112.3276 0.0000 -18.3698 0.0000
# 4 0.0000 0.0000 0.0000 94.7386 0.0000 67.0528
# 5 3.3903 -0.0752 -18.3698 0.0000 49.2993 0.0000
# 6 0.0000 0.0000 0.0000 67.0528 0.0000 41.6240
#
#
#
# Elastic Compliance Matrix: (Units=1/GPa)
#
#
# Indices 1 2 3 4 5 6 
#
# 1 0.011919 0.000246 -0.004887 0.000000 -0.002640 0.000000
# 2 0.000246 0.009401 -0.003759 0.000000 -0.001403 0.000000
# 3 -0.004887 -0.003759 0.012908 0.000000 0.005140 0.000000
# 4 0.000000 0.000000 0.000000 -0.075312 0.000000 0.121321
# 5 -0.002640 -0.001403 0.005140 0.000000 0.022379 0.000000
# 6 0.000000 0.000000 0.000000 0.121321 0.000000 -0.171414
#
#
# Mechanical properties :
#
#
# Convention : Reuss Voigt Hill
#
# Bulk Modulus (GPa) = 57.37792 58.78310 58.08051
# Shear Modulus (GPa) = -29.84938 53.09355 11.62208
#
# Velocity S-wave (km/s) = -3.76246 5.01793 2.34772
# Velocity P-wave (km/s) = 2.88734 7.83906 5.90710
#
# Compressibility (1/GPa) = 0.01742831
#
# Stress axis : x y z
#
# Youngs Moduli (GPa) = 83.89757 106.36654 77.46993
#
# Poissons Ratio (x) = -0.02614 0.37861
# Poissons Ratio (y) = -0.02061 0.29120
# Poissons Ratio (z) = 0.41002 0.39982
#
# Static dielectric constant tensor:
#      x y z
#    x 1.811580 0.000000 -0.055940 
#    y 0.000000 1.800210 0.000000 
#    z -0.055940 0.000000 1.777120 
# 
# From -- ./inp_files/12419.got.cif
#   From: 2010.05.17/outbox.cif.g08.bks.cpg/sg10_7_cif.got.tgz:12419.got - 2010.06.03 11:33:40.
