data_PCOD9149373
_publ_section_title
;
Structure prediction by ZEFSAII (Michael W. Deem and Ramdas Pophale) SiO2 
 PCOD9149373
Probable space group: P 2/M
;
_chemical_formula_sum "Si O2"
_cell_formula_units_Z 32
_cell_length_a 12.514081
_cell_length_b 8.739483
_cell_length_c 22.521165
_cell_angle_alpha 90.000000
_cell_angle_beta 46.085992
_cell_angle_gamma 90.000000
_cell_volume 1774.345320
_symmetry_space_group_name_H-M "P 2/M"
_symmetry_group_IT_number 10
_symmetry_cell_setting 'monoclinic'
loop_
_space_group_symop_operation_xyz
x,y,z
-x,y,-z
-x,-y,-z
x,-y,z
loop_
_atom_site_type_symbol
_atom_site_label
_atom_site_fract_x
_atom_site_fract_y
_atom_site_fract_z
Si Si1 0.494502 0.184722 0.204161
Si Si2 0.385879 0.816733 0.595389
Si Si3 0.219911 0.180021 0.227909
Si Si4 0.603775 0.316981 0.279753
Si Si5 0.325160 0.328158 0.070114
Si Si6 0.052013 0.683275 0.860305
Si Si7 0.938638 0.317760 0.281913
Si Si8 0.773305 0.183308 0.015468
O O1 0.346069 0.233848 0.225767
O O2 0.502417 0.250568 0.266978
O O3 0.493053 0.000000 0.205916
O O4 0.648241 0.230934 0.111479
O O5 0.500000 0.770212 0.500000
O O6 0.429430 0.748501 0.642502
O O7 0.220060 0.758654 0.645792
O O8 0.384757 0.000000 0.599837
O O9 0.289290 0.213559 0.136800
O O10 0.062182 0.264035 0.281309
O O11 0.195550 0.000000 0.246439
O O12 0.595873 0.500000 0.284437
O O13 0.775427 0.274972 0.198910
O O14 0.262389 0.500000 0.105479
O O15 0.276711 0.262160 0.026249
O O16 0.500000 0.342787 0.000000
O O17 0.036785 0.500000 0.872077
O O18 0.017705 0.723241 0.803803
O O19 0.944558 0.762855 0.949370
O O20 0.921101 0.500000 0.289979
O O21 0.769161 0.000000 0.013484
#
# Coordination Sequence:
#
# PCOD9149373 Si02
#       8
#     4   4   4   4   4   4   4   4
#     4  10  23  38  51  74 109 150 195 236 277 329
#     4  10  21  39  66  95 118 142 172 212 268 330
#     4  11  21  34  53  76 108 149 190 234 280 327
#     4  10  22  39  59  81 109 146 184 226 277 332
#     4  11  21  31  46  70 102 142 189 244 289 323
#     4   9  19  34  50  74 106 141 184 234 284 327
#     4  10  20  34  55  86 118 145 179 226 278 327
#     4  11  21  32  49  73 102 144 194 240 284 326
#
# _framework density 18.034821000000001
#
# number of rings (size 3 to 8) (size 9 to 14) (size 15 to 20)
#    0.000    1.750    2.500    3.000    0.000    6.500 
#    0.000    2.500    0.000    0.750    0.000    5.250 
#    0.000    0.000    0.000    0.000    0.000    0.000 
#
# Total GULP energy -178518.694383 kJ/mol
# GULP energy per Si atom -5578.709199 kJ/mol
# Density = 1.799377 g / cm^3
# Si number density = 18.034821 Si / 1000 Ang^3
#
#
#
# Elastic Constant Matrix: (Units=GPa)
#
#
# Indices 1 2 3 4 5 6 
#
# 1 108.7427 26.6059 57.1516 0.0000 15.7038 0.0000
# 2 26.6059 30.2505 24.2180 0.0000 1.9891 0.0000
# 3 57.1516 24.2180 95.3245 0.0000 -0.8755 0.0000
# 4 0.0000 0.0000 0.0000 31.0100 0.0000 -1.6025
# 5 15.7038 1.9891 -0.8755 0.0000 18.0377 0.0000
# 6 0.0000 0.0000 0.0000 -1.6025 0.0000 27.3873
#
#
#
# Elastic Compliance Matrix: (Units=1/GPa)
#
#
# Indices 1 2 3 4 5 6 
#
# 1 0.017988 -0.007622 -0.008988 0.000000 -0.015256 0.000000
# 2 -0.007622 0.045200 -0.006902 0.000000 0.001316 0.000000
# 3 -0.008988 -0.006902 0.017720 0.000000 0.009447 0.000000
# 4 0.000000 0.000000 0.000000 0.032345 0.000000 0.001893
# 5 -0.015256 0.001316 0.009447 0.000000 0.069035 0.000000
# 6 0.000000 0.000000 0.000000 0.001893 0.000000 0.036624
#
#
# Mechanical properties :
#
#
# Convention : Reuss Voigt Hill
#
# Bulk Modulus (GPa) = 29.51281 50.02986 39.77134
# Shear Modulus (GPa) = 18.03556 23.70981 20.87268
#
# Velocity S-wave (km/s) = 3.16577 3.62977 3.40568
# Velocity P-wave (km/s) = 5.45552 6.73557 6.12905
#
# Compressibility (1/GPa) = 0.03388359
#
# Stress axis : x y z
#
# Youngs Moduli (GPa) = 55.59237 22.12413 56.43448
#
# Poissons Ratio (x) = 0.16862 0.50726
# Poissons Ratio (y) = 0.42371 0.38949
# Poissons Ratio (z) = 0.49969 0.15269
#
# Static dielectric constant tensor:
#      x y z
#    x 1.665390 0.000000 -0.042080 
#    y 0.000000 1.608320 0.000000 
#    z -0.042080 0.000000 1.615470 
# 
# From -- ./inp_files/83557.got.cif
#   From: 2010.05.17/outbox.cif.g08.bks.cpg/sg10_42_cif.got.tgz:83557.got - 2010.06.03 11:33:40.
