data_PCOD9149229
_publ_section_title
;
Structure prediction by ZEFSAII (Michael W. Deem and Ramdas Pophale) SiO2 
 PCOD9149229
Probable space group: P 2/M
;
_chemical_formula_sum "Si O2"
_cell_formula_units_Z 32
_cell_length_a 17.235914
_cell_length_b 8.882289
_cell_length_c 23.664236
_cell_angle_alpha 90.000000
_cell_angle_beta 150.407377
_cell_angle_gamma 90.000000
_cell_volume 1789.077272
_symmetry_space_group_name_H-M "P 2/M"
_symmetry_group_IT_number 10
_symmetry_cell_setting 'monoclinic'
loop_
_space_group_symop_operation_xyz
x,y,z
-x,y,-z
-x,-y,-z
x,-y,z
loop_
_atom_site_type_symbol
_atom_site_label
_atom_site_fract_x
_atom_site_fract_y
_atom_site_fract_z
Si Si1 0.628133 0.671201 0.630740
Si Si2 0.056700 0.680048 0.320941
Si Si3 0.046380 0.179878 0.197528
Si Si4 0.254948 0.318788 0.655363
Si Si5 0.386969 0.826439 0.554621
Si Si6 0.972951 0.317058 0.392442
Si Si7 0.118517 0.817337 0.025286
Si Si8 0.472993 0.824339 0.234576
O O1 0.500000 0.665666 0.500000
O O2 0.659457 0.500000 0.669291
O O3 0.783838 0.748538 0.706711
O O4 0.546273 0.770272 0.626596
O O5 0.045285 0.500000 0.309153
O O6 0.990475 0.754575 0.222119
O O7 0.239991 0.726306 0.442844
O O8 0.981021 0.731937 0.332529
O O9 0.057731 0.000000 0.208712
O O10 0.946533 0.217170 0.078381
O O11 0.260084 0.500000 0.657702
O O12 0.177375 0.270535 0.665664
O O13 0.426261 0.257049 0.749614
O O14 0.127432 0.272478 0.526400
O O15 0.420001 0.815351 0.641786
O O16 0.355425 0.000000 0.519265
O O17 0.974509 0.500000 0.392584
O O18 0.299605 0.764756 0.140686
O O19 0.122280 0.000000 0.033714
O O20 0.000000 0.763104 0.000000
O O21 0.454692 0.000000 0.207834
#
# Coordination Sequence:
#
# PCOD9149229 Si02
#       8
#     4   4   4   4   4   4   4   4
#     4  11  22  34  49  71 102 138 170 210 261 311
#     4  11  20  33  52  76 109 142 170 210 265 316
#     4  11  22  36  56  78 101 136 180 221 263 318
#     4   9  16  31  53  78 106 142 183 214 257 318
#     4  11  21  32  50  77 106 137 174 213 258 316
#     4   8  16  30  51  76 108 146 177 209 258 323
#     4   9  19  38  59  76 101 141 182 220 265 313
#     4  10  20  34  54  81 108 136 176 224 270 313
#
# _framework density 17.886316000000001
#
# number of rings (size 3 to 8) (size 9 to 14) (size 15 to 20)
#    0.000    2.000    2.500    3.000    0.000    3.000 
#    0.000    3.750    0.000    3.375    0.000    5.250 
#    0.000    0.000    0.000    0.000    0.000    0.000 
#
# Total GULP energy -178424.016367 kJ/mol
# GULP energy per Si atom -5575.750511 kJ/mol
# Density = 1.784561 g / cm^3
# Si number density = 17.886316 Si / 1000 Ang^3
#
#
#
# Elastic Constant Matrix: (Units=GPa)
#
#
# Indices 1 2 3 4 5 6 
#
# 1 143.0493 14.2211 32.5350 0.0000 8.2281 0.0000
# 2 14.2211 24.4207 12.5739 0.0000 -1.5883 0.0000
# 3 32.5350 12.5739 57.4223 0.0000 4.1202 0.0000
# 4 0.0000 0.0000 0.0000 16.8063 0.0000 -2.3357
# 5 8.2281 -1.5883 4.1202 0.0000 25.4123 0.0000
# 6 0.0000 0.0000 0.0000 -2.3357 0.0000 30.1932
#
#
#
# Elastic Compliance Matrix: (Units=1/GPa)
#
#
# Indices 1 2 3 4 5 6 
#
# 1 0.008300 -0.002976 -0.003890 0.000000 -0.002243 0.000000
# 2 -0.002976 0.047752 -0.009160 0.000000 0.005433 0.000000
# 3 -0.003890 -0.009160 0.021829 0.000000 -0.002852 0.000000
# 4 0.000000 0.000000 0.000000 0.060148 0.000000 0.004653
# 5 -0.002243 0.005433 -0.002852 0.000000 0.040879 0.000000
# 6 0.000000 0.000000 0.000000 0.004653 0.000000 0.033480
#
#
# Mechanical properties :
#
#
# Convention : Reuss Voigt Hill
#
# Bulk Modulus (GPa) = 21.82036 38.17245 29.99641
# Shear Modulus (GPa) = 19.25167 25.51985 22.38576
#
# Velocity S-wave (km/s) = 3.28431 3.78137 3.54157
# Velocity P-wave (km/s) = 5.15832 6.36027 5.79057
#
# Compressibility (1/GPa) = 0.04582875
#
# Stress axis : x y z
#
# Youngs Moduli (GPa) = 120.47786 20.94161 45.80985
#
# Poissons Ratio (x) = 0.06233 0.17821
# Poissons Ratio (y) = 0.35859 0.41961
# Poissons Ratio (z) = 0.46868 0.19182
#
# Static dielectric constant tensor:
#      x y z
#    x 1.654690 0.000000 -0.015440 
#    y 0.000000 1.613470 0.000000 
#    z -0.015440 0.000000 1.604210 
# 
# From -- ./inp_files/89975.got.cif
#   From: 2010.05.17/outbox.cif.g08.bks.cpg/sg10_45_cif.got.tgz:89975.got - 2010.06.03 11:33:40.
