data_PCOD9149810
_publ_section_title
;
Structure prediction by ZEFSAII (Michael W. Deem and Ramdas Pophale) SiO2 
 PCOD9149810
Probable space group: P 2/M
;
_chemical_formula_sum "Si O2"
_cell_formula_units_Z 32
_cell_length_a 26.969365
_cell_length_b 7.838780
_cell_length_c 20.824295
_cell_angle_alpha 90.000000
_cell_angle_beta 20.500242
_cell_angle_gamma 90.000000
_cell_volume 1541.770408
_symmetry_space_group_name_H-M "P 2/M"
_symmetry_group_IT_number 10
_symmetry_cell_setting 'monoclinic'
loop_
_space_group_symop_operation_xyz
x,y,z
-x,y,-z
-x,-y,-z
x,-y,z
loop_
_atom_site_type_symbol
_atom_site_label
_atom_site_fract_x
_atom_site_fract_y
_atom_site_fract_z
Si Si1 0.842174 0.205454 0.181110
Si Si2 0.351417 0.197576 0.067790
Si Si3 0.674795 0.294920 0.119622
Si Si4 0.199996 0.707527 0.380700
Si Si5 0.876728 0.293566 0.762000
Si Si6 0.635055 0.706422 0.548402
Si Si7 0.660402 0.697253 0.658854
Si Si8 0.344087 0.794508 0.710088
O O1 0.742736 0.246523 0.361868
O O2 0.768586 0.269473 0.205268
O O3 0.850119 0.000000 0.166433
O O4 0.000000 0.272336 0.000000
O O5 0.302137 0.235447 0.199656
O O6 0.221129 0.240222 0.178754
O O7 0.387262 0.000000 0.017457
O O8 0.492814 0.297626 0.877073
O O9 0.672770 0.500000 0.117539
O O10 0.522278 0.231649 0.279388
O O11 0.690571 0.250284 0.174866
O O12 0.798132 0.234653 0.922368
O O13 0.201947 0.500000 0.378534
O O14 0.256405 0.770831 0.381151
O O15 0.039093 0.764363 0.562371
O O16 0.879719 0.500000 0.758374
O O17 0.627611 0.500000 0.561140
O O18 0.679609 0.772571 0.564544
O O19 0.706253 0.500000 0.599251
O O20 0.500000 0.731616 0.500000
O O21 0.347772 0.000000 0.701566
#
# Coordination Sequence:
#
# PCOD9149810 Si02
#       8
#     4   4   4   4   4   4   4   4
#     4  10  22  39  57  81 116 154 188 225 277 339
#     4  12  24  37  58  87 118 154 194 238 286 338
#     4  10  20  35  59  88 114 142 184 238 284 328
#     4  10  22  39  62  85 113 154 192 235 292 347
#     4  10  21  40  61  85 115 150 193 238 289 348
#     4  10  20  36  60  87 114 144 185 238 283 329
#     4  10  21  40  62  86 115 151 196 238 286 348
#     4  10  20  35  56  81 109 146 188 226 267 329
#
# _framework density 20.755358999999999
#
# number of rings (size 3 to 8) (size 9 to 14) (size 15 to 20)
#    0.000    1.750    2.500    1.875    0.000    7.000 
#    0.000    1.250    0.000    0.000    0.000    0.000 
#    0.000    0.000    0.000    0.000    0.000    0.000 
#
# Total GULP energy -178813.826226 kJ/mol
# GULP energy per Si atom -5587.932070 kJ/mol
# Density = 2.070812 g / cm^3
# Si number density = 20.755359 Si / 1000 Ang^3
#
#
#
# Elastic Constant Matrix: (Units=GPa)
#
#
# Indices 1 2 3 4 5 6 
#
# 1 137.4148 -1.3518 -1.2683 0.0000 5.4220 0.0000
# 2 -1.3518 25.9037 -6.8642 0.0000 -2.9782 0.0000
# 3 -1.2683 -6.8642 21.1432 0.0000 0.8648 0.0000
# 4 0.0000 0.0000 0.0000 13.4807 0.0000 23.7758
# 5 5.4220 -2.9782 0.8648 0.0000 37.5617 0.0000
# 6 0.0000 0.0000 0.0000 23.7758 0.0000 37.3651
#
#
#
# Elastic Compliance Matrix: (Units=1/GPa)
#
#
# Indices 1 2 3 4 5 6 
#
# 1 0.007328 0.000428 0.000621 0.000000 -0.001038 0.000000
# 2 0.000428 0.042612 0.013737 0.000000 0.003001 0.000000
# 3 0.000621 0.013737 0.051802 0.000000 -0.000193 0.000000
# 4 0.000000 0.000000 0.000000 -0.606759 0.000000 0.386088
# 5 -0.001038 0.003001 -0.000193 0.000000 0.027015 0.000000
# 6 0.000000 0.000000 0.000000 0.386088 0.000000 -0.218909
#
#
# Mechanical properties :
#
#
# Convention : Reuss Voigt Hill
#
# Bulk Modulus (GPa) = 7.61541 18.38812 13.00177
# Shear Modulus (GPa) = -7.32374 30.61124 11.64375
#
# Velocity S-wave (km/s) = -1.88050 3.84456 2.37111
# Velocity P-wave (km/s) = 1.01878 5.34660 3.71135
#
# Compressibility (1/GPa) = 0.13131263
#
# Stress axis : x y z
#
# Youngs Moduli (GPa) = 136.46035 23.46757 19.30445
#
# Poissons Ratio (x) = -0.01003 -0.01199
# Poissons Ratio (y) = -0.05835 -0.26519
# Poissons Ratio (z) = -0.08472 -0.32237
#
# Static dielectric constant tensor:
#      x y z
#    x 1.732690 0.000000 -0.015530 
#    y 0.000000 1.762990 0.000000 
#    z -0.015530 0.000000 1.703190 
# 
# From -- ./inp_files/86752.got.cif
#   From: 2010.05.17/outbox.cif.g08.bks.cpg/sg10_44_cif.got.tgz:86752.got - 2010.06.03 11:33:40.
