data_PCOD9149941
_publ_section_title
;
Structure prediction by ZEFSAII (Michael W. Deem and Ramdas Pophale) SiO2 
 PCOD9149941
Probable space group: P 2/M
;
_chemical_formula_sum "Si O2"
_cell_formula_units_Z 28
_cell_length_a 9.940358
_cell_length_b 16.222331
_cell_length_c 12.513033
_cell_angle_alpha 90.000000
_cell_angle_beta 135.704187
_cell_angle_gamma 90.000000
_cell_volume 1409.156037
_symmetry_space_group_name_H-M "P 2/M"
_symmetry_group_IT_number 10
_symmetry_cell_setting 'monoclinic'
loop_
_space_group_symop_operation_xyz
x,y,z
-x,y,-z
-x,-y,-z
x,-y,z
loop_
_atom_site_type_symbol
_atom_site_label
_atom_site_fract_x
_atom_site_fract_y
_atom_site_fract_z
Si Si1 0.418694 0.092753 0.220321
Si Si2 0.467690 0.253087 0.605828
Si Si3 0.981905 0.591693 0.169299
Si Si4 0.084850 0.911081 0.855222
Si Si5 0.183641 0.122403 0.676522
Si Si6 0.324634 0.592305 0.190034
Si Si7 0.030602 0.755722 0.324423
O O1 0.419886 0.169374 0.301189
O O2 0.617311 0.104630 0.267373
O O3 0.420476 0.000000 0.267411
O O4 0.239474 0.098466 0.037064
O O5 0.500000 0.273250 0.500000
O O6 0.537288 0.330778 0.713909
O O7 0.241630 0.238201 0.494051
O O8 0.982345 0.500000 0.217811
O O9 0.164685 0.596634 0.193318
O O10 0.994023 0.666349 0.257310
O O11 0.794853 0.599535 0.987508
O O12 0.183965 0.916873 0.794776
O O13 0.972159 0.825586 0.771774
O O14 0.982775 0.000000 0.814391
O O15 0.000000 0.095356 0.500000
O O16 0.130196 0.215700 0.682182
O O17 0.411844 0.500000 0.244655
#
# Coordination Sequence:
#
# PCOD9149941 Si02
#       7
#     4   4   4   4   4   4   4
#     4  11  22  39  59  82 110 150 196 239 279 332
#     4  12  23  36  55  82 122 151 186 231 287 338
#     4   9  17  35  58  84 111 146 189 234 278 333
#     4   9  20  36  58  84 107 140 191 239 283 325
#     4  10  20  35  57  84 114 138 186 233 286 327
#     4   9  19  34  59  84 110 147 192 233 277 330
#     4  10  21  34  53  85 112 148 179 230 288 333
#
# _framework density 19.870049000000002
#
# number of rings (size 3 to 8) (size 9 to 14) (size 15 to 20)
#    0.857    1.143    2.857    2.571    0.000    5.143 
#    0.000    0.000    0.000    3.000    0.000    3.000 
#    0.000    0.000    0.000    0.000    0.000    0.000 
#
# Total GULP energy -156008.592060 kJ/mol
# GULP energy per Si atom -5571.735431 kJ/mol
# Density = 1.982482 g / cm^3
# Si number density = 19.870049 Si / 1000 Ang^3
#
#
#
# Elastic Constant Matrix: (Units=GPa)
#
#
# Indices 1 2 3 4 5 6 
#
# 1 27.8116 7.0190 -1.5362 0.0000 5.7533 0.0000
# 2 7.0190 185.9735 72.7365 0.0000 2.7475 0.0000
# 3 -1.5362 72.7365 78.5637 0.0000 3.3980 0.0000
# 4 0.0000 0.0000 0.0000 51.0883 0.0000 -36.9450
# 5 5.7533 2.7475 3.3980 0.0000 20.7647 0.0000
# 6 0.0000 0.0000 0.0000 -36.9450 0.0000 34.5710
#
#
#
# Elastic Compliance Matrix: (Units=1/GPa)
#
#
# Indices 1 2 3 4 5 6 
#
# 1 0.039182 -0.002825 0.003863 0.000000 -0.011114 0.000000
# 2 -0.002825 0.008634 -0.008090 0.000000 0.000964 0.000000
# 3 0.003863 -0.008090 0.020439 0.000000 -0.003344 0.000000
# 4 0.000000 0.000000 0.000000 0.086159 0.000000 0.092076
# 5 -0.011114 0.000964 -0.003344 0.000000 0.051658 0.000000
# 6 0.000000 0.000000 0.000000 0.092076 0.000000 0.127324
#
#
# Mechanical properties :
#
#
# Convention : Reuss Voigt Hill
#
# Bulk Modulus (GPa) = 18.46772 49.86527 34.16649
# Shear Modulus (GPa) = 13.67796 35.56012 24.61904
#
# Velocity S-wave (km/s) = 2.62653 4.23500 3.52377
# Velocity P-wave (km/s) = 4.30263 7.00455 5.81276
#
# Compressibility (1/GPa) = 0.05414855
#
# Stress axis : x y z
#
# Youngs Moduli (GPa) = 25.52201 115.82510 48.92627
#
# Poissons Ratio (x) = 0.32724 -0.18899
# Poissons Ratio (y) = 0.07211 0.39583
# Poissons Ratio (z) = -0.09858 0.93706
#
# Static dielectric constant tensor:
#      x y z
#    x 1.720750 0.000000 0.002640 
#    y 0.000000 1.736540 0.000000 
#    z 0.002640 0.000000 1.678380 
# 
# From -- ./inp_files/64948.got.cif
#   From: 2010.05.17/outbox.cif.g08.bks.cpg/sg10_33_cif.got.tgz:64948.got - 2010.06.03 11:33:40.
