data_PCOD9149607
_publ_section_title
;
Structure prediction by ZEFSAII (Michael W. Deem and Ramdas Pophale) SiO2 
 PCOD9149607
Probable space group: P 2/M
;
_chemical_formula_sum "Si O2"
_cell_formula_units_Z 26
_cell_length_a 23.303002
_cell_length_b 8.160568
_cell_length_c 13.186602
_cell_angle_alpha 90.000000
_cell_angle_beta 37.103154
_cell_angle_gamma 90.000000
_cell_volume 1512.738470
_symmetry_space_group_name_H-M "P 2/M"
_symmetry_group_IT_number 10
_symmetry_cell_setting 'monoclinic'
loop_
_space_group_symop_operation_xyz
x,y,z
-x,y,-z
-x,-y,-z
x,-y,z
loop_
_atom_site_type_symbol
_atom_site_label
_atom_site_fract_x
_atom_site_fract_y
_atom_site_fract_z
Si Si1 0.249253 0.500000 0.027387
Si Si2 0.103511 0.500000 0.412938
Si Si3 0.153849 0.180682 0.069889
Si Si4 0.227781 0.694423 0.770176
Si Si5 0.090396 0.196823 0.805601
Si Si6 0.559564 0.820431 0.521481
Si Si7 0.932723 0.188615 0.400467
Si Si8 0.529204 0.500000 0.336566
O O1 0.195391 0.500000 0.210803
O O2 0.211702 0.332173 0.030959
O O3 0.360935 0.500000 0.846547
O O4 0.106962 0.334303 0.474898
O O5 0.000000 0.500000 0.500000
O O6 0.046255 0.187219 0.259296
O O7 0.193636 0.000000 0.035663
O O8 0.155736 0.212373 0.946940
O O9 0.231884 0.500000 0.784239
O O10 0.185621 0.726292 0.718776
O O11 0.330218 0.773689 0.648362
O O12 0.080576 0.229073 0.699910
O O13 0.095136 0.000000 0.810284
O O14 0.000000 0.256251 0.000000
O O15 0.500000 0.829237 0.500000
O O16 0.515790 0.666707 0.641541
O O17 0.552712 0.000000 0.578630
O O18 0.898969 0.000000 0.466410
O O19 0.500000 0.500000 0.500000
#
# Coordination Sequence:
#
# PCOD9149607 Si02
#       8
#     2   2   4   4   4   4   4   2
#     4  12  24  38  57  84 113 151 199 239 292 345
#     4  12  24  40  57  81 116 155 203 248 283 341
#     4  11  20  33  53  80 114 153 197 236 280 334
#     4  12  22  32  54  85 120 158 192 230 290 358
#     4  10  20  35  53  81 118 156 198 241 284 344
#     4  10  20  35  53  76 112 151 184 227 278 340
#     4  10  22  38  56  79 116 159 198 243 285 327
#     4  10  20  36  55  78 111 139 180 238 285 345
#
# _framework density 17.187373000000001
#
# number of rings (size 3 to 8) (size 9 to 14) (size 15 to 20)
#    0.000    1.231    4.615    3.231    1.077    3.077 
#    0.000    0.000    0.000    0.000    0.000    2.154 
#    0.000    3.692    0.000    0.000    0.000    0.000 
#
# Total GULP energy -144918.743979 kJ/mol
# GULP energy per Si atom -5573.797845 kJ/mol
# Density = 1.714825 g / cm^3
# Si number density = 17.187373 Si / 1000 Ang^3
#
#
#
# Elastic Constant Matrix: (Units=GPa)
#
#
# Indices 1 2 3 4 5 6 
#
# 1 52.8099 27.9938 29.1877 0.0000 -2.7247 0.0000
# 2 27.9938 148.2890 42.9686 0.0000 9.8492 0.0000
# 3 29.1877 42.9686 84.1777 0.0000 0.1344 0.0000
# 4 0.0000 0.0000 0.0000 21.2935 0.0000 -0.0497
# 5 -2.7247 9.8492 0.1344 0.0000 22.4141 0.0000
# 6 0.0000 0.0000 0.0000 -0.0497 0.0000 26.6505
#
#
#
# Elastic Compliance Matrix: (Units=1/GPa)
#
#
# Indices 1 2 3 4 5 6 
#
# 1 0.024588 -0.002881 -0.007062 0.000000 0.004297 0.000000
# 2 -0.002881 0.008528 -0.003348 0.000000 -0.004078 0.000000
# 3 -0.007062 -0.003348 0.016036 0.000000 0.000517 0.000000
# 4 0.000000 0.000000 0.000000 0.046963 0.000000 0.000088
# 5 0.004297 -0.004078 0.000517 0.000000 0.046926 0.000000
# 6 0.000000 0.000000 0.000000 0.000088 0.000000 0.037523
#
#
# Mechanical properties :
#
#
# Convention : Reuss Voigt Hill
#
# Bulk Modulus (GPa) = 44.30412 53.95298 49.12855
# Shear Modulus (GPa) = 23.29168 26.41339 24.85254
#
# Velocity S-wave (km/s) = 3.68525 3.92444 3.80672
# Velocity P-wave (km/s) = 6.62881 7.21070 6.92587
#
# Compressibility (1/GPa) = 0.02257127
#
# Stress axis : x y z
#
# Youngs Moduli (GPa) = 40.67075 117.25595 62.35818
#
# Poissons Ratio (x) = 0.33779 0.44037
# Poissons Ratio (y) = 0.11716 0.20877
# Poissons Ratio (z) = 0.28721 0.39256
#
# Static dielectric constant tensor:
#      x y z
#    x 1.607850 0.000000 0.012850 
#    y 0.000000 1.628490 0.000000 
#    z 0.012850 0.000000 1.608050 
# 
# From -- ./inp_files/55150.got.cif
#   From: 2010.05.17/outbox.cif.g08.bks.cpg/sg10_28_cif.got.tgz:55150.got - 2010.06.03 11:33:40.
