data_PCOD9149863
_publ_section_title
;
Structure prediction by ZEFSAII (Michael W. Deem and Ramdas Pophale) SiO2 
 PCOD9149863
Probable space group: P 2/M
;
_chemical_formula_sum "Si O2"
_cell_formula_units_Z 32
_cell_length_a 15.503808
_cell_length_b 12.020945
_cell_length_c 17.274091
_cell_angle_alpha 90.000000
_cell_angle_beta 26.283696
_cell_angle_gamma 90.000000
_cell_volume 1425.593045
_symmetry_space_group_name_H-M "P 2/M"
_symmetry_group_IT_number 10
_symmetry_cell_setting 'monoclinic'
loop_
_space_group_symop_operation_xyz
x,y,z
-x,y,-z
-x,-y,-z
x,-y,z
loop_
_atom_site_type_symbol
_atom_site_label
_atom_site_fract_x
_atom_site_fract_y
_atom_site_fract_z
Si Si1 0.005815 0.620213 0.250902
Si Si2 0.295934 0.875773 0.143234
Si Si3 0.433697 0.873778 0.374606
Si Si4 0.845487 0.625580 0.555006
Si Si5 0.850653 0.867295 0.525108
Si Si6 0.099756 0.881563 0.836134
Si Si7 0.232334 0.166940 0.017741
Si Si8 0.349135 0.693218 0.564920
O O1 0.095965 0.500000 0.167922
O O2 0.945236 0.631367 0.389607
O O3 0.807795 0.628326 0.359881
O O4 0.157277 0.710285 0.098792
O O5 0.081497 0.843652 0.346203
O O6 0.315204 0.000000 0.159687
O O7 0.500000 0.816050 0.000000
O O8 0.275500 0.881209 0.067268
O O9 0.219302 0.867716 0.508360
O O10 0.580528 0.849345 0.186481
O O11 0.452466 0.778670 0.422490
O O12 0.466649 0.000000 0.375250
O O13 0.745920 0.500000 0.636444
O O14 0.752875 0.751818 0.636656
O O15 0.000000 0.620031 0.500000
O O16 0.815938 0.000000 0.575333
O O17 0.228746 0.775407 0.717110
O O18 0.206699 0.000000 0.746223
O O19 0.000000 0.874562 0.000000
O O20 0.940570 0.881569 0.895798
O O21 0.500000 0.632643 0.500000
#
# Coordination Sequence:
#
# PCOD9149863 Si02
#       8
#     4   4   4   4   4   4   4   4
#     4  10  22  44  67  88 119 163 214 269 320 375
#     4  10  20  35  56  84 121 167 207 249 308 372
#     4  11  22  36  59  94 131 169 209 258 318 382
#     4  10  20  38  66  93 120 160 209 263 326 389
#     4  10  20  38  61  90 128 166 212 262 319 378
#     4  10  20  35  59  87 119 164 208 250 309 377
#     4  11  21  38  59  83 118 161 210 258 307 372
#     4  11  22  37  60  92 129 162 202 258 321 386
#
# _framework density 22.446798000000001
#
# number of rings (size 3 to 8) (size 9 to 14) (size 15 to 20)
#    0.000    1.625    2.500    3.000    0.000    4.500 
#    0.000    3.750    0.000   14.250    0.000    0.000 
#    0.000    0.000    0.000    0.000    0.000    0.000 
#
# Total GULP energy -178345.931776 kJ/mol
# GULP energy per Si atom -5573.310368 kJ/mol
# Density = 2.239571 g / cm^3
# Si number density = 22.446798 Si / 1000 Ang^3
#
#
#
# Elastic Constant Matrix: (Units=GPa)
#
#
# Indices 1 2 3 4 5 6 
#
# 1 116.0624 24.5439 15.0965 0.0000 0.9493 0.0000
# 2 24.5439 160.6929 14.0899 0.0000 5.1398 0.0000
# 3 15.0965 14.0899 57.2254 0.0000 9.4452 0.0000
# 4 0.0000 0.0000 0.0000 7.4170 0.0000 2.2542
# 5 0.9493 5.1398 9.4452 0.0000 41.3890 0.0000
# 6 0.0000 0.0000 0.0000 2.2542 0.0000 -39.0058
#
#
#
# Elastic Compliance Matrix: (Units=1/GPa)
#
#
# Indices 1 2 3 4 5 6 
#
# 1 0.009155 -0.001221 -0.002187 0.000000 0.000441 0.000000
# 2 -0.001221 0.006531 -0.001202 0.000000 -0.000509 0.000000
# 3 -0.002187 -0.001202 0.019032 0.000000 -0.004144 0.000000
# 4 0.000000 0.000000 0.000000 0.132498 0.000000 0.007657
# 5 0.000441 -0.000509 -0.004144 0.000000 0.025160 0.000000
# 6 0.000000 0.000000 0.000000 0.007657 0.000000 -0.025195
#
#
# Mechanical properties :
#
#
# Convention : Reuss Voigt Hill
#
# Bulk Modulus (GPa) = 39.21922 49.04902 44.13412
# Shear Modulus (GPa) = 27.04161 20.64340 23.84251
#
# Velocity S-wave (km/s) = 3.47464 3.03588 3.26264
# Velocity P-wave (km/s) = 5.79720 5.84700 5.82215
#
# Compressibility (1/GPa) = 0.02549770
#
# Stress axis : x y z
#
# Youngs Moduli (GPa) = 109.22875 153.11216 52.54391
#
# Poissons Ratio (x) = 0.18689 0.11493
# Poissons Ratio (y) = 0.13333 0.06316
# Poissons Ratio (z) = 0.23893 0.18406
#
# Static dielectric constant tensor:
#      x y z
#    x 1.880610 0.000000 -0.040240 
#    y 0.000000 1.867270 0.000000 
#    z -0.040240 0.000000 1.859240 
# 
# From -- ./inp_files/78193.got.cif
#   From: 2010.05.17/outbox.cif.g08.bks.cpg/sg10_40_cif.got.tgz:78193.got - 2010.06.03 11:33:40.
