data_PCOD9149753
_publ_section_title
;
Structure prediction by ZEFSAII (Michael W. Deem and Ramdas Pophale) SiO2 
 PCOD9149753
Probable space group: P 2/M
;
_chemical_formula_sum "Si O2"
_cell_formula_units_Z 28
_cell_length_a 9.869809
_cell_length_b 14.369291
_cell_length_c 22.358176
_cell_angle_alpha 90.000000
_cell_angle_beta 27.933198
_cell_angle_gamma 90.000000
_cell_volume 1485.374972
_symmetry_space_group_name_H-M "P 2/M"
_symmetry_group_IT_number 10
_symmetry_cell_setting 'monoclinic'
loop_
_space_group_symop_operation_xyz
x,y,z
-x,y,-z
-x,-y,-z
x,-y,z
loop_
_atom_site_type_symbol
_atom_site_label
_atom_site_fract_x
_atom_site_fract_y
_atom_site_fract_z
Si Si1 0.707154 0.611230 0.867908
Si Si2 0.324141 0.892584 0.377557
Si Si3 0.626367 0.609264 0.768415
Si Si4 0.194576 0.710679 0.739331
Si Si5 0.224224 0.246514 0.858779
Si Si6 0.636758 0.895315 0.381046
Si Si7 0.204236 0.391910 0.477718
O O1 0.685813 0.500000 0.873226
O O2 0.600607 0.645181 0.845615
O O3 0.025317 0.637733 0.765021
O O4 0.500000 0.648254 0.000000
O O5 0.558761 0.835700 0.247540
O O6 0.410449 0.893878 0.413968
O O7 0.000000 0.853602 0.500000
O O8 0.319799 0.000000 0.358536
O O9 0.548165 0.500000 0.793050
O O10 0.426791 0.669821 0.803355
O O11 0.968140 0.615740 0.621834
O O12 0.081757 0.721947 0.851365
O O13 0.169031 0.808288 0.714038
O O14 0.525994 0.675817 0.618445
O O15 0.000000 0.224170 0.000000
O O16 0.500000 0.880754 0.500000
O O17 0.766141 0.000000 0.330593
O O18 0.303950 0.500000 0.433753
O O19 0.000000 0.373443 0.500000
#
# Coordination Sequence:
#
# PCOD9149753 Si02
#       7
#     4   4   4   4   4   4   4
#     4  10  22  39  55  77 113 152 190 233 278 333
#     4   9  20  38  61  86 112 144 185 234 286 340
#     4  10  22  37  55  79 115 153 188 234 282 333
#     4  11  22  34  60  83 109 149 193 231 283 342
#     4  11  23  36  57  85 114 151 193 233 280 340
#     4   9  20  36  54  81 113 141 177 228 283 333
#     4  10  20  35  55  84 116 146 185 240 291 331
#
# _framework density 18.850458
#
# number of rings (size 3 to 8) (size 9 to 14) (size 15 to 20)
#    0.000    2.000    1.429    1.286    6.000    1.143 
#    0.000    2.143    0.000    0.429    0.000    0.000 
#    0.000    0.000    0.000    0.000    0.000    0.000 
#
# Total GULP energy -156043.603150 kJ/mol
# GULP energy per Si atom -5572.985827 kJ/mol
# Density = 1.880755 g / cm^3
# Si number density = 18.850458 Si / 1000 Ang^3
#
#
#
# Elastic Constant Matrix: (Units=GPa)
#
#
# Indices 1 2 3 4 5 6 
#
# 1 68.7223 35.0726 32.6106 0.0000 24.2629 0.0000
# 2 35.0726 63.8605 34.2077 0.0000 11.9279 0.0000
# 3 32.6106 34.2077 77.9652 0.0000 15.0625 0.0000
# 4 0.0000 0.0000 0.0000 16.7185 0.0000 4.8226
# 5 24.2629 11.9279 15.0625 0.0000 32.8949 0.0000
# 6 0.0000 0.0000 0.0000 4.8226 0.0000 21.7234
#
#
#
# Elastic Compliance Matrix: (Units=1/GPa)
#
#
# Indices 1 2 3 4 5 6 
#
# 1 0.026405 -0.009688 -0.004070 0.000000 -0.014099 0.000000
# 2 -0.009688 0.024428 -0.006950 0.000000 0.001470 0.000000
# 3 -0.004070 -0.006950 0.018113 0.000000 -0.002772 0.000000
# 4 0.000000 0.000000 0.000000 0.063907 0.000000 -0.014187
# 5 -0.014099 0.001470 -0.002772 0.000000 0.041536 0.000000
# 6 0.000000 0.000000 0.000000 -0.014187 0.000000 0.049183
#
#
# Mechanical properties :
#
#
# Convention : Reuss Voigt Hill
#
# Bulk Modulus (GPa) = 36.32289 46.03665 41.17977
# Shear Modulus (GPa) = 18.23730 21.51116 19.87423
#
# Velocity S-wave (km/s) = 3.11380 3.38175 3.25054
# Velocity P-wave (km/s) = 5.67789 6.30265 5.99841
#
# Compressibility (1/GPa) = 0.02753085
#
# Stress axis : x y z
#
# Youngs Moduli (GPa) = 37.87192 40.93652 55.20803
#
# Poissons Ratio (x) = 0.39660 0.22468
# Poissons Ratio (y) = 0.36691 0.38368
# Poissons Ratio (z) = 0.15413 0.28450
#
# Static dielectric constant tensor:
#      x y z
#    x 1.659080 0.000000 0.036530 
#    y 0.000000 1.683950 0.000000 
#    z 0.036530 0.000000 1.695550 
# 
# From -- ./inp_files/82884.got.cif
#   From: 2010.05.17/outbox.cif.g08.bks.cpg/sg10_42_cif.got.tgz:82884.got - 2010.06.03 11:33:40.
