data_PCOD9149767
_publ_section_title
;
Structure prediction by ZEFSAII (Michael W. Deem and Ramdas Pophale) SiO2 
 PCOD9149767
Probable space group: P 2/M
;
_chemical_formula_sum "Si O2"
_cell_formula_units_Z 28
_cell_length_a 18.391393
_cell_length_b 8.296726
_cell_length_c 20.296783
_cell_angle_alpha 90.000000
_cell_angle_beta 151.176004
_cell_angle_gamma 90.000000
_cell_volume 1493.152972
_symmetry_space_group_name_H-M "P 2/M"
_symmetry_group_IT_number 10
_symmetry_cell_setting 'monoclinic'
loop_
_space_group_symop_operation_xyz
x,y,z
-x,y,-z
-x,-y,-z
x,-y,z
loop_
_atom_site_type_symbol
_atom_site_label
_atom_site_fract_x
_atom_site_fract_y
_atom_site_fract_z
Si Si1 0.158073 0.193567 0.090657
Si Si2 0.236414 0.695555 0.004097
Si Si3 0.584016 0.305591 0.275684
Si Si4 0.716886 0.179206 0.515008
Si Si5 0.904186 0.303550 0.486217
Si Si6 0.986765 0.686184 0.283977
Si Si7 0.465058 0.679198 0.395693
O O1 0.181561 0.243752 0.032477
O O2 0.298826 0.265122 0.243249
O O3 0.164858 0.000000 0.098809
O O4 0.000000 0.244028 0.000000
O O5 0.225418 0.500000 0.998049
O O6 0.410466 0.736945 0.126061
O O7 0.135686 0.757050 0.863063
O O8 0.589428 0.500000 0.288442
O O9 0.630205 0.218875 0.379310
O O10 0.725608 0.263429 0.340881
O O11 0.854967 0.301347 0.628875
O O12 0.590614 0.200929 0.468744
O O13 0.780653 0.000000 0.565230
O O14 0.911333 0.500000 0.493064
O O15 0.974756 0.246900 0.612403
O O16 0.000000 0.246670 0.500000
O O17 0.944588 0.500000 0.261083
O O18 0.500000 0.668468 0.500000
O O19 0.488393 0.500000 0.384295
#
# Coordination Sequence:
#
# PCOD9149767 Si02
#       7
#     4   4   4   4   4   4   4
#     4  11  25  41  56  80 112 144 181 230 281 324
#     4  10  20  35  56  78 106 146 188 228 270 326
#     4   9  17  32  54  78 105 140 182 223 266 324
#     4  11  21  34  54  78 104 138 179 226 276 320
#     4   8  14  28  52  80 112 146 180 224 273 317
#     4   9  19  34  53  79 109 143 186 226 268 323
#     4  11  24  40  58  79 104 139 183 225 271 327
#
# _framework density 18.752264
#
# number of rings (size 3 to 8) (size 9 to 14) (size 15 to 20)
#    0.000    2.143    1.429    3.000    2.000    2.857 
#    0.000    0.714    0.000   11.143    0.000    0.000 
#    0.000   10.286    0.000    0.000    0.000    0.000 
#
# Total GULP energy -155951.974165 kJ/mol
# GULP energy per Si atom -5569.713363 kJ/mol
# Density = 1.870958 g / cm^3
# Si number density = 18.752264 Si / 1000 Ang^3
#
#
#
# Elastic Constant Matrix: (Units=GPa)
#
#
# Indices 1 2 3 4 5 6 
#
# 1 122.3387 8.8504 77.7110 0.0000 17.7317 0.0000
# 2 8.8504 22.5893 13.4561 0.0000 -0.4057 0.0000
# 3 77.7110 13.4561 136.5224 0.0000 -0.3662 0.0000
# 4 0.0000 0.0000 0.0000 49.1140 0.0000 -1.7605
# 5 17.7317 -0.4057 -0.3662 0.0000 18.1275 0.0000
# 6 0.0000 0.0000 0.0000 -1.7605 0.0000 -5.6707
#
#
#
# Elastic Compliance Matrix: (Units=1/GPa)
#
#
# Indices 1 2 3 4 5 6 
#
# 1 0.016602 -0.001216 -0.009374 0.000000 -0.016456 0.000000
# 2 -0.001216 0.047136 -0.003948 0.000000 0.002165 0.000000
# 3 -0.009374 -0.003948 0.013075 0.000000 0.009345 0.000000
# 4 0.000000 0.000000 0.000000 0.020137 0.000000 -0.006252
# 5 -0.016456 0.002165 0.009345 0.000000 0.071499 0.000000
# 6 0.000000 0.000000 0.000000 -0.006252 0.000000 -0.174405
#
#
# Mechanical properties :
#
#
# Convention : Reuss Voigt Hill
#
# Bulk Modulus (GPa) = 20.94847 53.49839 37.22343
# Shear Modulus (GPa) = 128.10182 24.40969 76.25575
#
# Velocity S-wave (km/s) = 8.27412 3.61181 6.38382
# Velocity P-wave (km/s) = 10.12308 6.78119 8.61572
#
# Compressibility (1/GPa) = 0.04773618
#
# Stress axis : x y z
#
# Youngs Moduli (GPa) = 60.23449 21.21532 76.48166
#
# Poissons Ratio (x) = 0.02580 0.71696
# Poissons Ratio (y) = 0.07324 0.30194
# Poissons Ratio (z) = 0.56466 0.08376
#
# Static dielectric constant tensor:
#      x y z
#    x 1.678620 0.000000 0.021400 
#    y 0.000000 1.673890 0.000000 
#    z 0.021400 0.000000 1.656800 
# 
# From -- ./inp_files/85596.got.cif
#   From: 2010.05.17/outbox.cif.g08.bks.cpg/sg10_43_cif.got.tgz:85596.got - 2010.06.03 11:33:40.
