data_PCOD9149314
_publ_section_title
;
Structure prediction by ZEFSAII (Michael W. Deem and Ramdas Pophale) SiO2 
 PCOD9149314
Probable space group: P 2/M
;
_chemical_formula_sum "Si O2"
_cell_formula_units_Z 28
_cell_length_a 10.513947
_cell_length_b 7.633592
_cell_length_c 28.160374
_cell_angle_alpha 90.000000
_cell_angle_beta 35.417503
_cell_angle_gamma 90.000000
_cell_volume 1309.812662
_symmetry_space_group_name_H-M "P 2/M"
_symmetry_group_IT_number 10
_symmetry_cell_setting 'monoclinic'
loop_
_space_group_symop_operation_xyz
x,y,z
-x,y,-z
-x,-y,-z
x,-y,z
loop_
_atom_site_type_symbol
_atom_site_label
_atom_site_fract_x
_atom_site_fract_y
_atom_site_fract_z
Si Si1 0.195956 0.794488 0.308405
Si Si2 0.128813 0.287249 0.508200
Si Si3 0.043511 0.712120 0.040389
Si Si4 0.073377 0.295737 0.240320
Si Si5 0.615818 0.296531 0.344078
Si Si6 0.496517 0.285535 0.055893
Si Si7 0.373068 0.793441 0.768469
O O1 0.130297 0.712718 0.278368
O O2 0.421234 0.724471 0.263258
O O3 0.005538 0.769713 0.404968
O O4 0.228759 0.000000 0.289214
O O5 0.130968 0.500000 0.506734
O O6 0.379045 0.221684 0.430387
O O7 0.000000 0.229571 0.500000
O O8 0.044172 0.500000 0.039880
O O9 0.850052 0.767245 0.134600
O O10 0.000000 0.772543 0.000000
O O11 0.280953 0.771926 0.986122
O O12 0.059907 0.500000 0.230047
O O13 0.277833 0.221456 0.148623
O O14 0.835863 0.217618 0.299921
O O15 0.607015 0.500000 0.361798
O O16 0.635244 0.289040 0.281139
O O17 0.496402 0.500000 0.057555
O O18 0.500000 0.233989 0.000000
O O19 0.409723 0.000000 0.749782
#
# Coordination Sequence:
#
# PCOD9149314 Si02
#       7
#     4   4   4   4   4   4   4
#     4  11  24  39  57  83 119 158 192 231 283 346
#     4  10  20  37  62  89 115 146 189 240 288 335
#     4  10  20  34  55  81 108 143 190 239 284 332
#     4  10  21  38  61  87 116 150 190 239 289 338
#     4  10  21  38  62  89 113 144 190 240 285 336
#     4   9  17  32  55  82 110 142 183 233 285 333
#     4  11  23  37  56  83 115 153 192 233 284 342
#
# _framework density 21.377103999999999
#
# number of rings (size 3 to 8) (size 9 to 14) (size 15 to 20)
#    0.000    1.857    1.429    2.571    0.000    7.429 
#    0.000    3.571    0.000    1.714    0.000    0.000 
#    0.000    0.000    0.000    0.000    0.000    0.000 
#
# Total GULP energy -156508.861696 kJ/mol
# GULP energy per Si atom -5589.602203 kJ/mol
# Density = 2.132845 g / cm^3
# Si number density = 21.377104 Si / 1000 Ang^3
#
#
#
# Elastic Constant Matrix: (Units=GPa)
#
#
# Indices 1 2 3 4 5 6 
#
# 1 149.9208 -2.4853 62.7413 0.0000 -28.7277 0.0000
# 2 -2.4853 41.3838 -5.1217 0.0000 -8.4650 0.0000
# 3 62.7413 -5.1217 146.6490 0.0000 -26.2152 0.0000
# 4 0.0000 0.0000 0.0000 -3.3422 0.0000 -22.5282
# 5 -28.7277 -8.4650 -26.2152 0.0000 40.3992 0.0000
# 6 0.0000 0.0000 0.0000 -22.5282 0.0000 -20.7901
#
#
#
# Elastic Compliance Matrix: (Units=1/GPa)
#
#
# Indices 1 2 3 4 5 6 
#
# 1 0.008782 0.001109 -0.002897 0.000000 0.004598 0.000000
# 2 0.001109 0.025953 0.001748 0.000000 0.007361 0.000000
# 3 -0.002897 0.001748 0.008842 0.000000 0.004044 0.000000
# 4 0.000000 0.000000 0.000000 0.047462 0.000000 -0.051430
# 5 0.004598 0.007361 0.004044 0.000000 0.032189 0.000000
# 6 0.000000 0.000000 0.000000 -0.051430 0.000000 0.007630
#
#
# Mechanical properties :
#
#
# Convention : Reuss Voigt Hill
#
# Bulk Modulus (GPa) = 22.98985 49.80244 36.39615
# Shear Modulus (GPa) = 34.37944 22.10799 28.24372
#
# Velocity S-wave (km/s) = 4.01463 3.21937 3.63879
# Velocity P-wave (km/s) = 5.68045 6.09646 5.89213
#
# Compressibility (1/GPa) = 0.04349746
#
# Stress axis : x y z
#
# Youngs Moduli (GPa) = 113.87263 38.53176 113.09384
#
# Poissons Ratio (x) = -0.04274 0.32758
# Poissons Ratio (y) = -0.12632 -0.19764
# Poissons Ratio (z) = 0.32983 -0.06734
#
# Static dielectric constant tensor:
#      x y z
#    x 1.724090 0.000000 -0.046260 
#    y 0.000000 1.779600 0.000000 
#    z -0.046260 0.000000 1.730800 
# 
# From -- ./inp_files/74346.got.cif
#   From: 2010.05.17/outbox.cif.g08.bks.cpg/sg10_38_cif.got.tgz:74346.got - 2010.06.03 11:33:40.
