data_PCOD9149026
_publ_section_title
;
Structure prediction by ZEFSAII (Michael W. Deem and Ramdas Pophale) SiO2 
 PCOD9149026
Probable space group: P 2/M
;
_chemical_formula_sum "Si O2"
_cell_formula_units_Z 32
_cell_length_a 30.475539
_cell_length_b 9.753007
_cell_length_c 5.472213
_cell_angle_alpha 90.000000
_cell_angle_beta 98.961573
_cell_angle_gamma 90.000000
_cell_volume 1606.641145
_symmetry_space_group_name_H-M "P 2/M"
_symmetry_group_IT_number 10
_symmetry_cell_setting 'monoclinic'
loop_
_space_group_symop_operation_xyz
x,y,z
-x,y,-z
-x,-y,-z
x,-y,z
loop_
_atom_site_type_symbol
_atom_site_label
_atom_site_fract_x
_atom_site_fract_y
_atom_site_fract_z
Si Si1 0.627755 0.346468 0.232847
Si Si2 0.899450 0.667563 0.415901
Si Si3 0.460869 0.647681 0.162838
Si Si4 0.948539 0.667057 0.958393
Si Si5 0.675312 0.154158 0.945446
Si Si6 0.797475 0.665120 0.308572
Si Si7 0.745612 0.334011 0.759881
Si Si8 0.584503 0.850372 0.585007
O O1 0.641673 0.500000 0.316291
O O2 0.603626 0.260673 0.418173
O O3 0.587684 0.359863 0.003649
O O4 0.668722 0.258420 0.164903
O O5 0.899548 0.500000 0.416136
O O6 0.924483 0.710182 0.188808
O O7 0.848299 0.714096 0.367043
O O8 0.923682 0.710312 0.687887
O O9 0.465624 0.500000 0.295246
O O10 0.457430 0.781547 0.323671
O O11 0.500000 0.658138 0.000000
O O12 0.947898 0.500000 0.957838
O O13 0.000000 0.709526 0.000000
O O14 0.702932 0.238935 0.769490
O O15 0.625181 0.134520 0.808470
O O16 0.692873 0.000000 0.011888
O O17 0.799197 0.500000 0.318272
O O18 0.770031 0.703564 0.528028
O O19 0.775353 0.697551 0.027837
O O20 0.736704 0.500000 0.753144
O O21 0.575882 0.000000 0.467617
#
# Coordination Sequence:
#
# PCOD9149026 Si02
#       8
#     4   4   4   4   4   4   4   4
#     4  10  20  35  57  80 103 135 173 213 259 311
#     4   9  15  24  37  53  82 122 162 214 264 306
#     4   9  19  36  55  77 105 137 175 216 256 307
#     4   9  15  21  32  53  81 119 169 215 256 308
#     4  10  22  38  54  75 103 135 169 213 267 322
#     4   9  18  31  47  69  96 129 175 223 271 321
#     4  10  20  34  52  76 101 131 176 226 267 321
#     4  10  21  36  54  77 106 138 171 211 263 323
#
# _framework density 19.917328999999999
#
# number of rings (size 3 to 8) (size 9 to 14) (size 15 to 20)
#    0.000    2.500    0.000    2.250    1.750    7.250 
#    0.000    2.500    0.000    0.000    0.000    0.000 
#    0.000    0.000    0.000    0.000    0.000   43.750 
#
# Total GULP energy -178329.398630 kJ/mol
# GULP energy per Si atom -5572.793707 kJ/mol
# Density = 1.987200 g / cm^3
# Si number density = 19.917329 Si / 1000 Ang^3
#
#
#
# Elastic Constant Matrix: (Units=GPa)
#
#
# Indices 1 2 3 4 5 6 
#
# 1 108.8688 29.3788 44.5942 0.0000 -10.9448 0.0000
# 2 29.3788 106.1831 32.3762 0.0000 -17.7918 0.0000
# 3 44.5942 32.3762 105.7769 0.0000 -7.8561 0.0000
# 4 0.0000 0.0000 0.0000 7.7533 0.0000 2.0702
# 5 -10.9448 -17.7918 -7.8561 0.0000 38.5955 0.0000
# 6 0.0000 0.0000 0.0000 2.0702 0.0000 16.2310
#
#
#
# Elastic Compliance Matrix: (Units=1/GPa)
#
#
# Indices 1 2 3 4 5 6 
#
# 1 0.011526 -0.001618 -0.004241 0.000000 0.001659 0.000000
# 2 -0.001618 0.011333 -0.002470 0.000000 0.004263 0.000000
# 3 -0.004241 -0.002470 0.012005 0.000000 0.000102 0.000000
# 4 0.000000 0.000000 0.000000 0.133525 0.000000 -0.017031
# 5 0.001659 0.004263 0.000102 0.000000 0.028366 0.000000
# 6 0.000000 0.000000 0.000000 -0.017031 0.000000 0.063783
#
#
# Mechanical properties :
#
#
# Convention : Reuss Voigt Hill
#
# Bulk Modulus (GPa) = 54.92512 59.28079 57.10295
# Shear Modulus (GPa) = 17.65138 26.81458 22.23298
#
# Velocity S-wave (km/s) = 2.98019 3.67317 3.34468
# Velocity P-wave (km/s) = 6.28319 6.91503 6.60667
#
# Compressibility (1/GPa) = 0.01820661
#
# Stress axis : x y z
#
# Youngs Moduli (GPa) = 86.76154 88.24013 83.29634
#
# Poissons Ratio (x) = 0.14276 0.35323
# Poissons Ratio (y) = 0.14037 0.20575
# Poissons Ratio (z) = 0.36793 0.21796
#
# Static dielectric constant tensor:
#      x y z
#    x 1.713570 0.000000 0.028860 
#    y 0.000000 1.735900 0.000000 
#    z 0.028860 0.000000 1.785170 
# 
# From -- ./inp_files/13629.got.cif
#   From: 2010.05.17/outbox.cif.g08.bks.cpg/sg10_7_cif.got.tgz:13629.got - 2010.06.03 11:33:40.
