data_PCOD9149193
_publ_section_title
;
Structure prediction by ZEFSAII (Michael W. Deem and Ramdas Pophale) SiO2 
 PCOD9149193
Probable space group: P 2/M
;
_chemical_formula_sum "Si O2"
_cell_formula_units_Z 26
_cell_length_a 5.118830
_cell_length_b 28.077636
_cell_length_c 9.123107
_cell_angle_alpha 90.000000
_cell_angle_beta 88.586949
_cell_angle_gamma 90.000000
_cell_volume 1310.816577
_symmetry_space_group_name_H-M "P 2/M"
_symmetry_group_IT_number 10
_symmetry_cell_setting 'monoclinic'
loop_
_space_group_symop_operation_xyz
x,y,z
-x,y,-z
-x,-y,-z
x,-y,z
loop_
_atom_site_type_symbol
_atom_site_label
_atom_site_fract_x
_atom_site_fract_y
_atom_site_fract_z
Si Si1 0.089557 0.400696 0.167062
Si Si2 0.747382 0.299942 0.897062
Si Si3 0.246682 0.845766 0.606592
Si Si4 0.245647 0.948833 0.606868
Si Si5 0.748194 0.646481 0.396693
Si Si6 0.247472 0.500000 0.106478
Si Si7 0.914517 0.252722 0.332214
O O1 0.267953 0.353190 0.172196
O O2 0.227131 0.450847 0.197005
O O3 0.838449 0.390321 0.271109
O O4 0.000000 0.402892 0.000000
O O5 0.833562 0.263562 0.770121
O O6 0.500000 0.289054 0.000000
O O7 0.000000 0.300829 0.000000
O O8 0.500000 0.840768 0.500000
O O9 0.251199 0.897394 0.685387
O O10 0.215814 0.797817 0.701433
O O11 0.000000 0.848003 0.500000
O O12 0.500000 0.948679 0.500000
O O13 0.000000 0.949045 0.500000
O O14 0.241921 0.000000 0.688220
O O15 0.500000 0.635801 0.500000
O O16 0.735496 0.699766 0.327176
O O17 0.000000 0.647660 0.500000
O O18 0.500000 0.500000 0.000000
O O19 0.000000 0.500000 0.000000
O O20 0.000000 0.249748 0.500000
#
# Coordination Sequence:
#
# PCOD9149193 Si02
#       7
#     4   4   4   4   4   2   4
#     4   9  20  36  56  76  97 126 161 195 232 279
#     4  10  21  35  51  72  98 126 156 193 235 278
#     4   9  16  25  39  61  87 116 151 188 226 270
#     4   8  13  21  33  51  79 113 144 178 224 271
#     4  10  21  35  51  73 101 129 157 192 235 280
#     4  10  20  34  54  78  98 120 157 200 235 272
#     4   9  19  32  50  71  96 126 160 193 231 279
#
# _framework density 19.834963999999999
#
# number of rings (size 3 to 8) (size 9 to 14) (size 15 to 20)
#    0.000    2.769    0.000    0.923    0.000   16.000 
#    0.000    0.769    0.000    0.000    0.000    0.000 
#    0.000    1.231    0.000    0.000    0.000    3.385 
#
# Total GULP energy -144934.167378 kJ/mol
# GULP energy per Si atom -5574.391053 kJ/mol
# Density = 1.978982 g / cm^3
# Si number density = 19.834964 Si / 1000 Ang^3
#
#
#
# Elastic Constant Matrix: (Units=GPa)
#
#
# Indices 1 2 3 4 5 6 
#
# 1 130.5279 33.2725 33.2425 0.0000 -38.5736 0.0000
# 2 33.2725 201.5848 48.8709 0.0000 -38.3467 0.0000
# 3 33.2425 48.8709 83.6493 0.0000 -35.8827 0.0000
# 4 0.0000 0.0000 0.0000 9.4385 0.0000 -6.4829
# 5 -38.5736 -38.3467 -35.8827 0.0000 39.7183 0.0000
# 6 0.0000 0.0000 0.0000 -6.4829 0.0000 20.2008
#
#
#
# Elastic Compliance Matrix: (Units=1/GPa)
#
#
# Indices 1 2 3 4 5 6 
#
# 1 0.010760 0.000236 0.000272 0.000000 0.010923 0.000000
# 2 0.000236 0.006231 -0.001723 0.000000 0.004689 0.000000
# 3 0.000272 -0.001723 0.020006 0.000000 0.016674 0.000000
# 4 0.000000 0.000000 0.000000 0.135907 0.000000 0.043616
# 5 0.010923 0.004689 0.016674 0.000000 0.055376 0.000000
# 6 0.000000 0.000000 0.000000 0.043616 0.000000 0.063500
#
#
# Mechanical properties :
#
#
# Convention : Reuss Voigt Hill
#
# Bulk Modulus (GPa) = 28.92965 71.83709 50.38337
# Shear Modulus (GPa) = 16.35411 33.89660 25.12535
#
# Velocity S-wave (km/s) = 2.87454 4.13841 3.56296
# Velocity P-wave (km/s) = 5.06302 7.68968 6.51020
#
# Compressibility (1/GPa) = 0.03456661
#
# Stress axis : x y z
#
# Youngs Moduli (GPa) = 92.93856 160.47798 49.98471
#
# Poissons Ratio (x) = -0.03787 -0.01358
# Poissons Ratio (y) = -0.02193 0.08613
# Poissons Ratio (z) = -0.02526 0.27652
#
# Static dielectric constant tensor:
#      x y z
#    x 1.728350 0.000000 0.036790 
#    y 0.000000 1.839100 0.000000 
#    z 0.036790 0.000000 1.685710 
# 
# From -- ./inp_files/15782.got.cif
#   From: 2010.05.17/outbox.cif.g08.bks.cpg/sg10_8_cif.got.tgz:15782.got - 2010.06.03 11:33:40.
