data_PCOD9149332
_publ_section_title
;
Structure prediction by ZEFSAII (Michael W. Deem and Ramdas Pophale) SiO2 
 PCOD9149332
Probable space group: P 2/M
;
_chemical_formula_sum "Si O2"
_cell_formula_units_Z 32
_cell_length_a 11.757288
_cell_length_b 15.047843
_cell_length_c 9.207265
_cell_angle_alpha 90.000000
_cell_angle_beta 92.449052
_cell_angle_gamma 90.000000
_cell_volume 1627.478241
_symmetry_space_group_name_H-M "P 2/M"
_symmetry_group_IT_number 10
_symmetry_cell_setting 'monoclinic'
loop_
_space_group_symop_operation_xyz
x,y,z
-x,y,-z
-x,-y,-z
x,-y,z
loop_
_atom_site_type_symbol
_atom_site_label
_atom_site_fract_x
_atom_site_fract_y
_atom_site_fract_z
Si Si1 0.701362 0.595907 0.874008
Si Si2 0.505514 0.654640 0.659654
Si Si3 0.253834 0.893432 0.641792
Si Si4 0.843517 0.769341 0.861849
Si Si5 0.544981 0.899914 0.147348
Si Si6 0.726751 0.604461 0.216176
Si Si7 0.894443 0.764211 0.201598
Si Si8 0.644967 0.159369 0.662985
O O1 0.751578 0.500000 0.842776
O O2 0.583321 0.605926 0.782459
O O3 0.787448 0.673025 0.837308
O O4 0.687600 0.602901 0.045982
O O5 0.500000 0.612699 0.500000
O O6 0.375637 0.652337 0.704562
O O7 0.571928 0.748929 0.646646
O O8 0.345338 0.862769 0.768161
O O9 0.145883 0.834718 0.679794
O O10 0.310303 0.871571 0.490143
O O11 0.235479 0.000000 0.649460
O O12 0.754627 0.831441 0.772972
O O13 0.969631 0.766659 0.804032
O O14 0.851775 0.788430 0.034969
O O15 0.445082 0.902187 0.259637
O O16 0.578196 0.000000 0.106354
O O17 0.500000 0.851880 0.000000
O O18 0.742353 0.500000 0.260110
O O19 0.838011 0.667717 0.231666
#
# Coordination Sequence:
#
# PCOD9149332 Si02
#       8
#     4   4   4   4   4   4   4   4
#     4   9  19  35  54  79 111 145 183 226 274 330
#     4  11  21  32  50  78 112 147 180 222 272 325
#     4  11  23  39  60  84 113 149 187 229 281 336
#     4   9  21  37  59  81 108 147 188 233 282 330
#     4  10  20  34  55  83 111 138 174 222 275 333
#     4  10  20  34  56  84 112 145 182 224 277 332
#     4  10  20  40  59  81 112 145 188 237 279 328
#     4  11  21  36  55  80 111 148 186 228 277 330
#
# _framework density 19.662320000000001
#
# number of rings (size 3 to 8) (size 9 to 14) (size 15 to 20)
#    0.000    1.875    0.000    4.500    0.000    6.000 
#    0.000    6.250    0.000    0.000    0.000    5.250 
#    0.000    0.000    0.000    0.000    0.000    0.000 
#
# Total GULP energy -178464.060705 kJ/mol
# GULP energy per Si atom -5577.001897 kJ/mol
# Density = 1.961757 g / cm^3
# Si number density = 19.662320 Si / 1000 Ang^3
#
#
#
# Elastic Constant Matrix: (Units=GPa)
#
#
# Indices 1 2 3 4 5 6 
#
# 1 97.1318 11.9248 12.9041 0.0000 -20.3271 0.0000
# 2 11.9248 75.8735 11.0691 0.0000 -16.1644 0.0000
# 3 12.9041 11.0691 27.5797 0.0000 -17.8348 0.0000
# 4 0.0000 0.0000 0.0000 14.5321 0.0000 -3.2533
# 5 -20.3271 -16.1644 -17.8348 0.0000 31.9059 0.0000
# 6 0.0000 0.0000 0.0000 -3.2533 0.0000 6.9134
#
#
#
# Elastic Compliance Matrix: (Units=1/GPa)
#
#
# Indices 1 2 3 4 5 6 
#
# 1 0.011903 -0.000256 -0.001012 0.000000 0.006888 0.000000
# 2 -0.000256 0.014831 -0.001690 0.000000 0.006406 0.000000
# 3 -0.001012 -0.001690 0.057069 0.000000 0.030399 0.000000
# 4 0.000000 0.000000 0.000000 0.076916 0.000000 0.036195
# 5 0.006888 0.006406 0.030399 0.000000 0.055968 0.000000
# 6 0.000000 0.000000 0.000000 0.036195 0.000000 0.161679
#
#
# Mechanical properties :
#
#
# Convention : Reuss Voigt Hill
#
# Bulk Modulus (GPa) = 12.83931 30.26457 21.55194
# Shear Modulus (GPa) = 12.18786 21.64941 16.91864
#
# Velocity S-wave (km/s) = 2.49240 3.32182 2.93654
# Velocity P-wave (km/s) = 3.85056 5.48983 4.74158
#
# Compressibility (1/GPa) = 0.07788578
#
# Stress axis : x y z
#
# Youngs Moduli (GPa) = 84.01538 67.42443 17.52279
#
# Poissons Ratio (x) = 0.01723 0.01774
# Poissons Ratio (y) = 0.02148 0.02962
# Poissons Ratio (z) = 0.08506 0.11397
#
# Static dielectric constant tensor:
#      x y z
#    x 1.657850 0.000000 0.016270 
#    y 0.000000 1.750720 0.000000 
#    z 0.016270 0.000000 1.720780 
# 
# From -- ./inp_files/25323.got.cif
#   From: 2010.05.17/outbox.cif.g08.bks.cpg/sg10_13_cif.got.tgz:25323.got - 2010.06.03 11:33:40.
