data_PCOD9149474
_publ_section_title
;
Structure prediction by ZEFSAII (Michael W. Deem and Ramdas Pophale) SiO2 
 PCOD9149474
Probable space group: P 2/M
;
_chemical_formula_sum "Si O2"
_cell_formula_units_Z 26
_cell_length_a 19.815147
_cell_length_b 9.429888
_cell_length_c 7.973553
_cell_angle_alpha 90.000000
_cell_angle_beta 126.901038
_cell_angle_gamma 90.000000
_cell_volume 1191.430121
_symmetry_space_group_name_H-M "P 2/M"
_symmetry_group_IT_number 10
_symmetry_cell_setting 'monoclinic'
loop_
_space_group_symop_operation_xyz
x,y,z
-x,y,-z
-x,-y,-z
x,-y,z
loop_
_atom_site_type_symbol
_atom_site_label
_atom_site_fract_x
_atom_site_fract_y
_atom_site_fract_z
Si Si1 0.434509 0.835470 0.765691
Si Si2 0.320139 0.661024 0.135793
Si Si3 0.738928 0.172781 0.625932
Si Si4 0.905630 0.836902 0.695921
Si Si5 0.500000 0.749160 0.500000
Si Si6 0.950637 0.338197 0.247191
Si Si7 0.805754 0.162282 0.195548
O O1 0.338039 0.781095 0.612008
O O2 0.468688 0.828188 0.623462
O O3 0.426012 0.000000 0.799774
O O4 0.500000 0.771534 0.000000
O O5 0.290129 0.500000 0.087335
O O6 0.285319 0.751561 0.239215
O O7 0.420104 0.664041 0.310507
O O8 0.280763 0.749603 0.924389
O O9 0.833246 0.213594 0.713993
O O10 0.736816 0.000000 0.633096
O O11 0.854347 0.840105 0.443763
O O12 0.986586 0.739769 0.787287
O O13 0.929410 0.000000 0.767410
O O14 0.931065 0.500000 0.169544
O O15 0.869520 0.243008 0.165979
O O16 0.000000 0.343954 0.500000
O O17 0.790327 0.000000 0.121268
#
# Coordination Sequence:
#
# PCOD9149474 Si02
#       7
#     4   4   4   4   2   4   4
#     4   9  18  32  56  86 116 148 193 246 293 348
#     4  11  23  39  57  78 111 150 190 233 283 341
#     4   9  19  36  55  80 111 144 183 232 288 338
#     4   9  18  33  56  83 113 145 182 231 284 336
#     4  10  22  38  58  78 117 158 197 238 301 346
#     4   9  17  31  52  80 115 149 184 225 275 335
#     4  10  20  34  57  85 111 143 187 233 282 337
#
# _framework density 21.822514999999999
#
# number of rings (size 3 to 8) (size 9 to 14) (size 15 to 20)
#    0.000    2.462    0.000    1.846    2.154    4.923 
#    0.000    0.769    0.000    6.923    0.000    0.000 
#    0.000    0.000    0.000    0.000    0.000    0.000 
#
# Total GULP energy -145029.286903 kJ/mol
# GULP energy per Si atom -5578.049496 kJ/mol
# Density = 2.177285 g / cm^3
# Si number density = 21.822515 Si / 1000 Ang^3
#
#
#
# Elastic Constant Matrix: (Units=GPa)
#
#
# Indices 1 2 3 4 5 6 
#
# 1 82.4159 17.8583 9.3293 0.0000 5.3574 0.0000
# 2 17.8583 81.4534 7.8158 0.0000 16.1297 0.0000
# 3 9.3293 7.8158 108.6264 0.0000 14.2272 0.0000
# 4 0.0000 0.0000 0.0000 13.3186 0.0000 7.1436
# 5 5.3574 16.1297 14.2272 0.0000 31.0893 0.0000
# 6 0.0000 0.0000 0.0000 7.1436 0.0000 0.6844
#
#
#
# Elastic Compliance Matrix: (Units=1/GPa)
#
#
# Indices 1 2 3 4 5 6 
#
# 1 0.012832 -0.002642 -0.000853 0.000000 -0.000450 0.000000
# 2 -0.002642 0.014227 0.000117 0.000000 -0.006980 0.000000
# 3 -0.000853 0.000117 0.009850 0.000000 -0.004421 0.000000
# 4 0.000000 0.000000 0.000000 -0.016327 0.000000 0.170424
# 5 -0.000450 -0.006980 -0.004421 0.000000 0.037888 0.000000
# 6 0.000000 0.000000 0.000000 0.170424 0.000000 -0.317740
#
#
# Mechanical properties :
#
#
# Convention : Reuss Voigt Hill
#
# Bulk Modulus (GPa) = 33.16422 38.05583 35.61002
# Shear Modulus (GPa) = -20.62165 24.85128 2.11482
#
# Velocity S-wave (km/s) = -3.07737 3.37826 0.98550
# Velocity P-wave (km/s) = 1.61347 5.71782 4.20100
#
# Compressibility (1/GPa) = 0.03015298
#
# Stress axis : x y z
#
# Youngs Moduli (GPa) = 77.93043 70.28797 101.52527
#
# Poissons Ratio (x) = 0.18573 0.08660
# Poissons Ratio (y) = 0.20592 -0.01192
# Poissons Ratio (z) = 0.06647 -0.00825
#
# Static dielectric constant tensor:
#      x y z
#    x 1.809610 0.000000 -0.013540 
#    y 0.000000 1.738940 0.000000 
#    z -0.013540 0.000000 1.945080 
# 
# From -- ./inp_files/34187.got.cif
#   From: 2010.05.17/outbox.cif.g08.bks.cpg/sg10_18_cif.got.tgz:34187.got - 2010.06.03 11:33:40.
