data_PCOD9149417
_publ_section_title
;
Structure prediction by ZEFSAII (Michael W. Deem and Ramdas Pophale) SiO2 
 PCOD9149417
Probable space group: P 2/M
;
_chemical_formula_sum "Si O2"
_cell_formula_units_Z 32
_cell_length_a 20.781778
_cell_length_b 7.662193
_cell_length_c 12.047207
_cell_angle_alpha 90.000000
_cell_angle_beta 126.447758
_cell_angle_gamma 90.000000
_cell_volume 1543.098395
_symmetry_space_group_name_H-M "P 2/M"
_symmetry_group_IT_number 10
_symmetry_cell_setting 'monoclinic'
loop_
_space_group_symop_operation_xyz
x,y,z
-x,y,-z
-x,-y,-z
x,-y,z
loop_
_atom_site_type_symbol
_atom_site_label
_atom_site_fract_x
_atom_site_fract_y
_atom_site_fract_z
Si Si1 0.826550 0.793475 0.015504
Si Si2 0.822420 0.705940 0.634310
Si Si3 0.697979 0.289700 0.321934
Si Si4 0.001452 0.210131 0.129450
Si Si5 0.286959 0.250365 0.288752
Si Si6 0.707635 0.710158 0.080753
Si Si7 0.407540 0.202429 0.587369
Si Si8 0.592649 0.709117 0.766615
O O1 0.785000 0.772147 0.091708
O O2 0.918536 0.738773 0.102678
O O3 0.820559 0.000000 0.977746
O O4 0.773775 0.689432 0.871101
O O5 0.806957 0.500000 0.641427
O O6 0.776643 0.755614 0.474783
O O7 0.916958 0.730534 0.729937
O O8 0.781513 0.810075 0.693996
O O9 0.693623 0.500000 0.313557
O O10 0.701015 0.224082 0.199361
O O11 0.623263 0.227382 0.318904
O O12 0.003398 0.000000 0.129692
O O13 0.000000 0.271483 0.000000
O O14 0.349181 0.313093 0.448056
O O15 0.356370 0.189948 0.273947
O O16 0.711768 0.500000 0.089198
O O17 0.631605 0.753785 0.925312
O O18 0.499426 0.250337 0.667374
O O19 0.394304 0.000000 0.542951
O O20 0.604107 0.500000 0.758140
#
# Coordination Sequence:
#
# PCOD9149417 Si02
#       8
#     4   4   4   4   4   4   4   4
#     4  10  20  35  56  80 108 143 179 217 262 315
#     4  10  20  34  56  84 108 137 180 226 265 309
#     4   9  20  40  60  77 104 141 181 223 270 318
#     4  10  20  35  53  79 115 150 176 207 261 323
#     4  10  20  35  54  78 109 144 179 217 267 324
#     4   9  20  39  60  79 102 139 183 225 268 316
#     4  11  23  35  53  81 110 141 179 222 268 319
#     4  10  21  36  55  78 107 142 179 221 271 323
#
# _framework density 20.737497000000001
#
# number of rings (size 3 to 8) (size 9 to 14) (size 15 to 20)
#    0.000    2.125    1.250    1.500    0.000    9.250 
#    0.000    3.125    0.000    3.750    0.000    0.000 
#    0.000    0.000    0.000    0.000    0.000    0.000 
#
# Total GULP energy -178151.067868 kJ/mol
# GULP energy per Si atom -5567.220871 kJ/mol
# Density = 2.069030 g / cm^3
# Si number density = 20.737497 Si / 1000 Ang^3
#
#
#
# Elastic Constant Matrix: (Units=GPa)
#
#
# Indices 1 2 3 4 5 6 
#
# 1 165.7194 23.3638 101.0070 0.0000 19.2849 0.0000
# 2 23.3638 75.3362 23.6420 0.0000 -2.1864 0.0000
# 3 101.0070 23.6420 106.5605 0.0000 -5.0761 0.0000
# 4 0.0000 0.0000 0.0000 0.2183 0.0000 6.1603
# 5 19.2849 -2.1864 -5.0761 0.0000 55.4250 0.0000
# 6 0.0000 0.0000 0.0000 6.1603 0.0000 27.9252
#
#
#
# Elastic Compliance Matrix: (Units=1/GPa)
#
#
# Indices 1 2 3 4 5 6 
#
# 1 0.016828 -0.000340 -0.016226 0.000000 -0.007355 0.000000
# 2 -0.000340 0.014278 -0.002825 0.000000 0.000423 0.000000
# 3 -0.016226 -0.002825 0.025767 0.000000 0.007894 0.000000
# 4 0.000000 0.000000 0.000000 -0.876698 0.000000 0.193401
# 5 -0.007355 0.000423 0.007894 0.000000 0.021341 0.000000
# 6 0.000000 0.000000 0.000000 0.193401 0.000000 -0.006854
#
#
# Mechanical properties :
#
#
# Convention : Reuss Voigt Hill
#
# Bulk Modulus (GPa) = 55.27581 71.51574 63.39578
# Shear Modulus (GPa) = -6.57439 30.02059 11.72310
#
# Velocity S-wave (km/s) = -1.78246 3.80892 2.38020
# Velocity P-wave (km/s) = 4.74095 7.34200 6.17987
#
# Compressibility (1/GPa) = 0.01809110
#
# Stress axis : x y z
#
# Youngs Moduli (GPa) = 59.42590 70.03672 38.80919
#
# Poissons Ratio (x) = 0.02383 0.62970
# Poissons Ratio (y) = 0.02022 0.10964
# Poissons Ratio (z) = 0.96422 0.19786
#
# Static dielectric constant tensor:
#      x y z
#    x 1.705720 0.000000 -0.007290 
#    y 0.000000 1.899650 0.000000 
#    z -0.007290 0.000000 1.713020 
# 
# From -- ./inp_files/55332.got.cif
#   From: 2010.05.17/outbox.cif.g08.bks.cpg/sg10_28_cif.got.tgz:55332.got - 2010.06.03 11:33:40.
