data_PCOD9149635
_publ_section_title
;
Structure prediction by ZEFSAII (Michael W. Deem and Ramdas Pophale) SiO2 
 PCOD9149635
Probable space group: P 2/M
;
_chemical_formula_sum "Si O2"
_cell_formula_units_Z 24
_cell_length_a 9.162957
_cell_length_b 7.638221
_cell_length_c 21.019157
_cell_angle_alpha 90.000000
_cell_angle_beta 50.146537
_cell_angle_gamma 90.000000
_cell_volume 1129.345241
_symmetry_space_group_name_H-M "P 2/M"
_symmetry_group_IT_number 10
_symmetry_cell_setting 'monoclinic'
loop_
_space_group_symop_operation_xyz
x,y,z
-x,y,-z
-x,-y,-z
x,-y,z
loop_
_atom_site_type_symbol
_atom_site_label
_atom_site_fract_x
_atom_site_fract_y
_atom_site_fract_z
Si Si1 0.965445 0.787940 0.082283
Si Si2 0.548248 0.203792 0.238133
Si Si3 0.695972 0.707271 0.916656
Si Si4 0.801676 0.703465 0.749421
Si Si5 0.804289 0.286602 0.413448
Si Si6 0.518587 0.711698 0.597866
O O1 0.759130 0.726914 0.164153
O O2 0.133701 0.727857 0.081210
O O3 0.966827 0.000000 0.083275
O O4 0.000000 0.732033 0.000000
O O5 0.383824 0.289348 0.242343
O O6 0.502836 0.220986 0.325189
O O7 0.547544 0.000000 0.220452
O O8 0.661889 0.500000 0.915897
O O9 0.755824 0.782146 0.831329
O O10 0.500000 0.781226 0.000000
O O11 0.851689 0.500000 0.746837
O O12 0.985503 0.777985 0.661745
O O13 0.805410 0.500000 0.416813
O O14 0.661522 0.239867 0.395846
O O15 0.705106 0.228887 0.506764
O O16 0.522009 0.500000 0.600454
#
# Coordination Sequence:
#
# PCOD9149635 Si02
#       6
#     4   4   4   4   4   4
#     4  10  22  39  57  77 105 143 181 212 250 311
#     4  11  23  36  51  77 109 139 177 219 259 307
#     4  10  21  36  57  86 112 133 168 220 269 309
#     4  10  20  35  54  77 107 141 176 214 260 314
#     4   8  16  32  56  81 101 132 180 220 254 313
#     4   9  17  34  58  79 102 135 175 219 266 312
#
# _framework density 21.251252999999998
#
# number of rings (size 3 to 8) (size 9 to 14) (size 15 to 20)
#    0.000    2.333    0.000    3.500    0.000    4.667 
#    0.000    6.667    0.000    0.000    0.000    0.000 
#    0.000    0.000    0.000    0.000    0.000    0.000 
#
# Total GULP energy -134044.858581 kJ/mol
# GULP energy per Si atom -5585.202441 kJ/mol
# Density = 2.120288 g / cm^3
# Si number density = 21.251253 Si / 1000 Ang^3
#
#
#
# Elastic Constant Matrix: (Units=GPa)
#
#
# Indices 1 2 3 4 5 6 
#
# 1 99.2038 -22.0611 95.6149 0.0000 -12.3426 0.0000
# 2 -22.0611 36.3871 -3.6736 0.0000 -5.3238 0.0000
# 3 95.6149 -3.6736 209.9862 0.0000 -14.0246 0.0000
# 4 0.0000 0.0000 0.0000 14.0533 0.0000 5.5972
# 5 -12.3426 -5.3238 -14.0246 0.0000 44.8955 0.0000
# 6 0.0000 0.0000 0.0000 5.5972 0.0000 40.0887
#
#
#
# Elastic Compliance Matrix: (Units=1/GPa)
#
#
# Indices 1 2 3 4 5 6 
#
# 1 0.023636 0.014031 -0.010184 0.000000 0.004980 0.000000
# 2 0.014031 0.036405 -0.005317 0.000000 0.006513 0.000000
# 3 -0.010184 -0.005317 0.009271 0.000000 -0.000534 0.000000
# 4 0.000000 0.000000 0.000000 0.075347 0.000000 -0.010520
# 5 0.004980 0.006513 -0.000534 0.000000 0.024249 0.000000
# 6 0.000000 0.000000 0.000000 -0.010520 0.000000 0.026414
#
#
# Mechanical properties :
#
#
# Convention : Reuss Voigt Hill
#
# Bulk Modulus (GPa) = 15.06683 53.92640 34.49661
# Shear Modulus (GPa) = 22.68749 38.18730 30.43739
#
# Velocity S-wave (km/s) = 3.27093 4.24364 3.78863
# Velocity P-wave (km/s) = 4.62283 7.03150 5.95032
#
# Compressibility (1/GPa) = 0.06637096
#
# Stress axis : x y z
#
# Youngs Moduli (GPa) = 42.30854 27.46869 107.86534
#
# Poissons Ratio (x) = -0.38540 1.09853
# Poissons Ratio (y) = -0.59362 0.57350
# Poissons Ratio (z) = 0.43088 0.14605
#
# Static dielectric constant tensor:
#      x y z
#    x 1.690450 0.000000 -0.018790 
#    y 0.000000 1.804030 0.000000 
#    z -0.018790 0.000000 1.783970 
# 
# From -- ./inp_files/33782.got.cif
#   From: 2010.05.17/outbox.cif.g08.bks.cpg/sg10_17_cif.got.tgz:33782.got - 2010.06.03 11:33:40.
