data_PCOD9149160
_publ_section_title
;
Structure prediction by ZEFSAII (Michael W. Deem and Ramdas Pophale) SiO2 
 PCOD9149160
Probable space group: P 2/M
;
_chemical_formula_sum "Si O2"
_cell_formula_units_Z 32
_cell_length_a 6.766206
_cell_length_b 18.052999
_cell_length_c 13.641878
_cell_angle_alpha 90.000000
_cell_angle_beta 89.531906
_cell_angle_gamma 90.000000
_cell_volume 1666.304018
_symmetry_space_group_name_H-M "P 2/M"
_symmetry_group_IT_number 10
_symmetry_cell_setting 'monoclinic'
loop_
_space_group_symop_operation_xyz
x,y,z
-x,y,-z
-x,-y,-z
x,-y,z
loop_
_atom_site_type_symbol
_atom_site_label
_atom_site_fract_x
_atom_site_fract_y
_atom_site_fract_z
Si Si1 0.475808 0.193160 0.611731
Si Si2 0.906819 0.583919 0.607140
Si Si3 0.766279 0.582515 0.225522
Si Si4 0.890555 0.275764 0.105592
Si Si5 0.491123 0.640116 0.388209
Si Si6 0.432502 0.144488 0.895413
Si Si7 0.814477 0.819370 0.764438
Si Si8 0.811266 0.916535 0.270239
O O1 0.500000 0.169944 0.500000
O O2 0.408980 0.279264 0.612669
O O3 0.686231 0.192806 0.666649
O O4 0.315860 0.141199 0.664545
O O5 0.821570 0.500000 0.604694
O O6 0.741120 0.643656 0.627804
O O7 0.000000 0.596694 0.500000
O O8 0.061910 0.585519 0.693555
O O9 0.760390 0.500000 0.181999
O O10 0.803383 0.647318 0.147525
O O11 0.578914 0.595557 0.297107
O O12 0.709978 0.216984 0.096523
O O13 0.046721 0.243089 0.185201
O O14 0.000000 0.282953 0.000000
O O15 0.500000 0.609164 0.500000
O O16 0.636107 0.163781 0.839808
O O17 0.302874 0.087945 0.832914
O O18 0.500000 0.116832 0.000000
O O19 0.967895 0.886025 0.744889
O O20 0.808245 0.000000 0.308624
#
# Coordination Sequence:
#
# PCOD9149160 Si02
#       8
#     4   4   4   4   4   4   4   4
#     4  10  23  40  61  91 122 161 211 251 290 352
#     4  10  20  34  53  82 119 159 198 242 307 369
#     4  11  23  36  54  84 121 161 204 251 305 364
#     4  11  22  39  65  87 116 163 209 256 309 362
#     4  11  20  35  59  85 116 157 199 255 309 351
#     4  10  20  39  67  94 115 150 198 251 306 360
#     4  10  20  39  63  88 121 154 198 249 302 354
#     4  10  23  40  61  92 127 160 196 239 298 367
#
# _framework density 19.204177000000001
#
# number of rings (size 3 to 8) (size 9 to 14) (size 15 to 20)
#    0.000    1.625    2.500    3.375    0.000    3.750 
#    0.000    1.250    0.000    0.375    0.000    0.000 
#    0.000    0.000    0.000    0.000    0.000    0.000 
#
# Total GULP energy -178429.359666 kJ/mol
# GULP energy per Si atom -5575.917490 kJ/mol
# Density = 1.916047 g / cm^3
# Si number density = 19.204177 Si / 1000 Ang^3
#
#
#
# Elastic Constant Matrix: (Units=GPa)
#
#
# Indices 1 2 3 4 5 6 
#
# 1 93.2644 20.6987 28.2293 0.0000 -18.6924 0.0000
# 2 20.6987 80.1939 16.8828 0.0000 -32.2098 0.0000
# 3 28.2293 16.8828 93.5577 0.0000 -4.3865 0.0000
# 4 0.0000 0.0000 0.0000 12.6055 0.0000 -2.9521
# 5 -18.6924 -32.2098 -4.3865 0.0000 25.0934 0.0000
# 6 0.0000 0.0000 0.0000 -2.9521 0.0000 11.9811
#
#
#
# Elastic Compliance Matrix: (Units=1/GPa)
#
#
# Indices 1 2 3 4 5 6 
#
# 1 0.013975 0.002357 -0.004045 0.000000 0.012728 0.000000
# 2 0.002357 0.027075 -0.003917 0.000000 0.035824 0.000000
# 3 -0.004045 -0.003917 0.012340 0.000000 -0.005884 0.000000
# 4 0.000000 0.000000 0.000000 0.084188 0.000000 0.020744
# 5 0.012728 0.035824 -0.005884 0.000000 0.094287 0.000000
# 6 0.000000 0.000000 0.000000 0.020744 0.000000 0.088576
#
#
# Mechanical properties :
#
#
# Convention : Reuss Voigt Hill
#
# Bulk Modulus (GPa) = 23.70886 44.29307 34.00097
# Shear Modulus (GPa) = 14.46294 23.34968 18.90631
#
# Velocity S-wave (km/s) = 2.74727 3.49071 3.14106
# Velocity P-wave (km/s) = 4.73665 6.27384 5.55864
#
# Compressibility (1/GPa) = 0.04217832
#
# Stress axis : x y z
#
# Youngs Moduli (GPa) = 71.55889 36.93478 81.03649
#
# Poissons Ratio (x) = -0.08705 0.32780
# Poissons Ratio (y) = -0.16865 0.31744
# Poissons Ratio (z) = 0.28946 0.14468
#
# Static dielectric constant tensor:
#      x y z
#    x 1.605070 0.000000 0.039100 
#    y 0.000000 1.698680 0.000000 
#    z 0.039100 0.000000 1.674870 
# 
# From -- ./inp_files/59427.got.cif
#   From: 2010.05.17/outbox.cif.g08.bks.cpg/sg10_30_cif.got.tgz:59427.got - 2010.06.03 11:33:40.
