data_PCOD9149246
_publ_section_title
;
Structure prediction by ZEFSAII (Michael W. Deem and Ramdas Pophale) SiO2 
 PCOD9149246
Probable space group: P 2/M
;
_chemical_formula_sum "Si O2"
_cell_formula_units_Z 30
_cell_length_a 8.814924
_cell_length_b 13.974919
_cell_length_c 16.655838
_cell_angle_alpha 90.000000
_cell_angle_beta 42.626861
_cell_angle_gamma 90.000000
_cell_volume 1389.519891
_symmetry_space_group_name_H-M "P 2/M"
_symmetry_group_IT_number 10
_symmetry_cell_setting 'monoclinic'
loop_
_space_group_symop_operation_xyz
x,y,z
-x,y,-z
-x,-y,-z
x,-y,z
loop_
_atom_site_type_symbol
_atom_site_label
_atom_site_fract_x
_atom_site_fract_y
_atom_site_fract_z
Si Si1 0.527396 0.889394 0.873036
Si Si2 0.941688 0.766895 0.693575
Si Si3 0.511972 0.397704 0.705667
Si Si4 0.731675 0.390506 0.366692
Si Si5 0.429820 0.806917 0.744192
Si Si6 0.977011 0.107883 0.911656
Si Si7 0.000000 0.332318 0.500000
Si Si8 0.674551 0.892678 0.504324
O O1 0.488499 0.881003 0.791573
O O2 0.710991 0.808137 0.817628
O O3 0.587043 0.000000 0.869155
O O4 0.281021 0.869024 0.005575
O O5 0.072188 0.683994 0.690809
O O6 0.095157 0.860161 0.624015
O O7 0.936127 0.726786 0.604488
O O8 0.489144 0.500000 0.757187
O O9 0.342868 0.395482 0.696530
O O10 0.451492 0.298951 0.772619
O O11 0.769586 0.390039 0.574690
O O12 0.500000 0.359421 0.500000
O O13 0.784931 0.500000 0.372333
O O14 0.597677 0.821884 0.604915
O O15 0.181513 0.825805 0.806355
O O16 0.021719 0.000000 0.865479
O O17 0.000000 0.107988 0.000000
O O18 0.500000 0.889587 0.500000
O O19 0.683525 0.000000 0.533827
#
# Coordination Sequence:
#
# PCOD9149246 Si02
#       8
#     4   4   4   4   4   4   2   4
#     4  10  20  34  54  82 112 143 180 225 273 322
#     4  12  20  34  51  79 112 145 174 220 274 328
#     4  11  22  35  52  79 108 141 183 227 270 320
#     4  10  20  35  54  72 102 146 186 218 260 324
#     4  11  18  34  55  79 107 145 181 226 273 327
#     4   8  16  31  54  79 104 139 183 224 267 324
#     4  12  21  32  51  80 110 140 175 218 273 320
#     4  11  22  33  49  75 108 147 182 216 264 326
#
# _framework density 21.590192999999999
#
# number of rings (size 3 to 8) (size 9 to 14) (size 15 to 20)
#    0.000    1.467    4.000    3.800    0.000    0.533 
#    0.000    2.000    0.000    7.600    0.000   11.200 
#    0.000    0.000    0.000    0.000    0.000    0.000 
#
# Total GULP energy -167464.405312 kJ/mol
# GULP energy per Si atom -5582.146844 kJ/mol
# Density = 2.154105 g / cm^3
# Si number density = 21.590193 Si / 1000 Ang^3
#
#
#
# Elastic Constant Matrix: (Units=GPa)
#
#
# Indices 1 2 3 4 5 6 
#
# 1 74.1856 38.0011 24.6468 0.0000 -15.2515 0.0000
# 2 38.0011 134.8238 41.8938 0.0000 -27.1918 0.0000
# 3 24.6468 41.8938 67.3683 0.0000 -37.1714 0.0000
# 4 0.0000 0.0000 0.0000 14.2526 0.0000 27.3425
# 5 -15.2515 -27.1918 -37.1714 0.0000 42.3622 0.0000
# 6 0.0000 0.0000 0.0000 27.3425 0.0000 159.6952
#
#
#
# Elastic Compliance Matrix: (Units=1/GPa)
#
#
# Indices 1 2 3 4 5 6 
#
# 1 0.016553 -0.003428 -0.003587 0.000000 0.000612 0.000000
# 2 -0.003428 0.009968 -0.004062 0.000000 0.001600 0.000000
# 3 -0.003587 -0.004062 0.032046 0.000000 0.024221 0.000000
# 4 0.000000 0.000000 0.000000 0.104481 0.000000 -0.017889
# 5 0.000612 0.001600 0.024221 0.000000 0.046106 0.000000
# 6 0.000000 0.000000 0.000000 -0.017889 0.000000 0.009325
#
#
# Mechanical properties :
#
#
# Convention : Reuss Voigt Hill
#
# Bulk Modulus (GPa) = 27.46128 53.94013 40.70070
# Shear Modulus (GPa) = 19.78083 54.71774 37.24929
#
# Velocity S-wave (km/s) = 3.03016 5.03972 4.15816
# Velocity P-wave (km/s) = 4.99894 7.67483 6.47659
#
# Compressibility (1/GPa) = 0.03641491
#
# Stress axis : x y z
#
# Youngs Moduli (GPa) = 60.41229 100.32056 31.20521
#
# Poissons Ratio (x) = 0.34386 0.11192
# Poissons Ratio (y) = 0.20707 0.12675
# Poissons Ratio (z) = 0.21667 0.40748
#
# Static dielectric constant tensor:
#      x y z
#    x 1.861830 0.000000 -0.038860 
#    y 0.000000 1.816430 0.000000 
#    z -0.038860 0.000000 1.754390 
# 
# From -- ./inp_files/82754.got.cif
#   From: 2010.05.17/outbox.cif.g08.bks.cpg/sg10_42_cif.got.tgz:82754.got - 2010.06.03 11:33:40.
