data_PCOD9149885
_publ_section_title
;
Structure prediction by ZEFSAII (Michael W. Deem and Ramdas Pophale) SiO2 
 PCOD9149885
Probable space group: P 2/M
;
_chemical_formula_sum "Si O2"
_cell_formula_units_Z 20
_cell_length_a 7.347432
_cell_length_b 25.522502
_cell_length_c 8.344353
_cell_angle_alpha 90.000000
_cell_angle_beta 38.334994
_cell_angle_gamma 90.000000
_cell_volume 970.563653
_symmetry_space_group_name_H-M "P 2/M"
_symmetry_group_IT_number 10
_symmetry_cell_setting 'monoclinic'
loop_
_space_group_symop_operation_xyz
x,y,z
-x,y,-z
-x,-y,-z
x,-y,z
loop_
_atom_site_type_symbol
_atom_site_label
_atom_site_fract_x
_atom_site_fract_y
_atom_site_fract_z
Si Si1 0.352042 0.556254 0.778260
Si Si2 0.329821 0.120580 0.448532
Si Si3 0.827130 0.059961 0.947155
Si Si4 0.350563 0.670218 0.777431
Si Si5 0.339575 0.232007 0.275710
O O1 0.500000 0.556308 0.500000
O O2 0.433947 0.500000 0.798899
O O3 0.423219 0.612991 0.803487
O O4 0.000000 0.556128 0.000000
O O5 0.500000 0.118704 0.500000
O O6 0.333821 0.180014 0.387399
O O7 0.010409 0.097318 0.703690
O O8 0.510973 0.083712 0.203551
O O9 0.818823 0.000000 0.897449
O O10 0.000000 0.059812 0.000000
O O11 0.500000 0.670969 0.500000
O O12 0.475626 0.719658 0.783801
O O13 0.000000 0.674433 0.000000
O O14 0.000000 0.248864 0.500000
O O15 0.500000 0.217461 0.000000
#
# Coordination Sequence:
#
# PCOD9149885 Si02
#       5
#     4   4   4   4   4
#     4   8  14  26  48  79 108 133 170 224 274 313
#     4  10  20  35  57  80 104 139 181 219 261 322
#     4   9  17  31  55  85 108 128 167 224 272 312
#     4  10  20  36  59  83 108 143 189 230 267 323
#     4  12  25  39  55  78 114 150 183 228 278 322
#
# _framework density 20.606580999999998
#
# number of rings (size 3 to 8) (size 9 to 14) (size 15 to 20)
#    0.000    2.200    0.000    3.600    0.000    4.800 
#    0.000    0.000    0.000   13.200    0.000    0.000 
#    0.000    0.000    0.000    0.000    0.000    0.000 
#
# Total GULP energy -111649.131875 kJ/mol
# GULP energy per Si atom -5582.456594 kJ/mol
# Density = 2.055968 g / cm^3
# Si number density = 20.606581 Si / 1000 Ang^3
#
#
#
# Elastic Constant Matrix: (Units=GPa)
#
#
# Indices 1 2 3 4 5 6 
#
# 1 36.8904 30.8620 29.4961 0.0000 -10.9454 0.0000
# 2 30.8620 209.8953 50.1576 0.0000 1.2262 0.0000
# 3 29.4961 50.1576 161.9363 0.0000 -14.6631 0.0000
# 4 0.0000 0.0000 0.0000 34.3030 0.0000 -10.9256
# 5 -10.9454 1.2262 -14.6631 0.0000 19.9223 0.0000
# 6 0.0000 0.0000 0.0000 -10.9256 0.0000 -7.2669
#
#
#
# Elastic Compliance Matrix: (Units=1/GPa)
#
#
# Indices 1 2 3 4 5 6 
#
# 1 0.040370 -0.005093 -0.004006 0.000000 0.019544 0.000000
# 2 -0.005093 0.005835 -0.001249 0.000000 -0.004076 0.000000
# 3 -0.004006 -0.001249 0.007606 0.000000 0.003474 0.000000
# 4 0.000000 0.000000 0.000000 0.019712 0.000000 -0.029637
# 5 0.019544 -0.004076 0.003474 0.000000 0.063741 0.000000
# 6 0.000000 0.000000 0.000000 -0.029637 0.000000 -0.093051
#
#
# Mechanical properties :
#
#
# Convention : Reuss Voigt Hill
#
# Bulk Modulus (GPa) = 30.19689 69.97261 50.08475
# Shear Modulus (GPa) = 65.83512 29.27208 47.55360
#
# Velocity S-wave (km/s) = 5.65844 3.77307 4.80905
# Velocity P-wave (km/s) = 7.57472 7.28090 7.42927
#
# Compressibility (1/GPa) = 0.03311600
#
# Stress axis : x y z
#
# Youngs Moduli (GPa) = 24.77115 171.36986 131.46824
#
# Poissons Ratio (x) = 0.87272 0.52668
# Poissons Ratio (y) = 0.12615 0.16419
# Poissons Ratio (z) = 0.09924 0.21403
#
# Static dielectric constant tensor:
#      x y z
#    x 1.744970 0.000000 0.010170 
#    y 0.000000 1.757780 0.000000 
#    z 0.010170 0.000000 1.685550 
# 
# From -- ./inp_files/4836.got.cif
#   From: 2010.05.17/outbox.cif.g08.bks.cpg/sg10_3_cif.got.tgz:4836.got - 2010.06.03 11:33:40.
