data_PCOD9149335
_publ_section_title
;
Structure prediction by ZEFSAII (Michael W. Deem and Ramdas Pophale) SiO2 
 PCOD9149335
Probable space group: P 2/M
;
_chemical_formula_sum "Si O2"
_cell_formula_units_Z 32
_cell_length_a 17.995778
_cell_length_b 13.734541
_cell_length_c 9.095195
_cell_angle_alpha 90.000000
_cell_angle_beta 119.737668
_cell_angle_gamma 90.000000
_cell_volume 1951.953162
_symmetry_space_group_name_H-M "P 2/M"
_symmetry_group_IT_number 10
_symmetry_cell_setting 'monoclinic'
loop_
_space_group_symop_operation_xyz
x,y,z
-x,y,-z
-x,-y,-z
x,-y,z
loop_
_atom_site_type_symbol
_atom_site_label
_atom_site_fract_x
_atom_site_fract_y
_atom_site_fract_z
Si Si1 0.916067 0.882269 0.502417
Si Si2 0.582663 0.798348 0.175681
Si Si3 0.257699 0.117134 0.839830
Si Si4 0.906901 0.883752 0.835092
Si Si5 0.745060 0.202162 0.836441
Si Si6 0.585690 0.884177 0.502872
Si Si7 0.457685 0.386157 0.692474
Si Si8 0.364014 0.614381 0.286061
O O1 0.830554 0.858121 0.329617
O O2 0.911435 0.854096 0.668507
O O3 0.000000 0.845333 0.500000
O O4 0.921728 0.000000 0.509466
O O5 0.665628 0.828705 0.167109
O O6 0.583003 0.853165 0.331582
O O7 0.575228 0.685197 0.214010
O O8 0.500000 0.825548 0.000000
O O9 0.269864 0.000000 0.845284
O O10 0.254296 0.151921 0.004053
O O11 0.834682 0.821891 0.846823
O O12 0.884647 0.000000 0.821878
O O13 0.000000 0.872759 0.000000
O O14 0.669476 0.155672 0.664548
O O15 0.715258 0.314374 0.818796
O O16 0.500000 0.847575 0.500000
O O17 0.587008 0.000000 0.514468
O O18 0.453993 0.500000 0.727810
O O19 0.555763 0.362304 0.742782
O O20 0.401447 0.372666 0.488543
O O21 0.344152 0.500000 0.249296
#
# Coordination Sequence:
#
# PCOD9149335 Si02
#       8
#     4   4   4   4   4   4   4   4
#     4   9  18  34  53  74 105 140 172 216 268 308
#     4  12  23  34  49  72 107 144 178 218 267 320
#     4  11  23  35  49  75 111 148 180 215 266 320
#     4  10  20  34  55  83 111 143 185 225 259 311
#     4  12  21  35  57  78 105 139 186 226 269 323
#     4  11  22  34  49  70 100 141 185 220 255 313
#     4   9  18  35  56  77 102 135 179 230 281 323
#     4   9  18  34  58  81 102 132 176 234 284 322
#
# _framework density 16.393836
#
# number of rings (size 3 to 8) (size 9 to 14) (size 15 to 20)
#    0.000    1.625    1.250    6.000    0.000    5.250 
#    0.000    0.625    0.000    0.375    0.000    0.000 
#    0.000    2.500    0.000    0.000    0.000    0.000 
#
# Total GULP energy -178706.676064 kJ/mol
# GULP energy per Si atom -5584.583627 kJ/mol
# Density = 1.635652 g / cm^3
# Si number density = 16.393836 Si / 1000 Ang^3
#
#
#
# Elastic Constant Matrix: (Units=GPa)
#
#
# Indices 1 2 3 4 5 6 
#
# 1 157.1857 56.6730 68.3628 0.0000 -0.3096 0.0000
# 2 56.6730 83.6727 35.6202 0.0000 6.4802 0.0000
# 3 68.3628 35.6202 118.9217 0.0000 -4.3182 0.0000
# 4 0.0000 0.0000 0.0000 20.0616 0.0000 -2.8985
# 5 -0.3096 6.4802 -4.3182 0.0000 26.2532 0.0000
# 6 0.0000 0.0000 0.0000 -2.8985 0.0000 -39.8742
#
#
#
# Elastic Compliance Matrix: (Units=1/GPa)
#
#
# Indices 1 2 3 4 5 6 
#
# 1 0.010017 -0.005038 -0.004225 0.000000 0.000667 0.000000
# 2 -0.005038 0.016680 -0.002265 0.000000 -0.004549 0.000000
# 3 -0.004225 -0.002265 0.011604 0.000000 0.002418 0.000000
# 4 0.000000 0.000000 0.000000 0.049328 0.000000 -0.003586
# 5 0.000667 -0.004549 0.002418 0.000000 0.039619 0.000000
# 6 0.000000 0.000000 0.000000 -0.003586 0.000000 -0.024818
#
#
# Mechanical properties :
#
#
# Convention : Reuss Voigt Hill
#
# Bulk Modulus (GPa) = 65.59635 75.67689 70.63662
# Shear Modulus (GPa) = 38.29385 14.56307 26.42846
#
# Velocity S-wave (km/s) = 4.83833 2.98371 4.01945
# Velocity P-wave (km/s) = 8.44466 7.62444 8.04501
#
# Compressibility (1/GPa) = 0.01524475
#
# Stress axis : x y z
#
# Youngs Moduli (GPa) = 99.82817 59.95140 86.17577
#
# Poissons Ratio (x) = 0.30202 0.36412
# Poissons Ratio (y) = 0.50291 0.19522
# Poissons Ratio (z) = 0.42181 0.13581
#
# Static dielectric constant tensor:
#      x y z
#    x 1.537700 0.000000 -0.009430 
#    y 0.000000 1.561210 0.000000 
#    z -0.009430 0.000000 1.538750 
# 
# From -- ./inp_files/29547.got.cif
#   From: 2010.05.17/outbox.cif.g08.bks.cpg/sg10_15_cif.got.tgz:29547.got - 2010.06.03 11:33:40.
