data_PCOD9149887
_publ_section_title
;
Structure prediction by ZEFSAII (Michael W. Deem and Ramdas Pophale) SiO2 
 PCOD9149887
Probable space group: P 2/M
;
_chemical_formula_sum "Si O2"
_cell_formula_units_Z 28
_cell_length_a 9.436813
_cell_length_b 14.794898
_cell_length_c 12.278250
_cell_angle_alpha 90.000000
_cell_angle_beta 118.704820
_cell_angle_gamma 90.000000
_cell_volume 1503.577300
_symmetry_space_group_name_H-M "P 2/M"
_symmetry_group_IT_number 10
_symmetry_cell_setting 'monoclinic'
loop_
_space_group_symop_operation_xyz
x,y,z
-x,y,-z
-x,-y,-z
x,-y,z
loop_
_atom_site_type_symbol
_atom_site_label
_atom_site_fract_x
_atom_site_fract_y
_atom_site_fract_z
Si Si1 0.950383 0.605862 0.107790
Si Si2 0.284748 0.603274 0.352366
Si Si3 0.481147 0.709656 0.708521
Si Si4 0.188564 0.893833 0.082669
Si Si5 0.182818 0.396334 0.565741
Si Si6 0.542716 0.104769 0.644770
Si Si7 0.659576 0.265929 0.986708
O O1 0.906316 0.500000 0.107750
O O2 0.112848 0.624445 0.234534
O O3 0.805315 0.672842 0.084186
O O4 0.000000 0.618225 0.000000
O O5 0.331561 0.500000 0.339704
O O6 0.422439 0.668877 0.358885
O O7 0.249026 0.605149 0.466926
O O8 0.313900 0.662294 0.675496
O O9 0.450851 0.815240 0.673607
O O10 0.602985 0.691410 0.851633
O O11 0.275742 0.881496 0.234426
O O12 0.279993 0.832616 0.028359
O O13 0.202031 0.000000 0.063525
O O14 0.000000 0.868695 0.000000
O O15 0.179584 0.500000 0.603922
O O16 0.000000 0.362198 0.500000
O O17 0.500000 0.115798 0.500000
O O18 0.501598 0.000000 0.654946
O O19 0.500000 0.261135 0.000000
#
# Coordination Sequence:
#
# PCOD9149887 Si02
#       7
#     4   4   4   4   4   4   4
#     4  10  20  36  55  78 108 143 184 232 280 328
#     4  10  20  35  57  80 105 141 185 229 273 327
#     4  11  21  36  57  80 106 145 187 227 273 331
#     4   9  19  37  61  86 112 144 187 236 282 335
#     4  10  22  37  54  80 112 144 181 229 279 330
#     4   9  18  33  55  85 113 138 176 227 280 326
#     4  11  24  36  53  82 113 148 184 228 282 340
#
# _framework density 18.622254000000002
#
# number of rings (size 3 to 8) (size 9 to 14) (size 15 to 20)
#    0.000    2.000    1.429    2.143    4.000    2.286 
#    0.000    0.000    0.000    0.429    0.000    0.000 
#    0.000    0.000    0.000    0.000    0.000    0.000 
#
# Total GULP energy -156031.902378 kJ/mol
# GULP energy per Si atom -5572.567942 kJ/mol
# Density = 1.857987 g / cm^3
# Si number density = 18.622254 Si / 1000 Ang^3
#
#
#
# Elastic Constant Matrix: (Units=GPa)
#
#
# Indices 1 2 3 4 5 6 
#
# 1 95.6956 45.2667 15.3018 0.0000 14.5958 0.0000
# 2 45.2667 61.9070 23.5407 0.0000 18.4452 0.0000
# 3 15.3018 23.5407 65.6095 0.0000 15.8452 0.0000
# 4 0.0000 0.0000 0.0000 -11.6830 0.0000 -6.0240
# 5 14.5958 18.4452 15.8452 0.0000 25.2951 0.0000
# 6 0.0000 0.0000 0.0000 -6.0240 0.0000 15.1413
#
#
#
# Elastic Compliance Matrix: (Units=1/GPa)
#
#
# Indices 1 2 3 4 5 6 
#
# 1 0.016019 -0.011627 0.000731 0.000000 -0.001223 0.000000
# 2 -0.011627 0.030237 -0.005223 0.000000 -0.012068 0.000000
# 3 0.000731 -0.005223 0.019002 0.000000 -0.008516 0.000000
# 4 0.000000 0.000000 0.000000 -0.071024 0.000000 -0.028257
# 5 -0.001223 -0.012068 -0.008516 0.000000 0.054374 0.000000
# 6 0.000000 0.000000 0.000000 -0.028257 0.000000 0.054802
#
#
# Mechanical properties :
#
#
# Convention : Reuss Voigt Hill
#
# Bulk Modulus (GPa) = 30.28421 43.49228 36.88825
# Shear Modulus (GPa) = 34.09385 15.02420 24.55902
#
# Velocity S-wave (km/s) = 4.28344 2.84348 3.63547
# Velocity P-wave (km/s) = 6.38447 5.84690 6.12159
#
# Compressibility (1/GPa) = 0.03302051
#
# Stress axis : x y z
#
# Youngs Moduli (GPa) = 62.42445 33.07242 52.62633
#
# Poissons Ratio (x) = 0.38453 -0.03847
# Poissons Ratio (y) = 0.72581 0.27485
# Poissons Ratio (z) = -0.04563 0.17273
#
# Static dielectric constant tensor:
#      x y z
#    x 1.611650 0.000000 0.001480 
#    y 0.000000 1.658490 0.000000 
#    z 0.001480 0.000000 1.707050 
# 
# From -- ./inp_files/25022.got.cif
#   From: 2010.05.17/outbox.cif.g08.bks.cpg/sg10_13_cif.got.tgz:25022.got - 2010.06.03 11:33:40.
