data_PCOD9149669
_publ_section_title
;
Structure prediction by ZEFSAII (Michael W. Deem and Ramdas Pophale) SiO2 
 PCOD9149669
Probable space group: P 2/M
;
_chemical_formula_sum "Si O2"
_cell_formula_units_Z 32
_cell_length_a 15.207627
_cell_length_b 7.525199
_cell_length_c 12.154486
_cell_angle_alpha 90.000000
_cell_angle_beta 91.507947
_cell_angle_gamma 90.000000
_cell_volume 1390.482764
_symmetry_space_group_name_H-M "P 2/M"
_symmetry_group_IT_number 10
_symmetry_cell_setting 'monoclinic'
loop_
_space_group_symop_operation_xyz
x,y,z
-x,y,-z
-x,-y,-z
x,-y,z
loop_
_atom_site_type_symbol
_atom_site_label
_atom_site_fract_x
_atom_site_fract_y
_atom_site_fract_z
Si Si1 0.684370 0.783160 0.766871
Si Si2 0.089398 0.285668 0.444389
Si Si3 0.285983 0.209768 0.479061
Si Si4 0.648694 0.204314 0.294180
Si Si5 0.500652 0.782910 0.873523
Si Si6 0.172631 0.793374 0.052284
Si Si7 0.973459 0.715254 0.791419
Si Si8 0.170685 0.298536 0.804081
O O1 0.695979 0.717624 0.642410
O O2 0.590938 0.735297 0.815811
O O3 0.760577 0.723342 0.852818
O O4 0.689720 0.000000 0.763815
O O5 0.088847 0.500000 0.447489
O O6 0.181598 0.227268 0.497536
O O7 0.082262 0.228924 0.317009
O O8 0.000000 0.224750 0.500000
O O9 0.340539 0.285018 0.583695
O O10 0.305606 0.000000 0.475087
O O11 0.580821 0.281435 0.203496
O O12 0.745845 0.205094 0.245368
O O13 0.620244 0.000000 0.308824
O O14 0.496525 0.000000 0.878154
O O15 0.500000 0.721743 0.000000
O O16 0.076141 0.777814 0.101776
O O17 0.193348 0.000000 0.032748
O O18 0.180318 0.699999 0.936102
O O19 0.976437 0.500000 0.795449
O O20 0.073522 0.777879 0.780513
O O21 0.171291 0.500000 0.760426
#
# Coordination Sequence:
#
# PCOD9149669 Si02
#       8
#     4   4   4   4   4   4   4   4
#     4   9  18  33  55  83 115 148 182 228 285 337
#     4  10  20  35  55  77 106 150 198 233 270 329
#     4  10  20  35  54  82 115 144 184 235 283 331
#     4  10  21  36  57  84 111 143 187 234 280 331
#     4   9  17  32  56  84 113 146 185 229 280 337
#     4  11  21  35  57  83 113 146 185 231 281 335
#     4  10  21  36  53  77 109 147 191 232 276 333
#     4  11  23  38  56  78 111 150 187 231 283 335
#
# _framework density 23.013591000000002
#
# number of rings (size 3 to 8) (size 9 to 14) (size 15 to 20)
#    0.000    2.000    1.250    2.625    0.000    6.750 
#    0.000    2.500    0.000    4.875    0.000    1.750 
#    0.000    0.000    0.000    0.000    0.000    0.000 
#
# Total GULP energy -178893.084161 kJ/mol
# GULP energy per Si atom -5590.408880 kJ/mol
# Density = 2.296121 g / cm^3
# Si number density = 23.013591 Si / 1000 Ang^3
#
#
#
# Elastic Constant Matrix: (Units=GPa)
#
#
# Indices 1 2 3 4 5 6 
#
# 1 117.9212 -7.4332 47.1558 0.0000 22.3698 0.0000
# 2 -7.4332 61.3682 -3.7195 0.0000 4.9945 0.0000
# 3 47.1558 -3.7195 114.0220 0.0000 27.1567 0.0000
# 4 0.0000 0.0000 0.0000 6.3441 0.0000 -6.3158
# 5 22.3698 4.9945 27.1567 0.0000 42.1539 0.0000
# 6 0.0000 0.0000 0.0000 -6.3158 0.0000 30.0474
#
#
#
# Elastic Compliance Matrix: (Units=1/GPa)
#
#
# Indices 1 2 3 4 5 6 
#
# 1 0.010644 0.001365 -0.003513 0.000000 -0.003547 0.000000
# 2 0.001365 0.016765 0.000742 0.000000 -0.003189 0.000000
# 3 -0.003513 0.000742 0.011605 0.000000 -0.005700 0.000000
# 4 0.000000 0.000000 0.000000 0.199340 0.000000 0.041900
# 5 -0.003547 -0.003189 -0.005700 0.000000 0.029655 0.000000
# 6 0.000000 0.000000 0.000000 0.041900 0.000000 0.042088
#
#
# Mechanical properties :
#
#
# Convention : Reuss Voigt Hill
#
# Bulk Modulus (GPa) = 27.62289 40.59084 34.10686
# Shear Modulus (GPa) = 15.38578 32.86297 24.12437
#
# Velocity S-wave (km/s) = 2.58844 3.78296 3.24121
# Velocity P-wave (km/s) = 4.57846 6.06277 5.37212
#
# Compressibility (1/GPa) = 0.03620186
#
# Stress axis : x y z
#
# Youngs Moduli (GPa) = 93.95102 59.64850 86.17216
#
# Poissons Ratio (x) = -0.08142 0.30269
# Poissons Ratio (y) = -0.12825 -0.06392
# Poissons Ratio (z) = 0.33001 -0.04425
#
# Static dielectric constant tensor:
#      x y z
#    x 1.819180 0.000000 0.023890 
#    y 0.000000 1.282240 0.000000 
#    z 0.023890 0.000000 1.856780 
# 
# From -- ./inp_files/49801.got.cif
#   From: 2010.05.17/outbox.cif.g08.bks.cpg/sg10_25_cif.got.tgz:49801.got - 2010.06.03 11:33:40.
