data_PCOD9149137
_publ_section_title
;
Structure prediction by ZEFSAII (Michael W. Deem and Ramdas Pophale) SiO2 
 PCOD9149137
Probable space group: P 2/M
;
_chemical_formula_sum "Si O2"
_cell_formula_units_Z 32
_cell_length_a 20.577227
_cell_length_b 13.875524
_cell_length_c 15.839212
_cell_angle_alpha 90.000000
_cell_angle_beta 154.010626
_cell_angle_gamma 90.000000
_cell_volume 1981.739641
_symmetry_space_group_name_H-M "P 2/M"
_symmetry_group_IT_number 10
_symmetry_cell_setting 'monoclinic'
loop_
_space_group_symop_operation_xyz
x,y,z
-x,y,-z
-x,-y,-z
x,-y,z
loop_
_atom_site_type_symbol
_atom_site_label
_atom_site_fract_x
_atom_site_fract_y
_atom_site_fract_z
Si Si1 0.254182 0.110760 0.202205
Si Si2 0.531359 0.298102 0.284705
Si Si3 0.801286 0.385680 0.699426
Si Si4 0.048872 0.616794 0.464627
Si Si5 0.780871 0.615755 0.030032
Si Si6 0.891784 0.694426 0.986091
Si Si7 0.375708 0.614779 0.782427
Si Si8 0.522232 0.888541 0.382185
O O1 0.129944 0.191367 0.047821
O O2 0.343469 0.126178 0.394138
O O3 0.374523 0.123883 0.267371
O O4 0.203010 0.000000 0.140346
O O5 0.645648 0.352080 0.480657
O O6 0.585205 0.321638 0.253294
O O7 0.528426 0.188242 0.314424
O O8 0.368206 0.342140 0.104713
O O9 0.816802 0.500000 0.710611
O O10 0.825604 0.353628 0.824288
O O11 0.937258 0.336518 0.808249
O O12 0.048061 0.500000 0.466670
O O13 0.214894 0.642845 0.631225
O O14 0.000000 0.651629 0.500000
O O15 0.924469 0.645401 0.252022
O O16 0.772953 0.500000 0.019869
O O17 0.803048 0.655300 0.962190
O O18 0.371193 0.500000 0.753107
O O19 0.500000 0.624386 0.000000
O O20 0.526514 0.000000 0.359382
#
# Coordination Sequence:
#
# PCOD9149137 Si02
#       8
#     4   4   4   4   4   4   4   4
#     4   9  17  34  56  76 100 135 181 233 278 311
#     4  12  21  34  53  78 105 137 183 218 267 321
#     4  11  23  35  47  68 110 154 179 212 263 316
#     4   9  18  34  53  73 101 139 179 215 254 301
#     4  11  21  31  49  75 104 138 180 219 253 312
#     4  11  20  35  49  71 103 143 180 218 262 321
#     4  10  20  34  53  79 113 143 172 216 266 316
#     4   9  18  34  55  78 103 134 175 230 282 317
#
# _framework density 16.147428000000001
#
# number of rings (size 3 to 8) (size 9 to 14) (size 15 to 20)
#    0.000    1.750    2.500    4.875    0.000    3.500 
#    0.000    3.125    0.000    0.375    0.000    0.000 
#    0.000    3.500    0.000    0.000    0.000    0.000 
#
# Total GULP energy -178591.991405 kJ/mol
# GULP energy per Si atom -5580.999731 kJ/mol
# Density = 1.611068 g / cm^3
# Si number density = 16.147428 Si / 1000 Ang^3
#
#
#
# Elastic Constant Matrix: (Units=GPa)
#
#
# Indices 1 2 3 4 5 6 
#
# 1 103.1820 39.5787 37.1567 0.0000 7.4962 0.0000
# 2 39.5787 114.1280 37.6576 0.0000 2.8474 0.0000
# 3 37.1567 37.6576 94.4599 0.0000 16.6686 0.0000
# 4 0.0000 0.0000 0.0000 10.8183 0.0000 -2.4026
# 5 7.4962 2.8474 16.6686 0.0000 20.7383 0.0000
# 6 0.0000 0.0000 0.0000 -2.4026 0.0000 19.6446
#
#
#
# Elastic Compliance Matrix: (Units=1/GPa)
#
#
# Indices 1 2 3 4 5 6 
#
# 1 0.012169 -0.003091 -0.003325 0.000000 -0.001302 0.000000
# 2 -0.003091 0.010957 -0.003594 0.000000 0.002501 0.000000
# 3 -0.003325 -0.003594 0.015181 0.000000 -0.010507 0.000000
# 4 0.000000 0.000000 0.000000 0.095017 0.000000 0.011621
# 5 -0.001302 0.002501 -0.010507 0.000000 0.056792 0.000000
# 6 0.000000 0.000000 0.000000 0.011621 0.000000 0.052326
#
#
# Mechanical properties :
#
#
# Convention : Reuss Voigt Hill
#
# Bulk Modulus (GPa) = 54.67890 60.06176 57.37033
# Shear Modulus (GPa) = 18.61796 23.39868 21.00832
#
# Velocity S-wave (km/s) = 3.39927 3.81079 3.61090
# Velocity P-wave (km/s) = 7.02442 7.52592 7.27949
#
# Compressibility (1/GPa) = 0.01828859
#
# Stress axis : x y z
#
# Youngs Moduli (GPa) = 82.17587 91.26320 65.87073
#
# Poissons Ratio (x) = 0.28205 0.21902
# Poissons Ratio (y) = 0.25397 0.23674
# Poissons Ratio (z) = 0.27324 0.32800
#
# Static dielectric constant tensor:
#      x y z
#    x 1.546290 0.000000 0.011960 
#    y 0.000000 1.524520 0.000000 
#    z 0.011960 0.000000 1.540790 
# 
# From -- ./inp_files/69315.got.cif
#   From: 2010.05.17/outbox.cif.g08.bks.cpg/sg10_35_cif.got.tgz:69315.got - 2010.06.03 11:33:40.
