data_PCOD9149132
_publ_section_title
;
Structure prediction by ZEFSAII (Michael W. Deem and Ramdas Pophale) SiO2 
 PCOD9149132
Probable space group: P 2/M
;
_chemical_formula_sum "Si O2"
_cell_formula_units_Z 32
_cell_length_a 15.688453
_cell_length_b 24.307453
_cell_length_c 9.175390
_cell_angle_alpha 90.000000
_cell_angle_beta 27.972228
_cell_angle_gamma 90.000000
_cell_volume 1641.183945
_symmetry_space_group_name_H-M "P 2/M"
_symmetry_group_IT_number 10
_symmetry_cell_setting 'monoclinic'
loop_
_space_group_symop_operation_xyz
x,y,z
-x,y,-z
-x,-y,-z
x,-y,z
loop_
_atom_site_type_symbol
_atom_site_label
_atom_site_fract_x
_atom_site_fract_y
_atom_site_fract_z
Si Si1 0.660277 0.064996 0.369264
Si Si2 0.299527 0.660407 0.234371
Si Si3 0.318292 0.134836 0.368054
Si Si4 0.467845 0.336127 0.376963
Si Si5 0.035374 0.438563 0.616825
Si Si6 0.193699 0.743188 0.631431
Si Si7 0.971060 0.064827 0.372922
Si Si8 0.798831 0.563408 0.232760
O O1 0.500000 0.080033 0.500000
O O2 0.652846 0.099540 0.528433
O O3 0.642304 0.000000 0.431823
O O4 0.847249 0.072227 0.997671
O O5 0.179812 0.606956 0.441670
O O6 0.205627 0.710740 0.459788
O O7 0.500000 0.655263 0.000000
O O8 0.343864 0.666745 0.996904
O O9 0.238464 0.193552 0.535572
O O10 0.180867 0.101759 0.472100
O O11 0.500000 0.143262 0.000000
O O12 0.500000 0.334708 0.500000
O O13 0.343730 0.285752 0.507941
O O14 0.353757 0.391379 0.506850
O O15 0.103044 0.500000 0.550122
O O16 0.000000 0.435002 0.500000
O O17 0.848578 0.431769 0.986738
O O18 0.000000 0.736142 0.000000
O O19 0.000000 0.078158 0.500000
O O20 0.921230 0.000000 0.441385
O O21 0.746546 0.500000 0.343503
O O22 0.000000 0.573272 0.000000
#
# Coordination Sequence:
#
# PCOD9149132 Si02
#       8
#     4   4   4   4   4   4   4   4
#     4  10  21  38  62  94 130 167 206 248 296 352
#     4  10  21  37  57  81 110 143 184 231 284 341
#     4  12  24  40  63  90 123 161 204 253 305 359
#     4  11  22  37  59  86 115 146 187 241 297 349
#     4  10  20  34  53  79 110 143 181 225 276 337
#     4  11  24  44  63  80 110 152 198 242 291 353
#     4  10  21  39  63  94 130 165 205 249 298 358
#     4  10  20  35  56  81 112 151 190 228 282 353
#
# _framework density 19.498118000000002
#
# number of rings (size 3 to 8) (size 9 to 14) (size 15 to 20)
#    0.000    1.500    0.000    6.750    0.000    4.500 
#    0.000    4.375    0.000    0.000    0.000    0.000 
#    0.000    0.000    0.000    0.000    0.000    0.000 
#
# Total GULP energy -178796.560052 kJ/mol
# GULP energy per Si atom -5587.392502 kJ/mol
# Density = 1.945374 g / cm^3
# Si number density = 19.498118 Si / 1000 Ang^3
#
#
#
# Elastic Constant Matrix: (Units=GPa)
#
#
# Indices 1 2 3 4 5 6 
#
# 1 93.4339 53.0696 35.9329 0.0000 25.7688 0.0000
# 2 53.0696 106.1115 54.2195 0.0000 3.6748 0.0000
# 3 35.9329 54.2195 105.1980 0.0000 18.7970 0.0000
# 4 0.0000 0.0000 0.0000 32.5933 0.0000 1.2358
# 5 25.7688 3.6748 18.7970 0.0000 37.0851 0.0000
# 6 0.0000 0.0000 0.0000 1.2358 0.0000 -22.6062
#
#
#
# Elastic Compliance Matrix: (Units=1/GPa)
#
#
# Indices 1 2 3 4 5 6 
#
# 1 0.019481 -0.009602 0.000598 0.000000 -0.012888 0.000000
# 2 -0.009602 0.017704 -0.007393 0.000000 0.008665 0.000000
# 3 0.000598 -0.007393 0.014356 0.000000 -0.006959 0.000000
# 4 0.000000 0.000000 0.000000 0.030618 0.000000 0.001674
# 5 -0.012888 0.008665 -0.006959 0.000000 0.038589 0.000000
# 6 0.000000 0.000000 0.000000 0.001674 0.000000 -0.044144
#
#
# Mechanical properties :
#
#
# Convention : Reuss Voigt Hill
#
# Bulk Modulus (GPa) = 53.34627 65.68751 59.51689
# Shear Modulus (GPa) = 43.23469 20.18254 31.70861
#
# Velocity S-wave (km/s) = 4.71401 3.22079 4.03704
# Velocity P-wave (km/s) = 7.55303 6.89881 7.23332
#
# Compressibility (1/GPa) = 0.01874545
#
# Stress axis : x y z
#
# Youngs Moduli (GPa) = 51.33083 56.48428 69.65883
#
# Poissons Ratio (x) = 0.54238 -0.04163
# Poissons Ratio (y) = 0.49289 0.51500
# Poissons Ratio (z) = -0.03068 0.41760
#
# Static dielectric constant tensor:
#      x y z
#    x 1.709720 0.000000 0.032200 
#    y 0.000000 1.659230 0.000000 
#    z 0.032200 0.000000 1.700000 
# 
# From -- ./inp_files/30574.got.cif
#   From: 2010.05.17/outbox.cif.g08.bks.cpg/sg10_16_cif.got.tgz:30574.got - 2010.06.03 11:33:40.
