data_PCOD9149786
_publ_section_title
;
Structure prediction by ZEFSAII (Michael W. Deem and Ramdas Pophale) SiO2 
 PCOD9149786
Probable space group: P 2/M
;
_chemical_formula_sum "Si O2"
_cell_formula_units_Z 32
_cell_length_a 11.123679
_cell_length_b 15.018957
_cell_length_c 14.316418
_cell_angle_alpha 90.000000
_cell_angle_beta 31.938466
_cell_angle_gamma 90.000000
_cell_volume 1265.275152
_symmetry_space_group_name_H-M "P 2/M"
_symmetry_group_IT_number 10
_symmetry_cell_setting 'monoclinic'
loop_
_space_group_symop_operation_xyz
x,y,z
-x,y,-z
-x,-y,-z
x,-y,z
loop_
_atom_site_type_symbol
_atom_site_label
_atom_site_fract_x
_atom_site_fract_y
_atom_site_fract_z
Si Si1 0.781833 0.600315 0.415960
Si Si2 0.727448 0.103411 0.466641
Si Si3 0.031116 0.891326 0.871140
Si Si4 0.534479 0.106115 0.180755
Si Si5 0.963984 0.609139 0.917794
Si Si6 0.861207 0.167481 0.686262
Si Si7 0.539728 0.607227 0.750616
Si Si8 0.749010 0.359333 0.800966
O O1 0.696047 0.500000 0.456067
O O2 0.031533 0.594869 0.299804
O O3 0.617606 0.643687 0.599305
O O4 0.839213 0.643025 0.279495
O O5 0.776765 0.139155 0.329489
O O6 0.555250 0.141433 0.658953
O O7 0.968994 0.109607 0.362911
O O8 0.663776 0.000000 0.496472
O O9 0.050415 0.000000 0.859835
O O10 0.000000 0.864249 0.000000
O O11 0.786795 0.863788 0.991335
O O12 0.362740 0.124612 0.209959
O O13 0.543310 0.000000 0.186531
O O14 0.970441 0.500000 0.908330
O O15 0.711087 0.637953 0.055867
O O16 0.000000 0.634204 0.000000
O O17 0.790984 0.255278 0.787957
O O18 0.000000 0.191743 0.500000
O O19 0.529813 0.500000 0.749612
O O20 0.724224 0.628275 0.706521
O O21 0.500000 0.389624 0.000000
#
# Coordination Sequence:
#
# PCOD9149786 Si02
#       8
#     4   4   4   4   4   4   4   4
#     4  10  20  35  56  80 107 139 173 212 260 311
#     4   9  18  33  54  78 104 135 169 209 257 306
#     4   9  18  31  49  76 106 135 170 211 252 299
#     4   9  18  33  54  78 104 135 169 209 257 306
#     4   9  18  33  53  80 110 137 172 215 256 303
#     4  10  21  35  52  77 107 135 170 213 258 312
#     4  10  20  35  56  80 107 139 173 212 260 311
#     4  12  23  34  53  79 108 140 174 215 264 314
#
# _framework density 25.290941
#
# number of rings (size 3 to 8) (size 9 to 14) (size 15 to 20)
#    0.000    2.250    1.250    1.875    1.750    4.000 
#    0.000    6.875    0.000    3.000    0.000    3.500 
#    0.000    0.000    0.000    0.000    0.000    0.000 
#
# Total GULP energy -178779.098818 kJ/mol
# GULP energy per Si atom -5586.846838 kJ/mol
# Density = 2.523338 g / cm^3
# Si number density = 25.290941 Si / 1000 Ang^3
#
#
#
# Elastic Constant Matrix: (Units=GPa)
#
#
# Indices 1 2 3 4 5 6 
#
# 1 63.0225 -3.8306 9.5819 0.0000 24.2751 0.0000
# 2 -3.8306 64.0916 10.9210 0.0000 3.1375 0.0000
# 3 9.5819 10.9210 103.7682 0.0000 25.4509 0.0000
# 4 0.0000 0.0000 0.0000 -26.1630 0.0000 30.7430
# 5 24.2751 3.1375 25.4509 0.0000 48.7049 0.0000
# 6 0.0000 0.0000 0.0000 30.7430 0.0000 27.9915
#
#
#
# Elastic Compliance Matrix: (Units=1/GPa)
#
#
# Indices 1 2 3 4 5 6 
#
# 1 0.019838 0.001600 0.000516 0.000000 -0.010260 0.000000
# 2 0.001600 0.016018 -0.001588 0.000000 -0.000999 0.000000
# 3 0.000516 -0.001588 0.011234 0.000000 -0.006025 0.000000
# 4 0.000000 0.000000 0.000000 -0.016687 0.000000 0.018327
# 5 -0.010260 -0.000999 -0.006025 0.000000 0.028859 0.000000
# 6 0.000000 0.000000 0.000000 0.018327 0.000000 0.015597
#
#
# Mechanical properties :
#
#
# Convention : Reuss Voigt Hill
#
# Bulk Modulus (GPa) = 20.77015 29.35856 25.06436
# Shear Modulus (GPa) = 55.64710 24.38737 40.01724
#
# Velocity S-wave (km/s) = 4.69580 3.10864 3.98210
# Velocity P-wave (km/s) = 6.13441 4.95161 5.57447
#
# Compressibility (1/GPa) = 0.04814601
#
# Stress axis : x y z
#
# Youngs Moduli (GPa) = 50.40774 62.43022 89.01388
#
# Poissons Ratio (x) = -0.09989 -0.04596
# Poissons Ratio (y) = -0.08065 0.14139
# Poissons Ratio (z) = -0.02603 0.09917
#
# Static dielectric constant tensor:
#      x y z
#    x 2.016910 0.000000 0.025750 
#    y 0.000000 1.970500 0.000000 
#    z 0.025750 0.000000 2.020450 
# 
# From -- ./inp_files/65397.got.cif
#   From: 2010.05.17/outbox.cif.g08.bks.cpg/sg10_33_cif.got.tgz:65397.got - 2010.06.03 11:33:40.
