data_PCOD9149760
_publ_section_title
;
Structure prediction by ZEFSAII (Michael W. Deem and Ramdas Pophale) SiO2 
 PCOD9149760
Probable space group: P 2/M
;
_chemical_formula_sum "Si O2"
_cell_formula_units_Z 32
_cell_length_a 21.499434
_cell_length_b 17.801299
_cell_length_c 12.248545
_cell_angle_alpha 90.000000
_cell_angle_beta 22.021726
_cell_angle_gamma 90.000000
_cell_volume 1757.705114
_symmetry_space_group_name_H-M "P 2/M"
_symmetry_group_IT_number 10
_symmetry_cell_setting 'monoclinic'
loop_
_space_group_symop_operation_xyz
x,y,z
-x,y,-z
-x,-y,-z
x,-y,z
loop_
_atom_site_type_symbol
_atom_site_label
_atom_site_fract_x
_atom_site_fract_y
_atom_site_fract_z
Si Si1 0.616689 0.791513 0.719109
Si Si2 0.990555 0.586895 0.741175
Si Si3 0.486073 0.714826 0.721992
Si Si4 0.268314 0.415261 0.647829
Si Si5 0.189381 0.914107 0.734642
Si Si6 0.334148 0.842048 0.713386
Si Si7 0.862457 0.270072 0.811138
Si Si8 0.695140 0.365961 0.657846
O O1 0.505777 0.746235 0.811868
O O2 0.716698 0.853675 0.492435
O O3 0.721297 0.724238 0.604325
O O4 0.500000 0.826503 0.000000
O O5 0.960628 0.500000 0.752640
O O6 0.926616 0.656388 0.772087
O O7 0.185103 0.599076 0.447223
O O8 0.895157 0.595610 0.012899
O O9 0.591223 0.640160 0.539076
O O10 0.575972 0.775639 0.499859
O O11 0.299217 0.704674 0.992163
O O12 0.322053 0.500000 0.575105
O O13 0.252953 0.399045 0.544233
O O14 0.232227 0.891012 0.790471
O O15 0.245538 0.000000 0.627616
O O16 0.000000 0.910363 0.000000
O O17 0.500000 0.879337 0.500000
O O18 0.205686 0.798984 0.003066
O O19 0.000000 0.245331 0.500000
O O20 0.500000 0.379242 0.000000
#
# Coordination Sequence:
#
# PCOD9149760 Si02
#       8
#     4   4   4   4   4   4   4   4
#     4   9  20  35  61  85 112 149 189 225 277 341
#     4  11  24  38  53  80 112 151 197 240 300 349
#     4   9  19  38  54  81 109 142 194 238 280 337
#     4  10  20  35  56  76 105 147 189 238 291 346
#     4  10  22  37  59  95 127 149 180 230 290 343
#     4   9  19  40  62  81 112 157 198 231 272 344
#     4  11  24  36  57  80 111 146 193 248 288 335
#     4  10  22  37  56  83 111 147 194 243 283 341
#
# _framework density 18.205556999999999
#
# number of rings (size 3 to 8) (size 9 to 14) (size 15 to 20)
#    0.000    2.125    1.250    0.750    7.000    3.250 
#    0.000    1.250    0.000    0.375    0.000    0.000 
#    0.000    0.000    0.000    0.000    0.000    0.000 
#
# Total GULP energy -178325.423068 kJ/mol
# GULP energy per Si atom -5572.669471 kJ/mol
# Density = 1.816412 g / cm^3
# Si number density = 18.205557 Si / 1000 Ang^3
#
#
#
# Elastic Constant Matrix: (Units=GPa)
#
#
# Indices 1 2 3 4 5 6 
#
# 1 45.0855 26.5665 33.5029 0.0000 -4.9707 0.0000
# 2 26.5665 72.6022 29.4838 0.0000 -10.2668 0.0000
# 3 33.5029 29.4838 88.2057 0.0000 -3.5744 0.0000
# 4 0.0000 0.0000 0.0000 13.6245 0.0000 -0.4622
# 5 -4.9707 -10.2668 -3.5744 0.0000 35.9184 0.0000
# 6 0.0000 0.0000 0.0000 -0.4622 0.0000 7.4537
#
#
#
# Elastic Compliance Matrix: (Units=1/GPa)
#
#
# Indices 1 2 3 4 5 6 
#
# 1 0.035038 -0.008377 -0.010451 0.000000 0.001414 0.000000
# 2 -0.008377 0.018546 -0.002861 0.000000 0.003857 0.000000
# 3 -0.010451 -0.002861 0.016237 0.000000 -0.000648 0.000000
# 4 0.000000 0.000000 0.000000 0.073552 0.000000 0.004561
# 5 0.001414 0.003857 -0.000648 0.000000 0.029075 0.000000
# 6 0.000000 0.000000 0.000000 0.004561 0.000000 0.134444
#
#
# Mechanical properties :
#
#
# Convention : Reuss Voigt Hill
#
# Bulk Modulus (GPa) = 37.81723 42.77777 40.29750
# Shear Modulus (GPa) = 13.92429 19.15532 16.53981
#
# Velocity S-wave (km/s) = 2.76857 3.24723 3.01741
# Velocity P-wave (km/s) = 5.57112 6.13249 5.85854
#
# Compressibility (1/GPa) = 0.02644298
#
# Stress axis : x y z
#
# Youngs Moduli (GPa) = 28.54022 53.91880 61.58817
#
# Poissons Ratio (x) = 0.45168 0.64366
# Poissons Ratio (y) = 0.23908 0.17622
# Poissons Ratio (z) = 0.29828 0.15428
#
# Static dielectric constant tensor:
#      x y z
#    x 1.679400 0.000000 0.004320 
#    y 0.000000 1.603290 0.000000 
#    z 0.004320 0.000000 1.626310 
# 
# From -- ./inp_files/56135.got.cif
#   From: 2010.05.17/outbox.cif.g08.bks.cpg/sg10_29_cif.got.tgz:56135.got - 2010.06.03 11:33:40.
