data_PCOD9149781
_publ_section_title
;
Structure prediction by ZEFSAII (Michael W. Deem and Ramdas Pophale) SiO2 
 PCOD9149781
Probable space group: P 2/M
;
_chemical_formula_sum "Si O2"
_cell_formula_units_Z 32
_cell_length_a 18.645651
_cell_length_b 10.770007
_cell_length_c 8.277901
_cell_angle_alpha 90.000000
_cell_angle_beta 68.109963
_cell_angle_gamma 90.000000
_cell_volume 1542.465479
_symmetry_space_group_name_H-M "P 2/M"
_symmetry_group_IT_number 10
_symmetry_cell_setting 'monoclinic'
loop_
_space_group_symop_operation_xyz
x,y,z
-x,y,-z
-x,-y,-z
x,-y,z
loop_
_atom_site_type_symbol
_atom_site_label
_atom_site_fract_x
_atom_site_fract_y
_atom_site_fract_z
Si Si1 0.315686 0.647667 0.646800
Si Si2 0.148111 0.135236 0.109425
Si Si3 0.073746 0.141448 0.844871
Si Si4 0.616538 0.651418 0.058974
Si Si5 0.185364 0.730107 0.530331
Si Si6 0.916100 0.366386 0.653204
Si Si7 0.539132 0.640190 0.645358
Si Si8 0.296881 0.858820 0.195699
O O1 0.328221 0.500000 0.632573
O O2 0.334525 0.679033 0.816946
O O3 0.233078 0.673352 0.638296
O O4 0.380109 0.703530 0.468927
O O5 0.100152 0.247983 0.223291
O O6 0.234641 0.141202 0.101797
O O7 0.116886 0.000000 0.188259
O O8 0.140589 0.139332 0.923959
O O9 0.107758 0.208564 0.663453
O O10 0.053703 0.000000 0.819399
O O11 0.000000 0.196343 0.000000
O O12 0.621364 0.500000 0.025374
O O13 0.528072 0.686121 0.180128
O O14 0.647065 0.742851 0.893479
O O15 0.153080 0.638695 0.420625
O O16 0.242504 0.826772 0.394264
O O17 0.911775 0.500000 0.743048
O O18 0.000000 0.359126 0.500000
O O19 0.500000 0.632020 0.500000
O O20 0.554778 0.500000 0.691488
O O21 0.329173 0.000000 0.180834
#
# Coordination Sequence:
#
# PCOD9149781 Si02
#       8
#     4   4   4   4   4   4   4   4
#     4   9  17  31  54  84 110 133 171 222 266 305
#     4   9  19  35  54  75  97 129 174 216 257 308
#     4  10  20  35  56  79  99 124 169 227 275 316
#     4   9  17  32  57  83 106 138 178 217 259 310
#     4  11  21  34  53  76 106 140 174 214 265 319
#     4  10  21  36  52  73 104 139 171 206 254 312
#     4   7  12  26  50  79 107 133 168 215 260 302
#     4  10  21  35  51  74 108 146 179 214 258 311
#
# _framework density 20.746006999999999
#
# number of rings (size 3 to 8) (size 9 to 14) (size 15 to 20)
#    0.000    2.625    0.000    3.750    0.000    3.250 
#    0.000    2.500    0.000   11.250    0.000    0.000 
#    0.000    0.000    0.000    0.000    0.000    0.000 
#
# Total GULP energy -178201.554130 kJ/mol
# GULP energy per Si atom -5568.798567 kJ/mol
# Density = 2.069879 g / cm^3
# Si number density = 20.746007 Si / 1000 Ang^3
#
#
#
# Elastic Constant Matrix: (Units=GPa)
#
#
# Indices 1 2 3 4 5 6 
#
# 1 47.0226 2.2251 -0.8985 0.0000 0.5063 0.0000
# 2 2.2251 118.6562 50.8827 0.0000 -15.1650 0.0000
# 3 -0.8985 50.8827 86.2000 0.0000 -15.2946 0.0000
# 4 0.0000 0.0000 0.0000 2608.5205 0.0000 -447.7778
# 5 0.5063 -15.1650 -15.2946 0.0000 27.2351 0.0000
# 6 0.0000 0.0000 0.0000 -447.7778 0.0000 71.2237
#
#
#
# Elastic Compliance Matrix: (Units=1/GPa)
#
#
# Indices 1 2 3 4 5 6 
#
# 1 0.021315 -0.000696 0.000548 0.000000 -0.000476 0.000000
# 2 -0.000696 0.011506 -0.006286 0.000000 0.002889 0.000000
# 3 0.000548 -0.006286 0.016321 0.000000 0.005655 0.000000
# 4 0.000000 0.000000 0.000000 -0.004840 0.000000 -0.030427
# 5 -0.000476 0.002889 0.005655 0.000000 0.041511 0.000000
# 6 0.000000 0.000000 0.000000 -0.030427 0.000000 -0.177253
#
#
# Mechanical properties :
#
#
# Convention : Reuss Voigt Hill
#
# Bulk Modulus (GPa) = 27.56774 39.58858 33.57816
# Shear Modulus (GPa) = -75.20777 554.70717 239.74970
#
# Velocity S-wave (km/s) = -6.02747 16.36950 10.76174
# Velocity P-wave (km/s) = 5.92650 19.40116 13.06295
#
# Compressibility (1/GPa) = 0.03627428
#
# Stress axis : x y z
#
# Youngs Moduli (GPa) = 46.91555 86.91317 61.27188
#
# Poissons Ratio (x) = 0.06046 -0.03360
# Poissons Ratio (y) = 0.03264 0.38517
# Poissons Ratio (z) = -0.02573 0.54636
#
# Static dielectric constant tensor:
#      x y z
#    x 1.791080 0.000000 -0.007310 
#    y 0.000000 1.751130 0.000000 
#    z -0.007310 0.000000 1.765030 
# 
# From -- ./inp_files/34606.got.cif
#   From: 2010.05.17/outbox.cif.g08.bks.cpg/sg10_18_cif.got.tgz:34606.got - 2010.06.03 11:33:40.
