data_PCOD9149701
_publ_section_title
;
Structure prediction by ZEFSAII (Michael W. Deem and Ramdas Pophale) SiO2 
 PCOD9149701
Probable space group: P 2/M
;
_chemical_formula_sum "Si O2"
_cell_formula_units_Z 20
_cell_length_a 26.265896
_cell_length_b 8.061516
_cell_length_c 14.316874
_cell_angle_alpha 90.000000
_cell_angle_beta 161.956643
_cell_angle_gamma 90.000000
_cell_volume 938.965550
_symmetry_space_group_name_H-M "P 2/M"
_symmetry_group_IT_number 10
_symmetry_cell_setting 'monoclinic'
loop_
_space_group_symop_operation_xyz
x,y,z
-x,y,-z
-x,-y,-z
x,-y,z
loop_
_atom_site_type_symbol
_atom_site_label
_atom_site_fract_x
_atom_site_fract_y
_atom_site_fract_z
Si Si1 0.446874 0.177787 0.799768
Si Si2 0.324551 0.500000 0.642463
Si Si3 0.203034 0.196079 0.144616
Si Si4 0.017254 0.500000 0.916321
Si Si5 0.680087 0.199147 0.847886
Si Si6 0.570978 0.696633 0.844521
O O1 0.325744 0.333276 0.584142
O O2 0.595139 0.220816 0.988064
O O3 0.373810 0.000000 0.647524
O O4 0.500000 0.168215 0.000000
O O5 0.173292 0.500000 0.447495
O O6 0.500000 0.500000 0.000000
O O7 0.197804 0.236932 0.024084
O O8 0.395519 0.222737 0.507894
O O9 0.161264 0.000000 0.084410
O O10 0.100671 0.333548 0.021936
O O11 0.000000 0.500000 0.000000
O O12 0.500000 0.262022 0.500000
O O13 0.699173 0.266033 0.985788
O O14 0.671235 0.000000 0.838796
O O15 0.552884 0.500000 0.822860
#
# Coordination Sequence:
#
# PCOD9149701 Si02
#       6
#     4   2   4   2   4   4
#     4  10  20  35  55  78 106 142 185 233 281 328
#     4  10  22  40  57  79 111 143 188 239 283 338
#     4  10  21  36  52  77 116 152 186 230 279 336
#     4  12  24  36  56  85 113 149 194 231 289 346
#     4   8  16  29  47  74 109 150 187 223 272 335
#     4  11  18  28  52  82 115 152 186 228 283 336
#
# _framework density 21.300037
#
# number of rings (size 3 to 8) (size 9 to 14) (size 15 to 20)
#    0.000    2.000    2.000    4.200    1.400    2.400 
#    0.000    0.000    0.000    0.000    0.000   11.200 
#    0.000   20.800    0.000    0.000    0.000    0.000 
#
# Total GULP energy -111418.869557 kJ/mol
# GULP energy per Si atom -5570.943478 kJ/mol
# Density = 2.125156 g / cm^3
# Si number density = 21.300037 Si / 1000 Ang^3
#
#
#
# Elastic Constant Matrix: (Units=GPa)
#
#
# Indices 1 2 3 4 5 6 
#
# 1 201.9702 67.1570 26.2511 0.0000 22.5224 0.0000
# 2 67.1570 188.0612 20.2172 0.0000 30.0779 0.0000
# 3 26.2511 20.2172 42.3667 0.0000 13.1965 0.0000
# 4 0.0000 0.0000 0.0000 -1.5273 0.0000 0.0440
# 5 22.5224 30.0779 13.1965 0.0000 23.0098 0.0000
# 6 0.0000 0.0000 0.0000 0.0440 0.0000 27.6983
#
#
#
# Elastic Compliance Matrix: (Units=1/GPa)
#
#
# Indices 1 2 3 4 5 6 
#
# 1 0.006031 -0.001486 -0.002184 0.000000 -0.002709 0.000000
# 2 -0.001486 0.007100 -0.000036 0.000000 -0.007806 0.000000
# 3 -0.002184 -0.000036 0.029577 0.000000 -0.014778 0.000000
# 4 0.000000 0.000000 0.000000 -0.654735 0.000000 0.001039
# 5 -0.002709 -0.007806 -0.014778 0.000000 0.064790 0.000000
# 6 0.000000 0.000000 0.000000 0.001039 0.000000 0.036102
#
#
# Mechanical properties :
#
#
# Convention : Reuss Voigt Hill
#
# Bulk Modulus (GPa) = 28.33161 73.29429 50.81295
# Shear Modulus (GPa) = -10.16351 31.08769 10.46209
#
# Velocity S-wave (km/s) = -2.18677 3.82450 2.21866
# Velocity P-wave (km/s) = 2.63707 7.34762 5.52004
#
# Compressibility (1/GPa) = 0.03529626
#
# Stress axis : x y z
#
# Youngs Moduli (GPa) = 165.80451 140.83717 33.80995
#
# Poissons Ratio (x) = 0.20925 0.07385
# Poissons Ratio (y) = 0.24634 0.00122
# Poissons Ratio (z) = 0.36218 0.00509
#
# Static dielectric constant tensor:
#      x y z
#    x 1.931200 0.000000 -0.054530 
#    y 0.000000 1.812530 0.000000 
#    z -0.054530 0.000000 1.834460 
# 
# From -- ./inp_files/71261.got.cif
#   From: 2010.05.17/outbox.cif.g08.bks.cpg/sg10_36_cif.got.tgz:71261.got - 2010.06.03 11:33:40.
