data_PCOD9149281
_publ_section_title
;
Structure prediction by ZEFSAII (Michael W. Deem and Ramdas Pophale) SiO2 
 PCOD9149281
Probable space group: P 2/M
;
_chemical_formula_sum "Si O2"
_cell_formula_units_Z 23
_cell_length_a 22.909409
_cell_length_b 10.773202
_cell_length_c 22.311850
_cell_angle_alpha 90.000000
_cell_angle_beta 167.101743
_cell_angle_gamma 90.000000
_cell_volume 1229.216197
_symmetry_space_group_name_H-M "P 2/M"
_symmetry_group_IT_number 10
_symmetry_cell_setting 'monoclinic'
loop_
_space_group_symop_operation_xyz
x,y,z
-x,y,-z
-x,-y,-z
x,-y,z
loop_
_atom_site_type_symbol
_atom_site_label
_atom_site_fract_x
_atom_site_fract_y
_atom_site_fract_z
Si Si1 0.022118 0.500000 0.223469
Si Si2 0.000000 0.500000 0.000000
Si Si3 0.249101 0.500000 0.788928
Si Si4 0.913442 0.703397 0.812697
Si Si5 0.938270 0.146466 0.509372
Si Si6 0.476448 0.500000 0.190783
Si Si7 0.585020 0.721213 0.965265
Si Si8 0.427910 0.145241 0.357332
O O1 0.018577 0.620092 0.176724
O O2 0.281334 0.500000 0.522206
O O3 0.782863 0.500000 0.029239
O O4 0.110409 0.607524 0.156216
O O5 0.000000 0.500000 0.500000
O O6 0.500000 0.500000 0.000000
O O7 0.267459 0.621769 0.845850
O O8 0.645330 0.778214 0.538854
O O9 0.146887 0.796841 0.062406
O O10 0.000000 0.171768 0.500000
O O11 0.685284 0.225246 0.278109
O O12 0.874293 0.000000 0.448682
O O13 0.189356 0.173114 0.804315
O O14 0.479559 0.629211 0.155341
O O15 0.500000 0.158248 0.500000
O O16 0.433821 0.000000 0.348844
#
# Coordination Sequence:
#
# PCOD9149281 Si02
#       8
#     2   1   2   4   4   2   4   4
#     4  11  24  42  64  86 113 155 197 260 312 334
#     4  10  20  34  54  88 120 142 190 240 294 366
#     4  11  20  31  52  83 116 140 178 231 288 347
#     4  11  22  37  60  89 120 156 194 245 301 363
#     4  11  22  37  59  91 128 158 188 232 294 366
#     4  11  24  44  63  85 112 153 210 258 298 340
#     4  11  22  37  60  84 114 158 196 241 290 348
#     4  11  21  36  58  88 126 161 188 221 282 366
#
# _framework density 18.711110999999999
#
# number of rings (size 3 to 8) (size 9 to 14) (size 15 to 20)
#    0.000    1.043    1.739    6.261    0.000    8.348 
#    0.000    1.304    0.000   20.870    0.000    0.000 
#    0.000    0.000    0.000    0.000    0.000    0.000 
#
# Total GULP energy -128053.980172 kJ/mol
# GULP energy per Si atom -5567.564355 kJ/mol
# Density = 1.866852 g / cm^3
# Si number density = 18.711111 Si / 1000 Ang^3
#
#
#
# Elastic Constant Matrix: (Units=GPa)
#
#
# Indices 1 2 3 4 5 6 
#
# 1 43.1538 29.1551 -1.7598 0.0000 -2.5083 0.0000
# 2 29.1551 118.8890 16.0625 0.0000 11.2035 0.0000
# 3 -1.7598 16.0625 86.5045 0.0000 5.3860 0.0000
# 4 0.0000 0.0000 0.0000 8.6478 0.0000 5.4051
# 5 -2.5083 11.2035 5.3860 0.0000 35.7538 0.0000
# 6 0.0000 0.0000 0.0000 5.4051 0.0000 32.7074
#
#
#
# Elastic Compliance Matrix: (Units=1/GPa)
#
#
# Indices 1 2 3 4 5 6 
#
# 1 0.028656 -0.007654 0.001746 0.000000 0.004146 0.000000
# 2 -0.007654 0.010896 -0.001951 0.000000 -0.003657 0.000000
# 3 0.001746 -0.001951 0.012025 0.000000 -0.001078 0.000000
# 4 0.000000 0.000000 0.000000 0.128956 0.000000 -0.021311
# 5 0.004146 -0.003657 -0.001078 0.000000 0.029568 0.000000
# 6 0.000000 0.000000 0.000000 -0.021311 0.000000 0.034096
#
#
# Mechanical properties :
#
#
# Convention : Reuss Voigt Hill
#
# Bulk Modulus (GPa) = 27.88669 37.27362 32.58016
# Shear Modulus (GPa) = 18.39120 29.09444 23.74282
#
# Velocity S-wave (km/s) = 3.13853 3.94754 3.56605
# Velocity P-wave (km/s) = 5.29811 6.38288 5.86563
#
# Compressibility (1/GPa) = 0.03585940
#
# Stress axis : x y z
#
# Youngs Moduli (GPa) = 34.89650 91.77300 83.15990
#
# Poissons Ratio (x) = 0.70242 -0.14520
# Poissons Ratio (y) = 0.26709 0.16227
# Poissons Ratio (z) = -0.06093 0.17907
#
# Static dielectric constant tensor:
#      x y z
#    x 1.662840 0.000000 0.007040 
#    y 0.000000 1.246090 0.000000 
#    z 0.007040 0.000000 1.624370 
# 
# From -- ./inp_files/90763.got.cif
#   From: 2010.05.17/outbox.cif.g08.bks.cpg/sg10_46_cif.got.tgz:90763.got - 2010.06.03 11:33:40.
