data_PCOD9149333
_publ_section_title
;
Structure prediction by ZEFSAII (Michael W. Deem and Ramdas Pophale) SiO2 
 PCOD9149333
Probable space group: P 2/M
;
_chemical_formula_sum "Si O2"
_cell_formula_units_Z 24
_cell_length_a 9.714142
_cell_length_b 7.500123
_cell_length_c 13.450209
_cell_angle_alpha 90.000000
_cell_angle_beta 101.040821
_cell_angle_gamma 90.000000
_cell_volume 961.807554
_symmetry_space_group_name_H-M "P 2/M"
_symmetry_group_IT_number 10
_symmetry_cell_setting 'monoclinic'
loop_
_space_group_symop_operation_xyz
x,y,z
-x,y,-z
-x,-y,-z
x,-y,z
loop_
_atom_site_type_symbol
_atom_site_label
_atom_site_fract_x
_atom_site_fract_y
_atom_site_fract_z
Si Si1 0.713892 0.796304 0.069539
Si Si2 0.344733 0.784148 0.511351
Si Si3 0.999645 0.709510 0.179849
Si Si4 0.688971 0.784567 0.848769
Si Si5 0.394564 0.217268 0.735217
Si Si6 0.951289 0.707767 0.598078
O O1 0.669626 0.717912 0.169669
O O2 0.882791 0.795425 0.094205
O O3 0.662092 0.000000 0.064279
O O4 0.664112 0.718241 0.958256
O O5 0.500000 0.728820 0.500000
O O6 0.324510 0.723845 0.622969
O O7 0.217249 0.718874 0.426773
O O8 0.341297 0.000000 0.506967
O O9 0.967770 0.500000 0.176330
O O10 0.158673 0.729209 0.166472
O O11 0.990936 0.784601 0.291136
O O12 0.558832 0.733239 0.761700
O O13 0.689931 0.000000 0.852448
O O14 0.386019 0.000000 0.732776
O O15 0.991889 0.500000 0.603200
O O16 0.000000 0.789071 0.500000
#
# Coordination Sequence:
#
# PCOD9149333 Si02
#       6
#     4   4   4   4   4   4
#     4  10  20  35  57  82 106 139 181 219 260 312
#     4  10  20  34  55  83 111 139 173 217 268 316
#     4  11  23  37  54  78 109 143 177 218 267 314
#     4  10  20  36  58  81 107 140 177 218 263 314
#     4   9  18  34  56  82 110 138 174 220 265 312
#     4  10  22  39  56  76 105 142 182 220 261 313
#
# _framework density 24.953015000000001
#
# number of rings (size 3 to 8) (size 9 to 14) (size 15 to 20)
#    0.000    2.000    0.000    3.500    0.000    8.000 
#    0.000    1.667    0.000    2.000    0.000    0.000 
#    0.000    0.000    0.000    0.000    0.000    0.000 
#
# Total GULP energy -134279.384805 kJ/mol
# GULP energy per Si atom -5594.974367 kJ/mol
# Density = 2.489622 g / cm^3
# Si number density = 24.953015 Si / 1000 Ang^3
#
#
#
# Elastic Constant Matrix: (Units=GPa)
#
#
# Indices 1 2 3 4 5 6 
#
# 1 72.2569 -5.9349 -13.2417 0.0000 5.3773 0.0000
# 2 -5.9349 77.6709 3.4148 0.0000 -2.3143 0.0000
# 3 -13.2417 3.4148 99.5676 0.0000 9.9557 0.0000
# 4 0.0000 0.0000 0.0000 3.0972 0.0000 -0.1825
# 5 5.3773 -2.3143 9.9557 0.0000 48.6156 0.0000
# 6 0.0000 0.0000 0.0000 -0.1825 0.0000 18.9264
#
#
#
# Elastic Compliance Matrix: (Units=1/GPa)
#
#
# Indices 1 2 3 4 5 6 
#
# 1 0.014448 0.000953 0.002087 0.000000 -0.001980 0.000000
# 2 0.000953 0.012982 -0.000377 0.000000 0.000590 0.000000
# 3 0.002087 -0.000377 0.010575 0.000000 -0.002414 0.000000
# 4 0.000000 0.000000 0.000000 0.323055 0.000000 0.003115
# 5 -0.001980 0.000590 -0.002414 0.000000 0.021311 0.000000
# 6 0.000000 0.000000 0.000000 0.003115 0.000000 0.052866
#
#
# Mechanical properties :
#
#
# Convention : Reuss Voigt Hill
#
# Bulk Modulus (GPa) = 23.07891 24.21910 23.64900
# Shear Modulus (GPa) = 11.25225 31.81164 21.53194
#
# Velocity S-wave (km/s) = 2.12583 3.57439 2.94070
# Velocity P-wave (km/s) = 3.91083 5.17320 4.58566
#
# Compressibility (1/GPa) = 0.04332960
#
# Stress axis : x y z
#
# Youngs Moduli (GPa) = 69.21592 77.03065 94.55994
#
# Poissons Ratio (x) = -0.07343 -0.19732
# Poissons Ratio (y) = -0.06598 0.03569
# Poissons Ratio (z) = -0.14443 0.02907
#
# Static dielectric constant tensor:
#      x y z
#    x 1.965580 0.000000 -0.050530 
#    y 0.000000 1.978270 0.000000 
#    z -0.050530 0.000000 1.952770 
# 
# From -- ./inp_files/27342.got.cif
#   From: 2010.05.17/outbox.cif.g08.bks.cpg/sg10_14_cif.got.tgz:27342.got - 2010.06.03 11:33:40.
