data_PCOD9149052
_publ_section_title
;
Structure prediction by ZEFSAII (Michael W. Deem and Ramdas Pophale) SiO2 
 PCOD9149052
Probable space group: P 2/M
;
_chemical_formula_sum "Si O2"
_cell_formula_units_Z 24
_cell_length_a 11.960926
_cell_length_b 8.575379
_cell_length_c 27.380969
_cell_angle_alpha 90.000000
_cell_angle_beta 151.630848
_cell_angle_gamma 90.000000
_cell_volume 1334.437279
_symmetry_space_group_name_H-M "P 2/M"
_symmetry_group_IT_number 10
_symmetry_cell_setting 'monoclinic'
loop_
_space_group_symop_operation_xyz
x,y,z
-x,y,-z
-x,-y,-z
x,-y,z
loop_
_atom_site_type_symbol
_atom_site_label
_atom_site_fract_x
_atom_site_fract_y
_atom_site_fract_z
Si Si1 0.604168 0.314682 0.987026
Si Si2 0.762993 0.326211 0.878892
Si Si3 0.620628 0.185625 0.196642
Si Si4 0.911052 0.313236 0.390073
Si Si5 0.356450 0.811528 0.618207
Si Si6 0.125514 0.180622 0.177462
O O1 0.589740 0.500000 0.973565
O O2 0.879865 0.267434 0.091862
O O3 0.500000 0.276192 0.000000
O O4 0.449340 0.234630 0.885021
O O5 0.702809 0.500000 0.836187
O O6 0.574629 0.266448 0.844641
O O7 0.815126 0.203832 0.856693
O O8 0.000000 0.341367 0.000000
O O9 0.852811 0.247225 0.313876
O O10 0.611951 0.000000 0.197060
O O11 0.906192 0.500000 0.387915
O O12 0.722602 0.253039 0.358723
O O13 0.159559 0.251514 0.505751
O O14 0.621456 0.765516 0.703917
O O15 0.347964 0.000000 0.617604
O O16 0.090127 0.000000 0.176215
#
# Coordination Sequence:
#
# PCOD9149052 Si02
#       6
#     4   4   4   4   4   4
#     4  11  25  43  61  82 110 146 190 239 287 336
#     4  11  21  32  51  80 115 149 184 226 277 337
#     4  12  23  36  57  82 114 150 187 232 283 338
#     4  11  21  33  53  81 116 155 191 226 274 335
#     4  10  20  34  52  80 119 154 188 228 274 331
#     4  11  22  35  57  84 115 151 186 229 281 337
#
# _framework density 17.985109000000001
#
# number of rings (size 3 to 8) (size 9 to 14) (size 15 to 20)
#    0.000    1.000    3.333    6.000    0.000    4.000 
#    0.000    0.000    0.000    1.000    0.000    7.000 
#    0.000    0.000    0.000    0.000    0.000    0.000 
#
# Total GULP energy -133888.032111 kJ/mol
# GULP energy per Si atom -5578.668005 kJ/mol
# Density = 1.794417 g / cm^3
# Si number density = 17.985109 Si / 1000 Ang^3
#
#
#
# Elastic Constant Matrix: (Units=GPa)
#
#
# Indices 1 2 3 4 5 6 
#
# 1 39.9841 0.4272 31.1746 0.0000 -5.0545 0.0000
# 2 0.4272 54.9149 30.7077 0.0000 -4.6710 0.0000
# 3 31.1746 30.7077 137.1451 0.0000 -2.4663 0.0000
# 4 0.0000 0.0000 0.0000 46.2580 0.0000 -5.1240
# 5 -5.0545 -4.6710 -2.4663 0.0000 10.8534 0.0000
# 6 0.0000 0.0000 0.0000 -5.1240 0.0000 77.4408
#
#
#
# Elastic Compliance Matrix: (Units=1/GPa)
#
#
# Indices 1 2 3 4 5 6 
#
# 1 0.033830 0.006017 -0.008743 0.000000 0.016358 0.000000
# 2 0.006017 0.022590 -0.006226 0.000000 0.011109 0.000000
# 3 -0.008743 -0.006226 0.010595 0.000000 -0.004344 0.000000
# 4 0.000000 0.000000 0.000000 0.021778 0.000000 0.001441
# 5 0.016358 0.011109 -0.004344 0.000000 0.103549 0.000000
# 6 0.000000 0.000000 0.000000 0.001441 0.000000 0.013008
#
#
# Mechanical properties :
#
#
# Convention : Reuss Voigt Hill
#
# Bulk Modulus (GPa) = 20.36197 39.62922 29.99559
# Shear Modulus (GPa) = 20.86600 38.22607 29.54603
#
# Velocity S-wave (km/s) = 3.40984 4.61524 4.05755
# Velocity P-wave (km/s) = 5.18158 7.10513 6.21819
#
# Compressibility (1/GPa) = 0.04911117
#
# Stress axis : x y z
#
# Youngs Moduli (GPa) = 29.55927 44.26813 94.38517
#
# Poissons Ratio (x) = -0.26637 0.82522
# Poissons Ratio (y) = -0.17787 0.58764
# Poissons Ratio (z) = 0.25844 0.27561
#
# Static dielectric constant tensor:
#      x y z
#    x 1.582090 0.000000 0.018550 
#    y 0.000000 1.615650 0.000000 
#    z 0.018550 0.000000 1.721260 
# 
# From -- ./inp_files/88741.got.cif
#   From: 2010.05.17/outbox.cif.g08.bks.cpg/sg10_45_cif.got.tgz:88741.got - 2010.06.03 11:33:40.
