data_PCOD9149520
_publ_section_title
;
Structure prediction by ZEFSAII (Michael W. Deem and Ramdas Pophale) SiO2 
 PCOD9149520
Probable space group: P 2/M
;
_chemical_formula_sum "Si O2"
_cell_formula_units_Z 26
_cell_length_a 21.868049
_cell_length_b 10.155461
_cell_length_c 8.345203
_cell_angle_alpha 90.000000
_cell_angle_beta 46.874982
_cell_angle_gamma 90.000000
_cell_volume 1352.659369
_symmetry_space_group_name_H-M "P 2/M"
_symmetry_group_IT_number 10
_symmetry_cell_setting 'monoclinic'
loop_
_space_group_symop_operation_xyz
x,y,z
-x,y,-z
-x,-y,-z
x,-y,z
loop_
_atom_site_type_symbol
_atom_site_label
_atom_site_fract_x
_atom_site_fract_y
_atom_site_fract_z
Si Si1 0.612273 0.845488 0.147884
Si Si2 0.227042 0.848085 0.362002
Si Si3 0.049481 0.842794 0.566698
Si Si4 0.515325 0.649808 0.784245
Si Si5 0.000000 0.273004 0.000000
Si Si6 0.678316 0.350510 0.295114
Si Si7 0.813246 0.354474 0.295293
O O1 0.533581 0.761638 0.226005
O O2 0.650309 0.764079 0.227323
O O3 0.594334 0.000000 0.213109
O O4 0.684755 0.840136 0.883853
O O5 0.148514 0.809231 0.389111
O O6 0.221336 0.755140 0.524217
O O7 0.212932 0.000000 0.435036
O O8 0.016286 0.803072 0.802847
O O9 0.000000 0.788373 0.500000
O O10 0.042921 0.000000 0.570076
O O11 0.486152 0.500000 0.795169
O O12 0.612486 0.654814 0.560464
O O13 0.500000 0.668860 0.000000
O O14 0.913460 0.348284 0.122069
O O15 0.671375 0.500000 0.239263
O O16 0.771290 0.332654 0.197909
O O17 0.785903 0.500000 0.396996
#
# Coordination Sequence:
#
# PCOD9149520 Si02
#       7
#     4   4   4   4   2   4   4
#     4  11  23  37  57  86 120 150 184 238 294 339
#     4   9  20  37  55  81 112 146 190 234 284 343
#     4   9  18  33  55  81 113 153 199 241 286 354
#     4  10  21  39  62  84 110 150 196 235 277 340
#     4  10  20  34  58  86 119 152 193 250 311 346
#     4  10  22  38  57  83 113 151 194 232 278 347
#     4  10  21  38  60  84 115 151 192 239 293 347
#
# _framework density 19.221395000000001
#
# number of rings (size 3 to 8) (size 9 to 14) (size 15 to 20)
#    0.000    2.154    0.000    2.308    2.154    6.462 
#    0.000    0.000    0.000    2.308    0.000    0.000 
#    0.000    0.000    0.000    0.000    0.000    0.000 
#
# Total GULP energy -144938.238720 kJ/mol
# GULP energy per Si atom -5574.547643 kJ/mol
# Density = 1.917765 g / cm^3
# Si number density = 19.221395 Si / 1000 Ang^3
#
#
#
# Elastic Constant Matrix: (Units=GPa)
#
#
# Indices 1 2 3 4 5 6 
#
# 1 112.5284 52.6481 11.8091 0.0000 -7.4661 0.0000
# 2 52.6481 88.4606 12.6084 0.0000 -3.8030 0.0000
# 3 11.8091 12.6084 43.5104 0.0000 -6.4864 0.0000
# 4 0.0000 0.0000 0.0000 20.7731 0.0000 4.3800
# 5 -7.4661 -3.8030 -6.4864 0.0000 22.3675 0.0000
# 6 0.0000 0.0000 0.0000 4.3800 0.0000 26.3597
#
#
#
# Elastic Compliance Matrix: (Units=1/GPa)
#
#
# Indices 1 2 3 4 5 6 
#
# 1 0.012537 -0.007216 -0.000910 0.000000 0.002694 0.000000
# 2 -0.007216 0.015969 -0.002742 0.000000 -0.000489 0.000000
# 3 -0.000910 -0.002742 0.024990 0.000000 0.006477 0.000000
# 4 0.000000 0.000000 0.000000 0.049887 0.000000 -0.008289
# 5 0.002694 -0.000489 0.006477 0.000000 0.047402 0.000000
# 6 0.000000 0.000000 0.000000 -0.008289 0.000000 0.039314
#
#
# Mechanical properties :
#
#
# Convention : Reuss Voigt Hill
#
# Bulk Modulus (GPa) = 31.48578 44.29228 37.88903
# Shear Modulus (GPa) = 22.47986 25.06234 23.77110
#
# Velocity S-wave (km/s) = 3.42354 3.61484 3.52049
# Velocity P-wave (km/s) = 5.66071 6.36522 6.02327
#
# Compressibility (1/GPa) = 0.03176037
#
# Stress axis : x y z
#
# Youngs Moduli (GPa) = 79.76403 62.62175 40.01591
#
# Poissons Ratio (x) = 0.45188 0.03641
# Poissons Ratio (y) = 0.57557 0.10972
# Poissons Ratio (z) = 0.07259 0.17170
#
# Static dielectric constant tensor:
#      x y z
#    x 1.696490 0.000000 -0.016130 
#    y 0.000000 1.654720 0.000000 
#    z -0.016130 0.000000 1.660940 
# 
# From -- ./inp_files/34219.got.cif
#   From: 2010.05.17/outbox.cif.g08.bks.cpg/sg10_18_cif.got.tgz:34219.got - 2010.06.03 11:33:40.
