data_PCOD9149845
_publ_section_title
;
Structure prediction by ZEFSAII (Michael W. Deem and Ramdas Pophale) SiO2 
 PCOD9149845
Probable space group: P 2/M
;
_chemical_formula_sum "Si O2"
_cell_formula_units_Z 28
_cell_length_a 19.352838
_cell_length_b 8.824833
_cell_length_c 14.589960
_cell_angle_alpha 90.000000
_cell_angle_beta 35.635472
_cell_angle_gamma 90.000000
_cell_volume 1451.761608
_symmetry_space_group_name_H-M "P 2/M"
_symmetry_group_IT_number 10
_symmetry_cell_setting 'monoclinic'
loop_
_space_group_symop_operation_xyz
x,y,z
-x,y,-z
-x,-y,-z
x,-y,z
loop_
_atom_site_type_symbol
_atom_site_label
_atom_site_fract_x
_atom_site_fract_y
_atom_site_fract_z
Si Si1 0.244927 0.675782 0.576970
Si Si2 0.864906 0.181999 0.129540
Si Si3 0.197400 0.181017 0.007169
Si Si4 0.966280 0.322744 0.345059
Si Si5 0.596470 0.682251 0.758044
Si Si6 0.203126 0.820100 0.329381
Si Si7 0.324250 0.680295 0.029935
O O1 0.255620 0.500000 0.591452
O O2 0.215277 0.769165 0.698919
O O3 0.135638 0.688796 0.623182
O O4 0.358529 0.718217 0.393276
O O5 0.870649 0.000000 0.120517
O O6 0.816169 0.232528 0.083471
O O7 0.000000 0.238626 0.000000
O O8 0.300809 0.259795 0.953320
O O9 0.076865 0.229399 0.188598
O O10 0.210890 0.000000 0.994992
O O11 0.996644 0.500000 0.323544
O O12 0.907850 0.256979 0.500071
O O13 0.614988 0.500000 0.752171
O O14 0.681669 0.770647 0.735154
O O15 0.458194 0.715653 0.917048
O O16 0.230993 0.757734 0.198795
O O17 0.189114 0.000000 0.344135
O O18 0.309754 0.500000 0.049326
#
# Coordination Sequence:
#
# PCOD9149845 Si02
#       7
#     4   4   4   4   4   4   4
#     4   9  18  33  57  86 111 139 185 235 274 321
#     4  10  20  35  56  83 115 148 181 222 281 340
#     4  11  23  38  56  82 117 149 187 234 282 337
#     4  10  20  36  57  84 115 148 188 230 280 335
#     4   9  20  39  60  84 113 148 190 235 277 326
#     4  11  22  36  59  88 115 145 187 234 281 331
#     4  11  23  40  59  79 112 154 192 231 280 333
#
# _framework density 19.286912999999998
#
# number of rings (size 3 to 8) (size 9 to 14) (size 15 to 20)
#    0.000    1.857    1.429    3.857    0.000    7.143 
#    0.000    3.571    0.000    4.286    0.000    0.000 
#    0.000    0.000    0.000    0.000    0.000    0.000 
#
# Total GULP energy -156437.541559 kJ/mol
# GULP energy per Si atom -5587.055056 kJ/mol
# Density = 1.924302 g / cm^3
# Si number density = 19.286913 Si / 1000 Ang^3
#
#
#
# Elastic Constant Matrix: (Units=GPa)
#
#
# Indices 1 2 3 4 5 6 
#
# 1 59.0146 13.2967 6.0033 0.0000 26.5337 0.0000
# 2 13.2967 27.4210 4.6821 0.0000 10.1392 0.0000
# 3 6.0033 4.6821 56.1690 0.0000 20.0464 0.0000
# 4 0.0000 0.0000 0.0000 26.5220 0.0000 -0.2834
# 5 26.5337 10.1392 20.0464 0.0000 27.9454 0.0000
# 6 0.0000 0.0000 0.0000 -0.2834 0.0000 24.8623
#
#
#
# Elastic Compliance Matrix: (Units=1/GPa)
#
#
# Indices 1 2 3 4 5 6 
#
# 1 0.034001 -0.004126 0.010346 0.000000 -0.038208 0.000000
# 2 -0.004126 0.042907 0.001374 0.000000 -0.012635 0.000000
# 3 0.010346 0.001374 0.027241 0.000000 -0.029863 0.000000
# 4 0.000000 0.000000 0.000000 0.037709 0.000000 0.000430
# 5 -0.038208 -0.012635 -0.029863 0.000000 0.098068 0.000000
# 6 0.000000 0.000000 0.000000 0.000430 0.000000 0.040226
#
#
# Mechanical properties :
#
#
# Convention : Reuss Voigt Hill
#
# Bulk Modulus (GPa) = 8.37971 21.17431 14.77701
# Shear Modulus (GPa) = 16.40724 23.77411 20.09068
#
# Velocity S-wave (km/s) = 2.91983 3.51473 3.23100
# Velocity P-wave (km/s) = 3.96502 5.24152 4.64731
#
# Compressibility (1/GPa) = 0.11933587
#
# Stress axis : x y z
#
# Youngs Moduli (GPa) = 29.41093 23.30641 36.70926
#
# Poissons Ratio (x) = 0.09617 -0.37980
# Poissons Ratio (y) = 0.12136 -0.05043
# Poissons Ratio (z) = -0.30429 -0.03202
#
# Static dielectric constant tensor:
#      x y z
#    x 1.694530 0.000000 -0.006400 
#    y 0.000000 1.642310 0.000000 
#    z -0.006400 0.000000 1.663360 
# 
# From -- ./inp_files/70179.got.cif
#   From: 2010.05.17/outbox.cif.g08.bks.cpg/sg10_36_cif.got.tgz:70179.got - 2010.06.03 11:33:40.
