data_PCOD9149699
_publ_section_title
;
Structure prediction by ZEFSAII (Michael W. Deem and Ramdas Pophale) SiO2 
 PCOD9149699
Probable space group: P 2/M
;
_chemical_formula_sum "Si O2"
_cell_formula_units_Z 30
_cell_length_a 14.029201
_cell_length_b 9.489789
_cell_length_c 13.624465
_cell_angle_alpha 90.000000
_cell_angle_beta 134.391907
_cell_angle_gamma 90.000000
_cell_volume 1296.148143
_symmetry_space_group_name_H-M "P 2/M"
_symmetry_group_IT_number 10
_symmetry_cell_setting 'monoclinic'
loop_
_space_group_symop_operation_xyz
x,y,z
-x,y,-z
-x,-y,-z
x,-y,z
loop_
_atom_site_type_symbol
_atom_site_label
_atom_site_fract_x
_atom_site_fract_y
_atom_site_fract_z
Si Si1 0.606821 0.160440 0.155975
Si Si2 0.189935 0.338093 0.583495
Si Si3 0.584268 0.840991 0.793837
Si Si4 0.006119 0.160609 0.682970
Si Si5 0.609070 0.340676 0.460175
Si Si6 0.209371 0.847962 0.295401
Si Si7 0.000000 0.741222 0.000000
Si Si8 0.175380 0.660193 0.948639
O O1 0.733081 0.255678 0.274600
O O2 0.523145 0.149917 0.195979
O O3 0.644019 0.000000 0.152596
O O4 0.500000 0.217112 0.000000
O O5 0.159938 0.500000 0.587384
O O6 0.064215 0.251450 0.451995
O O7 0.292406 0.342253 0.564006
O O8 0.507191 0.768443 0.649072
O O9 0.698817 0.738271 0.914245
O O10 0.631464 0.000000 0.808730
O O11 0.894626 0.149708 0.688857
O O12 0.039259 0.000000 0.677705
O O13 0.123269 0.245620 0.821088
O O14 0.561818 0.500000 0.439693
O O15 0.694782 0.281685 0.612109
O O16 0.120645 0.829073 0.134695
O O17 0.278709 0.000000 0.346260
O O18 0.062754 0.659402 0.953166
O O19 0.203810 0.500000 0.939772
#
# Coordination Sequence:
#
# PCOD9149699 Si02
#       8
#     4   4   4   4   4   4   2   4
#     4   9  18  33  54  80 109 140 172 207 251 306
#     4   9  16  27  47  76 106 135 170 211 254 301
#     4  10  20  35  55  78 105 137 173 211 254 305
#     4   9  17  30  49  73 100 134 175 213 253 303
#     4   9  17  30  49  73 102 135 170 209 255 307
#     4   9  17  30  50  74 100 131 170 216 259 303
#     4  10  22  36  54  76 102 136 176 216 260 308
#     4  11  22  36  54  76 104 136 173 216 261 307
#
# _framework density 23.145503000000001
#
# number of rings (size 3 to 8) (size 9 to 14) (size 15 to 20)
#    0.000    2.533    0.000    2.400    0.000    9.333 
#    0.000    0.667    0.000    4.000    0.000    5.600 
#    0.000    0.000    0.000    0.000    0.000    0.000 
#
# Total GULP energy -167721.821131 kJ/mol
# GULP energy per Si atom -5590.727371 kJ/mol
# Density = 2.309282 g / cm^3
# Si number density = 23.145503 Si / 1000 Ang^3
#
#
#
# Elastic Constant Matrix: (Units=GPa)
#
#
# Indices 1 2 3 4 5 6 
#
# 1 68.8986 -7.0969 -5.8227 0.0000 -12.2717 0.0000
# 2 -7.0969 192.5582 90.1937 0.0000 8.2258 0.0000
# 3 -5.8227 90.1937 181.9330 0.0000 0.4140 0.0000
# 4 0.0000 0.0000 0.0000 98.9445 0.0000 -52.8572
# 5 -12.2717 8.2258 0.4140 0.0000 26.5289 0.0000
# 6 0.0000 0.0000 0.0000 -52.8572 0.0000 45.1410
#
#
#
# Elastic Compliance Matrix: (Units=1/GPa)
#
#
# Indices 1 2 3 4 5 6 
#
# 1 0.015861 0.000055 0.000464 0.000000 0.007313 0.000000
# 2 0.000055 0.006877 -0.003403 0.000000 -0.002054 0.000000
# 3 0.000464 -0.003403 0.007196 0.000000 0.001157 0.000000
# 4 0.000000 0.000000 0.000000 0.026989 0.000000 0.031602
# 5 0.007313 -0.002054 0.001157 0.000000 0.041696 0.000000
# 6 0.000000 0.000000 0.000000 0.031602 0.000000 0.059157
#
#
# Mechanical properties :
#
#
# Convention : Reuss Voigt Hill
#
# Bulk Modulus (GPa) = 41.38072 66.43755 53.90914
# Shear Modulus (GPa) = 29.13758 58.53060 43.83409
#
# Velocity S-wave (km/s) = 3.55193 5.03418 4.35656
# Velocity P-wave (km/s) = 5.89397 7.90932 6.97482
#
# Compressibility (1/GPa) = 0.02416584
#
# Stress axis : x y z
#
# Youngs Moduli (GPa) = 63.04598 145.41546 138.97241
#
# Poissons Ratio (x) = -0.00799 -0.06445
# Poissons Ratio (y) = -0.00347 0.47289
# Poissons Ratio (z) = -0.02924 0.49482
#
# Static dielectric constant tensor:
#      x y z
#    x 1.946280 0.000000 0.005880 
#    y 0.000000 1.812460 0.000000 
#    z 0.005880 0.000000 1.807330 
# 
# From -- ./inp_files/79388.got.cif
#   From: 2010.05.17/outbox.cif.g08.bks.cpg/sg10_40_cif.got.tgz:79388.got - 2010.06.03 11:33:40.
