data_PCOD9149063
_publ_section_title
;
Structure prediction by ZEFSAII (Michael W. Deem and Ramdas Pophale) SiO2 
 PCOD9149063
Probable space group: P 2/M
;
_chemical_formula_sum "Si O2"
_cell_formula_units_Z 28
_cell_length_a 22.411740
_cell_length_b 11.963962
_cell_length_c 19.424061
_cell_angle_alpha 90.000000
_cell_angle_beta 20.203256
_cell_angle_gamma 90.000000
_cell_volume 1798.672188
_symmetry_space_group_name_H-M "P 2/M"
_symmetry_group_IT_number 10
_symmetry_cell_setting 'monoclinic'
loop_
_space_group_symop_operation_xyz
x,y,z
-x,y,-z
-x,-y,-z
x,-y,z
loop_
_atom_site_type_symbol
_atom_site_label
_atom_site_fract_x
_atom_site_fract_y
_atom_site_fract_z
Si Si1 0.261741 0.000000 0.323436
Si Si2 0.653082 0.000000 0.932087
Si Si3 0.419994 0.633949 0.240015
Si Si4 0.018278 0.636057 0.060323
Si Si5 0.766560 0.245700 0.818194
Si Si6 0.403116 0.363942 0.675485
Si Si7 0.148679 0.245699 0.436079
Si Si8 0.338501 0.636049 0.484506
O O1 0.164044 0.115758 0.441686
O O2 0.304346 0.000000 0.195657
O O3 0.445911 0.000000 0.162269
O O4 0.730226 0.884243 0.875498
O O5 0.421837 0.500000 0.234481
O O6 0.273815 0.682429 0.348019
O O7 0.379115 0.669007 0.362659
O O8 0.604341 0.682434 0.017489
O O9 0.018549 0.500000 0.060982
O O10 0.850165 0.672720 0.284757
O O11 0.000000 0.668505 0.000000
O O12 0.203736 0.672679 0.888788
O O13 0.787632 0.252318 0.712366
O O14 0.949149 0.281336 0.652546
O O15 0.500000 0.331498 0.500000
O O16 0.401917 0.500000 0.677615
O O17 0.514907 0.327280 0.620016
O O18 0.337698 0.500000 0.486913
#
# Coordination Sequence:
#
# PCOD9149063 Si02
#       8
#     2   2   4   4   4   4   4   4
#     4   9  15  29  55  80  95 109 142 200 265 309
#     4   9  15  29  55  80  95 109 142 200 265 309
#     4  11  23  35  45  62  98 141 175 198 226 277
#     4   9  14  22  39  59  77 100 140 192 236 272
#     4  10  20  34  53  74  94 121 160 207 254 293
#     4   9  14  22  39  59  77 100 140 192 236 272
#     4  10  20  34  53  74  94 121 160 207 254 293
#     4   9  18  29  39  57  84 118 157 195 231 270
#
# _framework density 15.56704
#
# number of rings (size 3 to 8) (size 9 to 14) (size 15 to 20)
#    0.000    2.429    2.857    0.857    0.000    4.571 
#    0.000    4.286    0.000    0.000    0.000    0.000 
#    0.000    0.000    0.000    5.143    0.000    2.571 
#
# Total GULP energy -155998.586281 kJ/mol
# GULP energy per Si atom -5571.378081 kJ/mol
# Density = 1.553161 g / cm^3
# Si number density = 15.567040 Si / 1000 Ang^3
#
#
#
# Elastic Constant Matrix: (Units=GPa)
#
#
# Indices 1 2 3 4 5 6 
#
# 1 103.0888 31.9083 89.3402 0.0000 -18.3534 0.0000
# 2 31.9083 45.9680 35.1046 0.0000 -3.5017 0.0000
# 3 89.3402 35.1046 143.4789 0.0000 -25.8237 0.0000
# 4 0.0000 0.0000 0.0000 2.8657 0.0000 -3.7026
# 5 -18.3534 -3.5017 -25.8237 0.0000 23.4307 0.0000
# 6 0.0000 0.0000 0.0000 -3.7026 0.0000 -0.5247
#
#
#
# Elastic Compliance Matrix: (Units=1/GPa)
#
#
# Indices 1 2 3 4 5 6 
#
# 1 0.022592 -0.006352 -0.011850 0.000000 0.003687 0.000000
# 2 -0.006352 0.028845 -0.004019 0.000000 -0.005094 0.000000
# 3 -0.011850 -0.004019 0.016907 0.000000 0.008751 0.000000
# 4 0.000000 0.000000 0.000000 0.034490 0.000000 -0.243387
# 5 0.003687 -0.005094 0.008751 0.000000 0.054450 0.000000
# 6 0.000000 0.000000 0.000000 -0.243387 0.000000 -0.188373
#
#
# Mechanical properties :
#
#
# Convention : Reuss Voigt Hill
#
# Bulk Modulus (GPa) = 41.83791 67.24910 54.54351
# Shear Modulus (GPa) = 234.52588 14.23317 124.37953
#
# Velocity S-wave (km/s) = 12.28749 3.02704 8.94834
# Velocity P-wave (km/s) = 15.10776 7.45056 11.91124
#
# Compressibility (1/GPa) = 0.02390177
#
# Stress axis : x y z
#
# Youngs Moduli (GPa) = 44.26262 34.66859 59.14881
#
# Poissons Ratio (x) = 0.22021 0.70091
# Poissons Ratio (y) = 0.28116 0.23772
# Poissons Ratio (z) = 0.52451 0.13933
#
# Static dielectric constant tensor:
#      x y z
#    x 1.515180 0.000000 -0.012200 
#    y 0.000000 1.500570 0.000000 
#    z -0.012200 0.000000 1.526340 
# 
# From -- ./inp_files/79529.got.cif
#   From: 2010.05.17/outbox.cif.g08.bks.cpg/sg10_40_cif.got.tgz:79529.got - 2010.06.03 11:33:40.
