data_PCOD9149130
_publ_section_title
;
Structure prediction by ZEFSAII (Michael W. Deem and Ramdas Pophale) SiO2 
 PCOD9149130
Probable space group: P 2/M
;
_chemical_formula_sum "Si O2"
_cell_formula_units_Z 32
_cell_length_a 24.412319
_cell_length_b 7.675361
_cell_length_c 15.617359
_cell_angle_alpha 90.000000
_cell_angle_beta 151.984080
_cell_angle_gamma 90.000000
_cell_volume 1374.521717
_symmetry_space_group_name_H-M "P 2/M"
_symmetry_group_IT_number 10
_symmetry_cell_setting 'monoclinic'
loop_
_space_group_symop_operation_xyz
x,y,z
-x,y,-z
-x,-y,-z
x,-y,z
loop_
_atom_site_type_symbol
_atom_site_label
_atom_site_fract_x
_atom_site_fract_y
_atom_site_fract_z
Si Si1 0.702564 0.205720 0.884725
Si Si2 0.131209 0.709545 0.187862
Si Si3 0.170013 0.286644 0.675973
Si Si4 0.929962 0.709406 0.278927
Si Si5 0.482901 0.197939 0.250470
Si Si6 0.658104 0.296675 0.633848
Si Si7 0.623663 0.701300 0.145462
Si Si8 0.688402 0.791920 0.415540
O O1 0.635224 0.281209 0.875435
O O2 0.652817 0.278044 0.727828
O O3 0.681910 0.000000 0.856297
O O4 0.840401 0.236624 0.082457
O O5 0.124223 0.500000 0.175526
O O6 0.215510 0.763312 0.226142
O O7 0.203089 0.756002 0.372478
O O8 0.000000 0.778656 0.000000
O O9 0.173801 0.500000 0.681131
O O10 0.128547 0.230510 0.712400
O O11 0.295080 0.222534 0.816487
O O12 0.064218 0.233353 0.466593
O O13 0.931866 0.500000 0.282931
O O14 0.563431 0.196880 0.447100
O O15 0.569182 0.275131 0.297835
O O16 0.458653 0.000000 0.189844
O O17 0.643138 0.500000 0.591040
O O18 0.600764 0.500000 0.090461
O O19 0.697047 0.708984 0.334448
O O20 0.500000 0.784271 0.000000
O O21 0.678358 0.000000 0.392683
#
# Coordination Sequence:
#
# PCOD9149130 Si02
#       8
#     4   4   4   4   4   4   4   4
#     4  11  22  34  51  77 108 140 174 213 265 319
#     4   9  19  37  59  80 106 142 181 222 268 318
#     4   8  17  36  57  78 106 138 173 220 273 316
#     4   9  18  35  58  78 101 138 181 220 261 313
#     4   9  20  37  53  71 106 147 174 209 265 320
#     4  10  20  34  53  79 105 134 177 221 259 306
#     4  10  21  36  57  84 112 142 180 227 278 325
#     4  10  21  37  55  79 110 144 182 221 269 326
#
# _framework density 23.280826999999999
#
# number of rings (size 3 to 8) (size 9 to 14) (size 15 to 20)
#    0.000    2.500    0.000    2.250    1.750    5.000 
#    0.000    7.500    0.000    0.000    0.000    0.000 
#    0.000    0.000    0.000    0.000    0.000    0.000 
#
# Total GULP energy -178693.414382 kJ/mol
# GULP energy per Si atom -5584.169199 kJ/mol
# Density = 2.322784 g / cm^3
# Si number density = 23.280827 Si / 1000 Ang^3
#
#
#
# Elastic Constant Matrix: (Units=GPa)
#
#
# Indices 1 2 3 4 5 6 
#
# 1 71.7939 3.7632 17.4527 0.0000 15.2817 0.0000
# 2 3.7632 48.4281 4.5958 0.0000 9.3033 0.0000
# 3 17.4527 4.5958 76.6017 0.0000 18.9742 0.0000
# 4 0.0000 0.0000 0.0000 30.1284 0.0000 -1.0708
# 5 15.2817 9.3033 18.9742 0.0000 41.1701 0.0000
# 6 0.0000 0.0000 0.0000 -1.0708 0.0000 5.9904
#
#
#
# Elastic Compliance Matrix: (Units=1/GPa)
#
#
# Indices 1 2 3 4 5 6 
#
# 1 0.015498 -0.000088 -0.002377 0.000000 -0.004637 0.000000
# 2 -0.000088 0.021587 -0.000085 0.000000 -0.004807 0.000000
# 3 -0.002377 -0.000085 0.015102 0.000000 -0.006059 0.000000
# 4 0.000000 0.000000 0.000000 0.033404 0.000000 0.005971
# 5 -0.004637 -0.004807 -0.006059 0.000000 0.029889 0.000000
# 6 0.000000 0.000000 0.000000 0.005971 0.000000 0.168002
#
#
# Mechanical properties :
#
#
# Convention : Reuss Voigt Hill
#
# Bulk Modulus (GPa) = 21.23665 27.60523 24.42094
# Shear Modulus (GPa) = 16.43236 26.85857 21.64546
#
# Velocity S-wave (km/s) = 2.65963 3.40027 3.05250
# Velocity P-wave (km/s) = 4.30967 5.22484 4.78917
#
# Compressibility (1/GPa) = 0.04708841
#
# Stress axis : x y z
#
# Youngs Moduli (GPa) = 64.52312 46.32336 66.21671
#
# Poissons Ratio (x) = 0.00407 0.15741
# Poissons Ratio (y) = 0.00567 0.00560
# Poissons Ratio (z) = 0.15338 0.00392
#
# Static dielectric constant tensor:
#      x y z
#    x 1.919680 0.000000 0.045570 
#    y 0.000000 1.859130 0.000000 
#    z 0.045570 0.000000 1.883930 
# 
# From -- ./inp_files/71670.got.cif
#   From: 2010.05.17/outbox.cif.g08.bks.cpg/sg10_36_cif.got.tgz:71670.got - 2010.06.03 11:33:40.
