data_PCOD9149272
_publ_section_title
;
Structure prediction by ZEFSAII (Michael W. Deem and Ramdas Pophale) SiO2 
 PCOD9149272
Probable space group: P 2/M
;
_chemical_formula_sum "Si O2"
_cell_formula_units_Z 28
_cell_length_a 15.643695
_cell_length_b 11.692515
_cell_length_c 13.895874
_cell_angle_alpha 90.000000
_cell_angle_beta 152.383984
_cell_angle_gamma 90.000000
_cell_volume 1178.213143
_symmetry_space_group_name_H-M "P 2/M"
_symmetry_group_IT_number 10
_symmetry_cell_setting 'monoclinic'
loop_
_space_group_symop_operation_xyz
x,y,z
-x,y,-z
-x,-y,-z
x,-y,z
loop_
_atom_site_type_symbol
_atom_site_label
_atom_site_fract_x
_atom_site_fract_y
_atom_site_fract_z
Si Si1 0.226735 0.872834 0.726950
Si Si2 0.217063 0.376934 0.736345
Si Si3 0.822648 0.303940 0.087180
Si Si4 0.281807 0.126579 0.294432
Si Si5 0.148167 0.871231 0.383474
Si Si6 0.814764 0.620486 0.874802
Si Si7 0.445000 0.123718 0.149006
O O1 0.000000 0.871237 0.500000
O O2 0.283375 0.742261 0.755378
O O3 0.273541 0.000000 0.732715
O O4 0.332837 0.877725 0.936422
O O5 0.295035 0.500000 0.782342
O O6 0.225327 0.363307 0.860169
O O7 0.000000 0.380866 0.500000
O O8 0.998361 0.219431 0.268955
O O9 0.855872 0.380494 0.028931
O O10 0.647518 0.225563 0.886835
O O11 0.500000 0.116611 0.500000
O O12 0.208159 0.138838 0.331373
O O13 0.243603 0.249292 0.207972
O O14 0.208790 0.000000 0.187243
O O15 0.336287 0.859781 0.631712
O O16 0.074247 0.000000 0.324408
O O17 0.708767 0.500000 0.747810
O O18 0.000000 0.612318 0.000000
O O19 0.415173 0.000000 0.166177
#
# Coordination Sequence:
#
# PCOD9149272 Si02
#       7
#     4   4   4   4   4   4   4
#     4   8  14  27  51  81 110 143 182 227 284 345
#     4   9  18  33  56  84 111 144 188 236 287 342
#     4  11  20  35  59  82 111 156 198 242 295 355
#     4  10  21  38  59  84 117 156 203 257 304 354
#     4  10  20  34  54  85 119 154 196 245 297 351
#     4  11  23  38  55  81 118 157 197 243 298 362
#     4   9  18  32  53  83 117 149 191 243 293 350
#
# _framework density 23.764800999999999
#
# number of rings (size 3 to 8) (size 9 to 14) (size 15 to 20)
#    0.000    2.286    1.429    1.714    0.000    3.429 
#    0.000    0.000    0.000   22.286    0.000   59.000 
#    0.000    0.000    0.000    0.000    0.000    0.000 
#
# Total GULP energy -156015.779552 kJ/mol
# GULP energy per Si atom -5571.992127 kJ/mol
# Density = 2.371071 g / cm^3
# Si number density = 23.764801 Si / 1000 Ang^3
#
#
#
# Elastic Constant Matrix: (Units=GPa)
#
#
# Indices 1 2 3 4 5 6 
#
# 1 68.4857 40.1604 -1.3756 0.0000 -19.3888 0.0000
# 2 40.1604 247.1849 43.7408 0.0000 -12.1204 0.0000
# 3 -1.3756 43.7408 79.6770 0.0000 10.4857 0.0000
# 4 0.0000 0.0000 0.0000 -129.9388 0.0000 -221.1645
# 5 -19.3888 -12.1204 10.4857 0.0000 32.4584 0.0000
# 6 0.0000 0.0000 0.0000 -221.1645 0.0000 668.1203
#
#
#
# Elastic Compliance Matrix: (Units=1/GPa)
#
#
# Indices 1 2 3 4 5 6 
#
# 1 0.019084 -0.002677 0.000450 0.000000 0.010255 0.000000
# 2 -0.002677 0.005073 -0.002997 0.000000 0.001263 0.000000
# 3 0.000450 -0.002997 0.014952 0.000000 -0.005681 0.000000
# 4 0.000000 0.000000 0.000000 -0.004922 0.000000 -0.001629
# 5 0.010255 0.001263 -0.005681 0.000000 0.039241 0.000000
# 6 0.000000 0.000000 0.000000 -0.001629 0.000000 0.000957
#
#
# Mechanical properties :
#
#
# Convention : Reuss Voigt Hill
#
# Bulk Modulus (GPa) = 34.89397 62.26652 48.58025
# Shear Modulus (GPa) = 52.97355 134.98278 93.97817
#
# Velocity S-wave (km/s) = 4.72643 7.54472 6.29531
# Velocity P-wave (km/s) = 6.67087 10.10718 8.56316
#
# Compressibility (1/GPa) = 0.02865825
#
# Stress axis : x y z
#
# Youngs Moduli (GPa) = 52.40060 197.12626 66.88279
#
# Poissons Ratio (x) = 0.52777 -0.03008
# Poissons Ratio (y) = 0.14029 0.20047
# Poissons Ratio (z) = -0.02357 0.59086
#
# Static dielectric constant tensor:
#      x y z
#    x 1.970010 0.000000 -0.076280 
#    y 0.000000 1.840490 0.000000 
#    z -0.076280 0.000000 1.914700 
# 
# From -- ./inp_files/79570.got.cif
#   From: 2010.05.17/outbox.cif.g08.bks.cpg/sg10_40_cif.got.tgz:79570.got - 2010.06.03 11:33:40.
