data_PCOD9149290
_publ_section_title
;
Structure prediction by ZEFSAII (Michael W. Deem and Ramdas Pophale) SiO2 
 PCOD9149290
Probable space group: P 2/M
;
_chemical_formula_sum "Si O2"
_cell_formula_units_Z 28
_cell_length_a 19.304685
_cell_length_b 8.834923
_cell_length_c 14.619122
_cell_angle_alpha 90.000000
_cell_angle_beta 144.567528
_cell_angle_gamma 90.000000
_cell_volume 1445.514085
_symmetry_space_group_name_H-M "P 2/M"
_symmetry_group_IT_number 10
_symmetry_cell_setting 'monoclinic'
loop_
_space_group_symop_operation_xyz
x,y,z
-x,y,-z
-x,-y,-z
x,-y,z
loop_
_atom_site_type_symbol
_atom_site_label
_atom_site_fract_x
_atom_site_fract_y
_atom_site_fract_z
Si Si1 0.990846 0.250933 0.750844
Si Si2 0.190876 0.000000 0.652462
Si Si3 0.172538 0.333791 0.093785
Si Si4 0.760796 0.325476 0.386502
Si Si5 0.922395 0.000000 0.280654
Si Si6 0.815802 0.834333 0.718648
Si Si7 0.396088 0.673691 0.603260
Si Si8 0.420399 0.822800 0.322891
O O1 0.890547 0.324738 0.577396
O O2 0.909785 0.163058 0.737716
O O3 0.075524 0.145922 0.780966
O O4 0.079222 0.341209 0.910970
O O5 0.241765 0.165527 0.673712
O O6 0.174685 0.000000 0.744270
O O7 0.055853 0.000000 0.467517
O O8 0.180809 0.500000 0.144528
O O9 0.133397 0.217198 0.130114
O O10 0.301223 0.276087 0.199651
O O11 0.748156 0.500000 0.333704
O O12 0.658123 0.307930 0.353454
O O13 0.715035 0.715689 0.581347
O O14 0.759428 0.000000 0.666520
O O15 0.431478 0.500000 0.629068
O O16 0.502531 0.778748 0.683056
O O17 0.500000 0.794063 0.500000
O O18 0.389994 0.000000 0.289044
#
# Coordination Sequence:
#
# PCOD9149290 Si02
#       8
#     4   2   4   4   2   4   4   4
#     4  10  21  35  55  76 112 146 184 225 272 325
#     4   9  18  34  60  87 111 146 177 217 280 343
#     4  12  25  36  51  74 109 151 193 231 270 318
#     4   9  19  35  57  87 116 142 179 227 276 334
#     4   9  18  36  55  83 111 143 177 220 270 339
#     4  11  21  33  53  76 103 146 191 229 268 312
#     4  10  20  34  55  78 108 144 181 230 280 317
#     4  11  23  37  53  74 103 144 193 233 272 316
#
# _framework density 19.370270000000001
#
# number of rings (size 3 to 8) (size 9 to 14) (size 15 to 20)
#    0.000    1.714    2.143    2.571    6.000    3.429 
#    0.000    6.429    0.000    0.000    0.000    2.000 
#    0.000    3.429    0.000    0.000    0.000    0.000 
#
# Total GULP energy -155984.882477 kJ/mol
# GULP energy per Si atom -5570.888660 kJ/mol
# Density = 1.932618 g / cm^3
# Si number density = 19.370270 Si / 1000 Ang^3
#
#
#
# Elastic Constant Matrix: (Units=GPa)
#
#
# Indices 1 2 3 4 5 6 
#
# 1 92.3929 40.2680 5.7052 0.0000 -7.6815 0.0000
# 2 40.2680 100.6563 -3.4875 0.0000 -9.9480 0.0000
# 3 5.7052 -3.4875 10.2543 0.0000 4.0306 0.0000
# 4 0.0000 0.0000 0.0000 11.3568 0.0000 -0.7026
# 5 -7.6815 -9.9480 4.0306 0.0000 20.5930 0.0000
# 6 0.0000 0.0000 0.0000 -0.7026 0.0000 36.3723
#
#
#
# Elastic Compliance Matrix: (Units=1/GPa)
#
#
# Indices 1 2 3 4 5 6 
#
# 1 0.014462 -0.005708 -0.011943 0.000000 0.004975 0.000000
# 2 -0.005708 0.012713 0.006416 0.000000 0.002757 0.000000
# 3 -0.011943 0.006416 0.115787 0.000000 -0.024018 0.000000
# 4 0.000000 0.000000 0.000000 0.088158 0.000000 0.001703
# 5 0.004975 0.002757 -0.024018 0.000000 0.056448 0.000000
# 6 0.000000 0.000000 0.000000 0.001703 0.000000 0.027526
#
#
# Mechanical properties :
#
#
# Convention : Reuss Voigt Hill
#
# Bulk Modulus (GPa) = 8.29930 32.03056 20.16493
# Shear Modulus (GPa) = 13.23703 24.38562 18.81132
#
# Velocity S-wave (km/s) = 2.61697 3.55198 3.11970
# Velocity P-wave (km/s) = 3.66404 5.77874 4.83834
#
# Compressibility (1/GPa) = 0.12049215
#
# Stress axis : x y z
#
# Youngs Moduli (GPa) = 69.14668 78.66020 8.63657
#
# Poissons Ratio (x) = 0.44897 0.10314
# Poissons Ratio (y) = 0.39467 -0.05541
# Poissons Ratio (z) = 0.82580 -0.50466
#
# Static dielectric constant tensor:
#      x y z
#    x 1.687770 0.000000 -0.000950 
#    y 0.000000 1.684630 0.000000 
#    z -0.000950 0.000000 1.671950 
# 
# From -- ./inp_files/68726.got.cif
#   From: 2010.05.17/outbox.cif.g08.bks.cpg/sg10_35_cif.got.tgz:68726.got - 2010.06.03 11:33:40.
