data_PCOD9149462
_publ_section_title
;
Structure prediction by ZEFSAII (Michael W. Deem and Ramdas Pophale) SiO2 
 PCOD9149462
Probable space group: P 2/M
;
_chemical_formula_sum "Si O2"
_cell_formula_units_Z 32
_cell_length_a 14.798905
_cell_length_b 9.284721
_cell_length_c 24.923005
_cell_angle_alpha 90.000000
_cell_angle_beta 150.815583
_cell_angle_gamma 90.000000
_cell_volume 1669.868759
_symmetry_space_group_name_H-M "P 2/M"
_symmetry_group_IT_number 10
_symmetry_cell_setting 'monoclinic'
loop_
_space_group_symop_operation_xyz
x,y,z
-x,y,-z
-x,-y,-z
x,-y,z
loop_
_atom_site_type_symbol
_atom_site_label
_atom_site_fract_x
_atom_site_fract_y
_atom_site_fract_z
Si Si1 0.673848 0.328301 0.686627
Si Si2 0.814839 0.324477 0.874915
Si Si3 0.102696 0.237805 0.500799
Si Si4 0.453845 0.668327 0.747647
Si Si5 0.713602 0.828797 0.126310
Si Si6 0.251756 0.666513 0.744565
Si Si7 0.715840 0.162853 0.514729
Si Si8 0.063574 0.671479 0.279479
O O1 0.628993 0.500000 0.665950
O O2 0.792010 0.289448 0.800647
O O3 0.484089 0.239242 0.589516
O O4 0.795873 0.304599 0.696938
O O5 0.814541 0.500000 0.877195
O O6 0.633425 0.269460 0.812073
O O7 0.000000 0.273876 0.000000
O O8 0.275921 0.319369 0.616991
O O9 0.194810 0.156534 0.498407
O O10 0.000000 0.168471 0.500000
O O11 0.942078 0.328727 0.388340
O O12 0.489024 0.500000 0.774642
O O13 0.399316 0.725854 0.777698
O O14 0.747216 0.765096 0.202982
O O15 0.864450 0.746305 0.168185
O O16 0.747250 0.000000 0.142532
O O17 0.500000 0.802052 0.000000
O O18 0.289602 0.500000 0.778696
O O19 0.844624 0.256835 0.620590
O O20 0.701256 0.000000 0.527890
O O21 0.041013 0.500000 0.275316
#
# Coordination Sequence:
#
# PCOD9149462 Si02
#       8
#     4   4   4   4   4   4   4   4
#     4  10  22  40  62  89 120 157 201 250 301 354
#     4   9  17  31  55  85 116 150 189 238 292 344
#     4  10  20  34  56  89 123 155 190 240 296 361
#     4   9  17  31  54  86 121 151 185 237 297 354
#     4  11  25  43  61  84 119 163 203 244 299 356
#     4  10  20  34  59  90 116 150 195 243 294 352
#     4  12  24  38  61  91 124 162 197 241 301 367
#     4  11  24  41  64  91 118 155 202 255 302 348
#
# _framework density 19.163183
#
# number of rings (size 3 to 8) (size 9 to 14) (size 15 to 20)
#    0.000    1.750    2.500    1.875    0.000    7.250 
#    0.000    4.375    0.000    0.375    0.000    0.000 
#    0.000    0.000    0.000    0.000    0.000    0.000 
#
# Total GULP energy -178434.098670 kJ/mol
# GULP energy per Si atom -5576.065583 kJ/mol
# Density = 1.911957 g / cm^3
# Si number density = 19.163183 Si / 1000 Ang^3
#
#
#
# Elastic Constant Matrix: (Units=GPa)
#
#
# Indices 1 2 3 4 5 6 
#
# 1 140.9028 52.5597 56.8963 0.0000 11.1809 0.0000
# 2 52.5597 79.9803 41.1678 0.0000 7.4163 0.0000
# 3 56.8963 41.1678 112.0685 0.0000 15.0747 0.0000
# 4 0.0000 0.0000 0.0000 201.5813 0.0000 86.8891
# 5 11.1809 7.4163 15.0747 0.0000 18.1790 0.0000
# 6 0.0000 0.0000 0.0000 86.8891 0.0000 35.3280
#
#
#
# Elastic Compliance Matrix: (Units=1/GPa)
#
#
# Indices 1 2 3 4 5 6 
#
# 1 0.010402 -0.005028 -0.003207 0.000000 -0.001687 0.000000
# 2 -0.005028 0.017901 -0.003891 0.000000 -0.000984 0.000000
# 3 -0.003207 -0.003891 0.012946 0.000000 -0.007175 0.000000
# 4 0.000000 0.000000 0.000000 -0.082492 0.000000 0.202890
# 5 -0.001687 -0.000984 -0.007175 0.000000 0.062398 0.000000
# 6 0.000000 0.000000 0.000000 0.202890 0.000000 -0.470701
#
#
# Mechanical properties :
#
#
# Convention : Reuss Voigt Hill
#
# Bulk Modulus (GPa) = 58.83471 70.46661 64.65066
# Shear Modulus (GPa) = -11.91526 63.17283 25.62879
#
# Velocity S-wave (km/s) = -2.49625 5.74781 3.66101
# Velocity P-wave (km/s) = 4.73922 8.99452 7.18894
#
# Compressibility (1/GPa) = 0.01699677
#
# Stress axis : x y z
#
# Youngs Moduli (GPa) = 96.13968 55.86130 77.24664
#
# Poissons Ratio (x) = 0.28090 0.24771
# Poissons Ratio (y) = 0.48344 0.30055
# Poissons Ratio (z) = 0.30829 0.21734
#
# Static dielectric constant tensor:
#      x y z
#    x 1.702610 0.000000 0.015930 
#    y 0.000000 1.647020 0.000000 
#    z 0.015930 0.000000 1.651070 
# 
# From -- ./inp_files/89601.got.cif
#   From: 2010.05.17/outbox.cif.g08.bks.cpg/sg10_45_cif.got.tgz:89601.got - 2010.06.03 11:33:40.
