data_PCOD9149410
_publ_section_title
;
Structure prediction by ZEFSAII (Michael W. Deem and Ramdas Pophale) SiO2 
 PCOD9149410
Probable space group: P 2/M
;
_chemical_formula_sum "Si O2"
_cell_formula_units_Z 24
_cell_length_a 10.227213
_cell_length_b 7.400526
_cell_length_c 30.292849
_cell_angle_alpha 90.000000
_cell_angle_beta 26.278587
_cell_angle_gamma 90.000000
_cell_volume 1015.090967
_symmetry_space_group_name_H-M "P 2/M"
_symmetry_group_IT_number 10
_symmetry_cell_setting 'monoclinic'
loop_
_space_group_symop_operation_xyz
x,y,z
-x,y,-z
-x,-y,-z
x,-y,z
loop_
_atom_site_type_symbol
_atom_site_label
_atom_site_fract_x
_atom_site_fract_y
_atom_site_fract_z
Si Si1 0.404889 0.709255 0.169757
Si Si2 0.280232 0.280356 0.358341
Si Si3 0.237982 0.278856 0.858115
Si Si4 0.233523 0.204747 0.609377
Si Si5 0.588625 0.279662 0.021930
Si Si6 0.621449 0.718665 0.571174
O O1 0.484598 0.500000 0.140169
O O2 0.656864 0.785391 0.125598
O O3 0.392098 0.780169 0.123576
O O4 0.092239 0.715190 0.289565
O O5 0.277970 0.500000 0.358693
O O6 0.508979 0.220338 0.252598
O O7 0.378620 0.226461 0.377746
O O8 0.940161 0.225549 0.455128
O O9 0.237904 0.500000 0.859023
O O10 0.919087 0.226872 0.936532
O O11 0.500000 0.289935 0.500000
O O12 0.361001 0.208870 0.620245
O O13 0.197824 0.000000 0.604443
O O14 0.577329 0.500000 0.022485
O O15 0.500000 0.214636 0.000000
O O16 0.605285 0.500000 0.574882
#
# Coordination Sequence:
#
# PCOD9149410 Si02
#       6
#     4   4   4   4   4   4
#     4  10  20  34  56  83 108 143 185 223 263 316
#     4   8  15  27  48  79 111 140 171 219 272 315
#     4   9  16  28  49  78 114 143 172 216 268 320
#     4  11  24  38  52  74 108 146 181 222 273 322
#     4   9  18  30  49  83 118 142 171 220 277 320
#     4   9  17  31  52  79 107 138 181 223 265 317
#
# _framework density 23.643201999999999
#
# number of rings (size 3 to 8) (size 9 to 14) (size 15 to 20)
#    0.000    2.667    0.000    3.000    2.333    4.667 
#    0.000    1.667    0.000    3.500    0.000    0.000 
#    0.000    0.000    0.000    0.000    0.000    0.000 
#
# Total GULP energy -134061.731433 kJ/mol
# GULP energy per Si atom -5585.905476 kJ/mol
# Density = 2.358939 g / cm^3
# Si number density = 23.643202 Si / 1000 Ang^3
#
#
#
# Elastic Constant Matrix: (Units=GPa)
#
#
# Indices 1 2 3 4 5 6 
#
# 1 164.6299 6.8197 69.4840 0.0000 -4.9209 0.0000
# 2 6.8197 77.1073 0.1863 0.0000 5.7911 0.0000
# 3 69.4840 0.1863 121.7595 0.0000 13.6544 0.0000
# 4 0.0000 0.0000 0.0000 -21.6511 0.0000 -0.2102
# 5 -4.9209 5.7911 13.6544 0.0000 33.1964 0.0000
# 6 0.0000 0.0000 0.0000 -0.2102 0.0000 38.8145
#
#
#
# Elastic Compliance Matrix: (Units=1/GPa)
#
#
# Indices 1 2 3 4 5 6 
#
# 1 0.008417 -0.000999 -0.005201 0.000000 0.003562 0.000000
# 2 -0.000999 0.013267 0.000866 0.000000 -0.002819 0.000000
# 3 -0.005201 0.000866 0.011829 0.000000 -0.005788 0.000000
# 4 0.000000 0.000000 0.000000 -0.046184 0.000000 -0.000250
# 5 0.003562 -0.002819 -0.005788 0.000000 0.033524 0.000000
# 6 0.000000 0.000000 0.000000 -0.000250 0.000000 0.025762
#
#
# Mechanical properties :
#
#
# Convention : Reuss Voigt Hill
#
# Bulk Modulus (GPa) = 43.77534 57.38629 50.58082
# Shear Modulus (GPa) = 77.04293 29.20574 53.12433
#
# Velocity S-wave (km/s) = 5.71458 3.51845 4.74531
# Velocity P-wave (km/s) = 7.88017 6.38988 7.17383
#
# Compressibility (1/GPa) = 0.02284391
#
# Stress axis : x y z
#
# Youngs Moduli (GPa) = 118.80160 75.37530 84.53885
#
# Poissons Ratio (x) = 0.07533 0.43972
# Poissons Ratio (y) = 0.11873 -0.07322
# Poissons Ratio (z) = 0.61793 -0.06528
#
# Static dielectric constant tensor:
#      x y z
#    x 1.871140 0.000000 0.033180 
#    y 0.000000 1.913700 0.000000 
#    z 0.033180 0.000000 1.884370 
# 
# From -- ./inp_files/92205.got.cif
#   From: 2010.05.17/outbox.cif.g08.bks.cpg/sg10_47_cif.got.tgz:92205.got - 2010.06.03 11:33:40.
