data_PCOD9149922
_publ_section_title
;
Structure prediction by ZEFSAII (Michael W. Deem and Ramdas Pophale) SiO2 
 PCOD9149922
Probable space group: P 2/M
;
_chemical_formula_sum "Si O2"
_cell_formula_units_Z 28
_cell_length_a 12.865788
_cell_length_b 7.564508
_cell_length_c 14.784834
_cell_angle_alpha 90.000000
_cell_angle_beta 124.984164
_cell_angle_gamma 90.000000
_cell_volume 1178.913862
_symmetry_space_group_name_H-M "P 2/M"
_symmetry_group_IT_number 10
_symmetry_cell_setting 'monoclinic'
loop_
_space_group_symop_operation_xyz
x,y,z
-x,y,-z
-x,-y,-z
x,-y,z
loop_
_atom_site_type_symbol
_atom_site_label
_atom_site_fract_x
_atom_site_fract_y
_atom_site_fract_z
Si Si1 0.033205 0.799201 0.420759
Si Si2 0.846751 0.213353 0.694475
Si Si3 0.765474 0.702785 0.228100
Si Si4 0.934445 0.289609 0.056580
Si Si5 0.559162 0.797025 0.258864
Si Si6 0.577236 0.215272 0.628681
Si Si7 0.337873 0.285284 0.013030
O O1 0.896741 0.804083 0.303378
O O2 0.000000 0.711295 0.500000
O O3 0.131708 0.721392 0.397575
O O4 0.076887 0.000000 0.462396
O O5 0.970215 0.258671 0.813767
O O6 0.721232 0.276742 0.683700
O O7 0.838308 0.000000 0.684141
O O8 0.800290 0.500000 0.225373
O O9 0.683920 0.710866 0.278760
O O10 0.679400 0.764096 0.100770
O O11 0.920700 0.500000 0.037859
O O12 0.000000 0.214247 0.000000
O O13 0.793372 0.225518 0.006027
O O14 0.493929 0.721308 0.316643
O O15 0.453747 0.788394 0.127597
O O16 0.593287 0.000000 0.294758
O O17 0.500000 0.259615 0.500000
O O18 0.581537 0.000000 0.637887
O O19 0.350433 0.500000 0.022537
#
# Coordination Sequence:
#
# PCOD9149922 Si02
#       7
#     4   4   4   4   4   4   4
#     4  10  22  38  61  92 120 150 194 244 293 343
#     4  10  20  36  60  88 116 149 190 240 290 341
#     4  11  23  40  61  85 119 160 196 234 292 354
#     4  10  20  35  57  83 115 157 194 232 284 344
#     4  11  23  37  60  89 117 152 199 247 289 340
#     4   9  20  38  60  85 116 154 192 235 292 349
#     4  10  21  38  57  82 118 156 193 235 292 352
#
# _framework density 23.750674
#
# number of rings (size 3 to 8) (size 9 to 14) (size 15 to 20)
#    0.000    1.857    1.429    2.143    2.000    4.000 
#    0.000    0.714    0.000    2.143    0.000    0.000 
#    0.000    0.000    0.000    0.000    0.000    0.000 
#
# Total GULP energy -156539.002821 kJ/mol
# GULP energy per Si atom -5590.678672 kJ/mol
# Density = 2.369662 g / cm^3
# Si number density = 23.750674 Si / 1000 Ang^3
#
#
#
# Elastic Constant Matrix: (Units=GPa)
#
#
# Indices 1 2 3 4 5 6 
#
# 1 147.8865 -2.8082 10.3652 0.0000 -24.8015 0.0000
# 2 -2.8082 56.5057 -12.3628 0.0000 -0.6414 0.0000
# 3 10.3652 -12.3628 45.9253 0.0000 -17.7329 0.0000
# 4 0.0000 0.0000 0.0000 16.4159 0.0000 6.5652
# 5 -24.8015 -0.6414 -17.7329 0.0000 49.3630 0.0000
# 6 0.0000 0.0000 0.0000 6.5652 0.0000 2.2504
#
#
#
# Elastic Compliance Matrix: (Units=1/GPa)
#
#
# Indices 1 2 3 4 5 6 
#
# 1 0.007394 0.000376 -0.000152 0.000000 0.003665 0.000000
# 2 0.000376 0.019071 0.006058 0.000000 0.002613 0.000000
# 3 -0.000152 0.006058 0.027216 0.000000 0.009779 0.000000
# 4 0.000000 0.000000 0.000000 -0.365329 0.000000 1.065806
# 5 0.003665 0.002613 0.009779 0.000000 0.025646 0.000000
# 6 0.000000 0.000000 0.000000 1.065806 0.000000 -2.664996
#
#
# Mechanical properties :
#
#
# Convention : Reuss Voigt Hill
#
# Bulk Modulus (GPa) = 15.09587 26.74509 20.92048
# Shear Modulus (GPa) = -1.69983 30.61407 14.45712
#
# Velocity S-wave (km/s) = -0.84691 3.59413 2.46987
# Velocity P-wave (km/s) = 2.32668 5.33937 4.11839
#
# Compressibility (1/GPa) = 0.06624327
#
# Stress axis : x y z
#
# Youngs Moduli (GPa) = 135.23633 52.43545 36.74375
#
# Poissons Ratio (x) = -0.01970 0.00560
# Poissons Ratio (y) = -0.05081 -0.22259
# Poissons Ratio (z) = 0.02062 -0.31765
#
# Static dielectric constant tensor:
#      x y z
#    x 1.910970 0.000000 -0.035950 
#    y 0.000000 1.903390 0.000000 
#    z -0.035950 0.000000 1.874440 
# 
# From -- ./inp_files/49549.got.cif
#   From: 2010.05.17/outbox.cif.g08.bks.cpg/sg10_25_cif.got.tgz:49549.got - 2010.06.03 11:33:40.
