data_PCOD9149499
_publ_section_title
;
Structure prediction by ZEFSAII (Michael W. Deem and Ramdas Pophale) SiO2 
 PCOD9149499
Probable space group: P 2/M
;
_chemical_formula_sum "Si O2"
_cell_formula_units_Z 30
_cell_length_a 26.697209
_cell_length_b 8.774875
_cell_length_c 5.548067
_cell_angle_alpha 90.000000
_cell_angle_beta 100.722689
_cell_angle_gamma 90.000000
_cell_volume 1277.022007
_symmetry_space_group_name_H-M "P 2/M"
_symmetry_group_IT_number 10
_symmetry_cell_setting 'monoclinic'
loop_
_space_group_symop_operation_xyz
x,y,z
-x,y,-z
-x,-y,-z
x,-y,z
loop_
_atom_site_type_symbol
_atom_site_label
_atom_site_fract_x
_atom_site_fract_y
_atom_site_fract_z
Si Si1 0.241741 0.836728 0.673483
Si Si2 0.031678 0.000000 0.274641
Si Si3 0.698947 0.330930 0.936208
Si Si4 0.614303 0.815788 0.574915
Si Si5 0.134053 0.834440 0.858096
Si Si6 0.057859 0.673195 0.453428
Si Si7 0.441626 0.815319 0.970104
Si Si8 0.197117 0.660995 0.234993
O O1 0.187465 0.849286 0.762179
O O2 0.229719 0.695502 0.496343
O O3 0.248053 0.000000 0.549367
O O4 0.294236 0.801890 0.860874
O O5 0.059320 0.166810 0.304538
O O6 0.000000 0.000000 0.500000
O O7 0.000000 0.000000 0.000000
O O8 0.681026 0.500000 0.993298
O O9 0.666834 0.268359 0.684585
O O10 0.758450 0.344838 0.922566
O O11 0.589467 0.767648 0.298045
O O12 0.620126 0.000000 0.576640
O O13 0.581318 0.776086 0.787572
O O14 0.098288 0.709619 0.702941
O O15 0.108809 0.000000 0.836199
O O16 0.155768 0.786280 0.136418
O O17 0.066833 0.500000 0.364195
O O18 0.000000 0.668545 0.500000
O O19 0.442141 0.000000 0.963124
O O20 0.500000 0.762339 0.000000
O O21 0.170903 0.500000 0.223456
#
# Coordination Sequence:
#
# PCOD9149499 Si02
#       8
#     4   2   4   4   4   4   4   4
#     4  10  21  37  58  85 114 152 199 253 310 373
#     4  10  22  44  68  96 130 168 210 268 322 380
#     4  10  22  38  56  80 117 157 198 250 306 372
#     4  10  20  34  57  89 116 155 205 257 311 367
#     4  10  20  38  60  86 119 157 203 255 312 377
#     4  10  21  40  65  92 125 168 216 270 330 393
#     4   9  18  34  57  86 120 156 202 258 312 365
#     4  10  21  37  58  84 117 159 201 248 309 377
#
# _framework density 23.492155
#
# number of rings (size 3 to 8) (size 9 to 14) (size 15 to 20)
#    0.000    2.133    0.667    2.000    1.867    5.067 
#    4.800    0.000    0.000    2.400    0.000    0.000 
#    0.000    0.000    0.000    0.000    0.000    0.000 
#
# Total GULP energy -167151.207874 kJ/mol
# GULP energy per Si atom -5571.706929 kJ/mol
# Density = 2.343869 g / cm^3
# Si number density = 23.492155 Si / 1000 Ang^3
#
#
#
# Elastic Constant Matrix: (Units=GPa)
#
#
# Indices 1 2 3 4 5 6 
#
# 1 94.7609 24.1171 26.4737 0.0000 6.6176 0.0000
# 2 24.1171 121.5323 20.8775 0.0000 11.0204 0.0000
# 3 26.4737 20.8775 105.4580 0.0000 26.0764 0.0000
# 4 0.0000 0.0000 0.0000 4.2917 0.0000 8.9084
# 5 6.6176 11.0204 26.0764 0.0000 38.3095 0.0000
# 6 0.0000 0.0000 0.0000 8.9084 0.0000 6.0401
#
#
#
# Elastic Compliance Matrix: (Units=1/GPa)
#
#
# Indices 1 2 3 4 5 6 
#
# 1 0.011757 -0.001907 -0.002654 0.000000 0.000324 0.000000
# 2 -0.001907 0.008906 -0.000881 0.000000 -0.001633 0.000000
# 3 -0.002654 -0.000881 0.012201 0.000000 -0.007593 0.000000
# 4 0.000000 0.000000 0.000000 -0.113030 0.000000 0.166706
# 5 0.000324 -0.001633 -0.007593 0.000000 0.031685 0.000000
# 6 0.000000 0.000000 0.000000 0.166706 0.000000 -0.080311
#
#
# Mechanical properties :
#
#
# Convention : Reuss Voigt Hill
#
# Bulk Modulus (GPa) = 45.49424 51.63198 48.56311
# Shear Modulus (GPa) = -45.21466 26.41378 -9.40044
#
# Velocity S-wave (km/s) = -4.39187 3.35679 -2.00255
# Velocity P-wave (km/s) = 2.51202 6.08689 3.92046
#
# Compressibility (1/GPa) = 0.02198080
#
# Stress axis : x y z
#
# Youngs Moduli (GPa) = 85.05608 112.28407 81.96366
#
# Poissons Ratio (x) = 0.21407 0.21754
# Poissons Ratio (y) = 0.16216 0.07218
# Poissons Ratio (z) = 0.22575 0.09889
#
# Static dielectric constant tensor:
#      x y z
#    x 1.931830 0.000000 -0.094930 
#    y 0.000000 1.839230 0.000000 
#    z -0.094930 0.000000 1.949810 
# 
# From -- ./inp_files/13679.got.cif
#   From: 2010.05.17/outbox.cif.g08.bks.cpg/sg10_7_cif.got.tgz:13679.got - 2010.06.03 11:33:40.
