data_PCOD9149134
_publ_section_title
;
Structure prediction by ZEFSAII (Michael W. Deem and Ramdas Pophale) SiO2 
 PCOD9149134
Probable space group: P 2/M
;
_chemical_formula_sum "Si O2"
_cell_formula_units_Z 32
_cell_length_a 25.349075
_cell_length_b 8.314952
_cell_length_c 16.587977
_cell_angle_alpha 90.000000
_cell_angle_beta 27.073716
_cell_angle_gamma 90.000000
_cell_volume 1591.317851
_symmetry_space_group_name_H-M "P 2/M"
_symmetry_group_IT_number 10
_symmetry_cell_setting 'monoclinic'
loop_
_space_group_symop_operation_xyz
x,y,z
-x,y,-z
-x,-y,-z
x,-y,z
loop_
_atom_site_type_symbol
_atom_site_label
_atom_site_fract_x
_atom_site_fract_y
_atom_site_fract_z
Si Si1 0.226536 0.681265 0.009891
Si Si2 0.773193 0.805568 0.557008
Si Si3 0.823369 0.306843 0.185769
Si Si4 0.604069 0.693398 0.915270
Si Si5 0.579579 0.305305 0.132836
Si Si6 0.381697 0.317439 0.641200
Si Si7 0.970183 0.190973 0.838473
Si Si8 0.325045 0.191843 0.476659
O O1 0.189623 0.500000 0.084041
O O2 0.308980 0.753109 0.967335
O O3 0.314938 0.666493 0.815255
O O4 0.118373 0.767468 0.114084
O O5 0.721570 0.741433 0.710231
O O6 0.691800 0.753768 0.593015
O O7 0.902840 0.750508 0.359550
O O8 0.773167 0.000000 0.559515
O O9 0.823829 0.500000 0.186437
O O10 0.708427 0.241534 0.296615
O O11 0.792281 0.246030 0.316864
O O12 0.925766 0.257671 0.985623
O O13 0.596354 0.500000 0.928284
O O14 0.500000 0.755312 0.000000
O O15 0.593337 0.749982 0.021678
O O16 0.583409 0.500000 0.131972
O O17 0.449814 0.256391 0.337416
O O18 0.500000 0.230596 0.500000
O O19 0.407860 0.500000 0.574740
O O20 0.973746 0.000000 0.843000
O O21 0.329107 0.000000 0.473909
#
# Coordination Sequence:
#
# PCOD9149134 Si02
#       8
#     4   4   4   4   4   4   4   4
#     4   9  18  33  54  79 109 146 184 224 278 334
#     4  10  23  40  58  80 111 153 189 227 281 336
#     4  10  20  34  53  79 111 148 188 230 279 329
#     4  10  20  36  60  89 115 141 181 231 281 333
#     4  10  20  36  58  86 118 146 177 229 289 337
#     4   8  13  24  44  69  97 133 174 213 258 316
#     4  10  21  39  58  78 110 150 194 235 272 321
#     4  11  22  35  54  83 115 148 189 231 277 333
#
# _framework density 20.109119
#
# number of rings (size 3 to 8) (size 9 to 14) (size 15 to 20)
#    0.000    2.250    1.250    2.625    0.000    5.250 
#    0.000    3.125    0.000    7.875    0.000    0.000 
#    0.000    0.000    0.000    0.000    0.000    0.000 
#
# Total GULP energy -178296.254756 kJ/mol
# GULP energy per Si atom -5571.757961 kJ/mol
# Density = 2.006335 g / cm^3
# Si number density = 20.109119 Si / 1000 Ang^3
#
#
#
# Elastic Constant Matrix: (Units=GPa)
#
#
# Indices 1 2 3 4 5 6 
#
# 1 60.3916 0.2684 20.4531 0.0000 17.3209 0.0000
# 2 0.2684 21.3925 3.7641 0.0000 4.0931 0.0000
# 3 20.4531 3.7641 110.0546 0.0000 9.7789 0.0000
# 4 0.0000 0.0000 0.0000 24.4362 0.0000 4.2888
# 5 17.3209 4.0931 9.7789 0.0000 25.6297 0.0000
# 6 0.0000 0.0000 0.0000 4.2888 0.0000 14.5672
#
#
#
# Elastic Compliance Matrix: (Units=1/GPa)
#
#
# Indices 1 2 3 4 5 6 
#
# 1 0.021501 0.002893 -0.002860 0.000000 -0.013902 0.000000
# 2 0.002893 0.048714 -0.001386 0.000000 -0.009206 0.000000
# 3 -0.002860 -0.001386 0.009806 0.000000 -0.001588 0.000000
# 4 0.000000 0.000000 0.000000 0.043153 0.000000 -0.012705
# 5 -0.013902 -0.009206 -0.001588 0.000000 0.050488 0.000000
# 6 0.000000 0.000000 0.000000 -0.012705 0.000000 0.072388
#
#
# Mechanical properties :
#
#
# Convention : Reuss Voigt Hill
#
# Bulk Modulus (GPa) = 12.93362 26.75666 19.84514
# Shear Modulus (GPa) = 18.21309 24.08350 21.14830
#
# Velocity S-wave (km/s) = 3.01277 3.46445 3.24647
# Velocity P-wave (km/s) = 4.30675 5.41644 4.89315
#
# Compressibility (1/GPa) = 0.07731788
#
# Stress axis : x y z
#
# Youngs Moduli (GPa) = 46.50855 20.52781 101.97508
#
# Poissons Ratio (x) = -0.05939 0.29161
# Poissons Ratio (y) = -0.13457 0.14132
# Poissons Ratio (z) = 0.13300 0.02845
#
# Static dielectric constant tensor:
#      x y z
#    x 1.790440 0.000000 -0.011460 
#    y 0.000000 1.716280 0.000000 
#    z -0.011460 0.000000 1.722080 
# 
# From -- ./inp_files/71435.got.cif
#   From: 2010.05.17/outbox.cif.g08.bks.cpg/sg10_36_cif.got.tgz:71435.got - 2010.06.03 11:33:40.
