data_PCOD9149187
_publ_section_title
;
Structure prediction by ZEFSAII (Michael W. Deem and Ramdas Pophale) SiO2 
 PCOD9149187
Probable space group: P 2/M
;
_chemical_formula_sum "Si O2"
_cell_formula_units_Z 28
_cell_length_a 9.044612
_cell_length_b 10.168967
_cell_length_c 28.013611
_cell_angle_alpha 90.000000
_cell_angle_beta 142.924676
_cell_angle_gamma 90.000000
_cell_volume 1553.300684
_symmetry_space_group_name_H-M "P 2/M"
_symmetry_group_IT_number 10
_symmetry_cell_setting 'monoclinic'
loop_
_space_group_symop_operation_xyz
x,y,z
-x,y,-z
-x,-y,-z
x,-y,z
loop_
_atom_site_type_symbol
_atom_site_label
_atom_site_fract_x
_atom_site_fract_y
_atom_site_fract_z
Si Si1 0.274434 0.721450 0.343039
Si Si2 0.861791 0.146894 0.594616
Si Si3 0.428456 0.152139 0.770385
Si Si4 0.745722 0.849602 0.765777
Si Si5 0.288587 0.652190 0.815461
Si Si6 0.820016 0.352250 0.497921
Si Si7 0.311187 0.149645 0.908165
O O1 0.270021 0.807777 0.390413
O O2 0.278952 0.796416 0.293809
O O3 0.532106 0.645594 0.409957
O O4 0.005235 0.653694 0.272483
O O5 0.838092 0.250691 0.546001
O O6 0.147857 0.142096 0.681670
O O7 0.784346 0.000000 0.560426
O O8 0.584084 0.208468 0.766339
O O9 0.426141 0.257434 0.812132
O O10 0.505750 0.000000 0.802780
O O11 0.030448 0.844287 0.853284
O O12 0.663814 0.000000 0.742312
O O13 0.365735 0.500000 0.837418
O O14 0.330696 0.733999 0.874921
O O15 0.892185 0.500000 0.531653
O O16 0.000000 0.316095 0.500000
O O17 0.341358 0.000000 0.895203
O O18 0.500000 0.163360 0.000000
#
# Coordination Sequence:
#
# PCOD9149187 Si02
#       7
#     4   4   4   4   4   4   4
#     4  10  20  35  54  76 102 132 171 214 257 306
#     4  10  21  35  54  78 102 132 171 216 261 304
#     4   9  18  34  54  77 104 134 171 212 254 300
#     4   9  17  32  56  81 103 131 168 211 255 300
#     4  10  20  34  54  78 104 137 173 209 251 301
#     4  11  24  38  51  71 102 138 173 212 259 308
#     4   9  18  34  56  81 107 135 169 209 253 302
#
# _framework density 18.026129999999998
#
# number of rings (size 3 to 8) (size 9 to 14) (size 15 to 20)
#    0.000    2.286    0.000    2.571    0.000    9.143 
#    0.000    4.286    0.000    4.286    0.000    0.000 
#    0.000    0.000    0.000    0.000    0.000    0.000 
#
# Total GULP energy -155925.464595 kJ/mol
# GULP energy per Si atom -5568.766593 kJ/mol
# Density = 1.798510 g / cm^3
# Si number density = 18.026130 Si / 1000 Ang^3
#
#
#
# Elastic Constant Matrix: (Units=GPa)
#
#
# Indices 1 2 3 4 5 6 
#
# 1 145.8901 65.0376 29.7157 0.0000 -8.5761 0.0000
# 2 65.0376 121.5200 41.5804 0.0000 -15.1771 0.0000
# 3 29.7157 41.5804 45.1098 0.0000 -8.8598 0.0000
# 4 0.0000 0.0000 0.0000 5.7895 0.0000 -4.1833
# 5 -8.5761 -15.1771 -8.8598 0.0000 10.7601 0.0000
# 6 0.0000 0.0000 0.0000 -4.1833 0.0000 4.9915
#
#
#
# Elastic Compliance Matrix: (Units=1/GPa)
#
#
# Indices 1 2 3 4 5 6 
#
# 1 0.009153 -0.004181 -0.002267 0.000000 -0.000470 0.000000
# 2 -0.004181 0.014773 -0.008857 0.000000 0.010212 0.000000
# 3 -0.002267 -0.008857 0.034615 0.000000 0.014202 0.000000
# 4 0.000000 0.000000 0.000000 0.437917 0.000000 0.367013
# 5 -0.000470 0.010212 0.014202 0.000000 0.118659 0.000000
# 6 0.000000 0.000000 0.000000 0.367013 0.000000 0.507931
#
#
# Mechanical properties :
#
#
# Convention : Reuss Voigt Hill
#
# Bulk Modulus (GPa) = 35.80464 65.02082 50.41273
# Shear Modulus (GPa) = 4.29934 16.05395 10.17664
#
# Velocity S-wave (km/s) = 1.54604 2.98752 2.37860
# Velocity P-wave (km/s) = 4.80549 6.93174 5.96413
#
# Compressibility (1/GPa) = 0.02792934
#
# Stress axis : x y z
#
# Youngs Moduli (GPa) = 109.25685 67.69110 28.88911
#
# Poissons Ratio (x) = 0.28305 0.06550
# Poissons Ratio (y) = 0.45685 0.25587
# Poissons Ratio (z) = 0.24772 0.59954
#
# Static dielectric constant tensor:
#      x y z
#    x 1.628880 0.000000 0.014000 
#    y 0.000000 1.632320 0.000000 
#    z 0.014000 0.000000 1.609060 
# 
# From -- ./inp_files/94543.got.cif
#   From: 2010.05.17/outbox.cif.g08.bks.cpg/sg10_48_cif.got.tgz:94543.got - 2010.06.03 11:33:40.
