data_PCOD9149947
_publ_section_title
;
Structure prediction by ZEFSAII (Michael W. Deem and Ramdas Pophale) SiO2 
 PCOD9149947
Probable space group: P 2/M
;
_chemical_formula_sum "Si O2"
_cell_formula_units_Z 24
_cell_length_a 11.923642
_cell_length_b 8.741335
_cell_length_c 12.699501
_cell_angle_alpha 90.000000
_cell_angle_beta 88.948376
_cell_angle_gamma 90.000000
_cell_volume 1323.427614
_symmetry_space_group_name_H-M "P 2/M"
_symmetry_group_IT_number 10
_symmetry_cell_setting 'monoclinic'
loop_
_space_group_symop_operation_xyz
x,y,z
-x,y,-z
-x,-y,-z
x,-y,z
loop_
_atom_site_type_symbol
_atom_site_label
_atom_site_fract_x
_atom_site_fract_y
_atom_site_fract_z
Si Si1 0.128687 0.817616 0.972241
Si Si2 0.268159 0.319328 0.782053
Si Si3 0.492133 0.816030 0.876540
Si Si4 0.257192 0.817630 0.187919
Si Si5 0.136757 0.181953 0.597112
Si Si6 0.103853 0.318530 0.370227
O O1 0.202690 0.787901 0.074631
O O2 0.135297 0.000000 0.948958
O O3 0.178738 0.727561 0.873328
O O4 0.000000 0.780189 0.000000
O O5 0.266605 0.500000 0.765448
O O6 0.388372 0.264565 0.822557
O O7 0.231678 0.234786 0.676133
O O8 0.611341 0.780327 0.821221
O O9 0.474910 0.000000 0.872916
O O10 0.500000 0.774278 0.000000
O O11 0.189528 0.728581 0.277854
O O12 0.245880 0.000000 0.207628
O O13 0.146785 0.260198 0.482876
O O14 0.016301 0.237114 0.644094
O O15 0.135599 0.000000 0.585019
O O16 0.086876 0.500000 0.373403
#
# Coordination Sequence:
#
# PCOD9149947 Si02
#       6
#     4   4   4   4   4   4
#     4  10  20  35  57  84 115 153 195 239 286 348
#     4  12  24  37  57  87 121 151 191 246 304 349
#     4  10  20  39  62  83 113 159 206 242 282 344
#     4  10  20  36  59  86 117 156 202 240 281 346
#     4  11  22  40  64  86 115 157 203 238 284 352
#     4  11  22  38  61  91 125 152 187 241 302 349
#
# _framework density 18.134727000000002
#
# number of rings (size 3 to 8) (size 9 to 14) (size 15 to 20)
#    0.000    1.333    1.667    6.500    0.000    3.333 
#    0.000    0.833    0.000    5.000    0.000    0.000 
#    0.000    0.000    0.000    0.000    0.000    0.000 
#
# Total GULP energy -134194.738268 kJ/mol
# GULP energy per Si atom -5591.447428 kJ/mol
# Density = 1.809345 g / cm^3
# Si number density = 18.134727 Si / 1000 Ang^3
#
#
#
# Elastic Constant Matrix: (Units=GPa)
#
#
# Indices 1 2 3 4 5 6 
#
# 1 38.9265 3.9077 4.0140 0.0000 21.6783 0.0000
# 2 3.9077 52.8733 9.8942 0.0000 4.1915 0.0000
# 3 4.0140 9.8942 37.5373 0.0000 12.3124 0.0000
# 4 0.0000 0.0000 0.0000 170.3517 0.0000 -51.1762
# 5 21.6783 4.1915 12.3124 0.0000 29.0742 0.0000
# 6 0.0000 0.0000 0.0000 -51.1762 0.0000 4.3853
#
#
#
# Elastic Compliance Matrix: (Units=1/GPa)
#
#
# Indices 1 2 3 4 5 6 
#
# 1 0.045765 -0.001895 0.007791 0.000000 -0.037149 0.000000
# 2 -0.001895 0.019987 -0.005323 0.000000 0.000786 0.000000
# 3 0.007791 -0.005323 0.033520 0.000000 -0.019237 0.000000
# 4 0.000000 0.000000 0.000000 -0.002343 0.000000 -0.027338
# 5 -0.037149 0.000786 -0.019237 0.000000 0.070127 0.000000
# 6 0.000000 0.000000 0.000000 -0.027338 0.000000 -0.091002
#
#
# Mechanical properties :
#
#
# Convention : Reuss Voigt Hill
#
# Bulk Modulus (GPa) = 9.95856 18.32988 14.14422
# Shear Modulus (GPa) = 46.13298 48.19699 47.16499
#
# Velocity S-wave (km/s) = 5.04918 5.16090 5.10535
# Velocity P-wave (km/s) = 6.28456 6.75594 6.52451
#
# Compressibility (1/GPa) = 0.10041612
#
# Stress axis : x y z
#
# Youngs Moduli (GPa) = 21.85079 50.03231 29.83309
#
# Poissons Ratio (x) = 0.09483 -0.23242
# Poissons Ratio (y) = 0.04141 0.15881
# Poissons Ratio (z) = -0.17024 0.26634
#
# Static dielectric constant tensor:
#      x y z
#    x 1.606390 0.000000 0.004450 
#    y 0.000000 1.611610 0.000000 
#    z 0.004450 0.000000 1.599310 
# 
# From -- ./inp_files/45175.got.cif
#   From: 2010.05.17/outbox.cif.g08.bks.cpg/sg10_23_cif.got.tgz:45175.got - 2010.06.03 11:33:40.
