data_PCOD9149317
_publ_section_title
;
Structure prediction by ZEFSAII (Michael W. Deem and Ramdas Pophale) SiO2 
 PCOD9149317
Probable space group: P 2/M
;
_chemical_formula_sum "Si O2"
_cell_formula_units_Z 28
_cell_length_a 21.889895
_cell_length_b 7.707174
_cell_length_c 24.118757
_cell_angle_alpha 90.000000
_cell_angle_beta 161.120280
_cell_angle_gamma 90.000000
_cell_volume 1316.675724
_symmetry_space_group_name_H-M "P 2/M"
_symmetry_group_IT_number 10
_symmetry_cell_setting 'monoclinic'
loop_
_space_group_symop_operation_xyz
x,y,z
-x,y,-z
-x,-y,-z
x,-y,z
loop_
_atom_site_type_symbol
_atom_site_label
_atom_site_fract_x
_atom_site_fract_y
_atom_site_fract_z
Si Si1 0.148256 0.287982 0.079660
Si Si2 0.684933 0.288155 0.192689
Si Si3 0.390261 0.290902 0.744880
Si Si4 0.955200 0.290441 0.800704
Si Si5 0.004729 0.700220 0.622970
Si Si6 0.465920 0.712073 0.534571
Si Si7 0.184356 0.803424 0.888442
O O1 0.149173 0.500000 0.079985
O O2 0.357514 0.231308 0.276568
O O3 0.073898 0.229882 0.956113
O O4 0.000000 0.236325 0.000000
O O5 0.688994 0.500000 0.194810
O O6 0.662392 0.240935 0.237212
O O7 0.868747 0.222937 0.317780
O O8 0.500000 0.233098 0.000000
O O9 0.412264 0.500000 0.760353
O O10 0.208198 0.231242 0.553383
O O11 0.596457 0.220472 0.908341
O O12 0.951076 0.500000 0.799492
O O13 0.055577 0.240395 0.830197
O O14 0.739015 0.230057 0.620756
O O15 0.974893 0.500000 0.580775
O O16 0.124054 0.700565 0.781780
O O17 0.500000 0.763834 0.500000
O O18 0.465479 0.500000 0.534533
O O19 0.151578 0.000000 0.843668
#
# Coordination Sequence:
#
# PCOD9149317 Si02
#       7
#     4   4   4   4   4   4   4
#     4   9  15  26  49  83 113 133 161 216 285 337
#     4   9  15  29  59  93 119 140 175 238 301 348
#     4  10  20  37  63  90 115 146 191 242 292 344
#     4  10  20  34  55  81 110 142 185 232 278 335
#     4  10  20  37  63  90 115 146 191 242 292 344
#     4   9  15  26  49  83 113 133 161 216 285 337
#     4  12  26  41  55  76 117 164 202 236 280 338
#
# _framework density 21.265675000000002
#
# number of rings (size 3 to 8) (size 9 to 14) (size 15 to 20)
#    0.000    2.143    2.857    1.714    0.000    3.429 
#    0.000    4.286    0.000    2.571    0.000    0.000 
#    0.000    0.000    0.000    0.000    0.000    0.000 
#
# Total GULP energy -156348.176627 kJ/mol
# GULP energy per Si atom -5583.863451 kJ/mol
# Density = 2.121727 g / cm^3
# Si number density = 21.265675 Si / 1000 Ang^3
#
#
#
# Elastic Constant Matrix: (Units=GPa)
#
#
# Indices 1 2 3 4 5 6 
#
# 1 79.6004 -1.1394 35.8363 0.0000 35.9523 0.0000
# 2 -1.1394 34.7187 2.9260 0.0000 1.4507 0.0000
# 3 35.8363 2.9260 164.2958 0.0000 29.6075 0.0000
# 4 0.0000 0.0000 0.0000 5119.8974 0.0000 6499.1999
# 5 35.9523 1.4507 29.6075 0.0000 32.8739 0.0000
# 6 0.0000 0.0000 0.0000 6499.1999 0.0000 8216.2999
#
#
#
# Elastic Compliance Matrix: (Units=1/GPa)
#
#
# Indices 1 2 3 4 5 6 
#
# 1 0.025017 0.001998 -0.000652 0.000000 -0.026860 0.000000
# 2 0.001998 0.029032 -0.000392 0.000000 -0.003114 0.000000
# 3 -0.000652 -0.000392 0.007287 0.000000 -0.005833 0.000000
# 4 0.000000 0.000000 0.000000 -0.047497 0.000000 0.037570
# 5 -0.026860 -0.003114 -0.005833 0.000000 0.065186 0.000000
# 6 0.000000 0.000000 0.000000 0.037570 0.000000 -0.029597
#
#
# Mechanical properties :
#
#
# Convention : Reuss Voigt Hill
#
# Bulk Modulus (GPa) = 15.81164 39.31786 27.56475
# Shear Modulus (GPa) = 72.88748 2689.88037 1381.38393
#
# Velocity S-wave (km/s) = 5.86081 35.60392 25.51458
# Velocity P-wave (km/s) = 7.29728 41.33660 29.68135
#
# Compressibility (1/GPa) = 0.06324455
#
# Stress axis : x y z
#
# Youngs Moduli (GPa) = 39.97357 34.44520 137.23392
#
# Poissons Ratio (x) = -0.06883 0.08944
# Poissons Ratio (y) = -0.07988 0.05377
# Poissons Ratio (z) = 0.02605 0.01350
#
# Static dielectric constant tensor:
#      x y z
#    x 1.721190 0.000000 -0.001960 
#    y 0.000000 1.794110 0.000000 
#    z -0.001960 0.000000 1.776060 
# 
# From -- ./inp_files/90340.got.cif
#   From: 2010.05.17/outbox.cif.g08.bks.cpg/sg10_46_cif.got.tgz:90340.got - 2010.06.03 11:33:40.
