data_PCOD9149339
_publ_section_title
;
Structure prediction by ZEFSAII (Michael W. Deem and Ramdas Pophale) SiO2 
 PCOD9149339
Probable space group: P 2/M
;
_chemical_formula_sum "Si O2"
_cell_formula_units_Z 32
_cell_length_a 14.258936
_cell_length_b 8.919381
_cell_length_c 17.019637
_cell_angle_alpha 90.000000
_cell_angle_beta 133.809019
_cell_angle_gamma 90.000000
_cell_volume 1562.066460
_symmetry_space_group_name_H-M "P 2/M"
_symmetry_group_IT_number 10
_symmetry_cell_setting 'monoclinic'
loop_
_space_group_symop_operation_xyz
x,y,z
-x,y,-z
-x,-y,-z
x,-y,z
loop_
_atom_site_type_symbol
_atom_site_label
_atom_site_fract_x
_atom_site_fract_y
_atom_site_fract_z
Si Si1 0.961560 0.675259 0.696584
Si Si2 0.496467 0.824456 0.664911
Si Si3 0.764874 0.322148 0.196421
Si Si4 0.020286 0.822734 0.894935
Si Si5 0.759520 0.673995 0.782038
Si Si6 0.298295 0.819794 0.008158
Si Si7 0.677967 0.670598 0.550805
Si Si8 0.430869 0.679267 0.780429
O O1 0.969212 0.500000 0.729475
O O2 0.079598 0.695688 0.704951
O O3 0.987231 0.784555 0.784623
O O4 0.814209 0.695718 0.584338
O O5 0.643249 0.763582 0.754847
O O6 0.430730 0.780297 0.544380
O O7 0.412677 0.743455 0.683186
O O8 0.497053 0.000000 0.677213
O O9 0.740215 0.500000 0.168102
O O10 0.725870 0.233395 0.095361
O O11 0.680050 0.276437 0.221772
O O12 0.171229 0.773612 0.985945
O O13 0.903774 0.741910 0.873540
O O14 0.013009 0.000000 0.905473
O O15 0.758622 0.500000 0.804370
O O16 0.719305 0.682698 0.665842
O O17 0.306922 0.000000 0.016764
O O18 0.431499 0.745109 0.111790
O O19 0.631731 0.500000 0.510801
O O20 0.437056 0.500000 0.781360
#
# Coordination Sequence:
#
# PCOD9149339 Si02
#       8
#     4   4   4   4   4   4   4   4
#     4   8  15  30  53  80 108 136 171 217 263 308
#     4  12  25  38  53  75 107 143 178 220 268 318
#     4   9  18  34  57  83 107 138 181 222 262 310
#     4   9  17  30  51  81 112 138 168 211 262 313
#     4  10  20  36  59  83 107 137 175 218 261 311
#     4  10  20  34  55  83 113 142 173 215 266 317
#     4   9  18  34  57  82 107 137 173 214 261 314
#     4  11  23  38  55  75 105 144 185 226 263 309
#
# _framework density 20.485683000000002
#
# number of rings (size 3 to 8) (size 9 to 14) (size 15 to 20)
#    0.000    2.250    0.000    4.125    0.000    8.000 
#    0.000    1.250    0.000    7.500    0.000    0.000 
#    0.000    0.000    0.000    0.000    0.000    0.000 
#
# Total GULP energy -178670.155062 kJ/mol
# GULP energy per Si atom -5583.442346 kJ/mol
# Density = 2.043906 g / cm^3
# Si number density = 20.485683 Si / 1000 Ang^3
#
#
#
# Elastic Constant Matrix: (Units=GPa)
#
#
# Indices 1 2 3 4 5 6 
#
# 1 123.3197 35.1919 30.6672 0.0000 17.8951 0.0000
# 2 35.1919 60.2361 19.3888 0.0000 10.3257 0.0000
# 3 30.6672 19.3888 56.1416 0.0000 14.3703 0.0000
# 4 0.0000 0.0000 0.0000 163.7776 0.0000 -107.4545
# 5 17.8951 10.3257 14.3703 0.0000 27.2954 0.0000
# 6 0.0000 0.0000 0.0000 -107.4545 0.0000 111.9797
#
#
#
# Elastic Compliance Matrix: (Units=1/GPa)
#
#
# Indices 1 2 3 4 5 6 
#
# 1 0.010779 -0.004598 -0.003394 0.000000 -0.003541 0.000000
# 2 -0.004598 0.021074 -0.004042 0.000000 -0.002830 0.000000
# 3 -0.003394 -0.004042 0.023232 0.000000 -0.008477 0.000000
# 4 0.000000 0.000000 0.000000 0.016484 0.000000 0.015818
# 5 -0.003541 -0.002830 -0.008477 0.000000 0.044491 0.000000
# 6 0.000000 0.000000 0.000000 0.015818 0.000000 0.024109
#
#
# Mechanical properties :
#
#
# Convention : Reuss Voigt Hill
#
# Bulk Modulus (GPa) = 32.24070 45.57703 38.90887
# Shear Modulus (GPa) = 28.64118 70.90718 49.77418
#
# Velocity S-wave (km/s) = 3.74318 5.88967 4.93455
# Velocity P-wave (km/s) = 5.86977 8.27934 7.17641
#
# Compressibility (1/GPa) = 0.03101670
#
# Stress axis : x y z
#
# Youngs Moduli (GPa) = 92.77389 47.45231 43.04490
#
# Poissons Ratio (x) = 0.21819 0.14608
# Poissons Ratio (y) = 0.42658 0.17399
# Poissons Ratio (z) = 0.31485 0.19180
#
# Static dielectric constant tensor:
#      x y z
#    x 1.773740 0.000000 -0.005810 
#    y 0.000000 1.689470 0.000000 
#    z -0.005810 0.000000 1.751630 
# 
# From -- ./inp_files/84750.got.cif
#   From: 2010.05.17/outbox.cif.g08.bks.cpg/sg10_43_cif.got.tgz:84750.got - 2010.06.03 11:33:40.
