data_PCOD9149260
_publ_section_title
;
Structure prediction by ZEFSAII (Michael W. Deem and Ramdas Pophale) SiO2 
 PCOD9149260
Probable space group: P 2/M
;
_chemical_formula_sum "Si O2"
_cell_formula_units_Z 32
_cell_length_a 16.679458
_cell_length_b 8.090253
_cell_length_c 24.902170
_cell_angle_alpha 90.000000
_cell_angle_beta 26.761195
_cell_angle_gamma 90.000000
_cell_volume 1513.063139
_symmetry_space_group_name_H-M "P 2/M"
_symmetry_group_IT_number 10
_symmetry_cell_setting 'monoclinic'
loop_
_space_group_symop_operation_xyz
x,y,z
-x,y,-z
-x,-y,-z
x,-y,z
loop_
_atom_site_type_symbol
_atom_site_label
_atom_site_fract_x
_atom_site_fract_y
_atom_site_fract_z
Si Si1 0.941882 0.693108 0.859204
Si Si2 0.612350 0.300628 0.880884
Si Si3 0.570890 0.300631 0.119380
Si Si4 0.309357 0.688562 0.675345
Si Si5 0.829263 0.809608 0.133088
Si Si6 0.065258 0.809786 0.250991
Si Si7 0.328168 0.304751 0.491789
Si Si8 0.543364 0.187207 0.699251
O O1 0.963230 0.500000 0.860580
O O2 0.142984 0.766440 0.742488
O O3 0.882840 0.706282 0.832818
O O4 0.777683 0.760973 0.992823
O O5 0.607915 0.500000 0.882974
O O6 0.528151 0.242212 0.875385
O O7 0.813168 0.244251 0.772048
O O8 0.500000 0.243184 0.000000
O O9 0.582792 0.500000 0.110190
O O10 0.459490 0.255647 0.238909
O O11 0.335748 0.500000 0.640737
O O12 0.225126 0.696005 0.785205
O O13 0.507387 0.759243 0.568820
O O14 0.664701 0.815538 0.191520
O O15 0.139691 0.000000 0.866516
O O16 0.000000 0.748628 0.000000
O O17 0.857961 0.780499 0.385671
O O18 0.098755 0.000000 0.218546
O O19 0.311859 0.500000 0.512256
O O20 0.372727 0.280408 0.402002
O O21 0.613078 0.000000 0.656827
#
# Coordination Sequence:
#
# PCOD9149260 Si02
#       8
#     4   4   4   4   4   4   4   4
#     4  10  20  37  58  85 119 153 193 239 287 341
#     4  10  20  40  65  88 115 150 187 230 287 346
#     4  10  20  35  60  89 117 150 188 231 285 345
#     4   9  19  33  54  81 108 146 196 243 279 321
#     4   9  17  29  46  71 109 153 189 225 280 341
#     4  12  25  39  59  87 116 150 191 239 293 345
#     4  10  21  40  61  81 112 156 202 241 281 336
#     4  10  20  34  54  82 117 153 189 235 286 335
#
# _framework density 21.149149999999999
#
# number of rings (size 3 to 8) (size 9 to 14) (size 15 to 20)
#    0.000    2.000    1.250    2.625    0.000    3.500 
#    0.000    3.125    0.000    3.750    0.000    0.000 
#    0.000    0.000    0.000    0.000    0.000    0.000 
#
# Total GULP energy -178485.459941 kJ/mol
# GULP energy per Si atom -5577.670623 kJ/mol
# Density = 2.110101 g / cm^3
# Si number density = 21.149150 Si / 1000 Ang^3
#
#
#
# Elastic Constant Matrix: (Units=GPa)
#
#
# Indices 1 2 3 4 5 6 
#
# 1 105.9061 8.3194 18.5843 0.0000 -6.9963 0.0000
# 2 8.3194 30.4309 -2.9308 0.0000 -4.9835 0.0000
# 3 18.5843 -2.9308 61.2263 0.0000 -12.9209 0.0000
# 4 0.0000 0.0000 0.0000 46.8420 0.0000 35.3158
# 5 -6.9963 -4.9835 -12.9209 0.0000 31.0150 0.0000
# 6 0.0000 0.0000 0.0000 35.3158 0.0000 43.8164
#
#
#
# Elastic Compliance Matrix: (Units=1/GPa)
#
#
# Indices 1 2 3 4 5 6 
#
# 1 0.010267 -0.003026 -0.003152 0.000000 0.000517 0.000000
# 2 -0.003026 0.035160 0.004002 0.000000 0.006634 0.000000
# 3 -0.003152 0.004002 0.019151 0.000000 0.007910 0.000000
# 4 0.000000 0.000000 0.000000 0.054414 0.000000 -0.043857
# 5 0.000517 0.006634 0.007910 0.000000 0.036720 0.000000
# 6 0.000000 0.000000 0.000000 -0.043857 0.000000 0.058171
#
#
# Mechanical properties :
#
#
# Convention : Reuss Voigt Hill
#
# Bulk Modulus (GPa) = 16.60443 27.27877 21.94160
# Shear Modulus (GPa) = 20.98091 35.90736 28.44413
#
# Velocity S-wave (km/s) = 3.15309 4.12493 3.67131
# Velocity P-wave (km/s) = 4.59610 5.96766 5.32621
#
# Compressibility (1/GPa) = 0.06022490
#
# Stress axis : x y z
#
# Youngs Moduli (GPa) = 97.39636 28.44109 52.21786
#
# Poissons Ratio (x) = 0.08606 0.16461
# Poissons Ratio (y) = 0.29472 -0.20895
# Poissons Ratio (z) = 0.30702 -0.11381
#
# Static dielectric constant tensor:
#      x y z
#    x 1.796190 0.000000 -0.025010 
#    y 0.000000 1.768780 0.000000 
#    z -0.025010 0.000000 1.780780 
# 
# From -- ./inp_files/89579.got.cif
#   From: 2010.05.17/outbox.cif.g08.bks.cpg/sg10_45_cif.got.tgz:89579.got - 2010.06.03 11:33:40.
