data_PCOD9149734
_publ_section_title
;
Structure prediction by ZEFSAII (Michael W. Deem and Ramdas Pophale) SiO2 
 PCOD9149734
Probable space group: P 2/M
;
_chemical_formula_sum "Si O2"
_cell_formula_units_Z 28
_cell_length_a 12.062062
_cell_length_b 7.437672
_cell_length_c 16.502797
_cell_angle_alpha 90.000000
_cell_angle_beta 123.106920
_cell_angle_gamma 90.000000
_cell_volume 1240.166960
_symmetry_space_group_name_H-M "P 2/M"
_symmetry_group_IT_number 10
_symmetry_cell_setting 'monoclinic'
loop_
_space_group_symop_operation_xyz
x,y,z
-x,y,-z
-x,-y,-z
x,-y,z
loop_
_atom_site_type_symbol
_atom_site_label
_atom_site_fract_x
_atom_site_fract_y
_atom_site_fract_z
Si Si1 0.810253 0.282322 0.977887
Si Si2 0.604832 0.209299 0.288826
Si Si3 0.128527 0.282685 0.350233
Si Si4 0.099186 0.718591 0.157062
Si Si5 0.528618 0.206022 0.924375
Si Si6 0.911510 0.717447 0.387683
Si Si7 0.411311 0.788044 0.538109
O O1 0.803795 0.500000 0.977329
O O2 0.813507 0.225006 0.884917
O O3 0.684660 0.207119 0.972849
O O4 0.948861 0.230894 0.074414
O O5 0.535701 0.289751 0.181824
O O6 0.762473 0.217167 0.337979
O O7 0.570696 0.287304 0.363899
O O8 0.564442 0.000000 0.275815
O O9 0.126143 0.500000 0.348076
O O10 0.138149 0.218259 0.261585
O O11 0.257812 0.229974 0.452265
O O12 0.993929 0.224699 0.341401
O O13 0.102849 0.500000 0.159589
O O14 0.477495 0.000000 0.908028
O O15 0.500000 0.290657 0.000000
O O16 0.904846 0.500000 0.384531
O O17 0.000000 0.771299 0.500000
O O18 0.500000 0.712062 0.500000
O O19 0.442215 0.000000 0.555124
#
# Coordination Sequence:
#
# PCOD9149734 Si02
#       7
#     4   4   4   4   4   4   4
#     4   9  18  36  59  81 106 140 182 222 266 322
#     4  10  22  39  57  76 106 148 182 218 271 321
#     4  10  20  35  56  82 111 142 175 219 273 319
#     4   8  17  34  56  82 111 139 172 222 275 318
#     4  10  23  40  55  77 111 145 180 225 272 316
#     4  10  20  35  55  81 110 136 173 224 267 311
#     4  10  22  38  55  79 110 144 183 222 262 318
#
# _framework density 22.577604999999998
#
# number of rings (size 3 to 8) (size 9 to 14) (size 15 to 20)
#    0.000    2.429    1.429    0.857    4.000    2.000 
#    0.000    2.143    0.000    0.000    0.000    0.000 
#    0.000    0.000    0.000    0.000    0.000    0.000 
#
# Total GULP energy -156405.026754 kJ/mol
# GULP energy per Si atom -5585.893813 kJ/mol
# Density = 2.252622 g / cm^3
# Si number density = 22.577605 Si / 1000 Ang^3
#
#
#
# Elastic Constant Matrix: (Units=GPa)
#
#
# Indices 1 2 3 4 5 6 
#
# 1 132.1863 -1.7239 53.4941 0.0000 -34.7922 0.0000
# 2 -1.7239 71.8579 9.8874 0.0000 -8.0572 0.0000
# 3 53.4941 9.8874 146.4774 0.0000 -48.1143 0.0000
# 4 0.0000 0.0000 0.0000 3.7943 0.0000 10.1217
# 5 -34.7922 -8.0572 -48.1143 0.0000 37.1166 0.0000
# 6 0.0000 0.0000 0.0000 10.1217 0.0000 23.2367
#
#
#
# Elastic Compliance Matrix: (Units=1/GPa)
#
#
# Indices 1 2 3 4 5 6 
#
# 1 0.010254 0.001349 -0.001014 0.000000 0.008590 0.000000
# 2 0.001349 0.014442 -0.000039 0.000000 0.004349 0.000000
# 3 -0.001014 -0.000039 0.011991 0.000000 0.014584 0.000000
# 4 0.000000 0.000000 0.000000 -1.627193 0.000000 0.708788
# 5 0.008590 0.004349 0.014584 0.000000 0.054843 0.000000
# 6 0.000000 0.000000 0.000000 0.708788 0.000000 -0.265705
#
#
# Mechanical properties :
#
#
# Convention : Reuss Voigt Hill
#
# Bulk Modulus (GPa) = 26.82597 52.64852 39.73724
# Shear Modulus (GPa) = -2.79402 32.08713 14.64656
#
# Velocity S-wave (km/s) = -1.11365 3.77396 2.54976
# Velocity P-wave (km/s) = 3.20216 6.50845 5.12902
#
# Compressibility (1/GPa) = 0.03727731
#
# Stress axis : x y z
#
# Youngs Moduli (GPa) = 97.52261 69.24397 83.39866
#
# Poissons Ratio (x) = -0.09339 0.08459
# Poissons Ratio (y) = -0.13153 0.00325
# Poissons Ratio (z) = 0.09892 0.00269
#
# Static dielectric constant tensor:
#      x y z
#    x 1.795650 0.000000 -0.046350 
#    y 0.000000 1.872350 0.000000 
#    z -0.046350 0.000000 1.830720 
# 
# From -- ./inp_files/63497.got.cif
#   From: 2010.05.17/outbox.cif.g08.bks.cpg/sg10_32_cif.got.tgz:63497.got - 2010.06.03 11:33:40.
