data_PCOD9149680
_publ_section_title
;
Structure prediction by ZEFSAII (Michael W. Deem and Ramdas Pophale) SiO2 
 PCOD9149680
Probable space group: P 2/M
;
_chemical_formula_sum "Si O2"
_cell_formula_units_Z 32
_cell_length_a 24.875227
_cell_length_b 8.559474
_cell_length_c 16.074319
_cell_angle_alpha 90.000000
_cell_angle_beta 29.582239
_cell_angle_gamma 90.000000
_cell_volume 1689.606147
_symmetry_space_group_name_H-M "P 2/M"
_symmetry_group_IT_number 10
_symmetry_cell_setting 'monoclinic'
loop_
_space_group_symop_operation_xyz
x,y,z
-x,y,-z
-x,-y,-z
x,-y,z
loop_
_atom_site_type_symbol
_atom_site_label
_atom_site_fract_x
_atom_site_fract_y
_atom_site_fract_z
Si Si1 0.487116 0.678099 0.418776
Si Si2 0.674210 0.184874 0.057300
Si Si3 0.898240 0.311123 0.363229
Si Si4 0.656987 0.687660 0.744051
Si Si5 0.116420 0.174037 0.800745
Si Si6 0.449167 0.812401 0.943820
Si Si7 0.746731 0.315836 0.243660
Si Si8 0.859920 0.688569 0.919134
O O1 0.500000 0.666809 0.500000
O O2 0.490874 0.500000 0.379304
O O3 0.582974 0.773489 0.248271
O O4 0.368371 0.753356 0.572558
O O5 0.689529 0.000000 0.030467
O O6 0.621175 0.240211 0.041429
O O7 0.786421 0.257075 0.940774
O O8 0.900150 0.500000 0.355116
O O9 0.782815 0.267352 0.560001
O O10 0.896010 0.239862 0.274420
O O11 0.012888 0.262816 0.251517
O O12 0.650434 0.500000 0.757233
O O13 0.613000 0.759541 0.889093
O O14 0.571626 0.744024 0.787985
O O15 0.178289 0.290413 0.778313
O O16 0.166783 0.000000 0.731454
O O17 0.000000 0.159835 0.000000
O O18 0.457691 0.000000 0.930213
O O19 0.726596 0.500000 0.256082
O O20 0.802403 0.256325 0.083439
O O21 0.857991 0.500000 0.923268
#
# Coordination Sequence:
#
# PCOD9149680 Si02
#       8
#     4   4   4   4   4   4   4   4
#     4  10  20  36  55  79 109 148 196 235 277 330
#     4  11  24  38  56  85 117 151 191 232 281 341
#     4  10  22  39  60  86 114 148 193 239 287 338
#     4  10  21  39  65  93 113 139 185 238 285 336
#     4  11  23  35  51  80 116 153 193 233 278 335
#     4  10  22  41  62  86 118 152 180 222 288 350
#     4  10  20  35  55  76 107 152 196 238 281 329
#     4  10  20  38  60  80 111 154 194 235 281 330
#
# _framework density 18.939325
#
# number of rings (size 3 to 8) (size 9 to 14) (size 15 to 20)
#    0.000    1.750    2.500    2.250    1.750    5.250 
#    0.000    0.625    0.000    3.750    0.000    0.000 
#    0.000    0.000    0.000    0.000    0.000    0.000 
#
# Total GULP energy -178429.332395 kJ/mol
# GULP energy per Si atom -5575.916637 kJ/mol
# Density = 1.889622 g / cm^3
# Si number density = 18.939325 Si / 1000 Ang^3
#
#
#
# Elastic Constant Matrix: (Units=GPa)
#
#
# Indices 1 2 3 4 5 6 
#
# 1 135.4498 16.4356 51.6801 0.0000 -18.8818 0.0000
# 2 16.4356 12.6672 17.5397 0.0000 -6.0626 0.0000
# 3 51.6801 17.5397 99.8103 0.0000 -25.5866 0.0000
# 4 0.0000 0.0000 0.0000 26.8238 0.0000 6.2814
# 5 -18.8818 -6.0626 -25.5866 0.0000 29.2472 0.0000
# 6 0.0000 0.0000 0.0000 6.2814 0.0000 35.5826
#
#
#
# Elastic Compliance Matrix: (Units=1/GPa)
#
#
# Indices 1 2 3 4 5 6 
#
# 1 0.009787 -0.007193 -0.003308 0.000000 0.001934 0.000000
# 2 -0.007193 0.110807 -0.014245 0.000000 0.005863 0.000000
# 3 -0.003308 -0.014245 0.016669 0.000000 0.009494 0.000000
# 4 0.000000 0.000000 0.000000 0.038888 0.000000 -0.006865
# 5 0.001934 0.005863 0.009494 0.000000 0.044961 0.000000
# 6 0.000000 0.000000 0.000000 -0.006865 0.000000 0.029315
#
#
# Mechanical properties :
#
#
# Convention : Reuss Voigt Hill
#
# Bulk Modulus (GPa) = 11.39314 46.58200 28.98757
# Shear Modulus (GPa) = 15.18941 29.14884 22.16913
#
# Velocity S-wave (km/s) = 2.83504 3.92735 3.42502
# Velocity P-wave (km/s) = 4.09210 6.72415 5.56594
#
# Compressibility (1/GPa) = 0.08777210
#
# Stress axis : x y z
#
# Youngs Moduli (GPa) = 102.17310 9.02469 59.99193
#
# Poissons Ratio (x) = 0.06492 0.19845
# Poissons Ratio (y) = 0.73495 0.85456
# Poissons Ratio (z) = 0.33798 0.12855
#
# Static dielectric constant tensor:
#      x y z
#    x 1.637860 0.000000 -0.006840 
#    y 0.000000 1.670220 0.000000 
#    z -0.006840 0.000000 1.638650 
# 
# From -- ./inp_files/71478.got.cif
#   From: 2010.05.17/outbox.cif.g08.bks.cpg/sg10_36_cif.got.tgz:71478.got - 2010.06.03 11:33:40.
