data_PCOD9149644
_publ_section_title
;
Structure prediction by ZEFSAII (Michael W. Deem and Ramdas Pophale) SiO2 
 PCOD9149644
Probable space group: P 2/M
;
_chemical_formula_sum "Si O2"
_cell_formula_units_Z 32
_cell_length_a 8.062470
_cell_length_b 9.661690
_cell_length_c 22.744453
_cell_angle_alpha 90.000000
_cell_angle_beta 61.079766
_cell_angle_gamma 90.000000
_cell_volume 1550.781316
_symmetry_space_group_name_H-M "P 2/M"
_symmetry_group_IT_number 10
_symmetry_cell_setting 'monoclinic'
loop_
_space_group_symop_operation_xyz
x,y,z
-x,y,-z
-x,-y,-z
x,-y,z
loop_
_atom_site_type_symbol
_atom_site_label
_atom_site_fract_x
_atom_site_fract_y
_atom_site_fract_z
Si Si1 0.319636 0.664709 0.303515
Si Si2 0.119253 0.663675 0.219067
Si Si3 0.433663 0.154906 0.386326
Si Si4 0.305250 0.659488 0.068487
Si Si5 0.330709 0.656353 0.578398
Si Si6 0.975567 0.838982 0.073678
Si Si7 0.119898 0.155641 0.533954
Si Si8 0.766083 0.336340 0.198718
O O1 0.284267 0.500000 0.322151
O O2 0.194871 0.713121 0.269180
O O3 0.301519 0.766728 0.362077
O O4 0.545330 0.677854 0.251623
O O5 0.092536 0.500000 0.232176
O O6 0.288111 0.679493 0.141766
O O7 0.923294 0.711494 0.220884
O O8 0.599961 0.257758 0.377319
O O9 0.321751 0.138237 0.466765
O O10 0.488157 0.000000 0.357276
O O11 0.239451 0.500000 0.069609
O O12 0.164415 0.772488 0.067505
O O13 0.500000 0.672588 0.000000
O O14 0.500000 0.647480 0.500000
O O15 0.282419 0.500000 0.603068
O O16 0.156977 0.737555 0.578990
O O17 0.811438 0.749368 0.132157
O O18 0.952884 0.000000 0.092397
O O19 0.000000 0.825472 0.000000
O O20 0.000000 0.210671 0.500000
O O21 0.053568 0.000000 0.561669
O O22 0.800841 0.500000 0.183474
#
# Coordination Sequence:
#
# PCOD9149644 Si02
#       8
#     4   4   4   4   4   4   4   4
#     4  10  20  35  57  78 106 144 180 226 276 318
#     4   8  16  33  52  76 105 132 172 225 272 319
#     4  10  20  35  54  78 108 142 181 216 259 323
#     4   9  18  32  54  80 103 132 178 228 274 329
#     4   9  17  31  53  78 105 135 172 217 261 305
#     4  10  21  34  49  75 110 141 172 218 276 334
#     4   9  18  34  55  79 111 146 178 217 266 318
#     4   9  19  36  57  77 101 138 184 227 273 324
#
# _framework density 20.634758999999999
#
# number of rings (size 3 to 8) (size 9 to 14) (size 15 to 20)
#    0.000    2.750    0.000    1.875    1.750    4.000 
#    2.250    2.500    0.000    0.000    0.000    0.000 
#    0.000    0.000    0.000    0.000    0.000    0.000 
#
# Total GULP energy -178270.878480 kJ/mol
# GULP energy per Si atom -5570.964953 kJ/mol
# Density = 2.058779 g / cm^3
# Si number density = 20.634759 Si / 1000 Ang^3
#
#
#
# Elastic Constant Matrix: (Units=GPa)
#
#
# Indices 1 2 3 4 5 6 
#
# 1 61.5720 34.5322 20.1601 0.0000 25.4022 0.0000
# 2 34.5322 92.4128 48.5283 0.0000 29.7337 0.0000
# 3 20.1601 48.5283 71.9364 0.0000 0.4687 0.0000
# 4 0.0000 0.0000 0.0000 13.8164 0.0000 6.4947
# 5 25.4022 29.7337 0.4687 0.0000 40.3942 0.0000
# 6 0.0000 0.0000 0.0000 6.4947 0.0000 20.6669
#
#
#
# Elastic Compliance Matrix: (Units=1/GPa)
#
#
# Indices 1 2 3 4 5 6 
#
# 1 0.025035 -0.001654 -0.005806 0.000000 -0.014458 0.000000
# 2 -0.001654 0.026253 -0.017129 0.000000 -0.018086 0.000000
# 3 -0.005806 -0.017129 0.026980 0.000000 0.015946 0.000000
# 4 0.000000 0.000000 0.000000 0.084923 0.000000 -0.026687
# 5 -0.014458 -0.018086 0.015946 0.000000 0.046976 0.000000
# 6 0.000000 0.000000 0.000000 -0.026687 0.000000 0.056773
#
#
# Mechanical properties :
#
#
# Convention : Reuss Voigt Hill
#
# Bulk Modulus (GPa) = 34.37663 48.04028 41.20845
# Shear Modulus (GPa) = 15.34623 23.15555 19.25089
#
# Velocity S-wave (km/s) = 2.73006 3.35350 3.05771
# Velocity P-wave (km/s) = 5.16075 6.19083 5.69911
#
# Compressibility (1/GPa) = 0.02908953
#
# Stress axis : x y z
#
# Youngs Moduli (GPa) = 39.94448 38.09108 37.06512
#
# Poissons Ratio (x) = 0.06300 0.21520
# Poissons Ratio (y) = 0.06607 0.63488
# Poissons Ratio (z) = 0.23192 0.65246
#
# Static dielectric constant tensor:
#      x y z
#    x 1.782110 0.000000 -0.041050 
#    y 0.000000 1.730560 0.000000 
#    z -0.041050 0.000000 1.810660 
# 
# From -- ./inp_files/91735.got.cif
#   From: 2010.05.17/outbox.cif.g08.bks.cpg/sg10_46_cif.got.tgz:91735.got - 2010.06.03 11:33:40.
