data_PCOD9149702
_publ_section_title
;
Structure prediction by ZEFSAII (Michael W. Deem and Ramdas Pophale) SiO2 
 PCOD9149702
Probable space group: P 2/M
;
_chemical_formula_sum "Si O2"
_cell_formula_units_Z 32
_cell_length_a 8.458879
_cell_length_b 29.193650
_cell_length_c 14.579899
_cell_angle_alpha 90.000000
_cell_angle_beta 30.479582
_cell_angle_gamma 90.000000
_cell_volume 1826.256407
_symmetry_space_group_name_H-M "P 2/M"
_symmetry_group_IT_number 10
_symmetry_cell_setting 'monoclinic'
loop_
_space_group_symop_operation_xyz
x,y,z
-x,y,-z
-x,-y,-z
x,-y,z
loop_
_atom_site_type_symbol
_atom_site_label
_atom_site_fract_x
_atom_site_fract_y
_atom_site_fract_z
Si Si1 0.376724 0.701345 0.311638
Si Si2 0.620904 0.947906 0.689548
Si Si3 0.375375 0.373817 0.460004
Si Si4 0.374221 0.126686 0.165603
Si Si5 0.374221 0.873314 0.460176
Si Si6 0.375376 0.373817 0.164620
Si Si7 0.370796 0.196370 0.814602
Si Si8 0.380411 0.447738 0.309795
O O1 0.466874 0.670827 0.354973
O O2 0.466875 0.670828 0.178151
O O3 0.523986 0.751152 0.238007
O O4 0.000000 0.705526 0.500000
O O5 0.527879 0.918329 0.825094
O O6 0.527879 0.918329 0.647027
O O7 0.000000 0.949168 0.500000
O O8 0.507083 0.000000 0.746459
O O9 0.500000 0.373435 0.500000
O O10 0.476441 0.418258 0.350647
O O11 1.000000 0.374383 0.649994
O O12 0.496353 0.169670 0.163279
O O13 1.000000 0.128195 0.351573
O O14 0.500000 0.126212 0.000000
O O15 0.500000 0.873788 0.500000
O O16 0.496353 0.830330 0.340368
O O17 0.476442 0.418258 0.172912
O O18 0.500000 0.373436 0.000000
O O19 0.000000 0.192993 0.000000
O O20 0.489467 0.500000 0.255266
O O21 0.000000 0.448378 0.500000
#
# Coordination Sequence:
#
# PCOD9149702 Si02
#       8
#     4   4   4   4   4   4   4   4
#     4   9  19  36  52  69  99 135 168 202 250 307
#     4   8  16  32  53  77 106 139 173 210 253 300
#     4   9  18  32  51  73  98 130 165 204 247 294
#     4  10  20  35  55  78 107 140 173 212 256 303
#     4  10  20  35  55  78 107 140 173 212 256 303
#     4   9  18  32  51  73  98 130 165 204 247 294
#     4  11  22  36  55  78 103 133 172 215 261 309
#     4   8  15  30  50  71  98 133 167 196 238 298
#
# _framework density 17.522182000000001
#
# number of rings (size 3 to 8) (size 9 to 14) (size 15 to 20)
#    0.000    2.750    0.000    4.125    0.000    3.000 
#    0.000    4.375    0.000   13.500    0.000    0.000 
#    0.000    0.000    0.000    0.000    0.000    0.000 
#
# Total GULP energy -178454.944483 kJ/mol
# GULP energy per Si atom -5576.717015 kJ/mol
# Density = 1.748230 g / cm^3
# Si number density = 17.522182 Si / 1000 Ang^3
#
#
#
# Elastic Constant Matrix: (Units=GPa)
#
#
# Indices 1 2 3 4 5 6 
#
# 1 152.2784 92.0490 50.6000 0.0000 39.2197 0.0000
# 2 92.0490 194.4628 62.1309 0.0000 30.3756 0.0000
# 3 50.6000 62.1309 81.7593 0.0000 32.3774 0.0000
# 4 0.0000 0.0000 0.0000 11.0116 0.0000 -4.0559
# 5 39.2197 30.3756 32.3774 0.0000 38.4717 0.0000
# 6 0.0000 0.0000 0.0000 -4.0559 0.0000 7.0167
#
#
#
# Elastic Compliance Matrix: (Units=1/GPa)
#
#
# Indices 1 2 3 4 5 6 
#
# 1 0.011114 -0.003753 -0.001070 0.000000 -0.007467 0.000000
# 2 -0.003753 0.008119 -0.004235 0.000000 0.000980 0.000000
# 3 -0.001070 -0.004235 0.021531 0.000000 -0.013686 0.000000
# 4 0.000000 0.000000 0.000000 0.115379 0.000000 0.066694
# 5 -0.007467 0.000980 -0.013686 0.000000 0.044350 0.000000
# 6 0.000000 0.000000 0.000000 0.066694 0.000000 0.181068
#
#
# Mechanical properties :
#
#
# Convention : Reuss Voigt Hill
#
# Bulk Modulus (GPa) = 44.15187 93.11779 68.63483
# Shear Modulus (GPa) = 12.27822 26.21472 19.24647
#
# Velocity S-wave (km/s) = 2.64999 3.87213 3.31782
# Velocity P-wave (km/s) = 5.88351 8.55858 7.34387
#
# Compressibility (1/GPa) = 0.02264910
#
# Stress axis : x y z
#
# Youngs Moduli (GPa) = 89.97808 123.17097 46.44432
#
# Poissons Ratio (x) = 0.46222 0.04968
# Poissons Ratio (y) = 0.33766 0.19670
# Poissons Ratio (z) = 0.09624 0.52164
#
# Static dielectric constant tensor:
#      x y z
#    x 1.578460 0.000000 -0.008850 
#    y 0.000000 1.588280 0.000000 
#    z -0.008850 0.000000 1.587180 
# 
# From -- ./inp_files/62742.got.cif
#   From: 2010.05.17/outbox.cif.g08.bks.cpg/sg10_32_cif.got.tgz:62742.got - 2010.06.03 11:33:40.
