data_PCOD9149282
_publ_section_title
;
Structure prediction by ZEFSAII (Michael W. Deem and Ramdas Pophale) SiO2 
 PCOD9149282
Probable space group: P 2/M
;
_chemical_formula_sum "Si O2"
_cell_formula_units_Z 28
_cell_length_a 5.606685
_cell_length_b 20.791025
_cell_length_c 17.817264
_cell_angle_alpha 90.000000
_cell_angle_beta 51.253237
_cell_angle_gamma 90.000000
_cell_volume 1619.843446
_symmetry_space_group_name_H-M "P 2/M"
_symmetry_group_IT_number 10
_symmetry_cell_setting 'monoclinic'
loop_
_space_group_symop_operation_xyz
x,y,z
-x,y,-z
-x,-y,-z
x,-y,z
loop_
_atom_site_type_symbol
_atom_site_label
_atom_site_fract_x
_atom_site_fract_y
_atom_site_fract_z
Si Si1 0.633708 0.000000 0.058702
Si Si2 0.622115 0.500000 0.060850
Si Si3 0.164205 0.360619 0.744020
Si Si4 0.625484 0.143786 0.062084
Si Si5 0.740401 0.621942 0.112449
Si Si6 0.689145 0.740087 0.791432
Si Si7 0.852540 0.570668 0.405685
Si Si8 0.176198 0.300549 0.395157
O O1 0.544570 0.071010 0.104744
O O2 0.500000 0.000000 0.000000
O O3 0.000000 0.000000 0.000000
O O4 0.529999 0.566031 0.119427
O O5 0.500000 0.500000 0.000000
O O6 0.000000 0.500000 0.000000
O O7 0.161085 0.397300 0.823686
O O8 0.117182 0.411710 0.687458
O O9 0.478115 0.323702 0.660538
O O10 0.924748 0.301884 0.794054
O O11 0.437396 0.195464 0.147486
O O12 0.500000 0.149967 0.000000
O O13 0.000000 0.152344 0.000000
O O14 0.588421 0.689962 0.157640
O O15 0.000000 0.632255 0.000000
O O16 0.825227 0.741942 0.680369
O O17 0.500000 0.569809 0.500000
O O18 0.984904 0.500000 0.396835
O O19 0.009058 0.631569 0.412876
O O20 0.000000 0.270189 0.500000
#
# Coordination Sequence:
#
# PCOD9149282 Si02
#       8
#     2   2   4   4   4   4   4   4
#     4   8  16  34  54  88 123 161 187 215 270 322
#     4  10  24  40  58  72  94 143 188 229 276 330
#     4  10  22  37  51  75 101 135 178 233 281 348
#     4  10  21  35  61  89 127 158 188 227 268 327
#     4  10  23  38  53  71 102 138 182 227 278 326
#     4  10  23  34  55  81 104 143 188 224 278 333
#     4  10  20  34  55  75  94 128 176 234 303 361
#     4  10  20  38  52  70 104 134 178 232 290 339
#
# _framework density 17.285622
#
# number of rings (size 3 to 8) (size 9 to 14) (size 15 to 20)
#    0.000    2.143    1.429    0.429   11.000    0.857 
#   10.286    0.000    0.000    0.000    0.000    0.500 
#    0.000    1.143    0.000    0.000    0.000    0.000 
#
# Total GULP energy -155871.500105 kJ/mol
# GULP energy per Si atom -5566.839289 kJ/mol
# Density = 1.724628 g / cm^3
# Si number density = 17.285622 Si / 1000 Ang^3
#
#
#
# Elastic Constant Matrix: (Units=GPa)
#
#
# Indices 1 2 3 4 5 6 
#
# 1 69.3773 14.8919 32.4823 0.0000 11.6929 0.0000
# 2 14.8919 125.2808 46.9034 0.0000 11.7515 0.0000
# 3 32.4823 46.9034 114.4144 0.0000 19.2496 0.0000
# 4 0.0000 0.0000 0.0000 -16.8064 0.0000 -40.3188
# 5 11.6929 11.7515 19.2496 0.0000 31.9976 0.0000
# 6 0.0000 0.0000 0.0000 -40.3188 0.0000 -38.6485
#
#
#
# Elastic Compliance Matrix: (Units=1/GPa)
#
#
# Indices 1 2 3 4 5 6 
#
# 1 0.017006 -0.000119 -0.004162 0.000000 -0.003667 0.000000
# 2 -0.000119 0.009476 -0.003641 0.000000 -0.001246 0.000000
# 3 -0.004162 -0.003641 0.012165 0.000000 -0.004460 0.000000
# 4 0.000000 0.000000 0.000000 0.039596 0.000000 -0.041308
# 5 -0.003667 -0.001246 -0.004460 0.000000 0.035733 0.000000
# 6 0.000000 0.000000 0.000000 -0.041308 0.000000 0.017219
#
#
# Mechanical properties :
#
#
# Convention : Reuss Voigt Hill
#
# Bulk Modulus (GPa) = 43.85580 55.29196 49.57388
# Shear Modulus (GPa) = 32.33276 9.62819 20.98047
#
# Velocity S-wave (km/s) = 4.32962 2.36266 3.48768
# Velocity P-wave (km/s) = 7.10074 6.28487 6.70522
#
# Compressibility (1/GPa) = 0.02280200
#
# Stress axis : x y z
#
# Youngs Moduli (GPa) = 58.80170 105.52563 82.20363
#
# Poissons Ratio (x) = 0.01259 0.34215
# Poissons Ratio (y) = 0.00701 0.29932
# Poissons Ratio (z) = 0.24475 0.38425
#
# Static dielectric constant tensor:
#      x y z
#    x 1.737550 0.000000 -0.014260 
#    y 0.000000 1.574860 0.000000 
#    z -0.014260 0.000000 1.631930 
# 
# From -- ./inp_files/73756.got.cif
#   From: 2010.05.17/outbox.cif.g08.bks.cpg/sg10_37_cif.got.tgz:73756.got - 2010.06.03 11:33:40.
