data_PCOD9149068
_publ_section_title
;
Structure prediction by ZEFSAII (Michael W. Deem and Ramdas Pophale) SiO2 
 PCOD9149068
Probable space group: P 2/M
;
_chemical_formula_sum "Si O2"
_cell_formula_units_Z 32
_cell_length_a 22.418479
_cell_length_b 7.366547
_cell_length_c 14.717299
_cell_angle_alpha 90.000000
_cell_angle_beta 35.360335
_cell_angle_gamma 90.000000
_cell_volume 1406.579427
_symmetry_space_group_name_H-M "P 2/M"
_symmetry_group_IT_number 10
_symmetry_cell_setting 'monoclinic'
loop_
_space_group_symop_operation_xyz
x,y,z
-x,y,-z
-x,-y,-z
x,-y,z
loop_
_atom_site_type_symbol
_atom_site_label
_atom_site_fract_x
_atom_site_fract_y
_atom_site_fract_z
Si Si1 0.156174 0.206489 0.674223
Si Si2 0.655077 0.221684 0.445919
Si Si3 0.977201 0.220001 0.426808
Si Si4 0.577444 0.792763 0.975772
Si Si5 0.938429 0.220949 0.867468
Si Si6 0.242523 0.295584 0.376065
Si Si7 0.438176 0.778082 0.800449
Si Si8 0.707094 0.221199 0.183137
O O1 0.236419 0.286975 0.646433
O O2 0.221937 0.204629 0.498744
O O3 0.042980 0.284373 0.789423
O O4 0.135795 0.000000 0.729429
O O5 0.553038 0.277205 0.627029
O O6 0.649966 0.272908 0.346822
O O7 0.657427 0.000000 0.447726
O O8 0.868177 0.295276 0.532580
O O9 0.000000 0.279590 0.500000
O O10 0.052664 0.269345 0.250403
O O11 0.971132 0.000000 0.434665
O O12 0.682893 0.794535 0.789146
O O13 0.540236 0.000000 0.036097
O O14 0.500000 0.704610 0.000000
O O15 0.584259 0.716907 0.068680
O O16 0.942224 0.000000 0.867476
O O17 0.826549 0.279468 0.039994
O O18 0.278639 0.500000 0.348637
O O19 0.354152 0.718639 0.830357
O O20 0.434791 0.000000 0.803020
O O21 0.708880 0.000000 0.178256
#
# Coordination Sequence:
#
# PCOD9149068 Si02
#       8
#     4   4   4   4   4   4   4   4
#     4   9  17  32  51  70  99 134 173 209 246 306
#     4   9  16  27  45  69  98 132 163 204 259 308
#     4   9  18  32  53  75 101 138 177 211 249 306
#     4  10  20  34  53  75 101 137 179 217 255 308
#     4   8  15  26  41  68  99 129 162 201 248 295
#     4  11  22  34  50  75 106 136 170 214 264 310
#     4   9  17  27  43  68 100 133 164 203 256 312
#     4   9  16  25  41  70 105 129 157 205 260 310
#
# _framework density 22.750226999999999
#
# number of rings (size 3 to 8) (size 9 to 14) (size 15 to 20)
#    0.000    2.750    0.000    3.000    1.750    4.500 
#    0.000    2.500    0.000    0.000    0.000    7.875 
#    0.000    3.000    0.000    0.000    0.000    0.000 
#
# Total GULP energy -178543.205311 kJ/mol
# GULP energy per Si atom -5579.475166 kJ/mol
# Density = 2.269845 g / cm^3
# Si number density = 22.750227 Si / 1000 Ang^3
#
#
#
# Elastic Constant Matrix: (Units=GPa)
#
#
# Indices 1 2 3 4 5 6 
#
# 1 130.2217 -0.0246 21.0526 0.0000 5.3648 0.0000
# 2 -0.0246 78.4518 -8.0329 0.0000 -1.1855 0.0000
# 3 21.0526 -8.0329 72.5600 0.0000 -8.6606 0.0000
# 4 0.0000 0.0000 0.0000 -38.0525 0.0000 -4.7467
# 5 5.3648 -1.1855 -8.6606 0.0000 21.1822 0.0000
# 6 0.0000 0.0000 0.0000 -4.7467 0.0000 -16.0391
#
#
#
# Elastic Compliance Matrix: (Units=1/GPa)
#
#
# Indices 1 2 3 4 5 6 
#
# 1 0.008271 -0.000336 -0.002827 0.000000 -0.003270 0.000000
# 2 -0.000336 0.012945 0.001711 0.000000 0.001509 0.000000
# 3 -0.002827 0.001711 0.015652 0.000000 0.007211 0.000000
# 4 0.000000 0.000000 0.000000 -0.027287 0.000000 0.008075
# 5 -0.003270 0.001509 0.007211 0.000000 0.051071 0.000000
# 6 0.000000 0.000000 0.000000 0.008075 0.000000 -0.064738
#
#
# Mechanical properties :
#
#
# Convention : Reuss Voigt Hill
#
# Bulk Modulus (GPa) = 29.44462 34.13596 31.79029
# Shear Modulus (GPa) = 493.10343 11.30069 252.20206
#
# Velocity S-wave (km/s) = 14.73829 2.23116 10.54028
# Velocity P-wave (km/s) = 17.39521 4.65561 12.73319
#
# Compressibility (1/GPa) = 0.03396207
#
# Stress axis : x y z
#
# Youngs Moduli (GPa) = 120.90577 77.25265 63.88921
#
# Poissons Ratio (x) = 0.02598 0.18063
# Poissons Ratio (y) = 0.04066 -0.10930
# Poissons Ratio (z) = 0.34182 -0.13216
#
# Static dielectric constant tensor:
#      x y z
#    x 1.840320 0.000000 -0.003000 
#    y 0.000000 1.899890 0.000000 
#    z -0.003000 0.000000 1.866630 
# 
# From -- ./inp_files/71470.got.cif
#   From: 2010.05.17/outbox.cif.g08.bks.cpg/sg10_36_cif.got.tgz:71470.got - 2010.06.03 11:33:40.
