data_PCOD9149907
_publ_section_title
;
Structure prediction by ZEFSAII (Michael W. Deem and Ramdas Pophale) SiO2 
 PCOD9149907
Probable space group: P 2/M
;
_chemical_formula_sum "Si O2"
_cell_formula_units_Z 32
_cell_length_a 28.044110
_cell_length_b 13.964547
_cell_length_c 9.803356
_cell_angle_alpha 90.000000
_cell_angle_beta 28.082824
_cell_angle_gamma 90.000000
_cell_volume 1807.304103
_symmetry_space_group_name_H-M "P 2/M"
_symmetry_group_IT_number 10
_symmetry_cell_setting 'monoclinic'
loop_
_space_group_symop_operation_xyz
x,y,z
-x,y,-z
-x,-y,-z
x,-y,z
loop_
_atom_site_type_symbol
_atom_site_label
_atom_site_fract_x
_atom_site_fract_y
_atom_site_fract_z
Si Si1 0.411265 0.888084 0.613141
Si Si2 0.592280 0.200127 0.667134
Si Si3 0.689933 0.392010 0.343854
Si Si4 0.383205 0.390549 0.785699
Si Si5 0.883685 0.720910 0.775790
Si Si6 0.880150 0.888050 0.283642
Si Si7 0.232459 0.771186 0.200809
Si Si8 0.190117 0.888696 0.847524
O O1 0.500000 0.879526 0.500000
O O2 0.436461 0.828390 0.414444
O O3 0.399379 0.000000 0.608741
O O4 0.307789 0.845734 0.935637
O O5 0.628578 0.310559 0.578673
O O6 0.691069 0.137114 0.451443
O O7 0.500000 0.182395 0.000000
O O8 0.682467 0.500000 0.415692
O O9 0.647388 0.390773 0.296436
O O10 0.805366 0.355504 0.037611
O O11 0.500000 0.359570 0.500000
O O12 0.376197 0.500000 0.854391
O O13 0.305383 0.318202 0.052759
O O14 0.849039 0.737515 0.706891
O O15 0.000000 0.693414 0.500000
O O16 0.863086 0.819395 0.909629
O O17 0.819518 0.820489 0.539626
O O18 0.851651 0.870230 0.198576
O O19 0.856303 0.000000 0.373773
O O20 0.000000 0.874831 0.000000
O O21 0.174716 0.000000 0.919725
#
# Coordination Sequence:
#
# PCOD9149907 Si02
#       8
#     4   4   4   4   4   4   4   4
#     4  11  23  37  55  84 116 149 188 225 269 326
#     4  11  23  37  56  81 113 150 184 225 273 332
#     4   9  19  36  54  79 110 139 179 231 277 330
#     4   9  17  31  55  82 109 140 178 223 275 328
#     4  10  20  35  57  83 106 142 185 229 282 327
#     4  10  22  37  54  79 109 146 187 226 275 326
#     4  11  20  35  58  81 111 142 184 234 269 322
#     4  10  21  37  53  76 112 148 184 224 270 329
#
# _framework density 17.705929999999999
#
# number of rings (size 3 to 8) (size 9 to 14) (size 15 to 20)
#    0.000    1.875    3.750    1.875    1.750    2.250 
#    0.000    0.000    0.000    3.375    0.000    0.000 
#    0.000    0.000    0.000    0.000    0.000    0.000 
#
# Total GULP energy -178637.787559 kJ/mol
# GULP energy per Si atom -5582.430861 kJ/mol
# Density = 1.766563 g / cm^3
# Si number density = 17.705930 Si / 1000 Ang^3
#
#
#
# Elastic Constant Matrix: (Units=GPa)
#
#
# Indices 1 2 3 4 5 6 
#
# 1 81.3779 28.1577 31.3945 0.0000 -18.8617 0.0000
# 2 28.1577 97.7952 21.4905 0.0000 3.0499 0.0000
# 3 31.3945 21.4905 66.7351 0.0000 -11.1064 0.0000
# 4 0.0000 0.0000 0.0000 -32.7639 0.0000 54.7958
# 5 -18.8617 3.0499 -11.1064 0.0000 25.8703 0.0000
# 6 0.0000 0.0000 0.0000 54.7958 0.0000 -36.1725
#
#
#
# Elastic Compliance Matrix: (Units=1/GPa)
#
#
# Indices 1 2 3 4 5 6 
#
# 1 0.018683 -0.004576 -0.005340 0.000000 0.011868 0.000000
# 2 -0.004576 0.012351 -0.002824 0.000000 -0.006005 0.000000
# 3 -0.005340 -0.002824 0.019184 0.000000 0.004676 0.000000
# 4 0.000000 0.000000 0.000000 0.019903 0.000000 0.030150
# 5 0.011868 -0.006005 0.004676 0.000000 0.050022 0.000000
# 6 0.000000 0.000000 0.000000 0.030150 0.000000 0.018028
#
#
# Mechanical properties :
#
#
# Convention : Reuss Voigt Hill
#
# Bulk Modulus (GPa) = 40.42420 45.33263 42.87842
# Shear Modulus (GPa) = 29.08722 2.37781 15.73251
#
# Velocity S-wave (km/s) = 4.05754 1.16011 2.98408
# Velocity P-wave (km/s) = 6.69567 5.23957 6.01187
#
# Compressibility (1/GPa) = 0.02473766
#
# Stress axis : x y z
#
# Youngs Moduli (GPa) = 53.52584 80.96659 52.12575
#
# Poissons Ratio (x) = 0.37049 0.27837
# Poissons Ratio (y) = 0.24492 0.14720
# Poissons Ratio (z) = 0.28584 0.22865
#
# Static dielectric constant tensor:
#      x y z
#    x 1.603470 0.000000 -0.010750 
#    y 0.000000 1.623690 0.000000 
#    z -0.010750 0.000000 1.562130 
# 
# From -- ./inp_files/37703.got.cif
#   From: 2010.05.17/outbox.cif.g08.bks.cpg/sg10_19_cif.got.tgz:37703.got - 2010.06.03 11:33:40.
