data_PCOD9149873
_publ_section_title
;
Structure prediction by ZEFSAII (Michael W. Deem and Ramdas Pophale) SiO2 
 PCOD9149873
Probable space group: P 2/M
;
_chemical_formula_sum "Si O2"
_cell_formula_units_Z 30
_cell_length_a 5.268104
_cell_length_b 22.796807
_cell_length_c 14.502830
_cell_angle_alpha 90.000000
_cell_angle_beta 53.416335
_cell_angle_gamma 90.000000
_cell_volume 1398.588212
_symmetry_space_group_name_H-M "P 2/M"
_symmetry_group_IT_number 10
_symmetry_cell_setting 'monoclinic'
loop_
_space_group_symop_operation_xyz
x,y,z
-x,y,-z
-x,-y,-z
x,-y,z
loop_
_atom_site_type_symbol
_atom_site_label
_atom_site_fract_x
_atom_site_fract_y
_atom_site_fract_z
Si Si1 0.369056 0.500000 0.218922
Si Si2 0.907513 0.815103 0.620147
Si Si3 0.168033 0.175838 0.760169
Si Si4 0.062671 0.676695 0.382472
Si Si5 0.122190 0.935870 0.078009
Si Si6 0.664554 0.392490 0.192192
Si Si7 0.879148 0.287022 0.924306
Si Si8 0.244264 0.578079 0.629794
O O1 0.594811 0.444598 0.135657
O O2 0.096007 0.549409 0.309370
O O3 0.533002 0.823661 0.710913
O O4 0.962685 0.745314 0.606412
O O5 0.000000 0.839571 0.500000
O O6 0.110614 0.834368 0.663854
O O7 0.004594 0.121247 0.844569
O O8 0.011566 0.238007 0.824919
O O9 0.394329 0.656544 0.267167
O O10 0.000000 0.652236 0.500000
O O11 0.801413 0.647510 0.373941
O O12 0.022321 0.000000 0.138293
O O13 0.500000 0.934043 0.000000
O O14 0.000000 0.933763 0.000000
O O15 0.664260 0.432704 0.285209
O O16 0.977241 0.352675 0.119176
O O17 0.500000 0.288575 0.000000
O O18 0.000000 0.268595 0.000000
O O19 0.500000 0.559686 0.500000
#
# Coordination Sequence:
#
# PCOD9149873 Si02
#       8
#     2   4   4   4   4   4   4   4
#     4  10  25  37  61  82 123 148 209 245 329 384
#     4  11  24  38  64  99 138 174 218 259 321 398
#     4  12  22  42  67  98 136 176 215 269 333 385
#     4  10  20  35  56  86 119 155 199 251 319 393
#     4  10  21  39  66 101 138 179 232 286 333 379
#     4  11  23  42  58  85 118 156 197 261 321 387
#     4  12  27  44  67  93 123 161 216 273 327 383
#     4  11  21  35  61  87 116 154 196 253 325 395
#
# _framework density 21.450202999999998
#
# number of rings (size 3 to 8) (size 9 to 14) (size 15 to 20)
#    0.000    1.067    2.667    4.200    3.733    0.533 
#    0.000    0.667    0.000    2.400    0.000    0.000 
#    0.000    0.000    0.000    0.000    0.000    0.000 
#
# Total GULP energy -167020.397341 kJ/mol
# GULP energy per Si atom -5567.346578 kJ/mol
# Density = 2.140138 g / cm^3
# Si number density = 21.450203 Si / 1000 Ang^3
#
#
#
# Elastic Constant Matrix: (Units=GPa)
#
#
# Indices 1 2 3 4 5 6 
#
# 1 80.8192 2.2780 2.0416 0.0000 1.4553 0.0000
# 2 2.2780 108.7905 15.3663 0.0000 -4.1513 0.0000
# 3 2.0416 15.3663 29.6638 0.0000 2.8810 0.0000
# 4 0.0000 0.0000 0.0000 24.5427 0.0000 -0.1445
# 5 1.4553 -4.1513 2.8810 0.0000 41.2458 0.0000
# 6 0.0000 0.0000 0.0000 -0.1445 0.0000 7.9167
#
#
#
# Elastic Compliance Matrix: (Units=1/GPa)
#
#
# Indices 1 2 3 4 5 6 
#
# 1 0.012404 -0.000173 -0.000725 0.000000 -0.000404 0.000000
# 2 -0.000173 0.009997 -0.005301 0.000000 0.001383 0.000000
# 3 -0.000725 -0.005301 0.036806 0.000000 -0.003079 0.000000
# 4 0.000000 0.000000 0.000000 0.040750 0.000000 0.000744
# 5 -0.000404 0.001383 -0.003079 0.000000 0.024613 0.000000
# 6 0.000000 0.000000 0.000000 0.000744 0.000000 0.126330
#
#
# Mechanical properties :
#
#
# Convention : Reuss Voigt Hill
#
# Bulk Modulus (GPa) = 21.36316 28.73835 25.05075
# Shear Modulus (GPa) = 17.92757 28.04688 22.98722
#
# Velocity S-wave (km/s) = 2.89412 3.61991 3.27717
# Velocity P-wave (km/s) = 4.59879 5.55864 5.10134
#
# Compressibility (1/GPa) = 0.04680955
#
# Stress axis : x y z
#
# Youngs Moduli (GPa) = 80.62069 100.02891 27.16940
#
# Poissons Ratio (x) = 0.01728 0.01970
# Poissons Ratio (y) = 0.01393 0.14403
# Poissons Ratio (z) = 0.05844 0.53026
#
# Static dielectric constant tensor:
#      x y z
#    x 1.914860 0.000000 0.046480 
#    y 0.000000 1.765500 0.000000 
#    z 0.046480 0.000000 1.856920 
# 
# From -- ./inp_files/59730.got.cif
#   From: 2010.05.17/outbox.cif.g08.bks.cpg/sg10_30_cif.got.tgz:59730.got - 2010.06.03 11:33:40.
