data_PCOD9149124
_publ_section_title
;
Structure prediction by ZEFSAII (Michael W. Deem and Ramdas Pophale) SiO2 
 PCOD9149124
Probable space group: P 2/M
;
_chemical_formula_sum "Si O2"
_cell_formula_units_Z 32
_cell_length_a 25.877864
_cell_length_b 7.706271
_cell_length_c 24.533813
_cell_angle_alpha 90.000000
_cell_angle_beta 161.907336
_cell_angle_gamma 90.000000
_cell_volume 1519.413204
_symmetry_space_group_name_H-M "P 2/M"
_symmetry_group_IT_number 10
_symmetry_cell_setting 'monoclinic'
loop_
_space_group_symop_operation_xyz
x,y,z
-x,y,-z
-x,-y,-z
x,-y,z
loop_
_atom_site_type_symbol
_atom_site_label
_atom_site_fract_x
_atom_site_fract_y
_atom_site_fract_z
Si Si1 0.254834 0.292413 0.390103
Si Si2 0.075881 0.706291 0.751229
Si Si3 0.059131 0.209818 0.499875
Si Si4 0.433615 0.294100 0.108751
Si Si5 0.438190 0.209888 0.878913
Si Si6 0.243793 0.713741 0.503559
Si Si7 0.058207 0.793230 0.999052
Si Si8 0.554973 0.708520 0.615006
O O1 0.273802 0.500000 0.412325
O O2 0.246141 0.228869 0.443369
O O3 0.417119 0.225991 0.519912
O O4 0.083053 0.259238 0.185785
O O5 0.079523 0.500000 0.764532
O O6 0.047442 0.732805 0.658427
O O7 0.919593 0.775114 0.628157
O O8 0.255354 0.779452 0.947057
O O9 0.248440 0.267124 0.680372
O O10 0.000000 0.270081 0.500000
O O11 0.055867 0.000000 0.497577
O O12 0.430791 0.500000 0.116234
O O13 0.457208 0.268722 0.067894
O O14 0.592919 0.225190 0.300469
O O15 0.441986 0.000000 0.883350
O O16 0.500000 0.269602 0.000000
O O17 0.242817 0.500000 0.503644
O O18 0.249975 0.744764 0.179036
O O19 0.055071 0.000000 0.998857
O O20 0.000000 0.722946 0.000000
O O21 0.500000 0.773588 0.500000
O O22 0.539772 0.500000 0.598823
#
# Coordination Sequence:
#
# PCOD9149124 Si02
#       8
#     4   4   4   4   4   4   4   4
#     4  10  21  38  62  88 115 152 197 245 288 337
#     4  10  20  35  57  82 108 142 181 225 278 335
#     4  10  20  34  53  78 108 142 181 227 277 332
#     4  10  20  35  56  80 107 140 180 224 275 330
#     4  10  20  34  53  78 107 140 179 223 275 331
#     4   9  19  37  58  82 112 145 185 232 279 329
#     4  11  23  37  57  86 122 161 193 233 293 351
#     4  10  20  35  59  90 119 151 197 246 289 339
#
# _framework density 21.060760999999999
#
# number of rings (size 3 to 8) (size 9 to 14) (size 15 to 20)
#    0.000    2.000    2.500    1.125    0.000    4.250 
#    0.000    5.000    0.000    1.500    0.000    0.000 
#    0.000    0.000    0.000    0.000    0.000    0.000 
#
# Total GULP energy -178716.981664 kJ/mol
# GULP energy per Si atom -5584.905677 kJ/mol
# Density = 2.101283 g / cm^3
# Si number density = 21.060761 Si / 1000 Ang^3
#
#
#
# Elastic Constant Matrix: (Units=GPa)
#
#
# Indices 1 2 3 4 5 6 
#
# 1 167.5540 2.0141 108.7559 0.0000 5.0725 0.0000
# 2 2.0141 32.1971 0.4262 0.0000 4.7016 0.0000
# 3 108.7559 0.4262 205.9242 0.0000 19.7472 0.0000
# 4 0.0000 0.0000 0.0000 53.2507 0.0000 7.4134
# 5 5.0725 4.7016 19.7472 0.0000 34.3953 0.0000
# 6 0.0000 0.0000 0.0000 7.4134 0.0000 24.7321
#
#
#
# Elastic Compliance Matrix: (Units=1/GPa)
#
#
# Indices 1 2 3 4 5 6 
#
# 1 0.009172 -0.000744 -0.004998 0.000000 0.001618 0.000000
# 2 -0.000744 0.031778 0.000776 0.000000 -0.004680 0.000000
# 3 -0.004998 0.000776 0.007867 0.000000 -0.003885 0.000000
# 4 0.000000 0.000000 0.000000 0.019597 0.000000 -0.005874
# 5 0.001618 -0.004680 -0.003885 0.000000 0.031706 0.000000
# 6 0.000000 0.000000 0.000000 -0.005874 0.000000 0.042194
#
#
# Mechanical properties :
#
#
# Convention : Reuss Voigt Hill
#
# Bulk Modulus (GPa) = 25.71657 69.78530 47.75093
# Shear Modulus (GPa) = 30.26505 42.10755 36.18630
#
# Velocity S-wave (km/s) = 3.79494 4.47625 4.14960
# Velocity P-wave (km/s) = 5.60707 7.74099 6.75877
#
# Compressibility (1/GPa) = 0.03888544
#
# Stress axis : x y z
#
# Youngs Moduli (GPa) = 109.02588 31.46799 127.11880
#
# Poissons Ratio (x) = 0.02341 0.63531
# Poissons Ratio (y) = 0.08111 -0.09863
# Poissons Ratio (z) = 0.54489 -0.02442
#
# Static dielectric constant tensor:
#      x y z
#    x 1.740020 0.000000 0.016270 
#    y 0.000000 1.768020 0.000000 
#    z 0.016270 0.000000 1.753450 
# 
# From -- ./inp_files/90649.got.cif
#   From: 2010.05.17/outbox.cif.g08.bks.cpg/sg10_46_cif.got.tgz:90649.got - 2010.06.03 11:33:40.
