data_PCOD9149972
_publ_section_title
;
Structure prediction by ZEFSAII (Michael W. Deem and Ramdas Pophale) SiO2 
 PCOD9149972
Probable space group: P 2/M
;
_chemical_formula_sum "Si O2"
_cell_formula_units_Z 32
_cell_length_a 25.852230
_cell_length_b 7.535881
_cell_length_c 15.783405
_cell_angle_alpha 90.000000
_cell_angle_beta 27.458479
_cell_angle_gamma 90.000000
_cell_volume 1417.859604
_symmetry_space_group_name_H-M "P 2/M"
_symmetry_group_IT_number 10
_symmetry_cell_setting 'monoclinic'
loop_
_space_group_symop_operation_xyz
x,y,z
-x,y,-z
-x,-y,-z
x,-y,z
loop_
_atom_site_type_symbol
_atom_site_label
_atom_site_fract_x
_atom_site_fract_y
_atom_site_fract_z
Si Si1 0.619657 0.703863 0.850111
Si Si2 0.005219 0.703221 0.399827
Si Si3 0.620092 0.713404 0.357740
Si Si4 0.660661 0.285842 0.489406
Si Si5 0.137523 0.718154 0.549684
Si Si6 0.253131 0.789911 0.995173
Si Si7 0.902585 0.716832 0.205336
Si Si8 0.415421 0.209243 0.909969
O O1 0.615319 0.500000 0.825380
O O2 0.733517 0.778611 0.645464
O O3 0.500000 0.787478 0.000000
O O4 0.626529 0.705834 0.941936
O O5 0.964120 0.500000 0.469494
O O6 0.000000 0.788729 0.500000
O O7 0.930822 0.781264 0.432742
O O8 0.134094 0.703168 0.185279
O O9 0.500000 0.781191 0.500000
O O10 0.613106 0.500000 0.373619
O O11 0.647922 0.778503 0.411126
O O12 0.707456 0.756961 0.157525
O O13 0.664530 0.500000 0.482872
O O14 0.778517 0.225562 0.356601
O O15 0.547864 0.237798 0.703563
O O16 0.137605 0.500000 0.548360
O O17 0.083069 0.770763 0.717880
O O18 0.347155 0.727062 0.926206
O O19 0.240061 0.000000 0.026262
O O20 0.903706 0.500000 0.201806
O O21 0.000000 0.776422 0.000000
O O22 0.395730 0.000000 0.946929
#
# Coordination Sequence:
#
# PCOD9149972 Si02
#       8
#     4   4   4   4   4   4   4   4
#     4  10  20  36  61  88 113 144 185 234 284 335
#     4  10  21  37  59  84 112 149 192 240 286 331
#     4  10  20  35  57  86 113 143 188 242 288 337
#     4  10  20  35  58  85 113 147 189 235 286 337
#     4   9  18  33  54  83 116 145 182 232 285 335
#     4  11  24  38  55  81 115 154 191 230 285 349
#     4   9  18  32  54  85 115 143 179 229 283 335
#     4  11  23  37  55  82 115 151 185 228 284 343
#
# _framework density 22.569230000000001
#
# number of rings (size 3 to 8) (size 9 to 14) (size 15 to 20)
#    0.000    2.000    1.250    2.250    1.750    5.750 
#    0.000    0.625    0.000    1.125    0.000    0.000 
#    0.000    0.000    0.000    0.000    0.000    0.000 
#
# Total GULP energy -178882.018451 kJ/mol
# GULP energy per Si atom -5590.063077 kJ/mol
# Density = 2.251786 g / cm^3
# Si number density = 22.569230 Si / 1000 Ang^3
#
#
#
# Elastic Constant Matrix: (Units=GPa)
#
#
# Indices 1 2 3 4 5 6 
#
# 1 125.2729 4.6993 53.9839 0.0000 8.0155 0.0000
# 2 4.6993 58.3104 -7.7631 0.0000 -2.3987 0.0000
# 3 53.9839 -7.7631 149.4165 0.0000 10.5037 0.0000
# 4 0.0000 0.0000 0.0000 19.5329 0.0000 3.5608
# 5 8.0155 -2.3987 10.5037 0.0000 43.2551 0.0000
# 6 0.0000 0.0000 0.0000 3.5608 0.0000 2.9480
#
#
#
# Elastic Compliance Matrix: (Units=1/GPa)
#
#
# Indices 1 2 3 4 5 6 
#
# 1 0.009585 -0.001274 -0.003459 0.000000 -0.001007 0.000000
# 2 -0.001274 0.017463 0.001305 0.000000 0.000888 0.000000
# 3 -0.003459 0.001305 0.008098 0.000000 -0.001253 0.000000
# 4 0.000000 0.000000 0.000000 0.065652 0.000000 -0.079300
# 5 -0.001007 0.000888 -0.001253 0.000000 0.023659 0.000000
# 6 0.000000 0.000000 0.000000 -0.079300 0.000000 0.435001
#
#
# Mechanical properties :
#
#
# Convention : Reuss Voigt Hill
#
# Bulk Modulus (GPa) = 35.34717 48.31557 41.83137
# Shear Modulus (GPa) = 8.68443 31.95251 20.31847
#
# Velocity S-wave (km/s) = 1.96374 3.76673 3.00371
# Velocity P-wave (km/s) = 4.56479 6.35389 5.53215
#
# Compressibility (1/GPa) = 0.02829081
#
# Stress axis : x y z
#
# Youngs Moduli (GPa) = 104.32745 57.26531 123.48449
#
# Poissons Ratio (x) = 0.07298 0.42708
# Poissons Ratio (y) = 0.13295 -0.16119
# Poissons Ratio (z) = 0.36082 -0.07475
#
# Static dielectric constant tensor:
#      x y z
#    x 1.833520 0.000000 -0.001100 
#    y 0.000000 1.846770 0.000000 
#    z -0.001100 0.000000 1.795830 
# 
# From -- ./inp_files/71459.got.cif
#   From: 2010.05.17/outbox.cif.g08.bks.cpg/sg10_36_cif.got.tgz:71459.got - 2010.06.03 11:33:40.
