data_PCOD9149428
_publ_section_title
;
Structure prediction by ZEFSAII (Michael W. Deem and Ramdas Pophale) SiO2 
 PCOD9149428
Probable space group: P 2/M
;
_chemical_formula_sum "Si O2"
_cell_formula_units_Z 28
_cell_length_a 28.640029
_cell_length_b 7.620198
_cell_length_c 8.371975
_cell_angle_alpha 90.000000
_cell_angle_beta 43.354842
_cell_angle_gamma 90.000000
_cell_volume 1254.346255
_symmetry_space_group_name_H-M "P 2/M"
_symmetry_group_IT_number 10
_symmetry_cell_setting 'monoclinic'
loop_
_space_group_symop_operation_xyz
x,y,z
-x,y,-z
-x,-y,-z
x,-y,z
loop_
_atom_site_type_symbol
_atom_site_label
_atom_site_fract_x
_atom_site_fract_y
_atom_site_fract_z
Si Si1 0.420618 0.213999 0.699816
Si Si2 0.350077 0.208608 0.199644
Si Si3 0.789296 0.712023 0.602608
Si Si4 0.072872 0.796731 0.265515
Si Si5 0.070962 0.286775 0.901252
Si Si6 0.780206 0.703614 0.981489
Si Si7 0.353638 0.797424 0.539439
O O1 0.500000 0.256812 0.500000
O O2 0.385606 0.277966 0.622873
O O3 0.414022 0.000000 0.717657
O O4 0.386537 0.278768 0.949252
O O5 0.269919 0.234939 0.370099
O O6 0.369806 0.280887 0.325148
O O7 0.363455 0.000000 0.170976
O O8 0.791000 0.500000 0.605833
O O9 0.863577 0.770604 0.362280
O O10 0.772008 0.777133 0.823162
O O11 0.140848 0.714804 0.168732
O O12 0.000000 0.720005 0.500000
O O13 0.073723 0.000000 0.313371
O O14 0.076664 0.780863 0.066172
O O15 0.071330 0.500000 0.906325
O O16 0.000000 0.231085 0.000000
O O17 0.760704 0.500000 0.030452
O O18 0.727746 0.793645 0.231497
O O19 0.376437 0.000000 0.477550
#
# Coordination Sequence:
#
# PCOD9149428 Si02
#       7
#     4   4   4   4   4   4   4
#     4   9  18  34  56  84 119 154 189 235 288 342
#     4  10  20  34  56  84 113 150 190 234 287 339
#     4  10  21  36  56  82 110 145 188 236 286 340
#     4  11  24  39  55  80 113 148 188 236 291 345
#     4  10  21  38  58  80 109 146 191 239 287 342
#     4  11  22  37  59  83 110 149 192 235 287 343
#     4  10  20  35  57  86 117 149 191 237 286 345
#
# _framework density 22.322386999999999
#
# number of rings (size 3 to 8) (size 9 to 14) (size 15 to 20)
#    0.000    1.857    1.429    2.571    0.000    7.143 
#    0.000    2.857    0.000    1.714    0.000    2.000 
#    0.000    0.000    0.000    0.000    0.000    0.000 
#
# Total GULP energy -156467.364423 kJ/mol
# GULP energy per Si atom -5588.120158 kJ/mol
# Density = 2.227158 g / cm^3
# Si number density = 22.322387 Si / 1000 Ang^3
#
#
#
# Elastic Constant Matrix: (Units=GPa)
#
#
# Indices 1 2 3 4 5 6 
#
# 1 140.1790 2.8167 80.0115 0.0000 21.1726 0.0000
# 2 2.8167 49.1438 1.1747 0.0000 2.0404 0.0000
# 3 80.0115 1.1747 129.0040 0.0000 14.7404 0.0000
# 4 0.0000 0.0000 0.0000 -3.6005 0.0000 4.6904
# 5 21.1726 2.0404 14.7404 0.0000 43.5504 0.0000
# 6 0.0000 0.0000 0.0000 4.6904 0.0000 11.7581
#
#
#
# Elastic Compliance Matrix: (Units=1/GPa)
#
#
# Indices 1 2 3 4 5 6 
#
# 1 0.011488 -0.000361 -0.006746 0.000000 -0.003285 0.000000
# 2 -0.000361 0.020400 0.000132 0.000000 -0.000825 0.000000
# 3 -0.006746 0.000132 0.012026 0.000000 -0.000797 0.000000
# 4 0.000000 0.000000 0.000000 -0.182763 0.000000 0.072906
# 5 -0.003285 -0.000825 -0.000797 0.000000 0.024867 0.000000
# 6 0.000000 0.000000 0.000000 0.072906 0.000000 0.055965
#
#
# Mechanical properties :
#
#
# Convention : Reuss Voigt Hill
#
# Bulk Modulus (GPa) = 33.37337 54.03695 43.70516
# Shear Modulus (GPa) = -146.71421 25.96319 -60.37551
#
# Velocity S-wave (km/s) = -8.11590 3.41413 -5.20632
# Velocity P-wave (km/s) = 8.53468 6.30886 4.06442
#
# Compressibility (1/GPa) = 0.02996401
#
# Stress axis : x y z
#
# Youngs Moduli (GPa) = 87.04857 49.01907 83.15429
#
# Poissons Ratio (x) = 0.01769 0.56100
# Poissons Ratio (y) = 0.03141 -0.01100
# Poissons Ratio (z) = 0.58727 -0.00648
#
# Static dielectric constant tensor:
#      x y z
#    x 1.798150 0.000000 0.013480 
#    y 0.000000 1.825630 0.000000 
#    z 0.013480 0.000000 1.813310 
# 
# From -- ./inp_files/31580.got.cif
#   From: 2010.05.17/outbox.cif.g08.bks.cpg/sg10_16_cif.got.tgz:31580.got - 2010.06.03 11:33:40.
