data_PCOD9149645
_publ_section_title
;
Structure prediction by ZEFSAII (Michael W. Deem and Ramdas Pophale) SiO2 
 PCOD9149645
Probable space group: P 2/M
;
_chemical_formula_sum "Si O2"
_cell_formula_units_Z 28
_cell_length_a 32.446353
_cell_length_b 8.682308
_cell_length_c 9.858648
_cell_angle_alpha 90.000000
_cell_angle_beta 144.954274
_cell_angle_gamma 90.000000
_cell_volume 1594.792963
_symmetry_space_group_name_H-M "P 2/M"
_symmetry_group_IT_number 10
_symmetry_cell_setting 'monoclinic'
loop_
_space_group_symop_operation_xyz
x,y,z
-x,y,-z
-x,-y,-z
x,-y,z
loop_
_atom_site_type_symbol
_atom_site_label
_atom_site_fract_x
_atom_site_fract_y
_atom_site_fract_z
Si Si1 0.399377 0.686409 0.621125
Si Si2 0.994303 0.186174 0.826109
Si Si3 0.855914 0.816474 0.277321
Si Si4 0.417515 0.817470 0.248053
Si Si5 0.702360 0.316355 0.880853
Si Si6 0.072893 0.678354 0.786488
Si Si7 0.559212 0.313446 0.969409
O O1 0.399792 0.500000 0.618504
O O2 0.331099 0.738935 0.352743
O O3 0.403584 0.729294 0.789010
O O4 0.475168 0.732151 0.757406
O O5 0.919045 0.234712 0.551588
O O6 0.054809 0.246602 0.883468
O O7 0.997279 0.000000 0.833286
O O8 0.000000 0.235470 0.000000
O O9 0.871013 0.755898 0.165329
O O10 0.858560 0.000000 0.281081
O O11 0.778361 0.759600 0.114690
O O12 0.500000 0.769974 0.500000
O O13 0.359601 0.728497 0.180829
O O14 0.411474 0.000000 0.255872
O O15 0.406132 0.772994 0.061800
O O16 0.711435 0.500000 0.902071
O O17 0.091391 0.500000 0.856124
O O18 0.000000 0.687591 0.500000
O O19 0.562077 0.500000 0.960257
#
# Coordination Sequence:
#
# PCOD9149645 Si02
#       7
#     4   4   4   4   4   4   4
#     4   8  16  30  52  76  96 123 165 216 261 307
#     4   9  18  34  57  83 110 142 177 213 259 311
#     4  10  20  35  54  78 109 141 174 216 264 314
#     4  11  22  34  49  75 107 138 175 220 267 318
#     4  11  21  35  55  77 103 138 178 219 267 318
#     4   9  17  31  53  80 107 136 173 212 249 300
#     4   9  16  32  54  74  95 124 168 216 262 308
#
# _framework density 17.557137999999998
#
# number of rings (size 3 to 8) (size 9 to 14) (size 15 to 20)
#    0.000    2.429    1.429    2.571    0.000    3.143 
#    0.000    4.286    0.000    0.000    0.000    0.000 
#    0.000    0.000    0.000    0.000    0.000    0.000 
#
# Total GULP energy -156031.469737 kJ/mol
# GULP energy per Si atom -5572.552491 kJ/mol
# Density = 1.751718 g / cm^3
# Si number density = 17.557138 Si / 1000 Ang^3
#
#
#
# Elastic Constant Matrix: (Units=GPa)
#
#
# Indices 1 2 3 4 5 6 
#
# 1 95.3830 17.2313 47.4499 0.0000 -12.0156 0.0000
# 2 17.2313 18.5410 11.1339 0.0000 -1.0291 0.0000
# 3 47.4499 11.1339 74.8707 0.0000 -8.9857 0.0000
# 4 0.0000 0.0000 0.0000 8.0699 0.0000 18.5720
# 5 -12.0156 -1.0291 -8.9857 0.0000 29.5465 0.0000
# 6 0.0000 0.0000 0.0000 18.5720 0.0000 -16.6420
#
#
#
# Elastic Compliance Matrix: (Units=1/GPa)
#
#
# Indices 1 2 3 4 5 6 
#
# 1 0.017333 -0.010517 -0.008946 0.000000 0.003962 0.000000
# 2 -0.010517 0.065616 -0.003458 0.000000 -0.003043 0.000000
# 3 -0.008946 -0.003458 0.019812 0.000000 0.002267 0.000000
# 4 0.000000 0.000000 0.000000 0.034727 0.000000 0.038755
# 5 0.003962 -0.003043 0.002267 0.000000 0.036040 0.000000
# 6 0.000000 0.000000 0.000000 0.038755 0.000000 -0.016840
#
#
# Mechanical properties :
#
#
# Convention : Reuss Voigt Hill
#
# Bulk Modulus (GPa) = 17.56832 37.82499 27.69666
# Shear Modulus (GPa) = 22.57309 11.72683 17.14996
#
# Velocity S-wave (km/s) = 3.58955 2.58723 3.12878
# Velocity P-wave (km/s) = 5.21612 5.52410 5.37232
#
# Compressibility (1/GPa) = 0.05692063
#
# Stress axis : x y z
#
# Youngs Moduli (GPa) = 57.69254 15.24020 50.47456
#
# Poissons Ratio (x) = 0.16028 0.45153
# Poissons Ratio (y) = 0.60676 0.17452
# Poissons Ratio (z) = 0.51610 0.05269
#
# Static dielectric constant tensor:
#      x y z
#    x 1.598450 0.000000 -0.014060 
#    y 0.000000 1.593710 0.000000 
#    z -0.014060 0.000000 1.616570 
# 
# From -- ./inp_files/36937.got.cif
#   From: 2010.05.17/outbox.cif.g08.bks.cpg/sg10_19_cif.got.tgz:36937.got - 2010.06.03 11:33:40.
