data_PCOD9149175
_publ_section_title
;
Structure prediction by ZEFSAII (Michael W. Deem and Ramdas Pophale) SiO2 
 PCOD9149175
Probable space group: P 2/M
;
_chemical_formula_sum "Si O2"
_cell_formula_units_Z 22
_cell_length_a 12.946102
_cell_length_b 9.943906
_cell_length_c 8.823330
_cell_angle_alpha 90.000000
_cell_angle_beta 89.161193
_cell_angle_gamma 90.000000
_cell_volume 1135.748089
_symmetry_space_group_name_H-M "P 2/M"
_symmetry_group_IT_number 10
_symmetry_cell_setting 'monoclinic'
loop_
_space_group_symop_operation_xyz
x,y,z
-x,y,-z
-x,-y,-z
x,-y,z
loop_
_atom_site_type_symbol
_atom_site_label
_atom_site_fract_x
_atom_site_fract_y
_atom_site_fract_z
Si Si1 0.627665 0.845238 0.261755
Si Si2 0.500000 0.740399 0.000000
Si Si3 0.185147 0.661405 0.850601
Si Si4 0.912338 0.155576 0.381269
Si Si5 0.696863 0.150678 0.572145
Si Si6 0.709511 0.651029 0.850656
O O1 0.711388 0.732874 0.215117
O O2 0.612887 0.825870 0.441353
O O3 0.666262 0.000000 0.242804
O O4 0.535074 0.825522 0.146111
O O5 0.600432 0.659216 0.943076
O O6 0.181947 0.500000 0.825367
O O7 0.097970 0.742513 0.759808
O O8 0.199619 0.683891 0.030624
O O9 0.805290 0.157187 0.478365
O O10 0.000000 0.193072 0.500000
O O11 0.929734 0.000000 0.331820
O O12 0.701229 0.251430 0.709735
O O13 0.682663 0.000000 0.631821
O O14 0.725774 0.500000 0.796425
#
# Coordination Sequence:
#
# PCOD9149175 Si02
#       6
#     4   2   4   4   4   4
#     4   9  18  33  52  75 102 133 171 213 257 304
#     4  10  20  34  54  76  98 134 180 218 252 298
#     4   9  18  32  51  75 103 136 171 208 252 302
#     4   9  18  35  58  81 104 132 168 208 252 306
#     4   9  19  34  52  76 104 132 166 210 256 304
#     4  10  21  36  52  72 103 139 174 212 254 301
#
# _framework density 19.370493
#
# number of rings (size 3 to 8) (size 9 to 14) (size 15 to 20)
#    0.000    2.727    0.000    2.182    0.000    9.091 
#    0.000    3.636    0.000    5.455    0.000    0.000 
#    0.000    0.000    0.000    0.000    0.000    0.000 
#
# Total GULP energy -122472.100875 kJ/mol
# GULP energy per Si atom -5566.913676 kJ/mol
# Density = 1.932641 g / cm^3
# Si number density = 19.370493 Si / 1000 Ang^3
#
#
#
# Elastic Constant Matrix: (Units=GPa)
#
#
# Indices 1 2 3 4 5 6 
#
# 1 38.6731 6.0197 30.4763 0.0000 30.4733 0.0000
# 2 6.0197 126.7824 113.1437 0.0000 26.8417 0.0000
# 3 30.4763 113.1437 169.3725 0.0000 47.6686 0.0000
# 4 0.0000 0.0000 0.0000 31.5041 0.0000 4.1272
# 5 30.4733 26.8417 47.6686 0.0000 36.9050 0.0000
# 6 0.0000 0.0000 0.0000 4.1272 0.0000 14.0606
#
#
#
# Elastic Compliance Matrix: (Units=1/GPa)
#
#
# Indices 1 2 3 4 5 6 
#
# 1 0.091653 0.017690 -0.005323 0.000000 -0.081670 0.000000
# 2 0.017690 0.023360 -0.015547 0.000000 -0.011516 0.000000
# 3 -0.005323 -0.015547 0.020155 0.000000 -0.010330 0.000000
# 4 0.000000 0.000000 0.000000 0.033011 0.000000 -0.009690
# 5 -0.081670 -0.011516 -0.010330 0.000000 0.116252 0.000000
# 6 0.000000 0.000000 0.000000 -0.009690 0.000000 0.073965
#
#
# Mechanical properties :
#
#
# Convention : Reuss Voigt Hill
#
# Bulk Modulus (GPa) = 7.76355 70.45638 39.10997
# Shear Modulus (GPa) = 12.26409 28.83980 20.55194
#
# Velocity S-wave (km/s) = 2.51894 3.86275 3.26082
# Velocity P-wave (km/s) = 3.53224 7.50643 5.86614
#
# Compressibility (1/GPa) = 0.12880708
#
# Stress axis : x y z
#
# Youngs Moduli (GPa) = 10.91070 42.80777 49.61533
#
# Poissons Ratio (x) = -0.75726 0.26412
# Poissons Ratio (y) = -0.19301 0.77137
# Poissons Ratio (z) = 0.05808 0.66554
#
# Static dielectric constant tensor:
#      x y z
#    x 1.735070 0.000000 0.036290 
#    y 0.000000 1.657280 0.000000 
#    z 0.036290 0.000000 1.698810 
# 
# From -- ./inp_files/27045.got.cif
#   From: 2010.05.17/outbox.cif.g08.bks.cpg/sg10_14_cif.got.tgz:27045.got - 2010.06.03 11:33:40.
