data_PCOD9149479
_publ_section_title
;
Structure prediction by ZEFSAII (Michael W. Deem and Ramdas Pophale) SiO2 
 PCOD9149479
Probable space group: P 2/M
;
_chemical_formula_sum "Si O2"
_cell_formula_units_Z 28
_cell_length_a 19.150424
_cell_length_b 12.908283
_cell_length_c 12.055966
_cell_angle_alpha 90.000000
_cell_angle_beta 30.962445
_cell_angle_gamma 90.000000
_cell_volume 1533.254026
_symmetry_space_group_name_H-M "P 2/M"
_symmetry_group_IT_number 10
_symmetry_cell_setting 'monoclinic'
loop_
_space_group_symop_operation_xyz
x,y,z
-x,y,-z
-x,-y,-z
x,-y,z
loop_
_atom_site_type_symbol
_atom_site_label
_atom_site_fract_x
_atom_site_fract_y
_atom_site_fract_z
Si Si1 0.367661 0.378000 0.004816
Si Si2 0.126215 0.622522 0.491870
Si Si3 0.671950 0.621098 0.579119
Si Si4 0.974506 0.000000 0.237506
Si Si5 0.334900 0.761484 0.851429
Si Si6 0.202319 0.000000 0.733261
Si Si7 0.647323 0.212358 0.427286
Si Si8 0.046336 0.821110 0.310845
O O1 0.360090 0.500000 0.028187
O O2 0.521405 0.349828 0.831240
O O3 0.346602 0.342904 0.907401
O O4 0.240644 0.338923 0.248597
O O5 0.090736 0.500000 0.521411
O O6 0.207371 0.628989 0.497105
O O7 0.004001 0.703752 0.648388
O O8 0.662529 0.500000 0.558325
O O9 0.691857 0.698314 0.450820
O O10 0.848744 0.000000 0.324427
O O11 0.984692 0.099289 0.304712
O O12 0.093047 0.000000 0.982787
O O13 0.315672 0.750764 0.746770
O O14 0.485841 0.807195 0.657218
O O15 0.209048 0.824296 0.073478
O O16 0.282843 0.105016 0.641600
O O17 0.000000 0.844994 0.500000
#
# Coordination Sequence:
#
# PCOD9149479 Si02
#       8
#     4   4   4   2   4   2   4   4
#     4   9  17  32  55  83 117 156 196 233 276 337
#     4  10  20  34  57  85 117 156 193 233 282 340
#     4   9  18  34  56  85 117 151 193 239 286 332
#     4  11  25  41  63  88 112 151 192 227 293 340
#     4  10  21  36  56  89 113 149 192 233 288 330
#     4  11  22  42  66  85 111 148 192 243 273 343
#     4  10  21  38  62  84 114 148 195 241 280 333
#     4  12  23  40  60  84 122 151 188 234 285 348
#
# _framework density 18.261814000000001
#
# number of rings (size 3 to 8) (size 9 to 14) (size 15 to 20)
#    0.000    1.857    2.857    1.500    0.000    4.857 
#    0.000    2.857    0.000    2.571    0.000    0.000 
#    0.000    0.000    0.000    0.000    0.000    0.000 
#
# Total GULP energy -156011.894688 kJ/mol
# GULP energy per Si atom -5571.853382 kJ/mol
# Density = 1.822025 g / cm^3
# Si number density = 18.261814 Si / 1000 Ang^3
#
#
#
# Elastic Constant Matrix: (Units=GPa)
#
#
# Indices 1 2 3 4 5 6 
#
# 1 70.7122 19.1810 27.0895 0.0000 21.0081 0.0000
# 2 19.1810 46.0131 7.9213 0.0000 12.6552 0.0000
# 3 27.0895 7.9213 74.0188 0.0000 14.3146 0.0000
# 4 0.0000 0.0000 0.0000 21.8478 0.0000 0.7815
# 5 21.0081 12.6552 14.3146 0.0000 20.4307 0.0000
# 6 0.0000 0.0000 0.0000 0.7815 0.0000 28.6381
#
#
#
# Elastic Compliance Matrix: (Units=1/GPa)
#
#
# Indices 1 2 3 4 5 6 
#
# 1 0.021900 -0.003645 -0.004288 0.000000 -0.017257 0.000000
# 2 -0.003645 0.026812 0.001101 0.000000 -0.013631 0.000000
# 3 -0.004288 0.001101 0.016473 0.000000 -0.007815 0.000000
# 4 0.000000 0.000000 0.000000 0.045816 0.000000 -0.001250
# 5 -0.017257 -0.013631 -0.007815 0.000000 0.080610 0.000000
# 6 0.000000 0.000000 0.000000 -0.001250 0.000000 0.034953
#
#
# Mechanical properties :
#
#
# Convention : Reuss Voigt Hill
#
# Bulk Modulus (GPa) = 19.40937 33.23642 26.32289
# Shear Modulus (GPa) = 19.42505 23.28682 21.35593
#
# Velocity S-wave (km/s) = 3.26498 3.57482 3.42340
# Velocity P-wave (km/s) = 4.98647 5.93958 5.48377
#
# Compressibility (1/GPa) = 0.05152150
#
# Stress axis : x y z
#
# Youngs Moduli (GPa) = 45.66210 37.29686 60.70637
#
# Poissons Ratio (x) = 0.13594 0.26028
# Poissons Ratio (y) = 0.16643 -0.06682
# Poissons Ratio (z) = 0.19578 -0.04105
#
# Static dielectric constant tensor:
#      x y z
#    x 1.641050 0.000000 -0.017390 
#    y 0.000000 1.423230 0.000000 
#    z -0.017390 0.000000 1.653450 
# 
# From -- ./inp_files/55828.got.cif
#   From: 2010.05.17/outbox.cif.g08.bks.cpg/sg10_28_cif.got.tgz:55828.got - 2010.06.03 11:33:40.
