data_PCOD9149752
_publ_section_title
;
Structure prediction by ZEFSAII (Michael W. Deem and Ramdas Pophale) SiO2 
 PCOD9149752
Probable space group: P 2/M
;
_chemical_formula_sum "Si O2"
_cell_formula_units_Z 24
_cell_length_a 29.074494
_cell_length_b 7.881792
_cell_length_c 21.292468
_cell_angle_alpha 90.000000
_cell_angle_beta 15.266031
_cell_angle_gamma 90.000000
_cell_volume 1284.741896
_symmetry_space_group_name_H-M "P 2/M"
_symmetry_group_IT_number 10
_symmetry_cell_setting 'monoclinic'
loop_
_space_group_symop_operation_xyz
x,y,z
-x,y,-z
-x,-y,-z
x,-y,z
loop_
_atom_site_type_symbol
_atom_site_label
_atom_site_fract_x
_atom_site_fract_y
_atom_site_fract_z
Si Si1 0.738917 0.500000 0.391545
Si Si2 0.472721 0.797059 0.936952
Si Si3 0.828691 0.198609 0.914544
Si Si4 0.218481 0.208267 0.381211
Si Si5 0.704410 0.797896 0.214885
Si Si6 0.572507 0.688962 0.146125
Si Si7 0.130151 0.500000 0.922704
O O1 0.617584 0.658822 0.571974
O O2 0.777590 0.500000 0.266947
O O3 0.922665 0.500000 0.184819
O O4 0.654845 0.738354 0.728365
O O5 0.448932 0.754575 0.895827
O O6 0.474223 0.000000 0.940005
O O7 0.315948 0.736991 0.188861
O O8 0.021291 0.271761 0.648109
O O9 0.856707 0.000000 0.887891
O O10 0.741789 0.258492 0.093829
O O11 0.699573 0.216090 0.025957
O O12 0.215741 0.000000 0.383865
O O13 0.500000 0.779887 0.500000
O O14 0.811282 0.669404 0.117869
O O15 0.747689 0.000000 0.165890
O O16 0.649073 0.500000 0.040347
#
# Coordination Sequence:
#
# PCOD9149752 Si02
#       7
#     2   4   4   4   4   4   2
#     4   9  24  40  56  83 115 153 199 231 289 372
#     4   9  17  35  59  81 109 150 188 239 297 342
#     4  10  20  35  55  84 115 148 196 247 286 348
#     4   8  17  33  57  84 109 143 196 239 286 354
#     4  10  22  37  62  95 120 152 204 246 291 356
#     4  10  22  36  52  77 115 149 186 235 284 351
#     4  11  21  42  66  81 121 167 188 249 306 335
#
# _framework density 18.680796000000001
#
# number of rings (size 3 to 8) (size 9 to 14) (size 15 to 20)
#    0.500    2.000    0.000    2.750    3.500    0.667 
#    0.000   10.000    0.000    0.000    0.000    0.000 
#    0.000    0.000    0.000    0.000    0.000    0.000 
#
# Total GULP energy -133698.273069 kJ/mol
# GULP energy per Si atom -5570.761378 kJ/mol
# Density = 1.863828 g / cm^3
# Si number density = 18.680796 Si / 1000 Ang^3
#
#
#
# Elastic Constant Matrix: (Units=GPa)
#
#
# Indices 1 2 3 4 5 6 
#
# 1 155.3957 11.5399 91.6863 0.0000 8.0203 0.0000
# 2 11.5399 24.6658 15.5995 0.0000 -1.4460 0.0000
# 3 91.6863 15.5995 158.8748 0.0000 3.6072 0.0000
# 4 0.0000 0.0000 0.0000 -25.7994 0.0000 -5.4735
# 5 8.0203 -1.4460 3.6072 0.0000 17.7358 0.0000
# 6 0.0000 0.0000 0.0000 -5.4735 0.0000 25.0261
#
#
#
# Elastic Compliance Matrix: (Units=1/GPa)
#
#
# Indices 1 2 3 4 5 6 
#
# 1 0.009994 -0.001369 -0.005554 0.000000 -0.003502 0.000000
# 2 -0.001369 0.043759 -0.003619 0.000000 0.004923 0.000000
# 3 -0.005554 -0.003619 0.009850 0.000000 0.000213 0.000000
# 4 0.000000 0.000000 0.000000 -0.037042 0.000000 -0.008101
# 5 -0.003502 0.004923 0.000213 0.000000 0.058325 0.000000
# 6 0.000000 0.000000 0.000000 -0.008101 0.000000 0.038186
#
#
# Mechanical properties :
#
#
# Convention : Reuss Voigt Hill
#
# Bulk Modulus (GPa) = 23.51751 64.06530 43.79140
# Shear Modulus (GPa) = 31.57983 18.06654 24.82318
#
# Velocity S-wave (km/s) = 4.11603 3.11323 3.64924
# Velocity P-wave (km/s) = 5.93341 6.87692 6.42252
#
# Compressibility (1/GPa) = 0.04252151
#
# Stress axis : x y z
#
# Youngs Moduli (GPa) = 100.05556 22.85222 101.52434
#
# Poissons Ratio (x) = 0.03128 0.56385
# Poissons Ratio (y) = 0.13695 0.36737
# Poissons Ratio (z) = 0.55570 0.08269
#
# Static dielectric constant tensor:
#      x y z
#    x 1.658550 0.000000 0.011010 
#    y 0.000000 1.676630 0.000000 
#    z 0.011010 0.000000 1.652090 
# 
# From -- ./inp_files/80084.got.cif
#   From: 2010.05.17/outbox.cif.g08.bks.cpg/sg10_41_cif.got.tgz:80084.got - 2010.06.03 11:33:40.
