data_PCOD9149904
_publ_section_title
;
Structure prediction by ZEFSAII (Michael W. Deem and Ramdas Pophale) SiO2 
 PCOD9149904
Probable space group: P 2/M
;
_chemical_formula_sum "Si O2"
_cell_formula_units_Z 16
_cell_length_a 8.515152
_cell_length_b 19.603440
_cell_length_c 7.572588
_cell_angle_alpha 90.000000
_cell_angle_beta 37.485487
_cell_angle_gamma 90.000000
_cell_volume 769.259287
_symmetry_space_group_name_H-M "P 2/M"
_symmetry_group_IT_number 10
_symmetry_cell_setting 'monoclinic'
loop_
_space_group_symop_operation_xyz
x,y,z
-x,y,-z
-x,-y,-z
x,-y,z
loop_
_atom_site_type_symbol
_atom_site_label
_atom_site_fract_x
_atom_site_fract_y
_atom_site_fract_z
Si Si1 0.551438 0.578081 0.667572
Si Si2 0.949529 0.657704 0.834632
Si Si3 0.720891 0.076731 0.157002
Si Si4 0.776027 0.801023 0.836738
O O1 0.500000 0.577720 0.500000
O O2 0.598837 0.500000 0.677496
O O3 0.796320 0.626292 0.480627
O O4 0.295482 0.609412 0.980545
O O5 0.886556 0.734103 0.833811
O O6 0.000000 0.657570 0.000000
O O7 0.500000 0.088306 0.500000
O O8 0.681377 0.000000 0.118798
O O9 0.719482 0.136115 0.015985
O O10 0.000000 0.078150 0.000000
O O11 0.000000 0.821742 0.500000
O O12 0.500000 0.782450 0.000000
#
# Coordination Sequence:
#
# PCOD9149904 Si02
#       4
#     4   4   4   4
#     4   9  17  31  55  85 110 139 191 253 298 336
#     4  10  20  35  57  82 112 152 196 241 290 348
#     4  10  22  42  67  92 119 154 198 244 290 347
#     4  12  25  39  59  88 125 161 195 241 292 349
#
# _framework density 20.799229
#
# number of rings (size 3 to 8) (size 9 to 14) (size 15 to 20)
#    0.000    1.750    0.000    4.500    0.000    7.000 
#    0.000    0.000    0.000   15.000    0.000    0.000 
#    0.000    0.000    0.000    0.000    0.000    0.000 
#
# Total GULP energy -89498.021757 kJ/mol
# GULP energy per Si atom -5593.626360 kJ/mol
# Density = 2.075189 g / cm^3
# Si number density = 20.799229 Si / 1000 Ang^3
#
#
#
# Elastic Constant Matrix: (Units=GPa)
#
#
# Indices 1 2 3 4 5 6 
#
# 1 46.3599 51.9116 48.7653 0.0000 -17.4099 0.0000
# 2 51.9116 179.8370 69.9461 0.0000 -4.8792 0.0000
# 3 48.7653 69.9461 157.1982 0.0000 -29.5342 0.0000
# 4 0.0000 0.0000 0.0000 37.3292 0.0000 -9.0299
# 5 -17.4099 -4.8792 -29.5342 0.0000 27.9347 0.0000
# 6 0.0000 0.0000 0.0000 -9.0299 0.0000 3.4267
#
#
#
# Elastic Compliance Matrix: (Units=1/GPa)
#
#
# Indices 1 2 3 4 5 6 
#
# 1 0.048544 -0.011083 -0.005999 0.000000 0.021976 0.000000
# 2 -0.011083 0.009396 -0.002161 0.000000 -0.007551 0.000000
# 3 -0.005999 -0.002161 0.010495 0.000000 0.006980 0.000000
# 4 0.000000 0.000000 0.000000 0.073889 0.000000 0.194710
# 5 0.021976 -0.007551 0.006980 0.000000 0.055555 0.000000
# 6 0.000000 0.000000 0.000000 0.194710 0.000000 0.804925
#
#
# Mechanical properties :
#
#
# Convention : Reuss Voigt Hill
#
# Bulk Modulus (GPa) = 33.39052 80.51570 56.95311
# Shear Modulus (GPa) = 4.75614 27.92291 16.33953
#
# Velocity S-wave (km/s) = 1.51382 3.66799 2.80587
# Velocity P-wave (km/s) = 4.37540 7.53218 6.15946
#
# Compressibility (1/GPa) = 0.02994862
#
# Stress axis : x y z
#
# Youngs Moduli (GPa) = 20.60000 106.43333 95.28089
#
# Poissons Ratio (x) = 1.17963 0.57155
# Poissons Ratio (y) = 0.22832 0.20591
# Poissons Ratio (z) = 0.12357 0.23002
#
# Static dielectric constant tensor:
#      x y z
#    x 1.774560 0.000000 -0.007440 
#    y 0.000000 1.702860 0.000000 
#    z -0.007440 0.000000 1.745130 
# 
# From -- ./inp_files/3958.got.cif
#   From: 2010.05.17/outbox.cif.g08.bks.cpg/sg10_2_cif.got.tgz:3958.got - 2010.06.03 11:33:40.
