data_PCOD9149011
_publ_section_title
;
Structure prediction by ZEFSAII (Michael W. Deem and Ramdas Pophale) SiO2 
 PCOD9149011
Probable space group: P 2/M
;
_chemical_formula_sum "Si O2"
_cell_formula_units_Z 30
_cell_length_a 20.576468
_cell_length_b 7.370657
_cell_length_c 8.106188
_cell_angle_alpha 90.000000
_cell_angle_beta 91.805427
_cell_angle_gamma 90.000000
_cell_volume 1228.791098
_symmetry_space_group_name_H-M "P 2/M"
_symmetry_group_IT_number 10
_symmetry_cell_setting 'monoclinic'
loop_
_space_group_symop_operation_xyz
x,y,z
-x,y,-z
-x,-y,-z
x,-y,z
loop_
_atom_site_type_symbol
_atom_site_label
_atom_site_fract_x
_atom_site_fract_y
_atom_site_fract_z
Si Si1 0.433409 0.278590 0.413105
Si Si2 0.428278 0.794903 0.032115
Si Si3 0.712204 0.779351 0.913509
Si Si4 0.000000 0.251098 0.000000
Si Si5 0.141720 0.212569 0.097711
Si Si6 0.836433 0.720390 0.512795
Si Si7 0.698671 0.292424 0.522255
Si Si8 0.040971 0.717886 0.666559
O O1 0.500000 0.226576 0.500000
O O2 0.430762 0.500000 0.401018
O O3 0.428755 0.202579 0.230268
O O4 0.372006 0.215361 0.515216
O O5 0.354094 0.721141 0.994579
O O6 0.429992 0.000000 0.963810
O O7 0.500000 0.710511 0.000000
O O8 0.786840 0.727164 0.964520
O O9 0.705014 0.712171 0.723283
O O10 0.710930 0.000000 0.909906
O O11 0.990114 0.183303 0.183018
O O12 0.076620 0.312034 0.030476
O O13 0.145914 0.226497 0.298138
O O14 0.133166 0.000000 0.055145
O O15 0.836476 0.500000 0.516087
O O16 0.764927 0.791124 0.465727
O O17 0.887264 0.773926 0.378392
O O18 0.698041 0.500000 0.465678
O O19 0.037085 0.500000 0.702388
O O20 0.000000 0.747577 0.500000
#
# Coordination Sequence:
#
# PCOD9149011 Si02
#       8
#     4   4   4   2   4   4   4   4
#     4   9  17  29  45  69  99 130 162 197 246 298
#     4   9  17  30  49  72  96 126 167 206 245 291
#     4   8  15  29  48  68  94 129 164 203 247 294
#     4  12  22  34  52  76 107 140 173 212 257 310
#     4  10  20  34  52  75 103 133 169 210 259 310
#     4   9  17  33  55  76  97 126 170 215 257 304
#     4   8  14  26  47  70  93 124 162 204 245 292
#     4  10  20  35  54  78 104 133 171 214 260 307
#
# _framework density 24.414239999999999
#
# number of rings (size 3 to 8) (size 9 to 14) (size 15 to 20)
#    0.000    2.800    1.333    0.400    0.000    1.067 
#    0.000    3.333    0.000    0.000    0.000    0.000 
#    0.000    0.000    0.000    0.000    0.000    0.000 
#
# Total GULP energy -167016.231931 kJ/mol
# GULP energy per Si atom -5567.207731 kJ/mol
# Density = 2.435867 g / cm^3
# Si number density = 24.414240 Si / 1000 Ang^3
#
#
#
# Elastic Constant Matrix: (Units=GPa)
#
#
# Indices 1 2 3 4 5 6 
#
# 1 289.8705 25.1578 43.9955 0.0000 -17.6672 0.0000
# 2 25.1578 107.1174 9.3304 0.0000 -2.0799 0.0000
# 3 43.9955 9.3304 66.3089 0.0000 -16.5949 0.0000
# 4 0.0000 0.0000 0.0000 -2.8462 0.0000 19.1372
# 5 -17.6672 -2.0799 -16.5949 0.0000 44.4291 0.0000
# 6 0.0000 0.0000 0.0000 19.1372 0.0000 242.7048
#
#
#
# Elastic Compliance Matrix: (Units=1/GPa)
#
#
# Indices 1 2 3 4 5 6 
#
# 1 0.003904 -0.000701 -0.002329 0.000000 0.000650 0.000000
# 2 -0.000701 0.009578 -0.000927 0.000000 -0.000177 0.000000
# 3 -0.002329 -0.000927 0.018217 0.000000 0.005835 0.000000
# 4 0.000000 0.000000 0.000000 -0.229613 0.000000 0.018105
# 5 0.000650 -0.000177 0.005835 0.000000 0.024937 0.000000
# 6 0.000000 0.000000 0.000000 0.018105 0.000000 0.002693
#
#
# Mechanical properties :
#
#
# Convention : Reuss Voigt Hill
#
# Bulk Modulus (GPa) = 42.04406 68.91825 55.48115
# Shear Modulus (GPa) = -32.37434 82.51175 25.06870
#
# Velocity S-wave (km/s) = -3.64544 5.81979 3.20786
# Velocity P-wave (km/s) = 0.67857 8.57029 6.04109
#
# Compressibility (1/GPa) = 0.02378457
#
# Stress axis : x y z
#
# Youngs Moduli (GPa) = 256.16428 104.41085 54.89465
#
# Poissons Ratio (x) = 0.07323 0.12784
# Poissons Ratio (y) = 0.17967 0.05086
# Poissons Ratio (z) = 0.59656 0.09674
#
# Static dielectric constant tensor:
#      x y z
#    x 2.065780 0.000000 -0.038550 
#    y 0.000000 1.726060 0.000000 
#    z -0.038550 0.000000 1.943990 
# 
# From -- ./inp_files/33913.got.cif
#   From: 2010.05.17/outbox.cif.g08.bks.cpg/sg10_17_cif.got.tgz:33913.got - 2010.06.03 11:33:40.
