data_PCOD9149466
_publ_section_title
;
Structure prediction by ZEFSAII (Michael W. Deem and Ramdas Pophale) SiO2 
 PCOD9149466
Probable space group: P 2/M
;
_chemical_formula_sum "Si O2"
_cell_formula_units_Z 28
_cell_length_a 16.066998
_cell_length_b 8.784537
_cell_length_c 12.935946
_cell_angle_alpha 90.000000
_cell_angle_beta 124.427792
_cell_angle_gamma 90.000000
_cell_volume 1505.986869
_symmetry_space_group_name_H-M "P 2/M"
_symmetry_group_IT_number 10
_symmetry_cell_setting 'monoclinic'
loop_
_space_group_symop_operation_xyz
x,y,z
-x,y,-z
-x,-y,-z
x,-y,z
loop_
_atom_site_type_symbol
_atom_site_label
_atom_site_fract_x
_atom_site_fract_y
_atom_site_fract_z
Si Si1 0.505893 0.182993 0.173468
Si Si2 0.913676 0.317463 0.794808
Si Si3 0.714289 0.818310 0.053146
Si Si4 0.778394 0.817668 0.526104
Si Si5 0.856077 0.682765 0.981591
Si Si6 0.722391 0.319375 0.273382
Si Si7 0.444415 0.815910 0.562672
O O1 0.606511 0.263840 0.205066
O O2 0.497814 0.218075 0.290075
O O3 0.520693 0.000000 0.173052
O O4 0.403181 0.225503 0.044470
O O5 0.904176 0.500000 0.777476
O O6 0.866468 0.237345 0.662855
O O7 0.856712 0.272597 0.861197
O O8 0.031585 0.284190 0.896411
O O9 0.756964 0.742624 0.186767
O O10 0.718288 0.000000 0.065619
O O11 0.775087 0.765132 0.995495
O O12 0.780644 0.749730 0.412602
O O13 0.671218 0.766256 0.501479
O O14 0.776740 0.000000 0.517500
O O15 0.842004 0.500000 0.976833
O O16 0.727843 0.500000 0.280048
O O17 0.500000 0.755824 0.500000
O O18 0.441188 0.000000 0.551984
#
# Coordination Sequence:
#
# PCOD9149466 Si02
#       7
#     4   4   4   4   4   4   4
#     4   9  19  34  52  77 111 148 183 224 274 321
#     4   9  19  38  60  81 112 149 182 221 273 332
#     4  11  22  35  56  83 113 144 185 235 279 321
#     4  10  20  34  57  82 109 144 183 228 278 327
#     4   9  20  38  58  82 113 148 183 222 272 329
#     4  11  22  37  56  78 110 149 189 227 271 332
#     4   8  15  28  47  73 107 141 175 213 259 319
#
# _framework density 18.592459000000002
#
# number of rings (size 3 to 8) (size 9 to 14) (size 15 to 20)
#    0.000    2.429    0.000    4.286    2.000    4.000 
#    0.000    2.143    0.000    6.429    0.000    0.000 
#    0.000    0.000    0.000    0.000    0.000    0.000 
#
# Total GULP energy -156268.734789 kJ/mol
# GULP energy per Si atom -5581.026242 kJ/mol
# Density = 1.855014 g / cm^3
# Si number density = 18.592459 Si / 1000 Ang^3
#
#
#
# Elastic Constant Matrix: (Units=GPa)
#
#
# Indices 1 2 3 4 5 6 
#
# 1 23.8313 16.7440 12.0035 0.0000 -8.0343 0.0000
# 2 16.7440 47.8179 39.8530 0.0000 -0.0684 0.0000
# 3 12.0035 39.8530 107.0895 0.0000 0.7492 0.0000
# 4 0.0000 0.0000 0.0000 112.0266 0.0000 -49.6289
# 5 -8.0343 -0.0684 0.7492 0.0000 15.2434 0.0000
# 6 0.0000 0.0000 0.0000 -49.6289 0.0000 51.9606
#
#
#
# Elastic Compliance Matrix: (Units=1/GPa)
#
#
# Indices 1 2 3 4 5 6 
#
# 1 0.072848 -0.026710 0.001507 0.000000 0.038201 0.000000
# 2 -0.026710 0.040116 -0.011842 0.000000 -0.013316 0.000000
# 3 0.001507 -0.011842 0.013575 0.000000 0.000074 0.000000
# 4 0.000000 0.000000 0.000000 0.015474 0.000000 0.014780
# 5 0.038201 -0.013316 0.000074 0.000000 0.085673 0.000000
# 6 0.000000 0.000000 0.000000 0.014780 0.000000 0.033362
#
#
# Mechanical properties :
#
#
# Convention : Reuss Voigt Hill
#
# Bulk Modulus (GPa) = 19.06583 35.10441 27.08512
# Shear Modulus (GPa) = 14.17954 43.18868 28.68411
#
# Velocity S-wave (km/s) = 2.76461 4.82489 3.93209
# Velocity P-wave (km/s) = 4.52411 7.06834 5.93418
#
# Compressibility (1/GPa) = 0.05244985
#
# Stress axis : x y z
#
# Youngs Moduli (GPa) = 13.72724 24.92773 73.66243
#
# Poissons Ratio (x) = 0.66582 -0.11104
# Poissons Ratio (y) = 0.36666 0.87231
# Poissons Ratio (z) = -0.02069 0.29519
#
# Static dielectric constant tensor:
#      x y z
#    x 1.637830 0.000000 -0.009680 
#    y 0.000000 1.621370 0.000000 
#    z -0.009680 0.000000 1.643410 
# 
# From -- ./inp_files/50109.got.cif
#   From: 2010.05.17/outbox.cif.g08.bks.cpg/sg10_26_cif.got.tgz:50109.got - 2010.06.03 11:33:40.
