data_PCOD9149562
_publ_section_title
;
Structure prediction by ZEFSAII (Michael W. Deem and Ramdas Pophale) SiO2 
 PCOD9149562
Probable space group: P 2/M
;
_chemical_formula_sum "Si O2"
_cell_formula_units_Z 28
_cell_length_a 10.324259
_cell_length_b 7.483984
_cell_length_c 29.888398
_cell_angle_alpha 90.000000
_cell_angle_beta 140.788855
_cell_angle_gamma 90.000000
_cell_volume 1459.940486
_symmetry_space_group_name_H-M "P 2/M"
_symmetry_group_IT_number 10
_symmetry_cell_setting 'monoclinic'
loop_
_space_group_symop_operation_xyz
x,y,z
-x,y,-z
-x,-y,-z
x,-y,z
loop_
_atom_site_type_symbol
_atom_site_label
_atom_site_fract_x
_atom_site_fract_y
_atom_site_fract_z
Si Si1 0.818647 0.786127 0.189300
Si Si2 0.497416 0.786333 0.818915
Si Si3 0.463089 0.208507 0.708343
Si Si4 0.418242 0.713068 0.525012
Si Si5 0.706323 0.214980 0.687079
Si Si6 0.241558 0.500000 0.060855
Si Si7 0.553323 0.500000 0.066432
Si Si8 0.012655 0.716383 0.554833
O O1 0.712200 0.754377 0.209195
O O2 0.687116 0.670762 0.118801
O O3 0.056460 0.729872 0.252808
O O4 0.806576 0.000000 0.177095
O O5 0.491096 0.721887 0.766021
O O6 0.667869 0.674187 0.890320
O O7 0.533360 0.000000 0.829839
O O8 0.595222 0.284598 0.702429
O O9 0.224828 0.222610 0.632422
O O10 0.518665 0.000000 0.725759
O O11 0.500000 0.785740 0.500000
O O12 0.396231 0.500000 0.514048
O O13 0.572122 0.739910 0.607597
O O14 0.192207 0.781958 0.475959
O O15 0.707211 0.000000 0.689544
O O16 0.343274 0.500000 0.038937
O O17 0.000000 0.500000 0.000000
O O18 0.500000 0.500000 0.000000
O O19 0.014507 0.500000 0.556045
O O20 0.000000 0.773136 0.500000
#
# Coordination Sequence:
#
# PCOD9149562 Si02
#       8
#     4   4   4   4   4   2   2   4
#     4   9  20  39  59  84 118 152 187 230 276 330
#     4   9  20  39  59  85 118 151 187 228 278 332
#     4  10  21  35  54  79 107 144 188 232 283 336
#     4  10  22  37  50  74 106 143 188 236 285 335
#     4  10  21  36  54  78 108 143 188 235 280 332
#     4  10  22  40  62  92 120 148 186 224 272 334
#     4  10  22  40  62  92 118 150 188 221 274 334
#     4  10  20  35  51  73 106 142 185 234 288 332
#
# _framework density 19.178864000000001
#
# number of rings (size 3 to 8) (size 9 to 14) (size 15 to 20)
#    0.000    2.286    1.429    0.000    4.000    2.857 
#    0.000    0.000    0.000    0.000    0.000    0.000 
#    0.000    0.000    0.000    0.000    0.000    0.000 
#
# Total GULP energy -156247.488677 kJ/mol
# GULP energy per Si atom -5580.267453 kJ/mol
# Density = 1.913521 g / cm^3
# Si number density = 19.178864 Si / 1000 Ang^3
#
#
#
# Elastic Constant Matrix: (Units=GPa)
#
#
# Indices 1 2 3 4 5 6 
#
# 1 205.2155 31.8058 110.0058 0.0000 0.4003 0.0000
# 2 31.8058 58.0152 12.9559 0.0000 -1.0289 0.0000
# 3 110.0058 12.9559 106.2714 0.0000 2.1145 0.0000
# 4 0.0000 0.0000 0.0000 22.0271 0.0000 2.0779
# 5 0.4003 -1.0289 2.1145 0.0000 46.0036 0.0000
# 6 0.0000 0.0000 0.0000 2.0779 0.0000 6.0778
#
#
#
# Elastic Compliance Matrix: (Units=1/GPa)
#
#
# Indices 1 2 3 4 5 6 
#
# 1 0.011722 -0.003813 -0.011676 0.000000 0.000349 0.000000
# 2 -0.003813 0.018971 0.001626 0.000000 0.000383 0.000000
# 3 -0.011676 0.001626 0.021315 0.000000 -0.000842 0.000000
# 4 0.000000 0.000000 0.000000 0.046912 0.000000 -0.016039
# 5 0.000349 0.000383 -0.000842 0.000000 0.021782 0.000000
# 6 0.000000 0.000000 0.000000 -0.016039 0.000000 0.170017
#
#
# Mechanical properties :
#
#
# Convention : Reuss Voigt Hill
#
# Bulk Modulus (GPa) = 41.18192 75.44857 58.31524
# Shear Modulus (GPa) = 15.31216 29.13733 22.22474
#
# Velocity S-wave (km/s) = 2.82864 3.90197 3.40783
# Velocity P-wave (km/s) = 5.67340 7.72822 6.77912
#
# Compressibility (1/GPa) = 0.02428250
#
# Stress axis : x y z
#
# Youngs Moduli (GPa) = 85.30772 52.71273 46.91539
#
# Poissons Ratio (x) = 0.20098 0.54780
# Poissons Ratio (y) = 0.32526 -0.07630
# Poissons Ratio (z) = 0.99608 -0.08573
#
# Static dielectric constant tensor:
#      x y z
#    x 1.788250 0.000000 0.104980 
#    y 0.000000 1.715090 0.000000 
#    z 0.104980 0.000000 1.727410 
# 
# From -- ./inp_files/37401.got.cif
#   From: 2010.05.17/outbox.cif.g08.bks.cpg/sg10_19_cif.got.tgz:37401.got - 2010.06.03 11:33:40.
