data_PCOD9149563
_publ_section_title
;
Structure prediction by ZEFSAII (Michael W. Deem and Ramdas Pophale) SiO2 
 PCOD9149563
Probable space group: P 2/M
;
_chemical_formula_sum "Si O2"
_cell_formula_units_Z 28
_cell_length_a 15.090324
_cell_length_b 11.950778
_cell_length_c 14.819302
_cell_angle_alpha 90.000000
_cell_angle_beta 142.657912
_cell_angle_gamma 90.000000
_cell_volume 1621.083031
_symmetry_space_group_name_H-M "P 2/M"
_symmetry_group_IT_number 10
_symmetry_cell_setting 'monoclinic'
loop_
_space_group_symop_operation_xyz
x,y,z
-x,y,-z
-x,-y,-z
x,-y,z
loop_
_atom_site_type_symbol
_atom_site_label
_atom_site_fract_x
_atom_site_fract_y
_atom_site_fract_z
Si Si1 0.218172 0.865760 0.612438
Si Si2 0.116139 0.865821 0.719362
Si Si3 0.253815 0.500000 0.273638
Si Si4 0.363068 0.870080 0.276492
Si Si5 0.845999 0.262716 0.758044
Si Si6 0.470179 0.500000 0.623728
Si Si7 0.871332 0.868280 0.066443
Si Si8 0.632499 0.737400 0.422329
O O1 0.211709 0.826722 0.711428
O O2 0.329362 0.802016 0.638036
O O3 0.054150 0.845719 0.441397
O O4 0.243824 0.000000 0.629339
O O5 0.151129 0.828706 0.848841
O O6 0.133565 0.000000 0.733060
O O7 0.160708 0.387054 0.206055
O O8 0.365179 0.500000 0.449789
O O9 0.363423 0.500000 0.277223
O O10 0.261265 0.813154 0.268671
O O11 0.512464 0.804199 0.383239
O O12 0.388252 0.000000 0.317860
O O13 0.273455 0.862691 0.110329
O O14 0.776110 0.268796 0.601442
O O15 0.002724 0.205067 0.877764
O O16 0.430418 0.613439 0.642773
O O17 0.918161 0.000000 0.106314
#
# Coordination Sequence:
#
# PCOD9149563 Si02
#       8
#     4   4   2   4   4   2   4   4
#     4   9  16  28  52  83 101 122 167 211 248 298
#     4   8  15  30  51  74 104 133 161 203 250 300
#     4   9  18  34  52  72  95 132 179 214 244 288
#     4  11  23  33  46  75 110 136 164 206 252 304
#     4  11  20  34  54  72  99 136 175 211 242 297
#     4   9  18  34  51  70 102 135 165 209 265 290
#     4  10  20  35  51  73 107 142 165 196 258 307
#     4  11  20  33  54  76 100 130 174 214 248 297
#
# _framework density 17.272403000000001
#
# number of rings (size 3 to 8) (size 9 to 14) (size 15 to 20)
#    0.000    2.143    2.857    2.571    0.000    3.429 
#    0.000    2.857    0.000    6.000    0.000    1.000 
#    0.000    0.000    0.000    0.000    0.000    0.000 
#
# Total GULP energy -156176.117045 kJ/mol
# GULP energy per Si atom -5577.718466 kJ/mol
# Density = 1.723309 g / cm^3
# Si number density = 17.272403 Si / 1000 Ang^3
#
#
#
# Elastic Constant Matrix: (Units=GPa)
#
#
# Indices 1 2 3 4 5 6 
#
# 1 71.8126 16.1764 4.3886 0.0000 -21.1235 0.0000
# 2 16.1764 87.6304 8.3058 0.0000 -3.1796 0.0000
# 3 4.3886 8.3058 38.8313 0.0000 -6.7474 0.0000
# 4 0.0000 0.0000 0.0000 10.9166 0.0000 7.8007
# 5 -21.1235 -3.1796 -6.7474 0.0000 19.4199 0.0000
# 6 0.0000 0.0000 0.0000 7.8007 0.0000 3.7304
#
#
#
# Elastic Compliance Matrix: (Units=1/GPa)
#
#
# Indices 1 2 3 4 5 6 
#
# 1 0.021490 -0.003336 0.002396 0.000000 0.023662 0.000000
# 2 -0.003336 0.012188 -0.002675 0.000000 -0.002562 0.000000
# 3 0.002396 -0.002675 0.028129 0.000000 0.011942 0.000000
# 4 0.000000 0.000000 0.000000 -0.185340 0.000000 0.387565
# 5 0.023662 -0.002562 0.011942 0.000000 0.080961 0.000000
# 6 0.000000 0.000000 0.000000 0.387565 0.000000 -0.542375
#
#
# Mechanical properties :
#
#
# Convention : Reuss Voigt Hill
#
# Bulk Modulus (GPa) = 18.32244 28.44621 23.38433
# Shear Modulus (GPa) = -8.93615 18.10695 4.58540
#
# Velocity S-wave (km/s) = -2.27704 3.24128 1.63111
# Velocity P-wave (km/s) = 1.92815 5.52384 4.13706
#
# Compressibility (1/GPa) = 0.05457788
#
# Stress axis : x y z
#
# Youngs Moduli (GPa) = 46.53297 82.04853 35.55068
#
# Poissons Ratio (x) = 0.27368 -0.08519
# Poissons Ratio (y) = 0.15522 0.09510
# Poissons Ratio (z) = -0.11151 0.21949
#
# Static dielectric constant tensor:
#      x y z
#    x 1.578950 0.000000 -0.022370 
#    y 0.000000 1.577800 0.000000 
#    z -0.022370 0.000000 1.595600 
# 
# From -- ./inp_files/28237.got.cif
#   From: 2010.05.17/outbox.cif.g08.bks.cpg/sg10_15_cif.got.tgz:28237.got - 2010.06.03 11:33:40.
