data_PCOD9149523
_publ_section_title
;
Structure prediction by ZEFSAII (Michael W. Deem and Ramdas Pophale) SiO2 
 PCOD9149523
Probable space group: P 2/M
;
_chemical_formula_sum "Si O2"
_cell_formula_units_Z 24
_cell_length_a 23.392313
_cell_length_b 8.813431
_cell_length_c 11.174734
_cell_angle_alpha 90.000000
_cell_angle_beta 147.713785
_cell_angle_gamma 90.000000
_cell_volume 1230.602418
_symmetry_space_group_name_H-M "P 2/M"
_symmetry_group_IT_number 10
_symmetry_cell_setting 'monoclinic'
loop_
_space_group_symop_operation_xyz
x,y,z
-x,y,-z
-x,-y,-z
x,-y,z
loop_
_atom_site_type_symbol
_atom_site_label
_atom_site_fract_x
_atom_site_fract_y
_atom_site_fract_z
Si Si1 0.536690 0.314458 0.430253
Si Si2 0.203813 0.825568 0.606419
Si Si3 0.994253 0.673910 0.131385
Si Si4 0.875604 0.176577 0.265996
Si Si5 0.569779 0.682381 0.008832
Si Si6 0.221237 0.680915 0.133377
O O1 0.500000 0.267121 0.500000
O O2 0.533251 0.500000 0.425458
O O3 0.470489 0.265157 0.194857
O O4 0.659570 0.263012 0.629808
O O5 0.094132 0.766944 0.355583
O O6 0.182900 0.815653 0.711150
O O7 0.222082 0.000000 0.606205
O O8 0.307728 0.730232 0.756704
O O9 0.002905 0.500000 0.193194
O O10 0.000000 0.668885 0.000000
O O11 0.878889 0.737754 0.965957
O O12 0.000000 0.223768 0.500000
O O13 0.877077 0.000000 0.228235
O O14 0.812822 0.277803 0.060870
O O15 0.562338 0.500000 0.994055
O O16 0.500000 0.735629 0.000000
O O17 0.225893 0.500000 0.158205
#
# Coordination Sequence:
#
# PCOD9149523 Si02
#       6
#     4   4   4   4   4   4
#     4   9  18  34  56  84 116 147 185 237 291 343
#     4  11  23  39  60  84 117 155 193 239 289 349
#     4  10  22  37  57  85 116 150 192 242 291 344
#     4  10  20  36  55  80 117 154 188 230 285 344
#     4  10  22  39  63  88 114 152 196 244 296 348
#     4  10  20  34  58  87 113 145 190 241 289 344
#
# _framework density 19.502642999999999
#
# number of rings (size 3 to 8) (size 9 to 14) (size 15 to 20)
#    0.000    2.000    1.667    1.500    2.333    3.667 
#    0.000    0.833    0.000    3.000    0.000    0.000 
#    0.000    0.000    0.000    0.000    0.000    0.000 
#
# Total GULP energy -133881.811264 kJ/mol
# GULP energy per Si atom -5578.408803 kJ/mol
# Density = 1.945825 g / cm^3
# Si number density = 19.502643 Si / 1000 Ang^3
#
#
#
# Elastic Constant Matrix: (Units=GPa)
#
#
# Indices 1 2 3 4 5 6 
#
# 1 103.2577 18.3459 51.0828 0.0000 10.8195 0.0000
# 2 18.3459 -10.0046 6.4006 0.0000 0.5514 0.0000
# 3 51.0828 6.4006 92.8694 0.0000 20.8186 0.0000
# 4 0.0000 0.0000 0.0000 -175.1806 0.0000 9.6382
# 5 10.8195 0.5514 20.8186 0.0000 29.8117 0.0000
# 6 0.0000 0.0000 0.0000 9.6382 0.0000 12.3996
#
#
#
# Elastic Compliance Matrix: (Units=1/GPa)
#
#
# Indices 1 2 3 4 5 6 
#
# 1 0.010410 0.014709 -0.006914 0.000000 0.000778 0.000000
# 2 0.014709 -0.074666 -0.002439 0.000000 -0.002254 0.000000
# 3 -0.006914 -0.002439 0.016796 0.000000 -0.009175 0.000000
# 4 0.000000 0.000000 0.000000 -0.005474 0.000000 0.004255
# 5 0.000778 -0.002254 -0.009175 0.000000 0.039710 0.000000
# 6 0.000000 0.000000 0.000000 0.004255 0.000000 0.077340
#
#
# Mechanical properties :
#
#
# Convention : Reuss Voigt Hill
#
# Bulk Modulus (GPa) = -27.21119 37.53123 5.16002
# Shear Modulus (GPa) = 121.49011 -19.24098 51.12457
#
# Velocity S-wave (km/s) = 7.90123 -3.14440 5.12553
# Velocity P-wave (km/s) = 8.32204 2.47042 6.13838
#
# Compressibility (1/GPa) = -0.03674959
#
# Stress axis : x y z
#
# Youngs Moduli (GPa) = 96.05956 -13.39298 59.53845
#
# Poissons Ratio (x) = 0.19700 0.41167
# Poissons Ratio (y) = -1.41294 0.14524
# Poissons Ratio (z) = 0.66419 -0.03267
#
# Static dielectric constant tensor:
#      x y z
#    x 1.189140 0.000000 0.200850 
#    y 0.000000 1.675720 0.000000 
#    z 0.200850 0.000000 1.601030 
# 
# From -- ./inp_files/56521.got.cif
#   From: 2010.05.17/outbox.cif.g08.bks.cpg/sg10_29_cif.got.tgz:56521.got - 2010.06.03 11:33:40.
