data_PCOD9149152
_publ_section_title
;
Structure prediction by ZEFSAII (Michael W. Deem and Ramdas Pophale) SiO2 
 PCOD9149152
Probable space group: P 2/M
;
_chemical_formula_sum "Si O2"
_cell_formula_units_Z 32
_cell_length_a 16.922421
_cell_length_b 11.034748
_cell_length_c 22.802694
_cell_angle_alpha 90.000000
_cell_angle_beta 23.102136
_cell_angle_gamma 90.000000
_cell_volume 1670.738293
_symmetry_space_group_name_H-M "P 2/M"
_symmetry_group_IT_number 10
_symmetry_cell_setting 'monoclinic'
loop_
_space_group_symop_operation_xyz
x,y,z
-x,y,-z
-x,-y,-z
x,-y,z
loop_
_atom_site_type_symbol
_atom_site_label
_atom_site_fract_x
_atom_site_fract_y
_atom_site_fract_z
Si Si1 0.945780 0.852677 0.812499
Si Si2 0.452153 0.289400 0.877594
Si Si3 0.324653 0.360840 0.159841
Si Si4 0.475375 0.363257 0.731915
Si Si5 0.901895 0.760743 0.416621
Si Si6 0.706130 0.141471 0.338930
Si Si7 0.758836 0.862633 0.165026
Si Si8 0.184566 0.866916 0.406847
O O1 0.057442 0.813391 0.675880
O O2 0.093338 0.816437 0.765537
O O3 0.909023 0.000000 0.837451
O O4 0.744576 0.773577 0.960429
O O5 0.581942 0.355570 0.839065
O O6 0.427453 0.364183 0.834482
O O7 0.601163 0.186406 0.752979
O O8 0.298176 0.500000 0.159705
O O9 0.111180 0.298716 0.295047
O O10 0.500000 0.303427 0.000000
O O11 0.432806 0.500000 0.738501
O O12 0.708929 0.328816 0.556386
O O13 0.346237 0.249927 0.795211
O O14 0.855367 0.862364 0.496955
O O15 0.500000 0.202693 0.500000
O O16 0.706010 0.144653 0.269465
O O17 0.699846 0.000000 0.361648
O O18 0.704817 0.000000 0.180020
O O19 0.000000 0.853296 0.000000
O O20 0.000000 0.800195 0.500000
O O21 0.190973 0.000000 0.377243
#
# Coordination Sequence:
#
# PCOD9149152 Si02
#       8
#     4   4   4   4   4   4   4   4
#     4  11  22  37  61  93 124 155 200 257 313 371
#     4  11  22  39  58  86 119 159 210 251 309 364
#     4  11  22  39  60  79 109 156 210 260 304 358
#     4  11  25  41  63  94 130 165 207 261 313 370
#     4  11  22  39  59  87 120 162 211 251 308 365
#     4   9  18  34  58  87 116 150 191 239 295 362
#     4  10  21  40  67  93 121 160 205 251 308 378
#     4  10  20  34  53  80 118 158 196 246 305 362
#
# _framework density 19.153209
#
# number of rings (size 3 to 8) (size 9 to 14) (size 15 to 20)
#    0.000    1.500    2.500    3.000    0.000    5.250 
#    0.000    2.500    0.000    4.125    0.000    0.000 
#    0.000    0.000    0.000    0.000    0.000    0.000 
#
# Total GULP energy -178208.093011 kJ/mol
# GULP energy per Si atom -5569.002907 kJ/mol
# Density = 1.910962 g / cm^3
# Si number density = 19.153209 Si / 1000 Ang^3
#
#
#
# Elastic Constant Matrix: (Units=GPa)
#
#
# Indices 1 2 3 4 5 6 
#
# 1 65.0094 29.8466 12.7477 0.0000 -9.1002 0.0000
# 2 29.8466 87.5699 32.1913 0.0000 -12.7015 0.0000
# 3 12.7477 32.1913 94.5992 0.0000 5.4832 0.0000
# 4 0.0000 0.0000 0.0000 -27.7437 0.0000 16.2184
# 5 -9.1002 -12.7015 5.4832 0.0000 29.4347 0.0000
# 6 0.0000 0.0000 0.0000 16.2184 0.0000 -20.1812
#
#
#
# Elastic Compliance Matrix: (Units=1/GPa)
#
#
# Indices 1 2 3 4 5 6 
#
# 1 0.018569 -0.005514 -0.000830 0.000000 0.003516 0.000000
# 2 -0.005514 0.016062 -0.005080 0.000000 0.006173 0.000000
# 3 -0.000830 -0.005080 0.012690 0.000000 -0.004813 0.000000
# 4 0.000000 0.000000 0.000000 -0.067981 0.000000 -0.054633
# 5 0.003516 0.006173 -0.004813 0.000000 0.038621 0.000000
# 6 0.000000 0.000000 0.000000 -0.054633 0.000000 -0.093456
#
#
# Mechanical properties :
#
#
# Convention : Reuss Voigt Hill
#
# Bulk Modulus (GPa) = 40.86138 44.08329 42.47233
# Shear Modulus (GPa) = -112.38344 7.79483 -52.29431
#
# Velocity S-wave (km/s) = -7.66834 2.01954 -5.23091
# Velocity P-wave (km/s) = 7.55144 5.33893 3.77625
#
# Compressibility (1/GPa) = 0.02447299
#
# Stress axis : x y z
#
# Youngs Moduli (GPa) = 53.85393 62.26028 78.79913
#
# Poissons Ratio (x) = 0.34329 0.06538
# Poissons Ratio (y) = 0.29694 0.40033
# Poissons Ratio (z) = 0.04468 0.31631
#
# Static dielectric constant tensor:
#      x y z
#    x 1.710850 0.000000 -0.029450 
#    y 0.000000 1.668300 0.000000 
#    z -0.029450 0.000000 1.670440 
# 
# From -- ./inp_files/90196.got.cif
#   From: 2010.05.17/outbox.cif.g08.bks.cpg/sg10_46_cif.got.tgz:90196.got - 2010.06.03 11:33:40.
