data_PCOD9149735
_publ_section_title
;
Structure prediction by ZEFSAII (Michael W. Deem and Ramdas Pophale) SiO2 
 PCOD9149735
Probable space group: P 2/M
;
_chemical_formula_sum "Si O2"
_cell_formula_units_Z 28
_cell_length_a 15.192787
_cell_length_b 20.110575
_cell_length_c 9.153737
_cell_angle_alpha 90.000000
_cell_angle_beta 33.914774
_cell_angle_gamma 90.000000
_cell_volume 1560.496299
_symmetry_space_group_name_H-M "P 2/M"
_symmetry_group_IT_number 10
_symmetry_cell_setting 'monoclinic'
loop_
_space_group_symop_operation_xyz
x,y,z
-x,y,-z
-x,-y,-z
x,-y,z
loop_
_atom_site_type_symbol
_atom_site_label
_atom_site_fract_x
_atom_site_fract_y
_atom_site_fract_z
Si Si1 0.244366 0.187524 0.298264
Si Si2 0.174535 0.338061 0.311108
Si Si3 0.542629 0.187524 0.701737
Si Si4 0.742295 0.924972 0.300512
Si Si5 0.042806 0.075028 0.699489
Si Si6 0.658412 0.575596 0.683176
Si Si7 0.485643 0.338061 0.688892
O O1 0.181815 0.260494 0.346118
O O2 0.342046 0.193080 0.315909
O O3 0.111446 0.132197 0.503078
O O4 0.372449 0.167625 0.000001
O O5 0.219890 0.383077 0.387094
O O6 0.000000 0.354604 0.500000
O O7 0.311762 0.347878 0.000000
O O8 0.614525 0.132197 0.496922
O O9 0.527933 0.260494 0.653883
O O10 0.847529 0.924653 0.304942
O O11 0.678282 0.000000 0.373962
O O12 0.866110 0.912320 0.000000
O O13 0.052244 0.000000 0.626038
O O14 0.707714 0.500000 0.584572
O O15 0.606984 0.616923 0.612906
O O16 0.500000 0.572991 0.000000
O O17 0.500000 0.354604 0.500000
#
# Coordination Sequence:
#
# PCOD9149735 Si02
#       7
#     4   4   4   4   4   4   4
#     4   9  16  28  47  69  97 134 175 217 258 307
#     4  10  20  35  55  81 110 141 179 220 262 312
#     4   9  16  28  47  69  97 134 175 217 258 307
#     4   8  14  24  39  64  98 132 168 213 264 314
#     4   8  14  24  39  64  98 132 168 213 264 314
#     4   9  18  36  61  83 108 145 180 210 257 321
#     4  10  20  35  55  81 110 141 179 220 262 312
#
# _framework density 17.943010000000001
#
# number of rings (size 3 to 8) (size 9 to 14) (size 15 to 20)
#    0.000    3.000    1.429    0.857    0.000    2.286 
#    0.000    3.571    0.000    1.714    0.000    0.000 
#    0.000    0.000    0.000    0.000    0.000    0.000 
#
# Total GULP energy -156129.789470 kJ/mol
# GULP energy per Si atom -5576.063910 kJ/mol
# Density = 1.790217 g / cm^3
# Si number density = 17.943010 Si / 1000 Ang^3
#
#
#
# Elastic Constant Matrix: (Units=GPa)
#
#
# Indices 1 2 3 4 5 6 
#
# 1 91.1312 62.7719 64.2619 0.0000 0.5926 0.0000
# 2 62.7719 137.5580 86.6721 0.0000 0.7376 0.0000
# 3 64.2619 86.6721 80.9119 0.0000 -0.9078 0.0000
# 4 0.0000 0.0000 0.0000 12.2626 0.0000 0.6621
# 5 0.5926 0.7376 -0.9078 0.0000 22.9866 0.0000
# 6 0.0000 0.0000 0.0000 0.6621 0.0000 -9.1922
#
#
#
# Elastic Compliance Matrix: (Units=1/GPa)
#
#
# Indices 1 2 3 4 5 6 
#
# 1 0.025532 0.003529 -0.024077 0.000000 -0.001722 0.000000
# 2 0.003529 0.022915 -0.027370 0.000000 -0.001907 0.000000
# 3 -0.024077 -0.027370 0.060845 0.000000 0.003902 0.000000
# 4 0.000000 0.000000 0.000000 0.081233 0.000000 0.005851
# 5 -0.001722 -0.001907 0.003902 0.000000 0.043763 0.000000
# 6 0.000000 0.000000 0.000000 0.005851 0.000000 -0.108366
#
#
# Mechanical properties :
#
#
# Convention : Reuss Voigt Hill
#
# Bulk Modulus (GPa) = 74.32935 81.89031 78.10983
# Shear Modulus (GPa) = 22.09998 11.60442 16.85220
#
# Velocity S-wave (km/s) = 3.51333 2.54586 3.06797
# Velocity P-wave (km/s) = 7.61401 7.37428 7.49511
#
# Compressibility (1/GPa) = 0.01345363
#
# Stress axis : x y z
#
# Youngs Moduli (GPa) = 39.16630 43.63943 16.43530
#
# Poissons Ratio (x) = -0.15399 0.39572
# Poissons Ratio (y) = -0.13821 0.44984
# Poissons Ratio (z) = 0.94303 1.19443
#
# Static dielectric constant tensor:
#      x y z
#    x 1.630590 0.000000 -0.001010 
#    y 0.000000 1.598920 0.000000 
#    z -0.001010 0.000000 1.597910 
# 
# From -- ./inp_files/30374.got.cif
#   From: 2010.05.17/outbox.cif.g08.bks.cpg/sg10_16_cif.got.tgz:30374.got - 2010.06.03 11:33:40.
