data_PCOD9149465
_publ_section_title
;
Structure prediction by ZEFSAII (Michael W. Deem and Ramdas Pophale) SiO2 
 PCOD9149465
Probable space group: P 2/M
;
_chemical_formula_sum "Si O2"
_cell_formula_units_Z 32
_cell_length_a 8.075525
_cell_length_b 20.431447
_cell_length_c 13.645479
_cell_angle_alpha 90.000000
_cell_angle_beta 133.305957
_cell_angle_gamma 90.000000
_cell_volume 1638.369735
_symmetry_space_group_name_H-M "P 2/M"
_symmetry_group_IT_number 10
_symmetry_cell_setting 'monoclinic'
loop_
_space_group_symop_operation_xyz
x,y,z
-x,y,-z
-x,-y,-z
x,-y,z
loop_
_atom_site_type_symbol
_atom_site_label
_atom_site_fract_x
_atom_site_fract_y
_atom_site_fract_z
Si Si1 0.267249 0.424505 0.581229
Si Si2 0.752232 0.675465 0.586526
Si Si3 0.498323 0.327255 0.172692
Si Si4 0.850951 0.806995 0.533389
Si Si5 0.956437 0.167909 0.180662
Si Si6 0.828953 0.688986 0.123841
Si Si7 0.410245 0.813250 0.239845
Si Si8 0.756556 0.926302 0.958730
O O1 0.336189 0.500000 0.614128
O O2 0.275713 0.393407 0.477036
O O3 0.421815 0.379015 0.713752
O O4 0.000000 0.420097 0.500000
O O5 0.500000 0.702193 0.500000
O O6 0.866795 0.728848 0.561307
O O7 0.909031 0.673195 0.745727
O O8 0.686078 0.331298 0.161873
O O9 0.473144 0.255451 0.212500
O O10 0.267924 0.338923 0.016614
O O11 0.942440 0.838383 0.670041
O O12 0.595735 0.824102 0.399523
O O13 0.000000 0.823317 0.500000
O O14 0.163407 0.185737 0.190649
O O15 0.802231 0.232497 0.111080
O O16 0.823145 0.104944 0.089644
O O17 0.401133 0.873476 0.160218
O O18 0.667140 0.000000 0.926179
O O19 0.000000 0.928463 0.000000
#
# Coordination Sequence:
#
# PCOD9149465 Si02
#       8
#     4   4   4   4   4   4   4   4
#     4  11  23  41  61  84 118 161 203 240 296 365
#     4  11  21  37  59  87 114 151 196 244 296 351
#     4  11  21  36  59  85 119 151 195 249 295 353
#     4  11  21  34  56  85 118 147 193 248 295 343
#     4  10  20  34  56  90 116 148 197 240 299 339
#     4  10  21  35  55  88 118 149 194 243 298 345
#     4  11  19  34  59  89 115 152 194 248 289 344
#     4   9  19  36  57  85 123 158 193 235 290 355
#
# _framework density 19.531611000000002
#
# number of rings (size 3 to 8) (size 9 to 14) (size 15 to 20)
#    0.000    1.500    3.750    3.750    0.000    0.250 
#    0.000    2.500    0.000   10.500    0.000    0.000 
#    0.000    0.000    0.000    0.000    0.000    0.000 
#
# Total GULP energy -178608.805436 kJ/mol
# GULP energy per Si atom -5581.525170 kJ/mol
# Density = 1.948716 g / cm^3
# Si number density = 19.531611 Si / 1000 Ang^3
#
#
#
# Elastic Constant Matrix: (Units=GPa)
#
#
# Indices 1 2 3 4 5 6 
#
# 1 26.5801 12.8612 8.9185 0.0000 -8.4130 0.0000
# 2 12.8612 143.1328 74.6978 0.0000 -18.2176 0.0000
# 3 8.9185 74.6978 164.2063 0.0000 -13.8544 0.0000
# 4 0.0000 0.0000 0.0000 29.9866 0.0000 -0.2589
# 5 -8.4130 -18.2176 -13.8544 0.0000 24.8844 0.0000
# 6 0.0000 0.0000 0.0000 -0.2589 0.0000 15.4347
#
#
#
# Elastic Compliance Matrix: (Units=1/GPa)
#
#
# Indices 1 2 3 4 5 6 
#
# 1 0.042766 -0.002054 -0.000310 0.000000 0.012782 0.000000
# 2 -0.002054 0.009792 -0.003984 0.000000 0.004256 0.000000
# 3 -0.000310 -0.003984 0.008042 0.000000 0.001456 0.000000
# 4 0.000000 0.000000 0.000000 0.033353 0.000000 0.000560
# 5 0.012782 0.004256 0.001456 0.000000 0.048434 0.000000
# 6 0.000000 0.000000 0.000000 0.000560 0.000000 0.064799
#
#
# Mechanical properties :
#
#
# Convention : Reuss Voigt Hill
#
# Bulk Modulus (GPa) = 20.87507 58.54156 39.70831
# Shear Modulus (GPa) = 21.20010 29.89059 25.54534
#
# Velocity S-wave (km/s) = 3.29815 3.91624 3.62041
# Velocity P-wave (km/s) = 5.02143 7.10542 6.15231
#
# Compressibility (1/GPa) = 0.04790404
#
# Stress axis : x y z
#
# Youngs Moduli (GPa) = 23.38319 102.12667 124.35109
#
# Poissons Ratio (x) = 0.20978 0.03853
# Poissons Ratio (y) = 0.04803 0.49537
# Poissons Ratio (z) = 0.00725 0.40684
#
# Static dielectric constant tensor:
#      x y z
#    x 1.812370 0.000000 0.037990 
#    y 0.000000 1.658980 0.000000 
#    z 0.037990 0.000000 1.719080 
# 
# From -- ./inp_files/62512.got.cif
#   From: 2010.05.17/outbox.cif.g08.bks.cpg/sg10_32_cif.got.tgz:62512.got - 2010.06.03 11:33:40.
