data_PCOD9149296
_publ_section_title
;
Structure prediction by ZEFSAII (Michael W. Deem and Ramdas Pophale) SiO2 
 PCOD9149296
Probable space group: P 2/M
;
_chemical_formula_sum "Si O2"
_cell_formula_units_Z 32
_cell_length_a 14.313825
_cell_length_b 9.265426
_cell_length_c 22.834850
_cell_angle_alpha 90.000000
_cell_angle_beta 143.273302
_cell_angle_gamma 90.000000
_cell_volume 1811.004320
_symmetry_space_group_name_H-M "P 2/M"
_symmetry_group_IT_number 10
_symmetry_cell_setting 'monoclinic'
loop_
_space_group_symop_operation_xyz
x,y,z
-x,y,-z
-x,-y,-z
x,-y,z
loop_
_atom_site_type_symbol
_atom_site_label
_atom_site_fract_x
_atom_site_fract_y
_atom_site_fract_z
Si Si1 0.651996 0.664571 0.119270
Si Si2 0.820249 0.170937 0.700720
Si Si3 0.458155 0.172079 0.114333
Si Si4 0.852369 0.328380 0.466996
Si Si5 0.567156 0.331300 0.651591
Si Si6 0.795648 0.666822 0.569022
Si Si7 0.527886 0.172512 0.282018
Si Si8 0.169335 0.171381 0.887317
O O1 0.695601 0.500000 0.153734
O O2 0.595381 0.746367 0.148677
O O3 0.783161 0.745064 0.147718
O O4 0.500000 0.664830 0.000000
O O5 0.685581 0.256491 0.666562
O O6 0.830748 0.227110 0.639534
O O7 0.990694 0.199469 0.814096
O O8 0.789381 0.000000 0.686755
O O9 0.459925 0.205004 0.183767
O O10 0.481028 0.000000 0.118839
O O11 0.294985 0.209910 0.000466
O O12 0.813416 0.500000 0.443481
O O13 0.880971 0.300077 0.550409
O O14 0.703189 0.235700 0.373121
O O15 0.000000 0.300148 0.500000
O O16 0.604339 0.500000 0.677354
O O17 0.389558 0.322674 0.538288
O O18 0.565496 0.249149 0.712651
O O19 0.828911 0.500000 0.602135
O O20 0.529404 0.000000 0.291345
O O21 0.184926 0.000000 0.884025
#
# Coordination Sequence:
#
# PCOD9149296 Si02
#       8
#     4   4   4   4   4   4   4   4
#     4   9  17  29  48  74 100 129 169 213 250 288
#     4  11  22  34  53  79 103 131 170 216 259 298
#     4   9  18  34  54  74 102 141 175 205 250 306
#     4   9  19  36  55  77 109 145 173 202 250 308
#     4  10  21  38  57  75 100 134 168 207 261 318
#     4   9  19  35  54  76 103 137 172 204 250 312
#     4  10  20  34  55  80 102 131 175 219 254 295
#     4   9  19  35  51  72 106 141 171 206 253 307
#
# _framework density 17.669753
#
# number of rings (size 3 to 8) (size 9 to 14) (size 15 to 20)
#    0.000    2.500    0.000    2.625    0.000    8.750 
#    0.000    3.125    0.000    3.750    0.000    0.000 
#    0.000    0.000    0.000    0.000    0.000    0.000 
#
# Total GULP energy -178535.122052 kJ/mol
# GULP energy per Si atom -5579.222564 kJ/mol
# Density = 1.762954 g / cm^3
# Si number density = 17.669753 Si / 1000 Ang^3
#
#
#
# Elastic Constant Matrix: (Units=GPa)
#
#
# Indices 1 2 3 4 5 6 
#
# 1 114.3293 52.1498 37.5715 0.0000 -5.9519 0.0000
# 2 52.1498 64.3592 36.8148 0.0000 -8.6049 0.0000
# 3 37.5715 36.8148 46.1653 0.0000 -16.7375 0.0000
# 4 0.0000 0.0000 0.0000 15.3206 0.0000 -6.2540
# 5 -5.9519 -8.6049 -16.7375 0.0000 21.7309 0.0000
# 6 0.0000 0.0000 0.0000 -6.2540 0.0000 29.0012
#
#
#
# Elastic Compliance Matrix: (Units=1/GPa)
#
#
# Indices 1 2 3 4 5 6 
#
# 1 0.014655 -0.008673 -0.006659 0.000000 -0.004550 0.000000
# 2 -0.008673 0.034926 -0.023088 0.000000 -0.006328 0.000000
# 3 -0.006659 -0.023088 0.057602 0.000000 0.033400 0.000000
# 4 0.000000 0.000000 0.000000 0.071572 0.000000 0.015434
# 5 -0.004550 -0.006328 0.033400 0.000000 0.067991 0.000000
# 6 0.000000 0.000000 0.000000 0.015434 0.000000 0.037810
#
#
# Mechanical properties :
#
#
# Convention : Reuss Voigt Hill
#
# Bulk Modulus (GPa) = 32.95817 53.10289 43.03053
# Shear Modulus (GPa) = 13.45858 19.76505 16.61181
#
# Velocity S-wave (km/s) = 2.76284 3.34815 3.06948
# Velocity P-wave (km/s) = 5.37313 6.71305 6.08011
#
# Compressibility (1/GPa) = 0.03034149
#
# Stress axis : x y z
#
# Youngs Moduli (GPa) = 68.23815 28.63163 17.36054
#
# Poissons Ratio (x) = 0.24834 0.11561
# Poissons Ratio (y) = 0.59186 0.40082
# Poissons Ratio (z) = 0.45443 0.66104
#
# Static dielectric constant tensor:
#      x y z
#    x 1.584550 0.000000 0.003360 
#    y 0.000000 1.590650 0.000000 
#    z 0.003360 0.000000 1.607000 
# 
# From -- ./inp_files/83614.got.cif
#   From: 2010.05.17/outbox.cif.g08.bks.cpg/sg10_42_cif.got.tgz:83614.got - 2010.06.03 11:33:40.
