data_PCOD9149112
_publ_section_title
;
Structure prediction by ZEFSAII (Michael W. Deem and Ramdas Pophale) SiO2 
 PCOD9149112
Probable space group: P 2/M
;
_chemical_formula_sum "Si O2"
_cell_formula_units_Z 32
_cell_length_a 23.122973
_cell_length_b 9.003467
_cell_length_c 15.684783
_cell_angle_alpha 90.000000
_cell_angle_beta 149.013369
_cell_angle_gamma 90.000000
_cell_volume 1681.135058
_symmetry_space_group_name_H-M "P 2/M"
_symmetry_group_IT_number 10
_symmetry_cell_setting 'monoclinic'
loop_
_space_group_symop_operation_xyz
x,y,z
-x,y,-z
-x,-y,-z
x,-y,z
loop_
_atom_site_type_symbol
_atom_site_label
_atom_site_fract_x
_atom_site_fract_y
_atom_site_fract_z
Si Si1 0.067678 0.322327 0.876834
Si Si2 0.310368 0.177173 0.492256
Si Si3 0.175376 0.168844 0.667869
Si Si4 0.840399 0.821009 0.543747
Si Si5 0.870602 0.323116 0.859732
Si Si6 0.202356 0.678495 0.876848
Si Si7 0.556323 0.836691 0.980593
Si Si8 0.460643 0.327298 0.203884
O O1 0.045676 0.500000 0.849019
O O2 0.131014 0.282826 0.869803
O O3 0.950453 0.236622 0.730711
O O4 0.139221 0.290846 0.051937
O O5 0.266187 0.221348 0.532009
O O6 0.217727 0.237494 0.309577
O O7 0.432513 0.242071 0.623862
O O8 0.312998 0.000000 0.492774
O O9 0.149710 0.234554 0.541791
O O10 0.150858 0.254660 0.724697
O O11 0.130991 0.000000 0.617045
O O12 0.310672 0.161075 0.838838
O O13 0.838657 0.000000 0.535803
O O14 0.855441 0.500000 0.826826
O O15 0.000000 0.288238 0.000000
O O16 0.205165 0.500000 0.871069
O O17 0.332387 0.726907 0.057067
O O18 0.526643 0.704266 0.880699
O O19 0.523186 0.000000 0.902028
O O20 0.500000 0.822624 0.000000
O O21 0.466772 0.500000 0.233414
#
# Coordination Sequence:
#
# PCOD9149112 Si02
#       8
#     4   4   4   4   4   4   4   4
#     4  10  21  38  59  80 107 142 179 223 274 324
#     4  11  22  36  57  84 114 143 176 221 275 329
#     4   9  18  32  50  74 106 145 183 222 264 311
#     4  10  21  35  53  81 113 143 180 222 270 323
#     4  10  20  37  60  85 110 137 175 221 274 329
#     4   9  20  38  56  77 107 146 187 223 263 315
#     4   9  16  29  49  71 102 142 183 224 271 320
#     4  10  20  34  53  77 107 142 183 225 266 316
#
# _framework density 19.034759999999999
#
# number of rings (size 3 to 8) (size 9 to 14) (size 15 to 20)
#    0.000    2.250    1.250    1.500    0.000    5.500 
#    0.000    5.625    0.000    3.750    0.000    0.000 
#    0.000    0.000    0.000    0.000    0.000    0.000 
#
# Total GULP energy -178403.714282 kJ/mol
# GULP energy per Si atom -5575.116071 kJ/mol
# Density = 1.899144 g / cm^3
# Si number density = 19.034760 Si / 1000 Ang^3
#
#
#
# Elastic Constant Matrix: (Units=GPa)
#
#
# Indices 1 2 3 4 5 6 
#
# 1 62.7014 9.4308 2.8573 0.0000 -10.5045 0.0000
# 2 9.4308 13.9387 16.4051 0.0000 -1.4908 0.0000
# 3 2.8573 16.4051 76.2193 0.0000 -7.7376 0.0000
# 4 0.0000 0.0000 0.0000 26.0567 0.0000 0.5259
# 5 -10.5045 -1.4908 -7.7376 0.0000 28.3907 0.0000
# 6 0.0000 0.0000 0.0000 0.5259 0.0000 7.5124
#
#
#
# Elastic Compliance Matrix: (Units=1/GPa)
#
#
# Indices 1 2 3 4 5 6 
#
# 1 0.019517 -0.016655 0.003597 0.000000 0.007327 0.000000
# 2 -0.016655 0.110304 -0.023813 0.000000 -0.006860 0.000000
# 3 0.003597 -0.023813 0.018634 0.000000 0.005159 0.000000
# 4 0.000000 0.000000 0.000000 0.038432 0.000000 -0.002691
# 5 0.007327 -0.006860 0.005159 0.000000 0.038980 0.000000
# 6 0.000000 0.000000 0.000000 -0.002691 0.000000 0.133302
#
#
# Mechanical properties :
#
#
# Convention : Reuss Voigt Hill
#
# Bulk Modulus (GPa) = 13.38453 23.36064 18.37259
# Shear Modulus (GPa) = 10.92141 20.66972 15.79557
#
# Velocity S-wave (km/s) = 2.39793 3.29886 2.88380
# Velocity P-wave (km/s) = 3.83584 5.17777 4.55648
#
# Compressibility (1/GPa) = 0.07471310
#
# Stress axis : x y z
#
# Youngs Moduli (GPa) = 51.23667 9.06585 53.66424
#
# Poissons Ratio (x) = 0.15099 -0.19302
# Poissons Ratio (y) = 0.85334 1.27793
# Poissons Ratio (z) = -0.18429 0.21589
#
# Static dielectric constant tensor:
#      x y z
#    x 1.691620 0.000000 -0.007070 
#    y 0.000000 1.661740 0.000000 
#    z -0.007070 0.000000 1.675060 
# 
# From -- ./inp_files/71615.got.cif
#   From: 2010.05.17/outbox.cif.g08.bks.cpg/sg10_36_cif.got.tgz:71615.got - 2010.06.03 11:33:40.
