data_PCOD9149266
_publ_section_title
;
Structure prediction by ZEFSAII (Michael W. Deem and Ramdas Pophale) SiO2 
 PCOD9149266
Probable space group: P 2/M
;
_chemical_formula_sum "Si O2"
_cell_formula_units_Z 28
_cell_length_a 13.071698
_cell_length_b 9.078274
_cell_length_c 14.766702
_cell_angle_alpha 90.000000
_cell_angle_beta 124.895662
_cell_angle_gamma 90.000000
_cell_volume 1437.262260
_symmetry_space_group_name_H-M "P 2/M"
_symmetry_group_IT_number 10
_symmetry_cell_setting 'monoclinic'
loop_
_space_group_symop_operation_xyz
x,y,z
-x,y,-z
-x,-y,-z
x,-y,z
loop_
_atom_site_type_symbol
_atom_site_label
_atom_site_fract_x
_atom_site_fract_y
_atom_site_fract_z
Si Si1 0.436266 0.328927 0.825283
Si Si2 0.795757 0.824176 0.610694
Si Si3 0.764010 0.174864 0.164457
Si Si4 0.428644 0.826727 0.636401
Si Si5 0.722662 0.824690 0.773598
Si Si6 0.263435 0.671724 0.032935
Si Si7 0.018057 0.324947 0.615345
O O1 0.403649 0.500000 0.822049
O O2 0.368977 0.233622 0.867378
O O3 0.393411 0.270870 0.705228
O O4 0.585829 0.315493 0.900680
O O5 0.663064 0.800736 0.493767
O O6 0.786630 0.783792 0.711563
O O7 0.899007 0.733304 0.609925
O O8 0.822595 0.000000 0.618494
O O9 0.863494 0.240339 0.284833
O O10 0.766942 0.000000 0.164562
O O11 0.791499 0.239250 0.079043
O O12 0.573577 0.798525 0.687600
O O13 0.418219 0.000000 0.656284
O O14 0.767767 0.738718 0.884974
O O15 0.738403 0.000000 0.795854
O O16 0.230731 0.500000 0.010981
O O17 0.034037 0.500000 0.635156
O O18 0.000000 0.294359 0.500000
#
# Coordination Sequence:
#
# PCOD9149266 Si02
#       7
#     4   4   4   4   4   4   4
#     4  10  20  34  54  83 118 151 183 225 277 331
#     4  10  20  35  57  84 114 149 189 232 276 324
#     4  12  24  38  59  83 109 145 188 233 279 329
#     4   9  17  31  54  84 117 152 187 225 273 328
#     4   9  18  34  56  84 117 150 186 228 274 326
#     4  10  21  37  57  83 116 150 184 226 276 330
#     4  11  25  43  61  82 111 146 184 228 277 330
#
# _framework density 19.481483000000001
#
# number of rings (size 3 to 8) (size 9 to 14) (size 15 to 20)
#    0.000    1.857    0.000    4.286    0.000    9.714 
#    0.000    0.714    0.000    8.571    0.000    0.000 
#    0.000    0.000    0.000    0.000    0.000    0.000 
#
# Total GULP energy -156492.691842 kJ/mol
# GULP energy per Si atom -5589.024709 kJ/mol
# Density = 1.943714 g / cm^3
# Si number density = 19.481483 Si / 1000 Ang^3
#
#
#
# Elastic Constant Matrix: (Units=GPa)
#
#
# Indices 1 2 3 4 5 6 
#
# 1 74.6856 52.2775 31.8584 0.0000 -30.9770 0.0000
# 2 52.2775 109.8704 73.9636 0.0000 -24.6699 0.0000
# 3 31.8584 73.9636 98.6959 0.0000 -32.0666 0.0000
# 4 0.0000 0.0000 0.0000 -6.5017 0.0000 12.0610
# 5 -30.9770 -24.6699 -32.0666 0.0000 31.2303 0.0000
# 6 0.0000 0.0000 0.0000 12.0610 0.0000 20.8598
#
#
#
# Elastic Compliance Matrix: (Units=1/GPa)
#
#
# Indices 1 2 3 4 5 6 
#
# 1 0.033568 -0.017128 0.012639 0.000000 0.032742 0.000000
# 2 -0.017128 0.027115 -0.020036 0.000000 -0.016143 0.000000
# 3 0.012639 -0.020036 0.030010 0.000000 0.027522 0.000000
# 4 0.000000 0.000000 0.000000 -0.074210 0.000000 0.042908
# 5 0.032742 -0.016143 0.027522 0.000000 0.080004 0.000000
# 6 0.000000 0.000000 0.000000 0.042908 0.000000 0.023130
#
#
# Mechanical properties :
#
#
# Convention : Reuss Voigt Hill
#
# Bulk Modulus (GPa) = 24.01477 66.60566 45.31022
# Shear Modulus (GPa) = 27.38993 17.46119 22.42556
#
# Velocity S-wave (km/s) = 3.75366 2.99707 3.39650
# Velocity P-wave (km/s) = 5.58036 6.80000 6.22014
#
# Compressibility (1/GPa) = 0.04164103
#
# Stress axis : x y z
#
# Youngs Moduli (GPa) = 29.79035 36.88009 33.32253
#
# Poissons Ratio (x) = 0.63170 -0.42115
# Poissons Ratio (y) = 0.51026 0.66765
# Poissons Ratio (z) = -0.37651 0.73893
#
# Static dielectric constant tensor:
#      x y z
#    x 1.682380 0.000000 0.014230 
#    y 0.000000 1.648910 0.000000 
#    z 0.014230 0.000000 1.680130 
# 
# From -- ./inp_files/63668.got.cif
#   From: 2010.05.17/outbox.cif.g08.bks.cpg/sg10_32_cif.got.tgz:63668.got - 2010.06.03 11:33:40.
