data_PCOD9149657
_publ_section_title
;
Structure prediction by ZEFSAII (Michael W. Deem and Ramdas Pophale) SiO2 
 PCOD9149657
Probable space group: P 2/M
;
_chemical_formula_sum "Si O2"
_cell_formula_units_Z 18
_cell_length_a 11.303290
_cell_length_b 8.425880
_cell_length_c 7.620660
_cell_angle_alpha 90.000000
_cell_angle_beta 80.639857
_cell_angle_gamma 90.000000
_cell_volume 716.129375
_symmetry_space_group_name_H-M "P 2/M"
_symmetry_group_IT_number 10
_symmetry_cell_setting 'monoclinic'
loop_
_space_group_symop_operation_xyz
x,y,z
-x,y,-z
-x,-y,-z
x,-y,z
loop_
_atom_site_type_symbol
_atom_site_label
_atom_site_fract_x
_atom_site_fract_y
_atom_site_fract_z
Si Si1 0.382718 0.825003 0.406958
Si Si2 0.044684 0.169562 0.192781
Si Si3 0.046722 0.500000 0.784934
Si Si4 0.394647 0.500000 0.885420
Si Si5 0.693836 0.500000 0.432205
Si Si6 0.677362 0.171578 0.956493
O O1 0.500000 0.822835 0.500000
O O2 0.309530 0.664914 0.463299
O O3 0.409230 0.820025 0.192049
O O4 0.325056 0.000000 0.451447
O O5 0.188146 0.170685 0.152671
O O6 0.000746 0.334825 0.281844
O O7 0.003407 0.000000 0.278860
O O8 0.000000 0.169039 0.000000
O O9 0.188206 0.500000 0.718183
O O10 0.000000 0.500000 0.000000
O O11 0.419696 0.500000 0.673830
O O12 0.500000 0.500000 0.000000
O O13 0.331157 0.331656 0.933625
O O14 0.661022 0.000000 0.051111
#
# Coordination Sequence:
#
# PCOD9149657 Si02
#       6
#     4   4   2   2   2   4
#     4  10  22  42  64  86 119 161 202 246 297 356
#     4   9  17  32  55  79 105 142 188 236 283 334
#     4  10  20  35  54  80 116 153 189 233 290 349
#     4  12  23  34  56  90 123 151 190 249 306 359
#     4  12  24  37  61  92 122 158 200 248 299 358
#     4  10  21  39  62  84 113 157 202 244 295 355
#
# _framework density 25.135121000000002
#
# number of rings (size 3 to 8) (size 9 to 14) (size 15 to 20)
#    0.000    1.778    0.000    5.667    0.000    2.222 
#    0.000    2.222    0.000    4.000    0.000    0.000 
#    0.000    0.000    0.000    0.000    0.000    0.000 
#
# Total GULP energy -100594.712705 kJ/mol
# GULP energy per Si atom -5588.595150 kJ/mol
# Density = 2.507791 g / cm^3
# Si number density = 25.135121 Si / 1000 Ang^3
#
#
#
# Elastic Constant Matrix: (Units=GPa)
#
#
# Indices 1 2 3 4 5 6 
#
# 1 59.7123 44.8283 7.3352 0.0000 -0.4413 0.0000
# 2 44.8283 356.3043 62.3691 0.0000 -19.0584 0.0000
# 3 7.3352 62.3691 76.8408 0.0000 2.9244 0.0000
# 4 0.0000 0.0000 0.0000 38.4139 0.0000 30.0349
# 5 -0.4413 -19.0584 2.9244 0.0000 26.2026 0.0000
# 6 0.0000 0.0000 0.0000 30.0349 0.0000 74.6945
#
#
#
# Elastic Compliance Matrix: (Units=1/GPa)
#
#
# Indices 1 2 3 4 5 6 
#
# 1 0.018551 -0.002465 0.000288 0.000000 -0.001513 0.000000
# 2 -0.002465 0.003799 -0.002964 0.000000 0.003052 0.000000
# 3 0.000288 -0.002964 0.015540 0.000000 -0.003886 0.000000
# 4 0.000000 0.000000 0.000000 0.037970 0.000000 -0.015268
# 5 -0.001513 0.003052 -0.003886 0.000000 0.040793 0.000000
# 6 0.000000 0.000000 0.000000 -0.015268 0.000000 0.019527
#
#
# Mechanical properties :
#
#
# Convention : Reuss Voigt Hill
#
# Bulk Modulus (GPa) = 36.22313 80.21362 58.21837
# Shear Modulus (GPa) = 32.12009 53.08386 42.60197
#
# Velocity S-wave (km/s) = 3.57865 4.60057 4.12140
# Velocity P-wave (km/s) = 5.61411 7.75903 6.77203
#
# Compressibility (1/GPa) = 0.02760667
#
# Stress axis : x y z
#
# Youngs Moduli (GPa) = 53.90478 263.23331 64.34868
#
# Poissons Ratio (x) = 0.64895 -0.01851
# Poissons Ratio (y) = 0.13289 0.19075
# Poissons Ratio (z) = -0.01551 0.78030
#
# Static dielectric constant tensor:
#      x y z
#    x 2.049460 0.000000 0.008190 
#    y 0.000000 2.018620 0.000000 
#    z 0.008190 0.000000 1.941950 
# 
# From -- ./inp_files/22215.got.cif
#   From: 2010.05.17/outbox.cif.g08.bks.cpg/sg10_12_cif.got.tgz:22215.got - 2010.06.03 11:33:40.
