data_PCOD9149590
_publ_section_title
;
Structure prediction by ZEFSAII (Michael W. Deem and Ramdas Pophale) SiO2 
 PCOD9149590
Probable space group: P 2/M
;
_chemical_formula_sum "Si O2"
_cell_formula_units_Z 21
_cell_length_a 5.454095
_cell_length_b 24.305946
_cell_length_c 8.133290
_cell_angle_alpha 90.000000
_cell_angle_beta 58.057094
_cell_angle_gamma 90.000000
_cell_volume 914.938895
_symmetry_space_group_name_H-M "P 2/M"
_symmetry_group_IT_number 10
_symmetry_cell_setting 'monoclinic'
loop_
_space_group_symop_operation_xyz
x,y,z
-x,y,-z
-x,-y,-z
x,-y,z
loop_
_atom_site_type_symbol
_atom_site_label
_atom_site_fract_x
_atom_site_fract_y
_atom_site_fract_z
Si Si1 0.350274 0.061082 0.373750
Si Si2 0.000000 0.500000 0.500000
Si Si3 0.355462 0.176416 0.223294
Si Si4 0.146622 0.780314 0.777118
Si Si5 0.087744 0.347254 0.732377
Si Si6 0.619970 0.391420 0.693805
O O1 0.500000 0.068387 0.500000
O O2 0.427557 0.113113 0.235262
O O3 0.000000 0.061166 0.500000
O O4 0.440363 0.000000 0.283078
O O5 0.250186 0.451513 0.388692
O O6 0.515102 0.210559 0.309164
O O7 0.017689 0.186983 0.308658
O O8 0.500000 0.194360 0.000000
O O9 0.082117 0.716064 0.781169
O O10 0.000000 0.800232 0.000000
O O11 0.279590 0.382941 0.790944
O O12 0.251446 0.353946 0.499483
O O13 0.772273 0.370733 0.804879
#
# Coordination Sequence:
#
# PCOD9149590 Si02
#       6
#     4   1   4   4   4   4
#     4  10  21  39  57  80 111 139 175 222 276 325
#     4   8  16  30  48  74  98 134 164 202 278 290
#     4  10  21  37  55  79 104 139 186 220 260 321
#     4  10  20  35  53  72 105 139 173 215 257 309
#     4   9  17  31  43  70  99 127 163 201 250 299
#     4   9  18  29  48  71 100 126 163 214 244 316
#
# _framework density 22.952356000000002
#
# number of rings (size 3 to 8) (size 9 to 14) (size 15 to 20)
#    0.000    2.667    0.000    2.286    0.000    6.476 
#   20.571    0.000    0.000    6.857    0.000   22.000 
#    0.000    0.000    0.000    0.000    0.000    0.000 
#
# Total GULP energy -116924.091069 kJ/mol
# GULP energy per Si atom -5567.813860 kJ/mol
# Density = 2.290012 g / cm^3
# Si number density = 22.952356 Si / 1000 Ang^3
#
#
#
# Elastic Constant Matrix: (Units=GPa)
#
#
# Indices 1 2 3 4 5 6 
#
# 1 237.5522 59.9671 43.1488 0.0000 45.4610 0.0000
# 2 59.9671 138.6878 3.6296 0.0000 32.3251 0.0000
# 3 43.1488 3.6296 60.9348 0.0000 15.8007 0.0000
# 4 0.0000 0.0000 0.0000 13.2089 0.0000 3.1034
# 5 45.4610 32.3251 15.8007 0.0000 39.7269 0.0000
# 6 0.0000 0.0000 0.0000 3.1034 0.0000 42.2519
#
#
#
# Elastic Compliance Matrix: (Units=1/GPa)
#
#
# Indices 1 2 3 4 5 6 
#
# 1 0.005975 -0.001467 -0.002989 0.000000 -0.004456 0.000000
# 2 -0.001467 0.009383 0.002257 0.000000 -0.006854 0.000000
# 3 -0.002989 0.002257 0.020050 0.000000 -0.006391 0.000000
# 4 0.000000 0.000000 0.000000 0.077036 0.000000 -0.005658
# 5 -0.004456 -0.006854 -0.006391 0.000000 0.038390 0.000000
# 6 0.000000 0.000000 0.000000 -0.005658 0.000000 0.024083
#
#
# Mechanical properties :
#
#
# Convention : Reuss Voigt Hill
#
# Bulk Modulus (GPa) = 32.24573 72.29620 52.27097
# Shear Modulus (GPa) = 26.36418 41.06615 33.71517
#
# Velocity S-wave (km/s) = 3.39285 4.23447 3.83681
# Velocity P-wave (km/s) = 5.42476 7.44812 6.51546
#
# Compressibility (1/GPa) = 0.03101186
#
# Stress axis : x y z
#
# Youngs Moduli (GPa) = 167.35145 106.57367 49.87520
#
# Poissons Ratio (x) = 0.15634 0.14905
# Poissons Ratio (y) = 0.24550 -0.11258
# Poissons Ratio (z) = 0.50014 -0.24055
#
# Static dielectric constant tensor:
#      x y z
#    x 1.973030 0.000000 0.002570 
#    y 0.000000 1.773820 0.000000 
#    z 0.002570 0.000000 1.929450 
# 
# From -- ./inp_files/15238.got.cif
#   From: 2010.05.17/outbox.cif.g08.bks.cpg/sg10_8_cif.got.tgz:15238.got - 2010.06.03 11:33:40.
