data_PCOD9149049
_publ_section_title
;
Structure prediction by ZEFSAII (Michael W. Deem and Ramdas Pophale) SiO2 
 PCOD9149049
Probable space group: P 2/M
;
_chemical_formula_sum "Si O2"
_cell_formula_units_Z 26
_cell_length_a 11.383805
_cell_length_b 15.303188
_cell_length_c 8.883636
_cell_angle_alpha 90.000000
_cell_angle_beta 64.026440
_cell_angle_gamma 90.000000
_cell_volume 1391.291058
_symmetry_space_group_name_H-M "P 2/M"
_symmetry_group_IT_number 10
_symmetry_cell_setting 'monoclinic'
loop_
_space_group_symop_operation_xyz
x,y,z
-x,y,-z
-x,-y,-z
x,-y,z
loop_
_atom_site_type_symbol
_atom_site_label
_atom_site_fract_x
_atom_site_fract_y
_atom_site_fract_z
Si Si1 0.602964 0.095388 0.713121
Si Si2 0.786538 0.718471 0.916165
Si Si3 0.686534 0.904776 0.019419
Si Si4 0.701502 0.717533 0.628144
Si Si5 0.562485 0.603250 0.195179
Si Si6 0.000000 0.637811 0.000000
Si Si7 0.765535 0.593808 0.341082
O O1 0.446307 0.100617 0.809836
O O2 0.659755 0.183490 0.611813
O O3 0.640454 0.000000 0.628504
O O4 0.645954 0.095714 0.865167
O O5 0.781457 0.720492 0.738728
O O6 0.762051 0.815094 0.996103
O O7 0.666695 0.654369 0.031564
O O8 0.919586 0.687341 0.916155
O O9 0.748402 0.000000 0.014423
O O10 0.571281 0.658151 0.727245
O O11 0.778009 0.671276 0.451374
O O12 0.545888 0.500000 0.165051
O O13 0.633884 0.605248 0.317507
O O14 0.884323 0.591502 0.156726
O O15 0.758143 0.500000 0.425160
#
# Coordination Sequence:
#
# PCOD9149049 Si02
#       7
#     4   4   4   4   4   2   4
#     4   8  14  25  47  80 115 139 161 204 262 321
#     4  10  20  34  54  80 108 142 178 220 258 310
#     4   8  13  26  49  78 109 141 172 205 254 315
#     4  11  19  31  56  86 109 131 176 222 264 314
#     4  10  20  34  52  79 114 142 164 206 276 332
#     4  10  23  42  55  68 102 148 187 220 267 308
#     4  10  22  39  57  75 103 144 180 218 264 317
#
# _framework density 18.68768
#
# number of rings (size 3 to 8) (size 9 to 14) (size 15 to 20)
#    0.000    2.462    1.538    2.538    0.000    4.308 
#    0.000    1.154    0.000    6.462    0.000    4.308 
#    0.000    0.000    0.000    0.000    0.000    0.000 
#
# Total GULP energy -144826.865423 kJ/mol
# GULP energy per Si atom -5570.264055 kJ/mol
# Density = 1.864515 g / cm^3
# Si number density = 18.687680 Si / 1000 Ang^3
#
#
#
# Elastic Constant Matrix: (Units=GPa)
#
#
# Indices 1 2 3 4 5 6 
#
# 1 79.8099 32.3871 11.0486 0.0000 -2.2792 0.0000
# 2 32.3871 164.3064 38.5332 0.0000 7.6851 0.0000
# 3 11.0486 38.5332 57.0952 0.0000 2.2885 0.0000
# 4 0.0000 0.0000 0.0000 20.3696 0.0000 25.1805
# 5 -2.2792 7.6851 2.2885 0.0000 11.8791 0.0000
# 6 0.0000 0.0000 0.0000 25.1805 0.0000 -6.3908
#
#
#
# Elastic Compliance Matrix: (Units=1/GPa)
#
#
# Indices 1 2 3 4 5 6 
#
# 1 0.013907 -0.002712 -0.001046 0.000000 0.004625 0.000000
# 2 -0.002712 0.007931 -0.004637 0.000000 -0.004758 0.000000
# 3 -0.001046 -0.004637 0.020896 0.000000 -0.001226 0.000000
# 4 0.000000 0.000000 0.000000 0.008362 0.000000 0.032949
# 5 0.004625 -0.004758 -0.001226 0.000000 0.088383 0.000000
# 6 0.000000 0.000000 0.000000 0.032949 0.000000 -0.026654
#
#
# Mechanical properties :
#
#
# Convention : Reuss Voigt Hill
#
# Bulk Modulus (GPa) = 38.54580 51.68328 45.11454
# Shear Modulus (GPa) = 36.16275 19.78777 27.97526
#
# Velocity S-wave (km/s) = 4.40376 3.25755 3.87329
# Velocity P-wave (km/s) = 6.82119 6.47034 6.64808
#
# Compressibility (1/GPa) = 0.02594317
#
# Stress axis : x y z
#
# Youngs Moduli (GPa) = 71.90462 126.09051 47.85699
#
# Poissons Ratio (x) = 0.34200 0.05006
# Poissons Ratio (y) = 0.19503 0.22191
# Poissons Ratio (z) = 0.07522 0.58467
#
# Static dielectric constant tensor:
#      x y z
#    x 1.623790 0.000000 0.011890 
#    y 0.000000 1.687010 0.000000 
#    z 0.011890 0.000000 1.659140 
# 
# From -- ./inp_files/24794.got.cif
#   From: 2010.05.17/outbox.cif.g08.bks.cpg/sg10_13_cif.got.tgz:24794.got - 2010.06.03 11:33:40.
