data_PCOD9149168
_publ_section_title
;
Structure prediction by ZEFSAII (Michael W. Deem and Ramdas Pophale) SiO2 
 PCOD9149168
Probable space group: P 2/M
;
_chemical_formula_sum "Si O2"
_cell_formula_units_Z 22
_cell_length_a 8.439926
_cell_length_b 15.856520
_cell_length_c 8.035615
_cell_angle_alpha 90.000000
_cell_angle_beta 87.816786
_cell_angle_gamma 90.000000
_cell_volume 1074.608519
_symmetry_space_group_name_H-M "P 2/M"
_symmetry_group_IT_number 10
_symmetry_cell_setting 'monoclinic'
loop_
_space_group_symop_operation_xyz
x,y,z
-x,y,-z
-x,-y,-z
x,-y,z
loop_
_atom_site_type_symbol
_atom_site_label
_atom_site_fract_x
_atom_site_fract_y
_atom_site_fract_z
Si Si1 0.130580 0.905540 0.842730
Si Si2 0.665483 0.411233 0.584584
Si Si3 0.678685 0.249167 0.063341
Si Si4 0.157338 0.716550 0.262298
Si Si5 0.000000 0.844966 0.500000
Si Si6 0.149964 0.400861 0.760146
O O1 0.265410 0.832298 0.833932
O O2 0.052313 0.895741 0.661626
O O3 0.197987 0.000000 0.856411
O O4 0.000000 0.899049 0.000000
O O5 0.500000 0.410481 0.500000
O O6 0.686091 0.500000 0.673657
O O7 0.685704 0.335663 0.705796
O O8 0.794784 0.404613 0.433919
O O9 0.727603 0.338502 0.148372
O O10 0.500000 0.246119 0.000000
O O11 0.803109 0.238403 0.907815
O O12 0.125386 0.779281 0.414578
O O13 0.016156 0.649543 0.235220
O O14 0.143074 0.500000 0.816915
#
# Coordination Sequence:
#
# PCOD9149168 Si02
#       6
#     4   4   4   4   2   4
#     4  11  23  44  72 101 131 167 214 268 326 393
#     4  10  20  34  53  84 126 171 216 266 325 381
#     4  12  25  42  63  92 134 174 213 271 333 387
#     4  12  21  37  64  89 126 170 223 264 319 382
#     4  12  21  40  71 100 124 162 211 276 311 386
#     4  11  22  38  59  88 126 171 224 271 315 378
#
# _framework density 20.472570000000001
#
# number of rings (size 3 to 8) (size 9 to 14) (size 15 to 20)
#    0.000    0.727    5.455    2.455    0.000    4.364 
#    0.000    0.000    0.000    1.091    0.000    0.000 
#    0.000    0.000    0.000    0.000    0.000    0.000 
#
# Total GULP energy -122567.019638 kJ/mol
# GULP energy per Si atom -5571.228165 kJ/mol
# Density = 2.042597 g / cm^3
# Si number density = 20.472570 Si / 1000 Ang^3
#
#
#
# Elastic Constant Matrix: (Units=GPa)
#
#
# Indices 1 2 3 4 5 6 
#
# 1 71.3619 35.8937 8.5312 0.0000 11.4246 0.0000
# 2 35.8937 123.5097 27.8145 0.0000 13.1419 0.0000
# 3 8.5312 27.8145 72.7127 0.0000 8.0913 0.0000
# 4 0.0000 0.0000 0.0000 13.4659 0.0000 -0.7305
# 5 11.4246 13.1419 8.0913 0.0000 27.6460 0.0000
# 6 0.0000 0.0000 0.0000 -0.7305 0.0000 14.7358
#
#
#
# Elastic Compliance Matrix: (Units=1/GPa)
#
#
# Indices 1 2 3 4 5 6 
#
# 1 0.017033 -0.004480 0.000270 0.000000 -0.004988 0.000000
# 2 -0.004480 0.010345 -0.003194 0.000000 -0.002131 0.000000
# 3 0.000270 -0.003194 0.015284 0.000000 -0.003067 0.000000
# 4 0.000000 0.000000 0.000000 0.074462 0.000000 0.003691
# 5 -0.004988 -0.002131 -0.003067 0.000000 0.040144 0.000000
# 6 0.000000 0.000000 0.000000 0.003691 0.000000 0.068045
#
#
# Mechanical properties :
#
#
# Convention : Reuss Voigt Hill
#
# Bulk Modulus (GPa) = 35.90201 45.78478 40.84339
# Shear Modulus (GPa) = 20.04776 24.19253 22.12014
#
# Velocity S-wave (km/s) = 3.13269 3.44132 3.29063
# Velocity P-wave (km/s) = 5.53712 6.18084 5.86781
#
# Compressibility (1/GPa) = 0.02785360
#
# Stress axis : x y z
#
# Youngs Moduli (GPa) = 58.71048 96.66846 65.42715
#
# Poissons Ratio (x) = 0.43308 -0.01769
# Poissons Ratio (y) = 0.26303 0.20899
# Poissons Ratio (z) = -0.01588 0.30879
#
# Static dielectric constant tensor:
#      x y z
#    x 1.739680 0.000000 0.009520 
#    y 0.000000 1.766760 0.000000 
#    z 0.009520 0.000000 1.756940 
# 
# From -- ./inp_files/18841.got.cif
#   From: 2010.05.17/outbox.cif.g08.bks.cpg/sg10_10_cif.got.tgz:18841.got - 2010.06.03 11:33:40.
