data_PCOD9149481
_publ_section_title
;
Structure prediction by ZEFSAII (Michael W. Deem and Ramdas Pophale) SiO2 
 PCOD9149481
Probable space group: P 2/M
;
_chemical_formula_sum "Si O2"
_cell_formula_units_Z 28
_cell_length_a 9.822739
_cell_length_b 9.033653
_cell_length_c 16.684036
_cell_angle_alpha 90.000000
_cell_angle_beta 84.692198
_cell_angle_gamma 90.000000
_cell_volume 1474.113477
_symmetry_space_group_name_H-M "P 2/M"
_symmetry_group_IT_number 10
_symmetry_cell_setting 'monoclinic'
loop_
_space_group_symop_operation_xyz
x,y,z
-x,y,-z
-x,-y,-z
x,-y,z
loop_
_atom_site_type_symbol
_atom_site_label
_atom_site_fract_x
_atom_site_fract_y
_atom_site_fract_z
Si Si1 0.023012 0.677765 0.692278
Si Si2 0.511495 0.821991 0.764534
Si Si3 0.391723 0.676552 0.075825
Si Si4 0.247332 0.176656 0.365926
Si Si5 0.206967 0.823615 0.806345
Si Si6 0.156116 0.330793 0.524830
Si Si7 0.160038 0.175611 0.993328
O O1 0.010318 0.500000 0.691818
O O2 0.083600 0.737455 0.771506
O O3 0.133429 0.720623 0.616976
O O4 0.878772 0.748942 0.675209
O O5 0.566428 0.749505 0.842940
O O6 0.612139 0.783730 0.686291
O O7 0.353359 0.779834 0.761681
O O8 0.514301 0.000000 0.774490
O O9 0.391657 0.500000 0.083866
O O10 0.500000 0.717757 0.000000
O O11 0.245993 0.734594 0.053123
O O12 0.239377 0.233186 0.457702
O O13 0.230010 0.000000 0.364973
O O14 0.214937 0.795245 0.900834
O O15 0.185247 0.000000 0.796910
O O16 0.206247 0.500000 0.521022
O O17 0.000000 0.332851 0.500000
O O18 0.174483 0.000000 0.009089
O O19 0.000000 0.211191 0.000000
#
# Coordination Sequence:
#
# PCOD9149481 Si02
#       7
#     4   4   4   4   4   4   4
#     4  10  21  36  56  82 114 148 179 221 277 330
#     4  10  22  39  58  80 110 148 186 224 274 328
#     4  11  23  38  58  84 111 144 186 226 271 327
#     4  10  20  34  57  86 110 139 185 231 268 320
#     4  10  21  38  57  79 110 147 185 228 273 320
#     4   8  16  33  54  78 110 146 181 218 270 328
#     4  10  22  39  60  83 109 145 187 229 274 323
#
# _framework density 18.994468000000001
#
# number of rings (size 3 to 8) (size 9 to 14) (size 15 to 20)
#    0.000    2.143    1.429    2.143    2.000    6.286 
#    0.000    0.714    0.000    4.286    0.000    0.000 
#    0.000    0.000    0.000    0.000    0.000    0.000 
#
# Total GULP energy -156297.628689 kJ/mol
# GULP energy per Si atom -5582.058167 kJ/mol
# Density = 1.895124 g / cm^3
# Si number density = 18.994468 Si / 1000 Ang^3
#
#
#
# Elastic Constant Matrix: (Units=GPa)
#
#
# Indices 1 2 3 4 5 6 
#
# 1 58.5943 13.1689 -0.0192 0.0000 -16.2939 0.0000
# 2 13.1689 17.9126 4.9798 0.0000 -9.8073 0.0000
# 3 -0.0192 4.9798 12.7138 0.0000 -8.8021 0.0000
# 4 0.0000 0.0000 0.0000 21.8412 0.0000 -6.0813
# 5 -16.2939 -9.8073 -8.8021 0.0000 33.5891 0.0000
# 6 0.0000 0.0000 0.0000 -6.0813 0.0000 5.3249
#
#
#
# Elastic Compliance Matrix: (Units=1/GPa)
#
#
# Indices 1 2 3 4 5 6 
#
# 1 0.023354 -0.015157 0.013134 0.000000 0.010345 0.000000
# 2 -0.015157 0.078844 -0.024503 0.000000 0.009247 0.000000
# 3 0.013134 -0.024503 0.107174 0.000000 0.027302 0.000000
# 4 0.000000 0.000000 0.000000 0.067131 0.000000 0.076667
# 5 0.010345 0.009247 0.027302 0.000000 0.044645 0.000000
# 6 0.000000 0.000000 0.000000 0.076667 0.000000 0.275355
#
#
# Mechanical properties :
#
#
# Convention : Reuss Voigt Hill
#
# Bulk Modulus (GPa) = 6.39706 13.94221 10.16963
# Shear Modulus (GPa) = 7.12595 16.89045 12.00820
#
# Velocity S-wave (km/s) = 1.93900 2.98523 2.51708
# Velocity P-wave (km/s) = 2.89623 4.38614 3.71661
#
# Compressibility (1/GPa) = 0.15632192
#
# Stress axis : x y z
#
# Youngs Moduli (GPa) = 42.81909 12.68326 9.33063
#
# Poissons Ratio (x) = 0.19223 -0.12255
# Poissons Ratio (y) = 0.64899 0.22863
# Poissons Ratio (z) = -0.56240 0.31077
#
# Static dielectric constant tensor:
#      x y z
#    x 1.648450 0.000000 -0.034820 
#    y 0.000000 1.635690 0.000000 
#    z -0.034820 0.000000 1.663420 
# 
# From -- ./inp_files/74407.got.cif
#   From: 2010.05.17/outbox.cif.g08.bks.cpg/sg10_38_cif.got.tgz:74407.got - 2010.06.03 11:33:40.
