data_PCOD9149406
_publ_section_title
;
Structure prediction by ZEFSAII (Michael W. Deem and Ramdas Pophale) SiO2 
 PCOD9149406
Probable space group: P 2/M
;
_chemical_formula_sum "Si O2"
_cell_formula_units_Z 28
_cell_length_a 14.816496
_cell_length_b 7.433589
_cell_length_c 16.621779
_cell_angle_alpha 90.000000
_cell_angle_beta 36.097605
_cell_angle_gamma 90.000000
_cell_volume 1078.590807
_symmetry_space_group_name_H-M "P 2/M"
_symmetry_group_IT_number 10
_symmetry_cell_setting 'monoclinic'
loop_
_space_group_symop_operation_xyz
x,y,z
-x,y,-z
-x,-y,-z
x,-y,z
loop_
_atom_site_type_symbol
_atom_site_label
_atom_site_fract_x
_atom_site_fract_y
_atom_site_fract_z
Si Si1 0.862236 0.704267 0.177871
Si Si2 0.374963 0.220060 0.154961
Si Si3 0.525675 0.207910 0.742158
Si Si4 0.471620 0.792738 0.608305
Si Si5 0.966662 0.780372 0.614047
Si Si6 0.088483 0.793285 0.682882
Si Si7 0.827513 0.282848 0.979047
O O1 0.858288 0.500000 0.152151
O O2 0.713248 0.795213 0.249056
O O3 0.960481 0.771120 0.948256
O O4 0.834141 0.704296 0.295864
O O5 0.403956 0.282766 0.226012
O O6 0.207701 0.273302 0.245913
O O7 0.380852 0.000000 0.153875
O O8 0.500000 0.278772 0.000000
O O9 0.543286 0.285132 0.638897
O O10 0.341858 0.212461 0.888750
O O11 0.576932 0.000000 0.700383
O O12 0.500000 0.709488 0.500000
O O13 0.522731 0.000000 0.566818
O O14 0.086393 0.717558 0.595108
O O15 0.000000 0.724029 0.500000
O O16 0.974632 0.000000 0.611045
O O17 0.136626 0.000000 0.648203
O O18 0.908805 0.784345 0.839211
O O19 0.823618 0.500000 0.981542
#
# Coordination Sequence:
#
# PCOD9149406 Si02
#       7
#     4   4   4   4   4   4   4
#     4   9  20  36  55  79 106 143 182 223 275 328
#     4   9  17  30  50  78 112 144 178 224 279 335
#     4  10  20  34  56  82 110 145 183 226 278 335
#     4  10  22  38  55  80 112 146 186 231 277 327
#     4   9  17  28  48  81 113 144 185 233 284 337
#     4   9  16  30  54  80 108 141 180 229 281 331
#     4   9  19  34  54  80 109 138 179 227 275 330
#
# _framework density 25.959797999999999
#
# number of rings (size 3 to 8) (size 9 to 14) (size 15 to 20)
#    0.857    1.857    0.000    1.714    0.000    4.857 
#    0.000    7.143    0.000    6.429    0.000    0.000 
#    0.000    0.000    0.000    0.000    0.000    0.000 
#
# Total GULP energy -156307.347491 kJ/mol
# GULP energy per Si atom -5582.405268 kJ/mol
# Density = 2.590071 g / cm^3
# Si number density = 25.959798 Si / 1000 Ang^3
#
#
#
# Elastic Constant Matrix: (Units=GPa)
#
#
# Indices 1 2 3 4 5 6 
#
# 1 169.7088 8.3484 42.6081 0.0000 23.0698 0.0000
# 2 8.3484 92.3671 3.1074 0.0000 6.2176 0.0000
# 3 42.6081 3.1074 88.9756 0.0000 10.0714 0.0000
# 4 0.0000 0.0000 0.0000 56.2461 0.0000 -31.2862
# 5 23.0698 6.2176 10.0714 0.0000 48.1127 0.0000
# 6 0.0000 0.0000 0.0000 -31.2862 0.0000 51.1245
#
#
#
# Elastic Compliance Matrix: (Units=1/GPa)
#
#
# Indices 1 2 3 4 5 6 
#
# 1 0.007043 -0.000353 -0.003056 0.000000 -0.002692 0.000000
# 2 -0.000353 0.010944 -0.000074 0.000000 -0.001230 0.000000
# 3 -0.003056 -0.000074 0.012842 0.000000 -0.001214 0.000000
# 4 0.000000 0.000000 0.000000 0.026954 0.000000 0.016495
# 5 -0.002692 -0.001230 -0.001214 0.000000 0.022488 0.000000
# 6 0.000000 0.000000 0.000000 0.016495 0.000000 0.029654
#
#
# Mechanical properties :
#
#
# Convention : Reuss Voigt Hill
#
# Bulk Modulus (GPa) = 41.90432 51.01993 46.46213
# Shear Modulus (GPa) = 40.04978 50.89583 45.47280
#
# Velocity S-wave (km/s) = 3.93206 4.43263 4.18983
# Velocity P-wave (km/s) = 6.06563 6.77449 6.42984
#
# Compressibility (1/GPa) = 0.02386389
#
# Stress axis : x y z
#
# Youngs Moduli (GPa) = 141.98743 91.37844 77.86799
#
# Poissons Ratio (x) = 0.03222 0.23794
# Poissons Ratio (y) = 0.05006 0.00578
# Poissons Ratio (z) = 0.43386 0.00678
#
# Static dielectric constant tensor:
#      x y z
#    x 2.016120 0.000000 0.049970 
#    y 0.000000 1.964650 0.000000 
#    z 0.049970 0.000000 2.180330 
# 
# From -- ./inp_files/49345.got.cif
#   From: 2010.05.17/outbox.cif.g08.bks.cpg/sg10_25_cif.got.tgz:49345.got - 2010.06.03 11:33:40.
