data_PCOD9149423
_publ_section_title
;
Structure prediction by ZEFSAII (Michael W. Deem and Ramdas Pophale) SiO2 
 PCOD9149423
Probable space group: P 2/M
;
_chemical_formula_sum "Si O2"
_cell_formula_units_Z 28
_cell_length_a 11.660097
_cell_length_b 7.805576
_cell_length_c 15.246393
_cell_angle_alpha 90.000000
_cell_angle_beta 112.909472
_cell_angle_gamma 90.000000
_cell_volume 1278.176840
_symmetry_space_group_name_H-M "P 2/M"
_symmetry_group_IT_number 10
_symmetry_cell_setting 'monoclinic'
loop_
_space_group_symop_operation_xyz
x,y,z
-x,y,-z
-x,-y,-z
x,-y,z
loop_
_atom_site_type_symbol
_atom_site_label
_atom_site_fract_x
_atom_site_fract_y
_atom_site_fract_z
Si Si1 0.641261 0.802309 0.292861
Si Si2 0.858995 0.209898 0.475372
Si Si3 0.809097 0.305551 0.947148
Si Si4 0.814532 0.207994 0.660559
Si Si5 0.996394 0.804490 0.859289
Si Si6 0.461222 0.298175 0.390872
Si Si7 0.528932 0.792434 0.910324
O O1 0.764985 0.726063 0.372877
O O2 0.539577 0.796271 0.340283
O O3 0.574748 0.725419 0.188317
O O4 0.670506 0.000000 0.279960
O O5 0.818728 0.263965 0.560757
O O6 0.000000 0.260402 0.500000
O O7 0.853728 0.000000 0.473413
O O8 0.816251 0.500000 0.917852
O O9 0.884307 0.197500 0.897435
O O10 0.667053 0.256500 0.920541
O O11 0.888654 0.288779 0.060485
O O12 0.933943 0.265231 0.752263
O O13 0.685577 0.270138 0.663433
O O14 0.814558 0.000000 0.663061
O O15 0.036477 0.000000 0.855880
O O16 0.500000 0.238445 0.500000
O O17 0.489769 0.500000 0.393037
O O18 0.524339 0.000000 0.907929
O O19 0.500000 0.733943 0.000000
#
# Coordination Sequence:
#
# PCOD9149423 Si02
#       7
#     4   4   4   4   4   4   4
#     4  10  20  36  60  84 111 148 186 233 283 330
#     4   9  18  33  54  81 110 140 180 224 269 325
#     4  11  22  37  57  82 113 149 187 233 287 340
#     4  10  20  34  56  84 111 144 184 230 276 329
#     4  10  20  35  58  85 113 146 185 233 289 340
#     4  11  22  34  53  82 116 151 184 228 280 332
#     4  10  22  39  59  84 113 149 194 241 287 335
#
# _framework density 21.906203999999999
#
# number of rings (size 3 to 8) (size 9 to 14) (size 15 to 20)
#    0.000    1.857    1.429    3.857    0.000    7.143 
#    0.000    4.286    0.000    1.714    0.000    0.000 
#    0.000    0.000    0.000    0.000    0.000    0.000 
#
# Total GULP energy -156489.155389 kJ/mol
# GULP energy per Si atom -5588.898407 kJ/mol
# Density = 2.185634 g / cm^3
# Si number density = 21.906204 Si / 1000 Ang^3
#
#
#
# Elastic Constant Matrix: (Units=GPa)
#
#
# Indices 1 2 3 4 5 6 
#
# 1 85.4234 -7.3729 45.1460 0.0000 27.0518 0.0000
# 2 -7.3729 41.1112 4.2967 0.0000 0.6717 0.0000
# 3 45.1460 4.2967 178.0922 0.0000 27.8319 0.0000
# 4 0.0000 0.0000 0.0000 -13.9836 0.0000 -18.7299
# 5 27.0518 0.6717 27.8319 0.0000 27.7931 0.0000
# 6 0.0000 0.0000 0.0000 -18.7299 0.0000 -135.1721
#
#
#
# Elastic Compliance Matrix: (Units=1/GPa)
#
#
# Indices 1 2 3 4 5 6 
#
# 1 0.018124 0.003740 -0.002269 0.000000 -0.015459 0.000000
# 2 0.003740 0.025158 -0.001056 0.000000 -0.003190 0.000000
# 3 -0.002269 -0.001056 0.006955 0.000000 -0.004731 0.000000
# 4 0.000000 0.000000 0.000000 -0.087809 0.000000 0.012167
# 5 -0.015459 -0.003190 -0.004731 0.000000 0.055841 0.000000
# 6 0.000000 0.000000 0.000000 0.012167 0.000000 -0.009084
#
#
# Mechanical properties :
#
#
# Convention : Reuss Voigt Hill
#
# Bulk Modulus (GPa) = 19.58251 43.19627 31.38939
# Shear Modulus (GPa) = 197.02876 -6.76874 95.13001
#
# Velocity S-wave (km/s) = 9.49406 -1.75971 6.59699
# Velocity P-wave (km/s) = 11.36405 3.95383 8.50807
#
# Compressibility (1/GPa) = 0.05106597
#
# Stress axis : x y z
#
# Youngs Moduli (GPa) = 55.17646 39.74951 143.78102
#
# Poissons Ratio (x) = -0.14866 0.32619
# Poissons Ratio (y) = -0.20636 0.15190
# Poissons Ratio (z) = 0.12518 0.04199
#
# Static dielectric constant tensor:
#      x y z
#    x 1.741640 0.000000 0.011030 
#    y 0.000000 1.780200 0.000000 
#    z 0.011030 0.000000 1.828770 
# 
# From -- ./inp_files/63938.got.cif
#   From: 2010.05.17/outbox.cif.g08.bks.cpg/sg10_32_cif.got.tgz:63938.got - 2010.06.03 11:33:40.
