data_PCOD9149420
_publ_section_title
;
Structure prediction by ZEFSAII (Michael W. Deem and Ramdas Pophale) SiO2 
 PCOD9149420
Probable space group: P 2/M
;
_chemical_formula_sum "Si O2"
_cell_formula_units_Z 24
_cell_length_a 22.553926
_cell_length_b 7.523492
_cell_length_c 12.309958
_cell_angle_alpha 90.000000
_cell_angle_beta 150.821715
_cell_angle_gamma 90.000000
_cell_volume 1018.353244
_symmetry_space_group_name_H-M "P 2/M"
_symmetry_group_IT_number 10
_symmetry_cell_setting 'monoclinic'
loop_
_space_group_symop_operation_xyz
x,y,z
-x,y,-z
-x,-y,-z
x,-y,z
loop_
_atom_site_type_symbol
_atom_site_label
_atom_site_fract_x
_atom_site_fract_y
_atom_site_fract_z
Si Si1 0.764919 0.294483 0.384030
Si Si2 0.003301 0.213109 0.633396
Si Si3 0.270885 0.792528 0.064146
Si Si4 0.646984 0.714973 0.575940
Si Si5 0.139071 0.282408 0.233785
Si Si6 0.412466 0.704712 0.078659
O O1 0.731214 0.500000 0.349555
O O2 0.798488 0.218405 0.554868
O O3 0.889560 0.291808 0.514369
O O4 0.658884 0.215556 0.138292
O O5 0.000000 0.251426 0.500000
O O6 0.993696 0.000000 0.632293
O O7 0.137016 0.274585 0.883462
O O8 0.356653 0.772140 0.305141
O O9 0.322148 0.705270 0.037686
O O10 0.257616 0.000000 0.015523
O O11 0.640681 0.500000 0.566205
O O12 0.774337 0.770366 0.726474
O O13 0.536775 0.783399 0.324943
O O14 0.136436 0.500000 0.232687
O O15 0.000000 0.223066 0.000000
O O16 0.439993 0.500000 0.094441
#
# Coordination Sequence:
#
# PCOD9149420 Si02
#       6
#     4   4   4   4   4   4
#     4  10  20  34  56  84 110 141 183 223 263 320
#     4  10  20  35  53  77 109 142 175 218 274 320
#     4  11  22  36  56  80 109 144 183 226 270 321
#     4  10  21  37  56  78 110 147 180 221 271 319
#     4   9  18  34  56  81 108 139 178 224 270 316
#     4  10  21  35  53  81 112 143 181 223 268 319
#
# _framework density 23.567461000000002
#
# number of rings (size 3 to 8) (size 9 to 14) (size 15 to 20)
#    0.000    2.000    1.667    2.000    0.000    6.333 
#    0.000    4.167    0.000    3.000    0.000    3.500 
#    0.000    0.000    0.000    0.000    0.000    0.000 
#
# Total GULP energy -134147.899630 kJ/mol
# GULP energy per Si atom -5589.495818 kJ/mol
# Density = 2.351382 g / cm^3
# Si number density = 23.567461 Si / 1000 Ang^3
#
#
#
# Elastic Constant Matrix: (Units=GPa)
#
#
# Indices 1 2 3 4 5 6 
#
# 1 34.8067 -9.7610 20.6683 0.0000 -19.3501 0.0000
# 2 -9.7610 63.7796 -1.1092 0.0000 -0.5265 0.0000
# 3 20.6683 -1.1092 167.6546 0.0000 -14.2262 0.0000
# 4 0.0000 0.0000 0.0000 10.7416 0.0000 -18.7454
# 5 -19.3501 -0.5265 -14.2262 0.0000 41.5853 0.0000
# 6 0.0000 0.0000 0.0000 -18.7454 0.0000 39.8978
#
#
#
# Elastic Compliance Matrix: (Units=1/GPa)
#
#
# Indices 1 2 3 4 5 6 
#
# 1 0.043374 0.006731 -0.003690 0.000000 0.019005 0.000000
# 2 0.006731 0.016728 -0.000448 0.000000 0.003190 0.000000
# 3 -0.003690 -0.000448 0.006458 0.000000 0.000487 0.000000
# 4 0.000000 0.000000 0.000000 0.516966 0.000000 0.242888
# 5 0.019005 0.003190 0.000487 0.000000 0.033097 0.000000
# 6 0.000000 0.000000 0.000000 0.242888 0.000000 0.139181
#
#
# Mechanical properties :
#
#
# Convention : Reuss Voigt Hill
#
# Bulk Modulus (GPa) = 13.93827 31.75968 22.84897
# Shear Modulus (GPa) = 6.45549 35.54114 20.99831
#
# Velocity S-wave (km/s) = 1.65683 3.88759 2.98818
# Velocity P-wave (km/s) = 3.09632 5.80142 4.64993
#
# Compressibility (1/GPa) = 0.07174492
#
# Stress axis : x y z
#
# Youngs Moduli (GPa) = 23.05506 59.78136 154.85018
#
# Poissons Ratio (x) = -0.40238 0.57139
# Poissons Ratio (y) = -0.15518 0.06943
# Poissons Ratio (z) = 0.08507 0.02681
#
# Static dielectric constant tensor:
#      x y z
#    x 1.830090 0.000000 0.010370 
#    y 0.000000 1.941470 0.000000 
#    z 0.010370 0.000000 1.922560 
# 
# From -- ./inp_files/45248.got.cif
#   From: 2010.05.17/outbox.cif.g08.bks.cpg/sg10_23_cif.got.tgz:45248.got - 2010.06.03 11:33:40.
