data_PCOD9149399
_publ_section_title
;
Structure prediction by ZEFSAII (Michael W. Deem and Ramdas Pophale) SiO2 
 PCOD9149399
Probable space group: P 2/M
;
_chemical_formula_sum "Si O2"
_cell_formula_units_Z 28
_cell_length_a 5.431772
_cell_length_b 9.772012
_cell_length_c 31.410211
_cell_angle_alpha 90.000000
_cell_angle_beta 51.804048
_cell_angle_gamma 90.000000
_cell_volume 1310.279626
_symmetry_space_group_name_H-M "P 2/M"
_symmetry_group_IT_number 10
_symmetry_cell_setting 'monoclinic'
loop_
_space_group_symop_operation_xyz
x,y,z
-x,y,-z
-x,-y,-z
x,-y,z
loop_
_atom_site_type_symbol
_atom_site_label
_atom_site_fract_x
_atom_site_fract_y
_atom_site_fract_z
Si Si1 0.424986 0.652631 0.884556
Si Si2 0.103910 0.651687 0.773161
Si Si3 0.728517 0.833076 0.562029
Si Si4 0.023265 0.164471 0.618617
Si Si5 0.023693 0.151080 0.280485
Si Si6 0.623828 0.842659 0.034738
Si Si7 0.296102 0.847131 0.828851
O O1 0.289315 0.500000 0.905167
O O2 0.509829 0.728071 0.919246
O O3 0.225611 0.762287 0.878946
O O4 0.734866 0.635168 0.822814
O O5 0.246418 0.500000 0.760934
O O6 0.159011 0.726782 0.722548
O O7 0.203747 0.755501 0.798985
O O8 0.384600 0.786994 0.583567
O O9 0.000000 0.793883 0.500000
O O10 0.830132 0.785775 0.598461
O O11 0.716867 0.000000 0.563617
O O12 0.888538 0.186026 0.680460
O O13 0.036356 0.000000 0.611810
O O14 0.332020 0.136151 0.218737
O O15 0.863391 0.000000 0.297931
O O16 0.549622 0.000000 0.055497
O O17 0.500000 0.824356 0.000000
O O18 0.000000 0.828477 0.000000
O O19 0.160778 0.000000 0.843727
#
# Coordination Sequence:
#
# PCOD9149399 Si02
#       7
#     4   4   4   4   4   4   4
#     4  10  22  39  58  83 114 149 191 234 284 340
#     4  10  21  36  55  80 112 147 183 230 281 335
#     4   9  16  26  41  65 100 142 180 220 277 338
#     4   9  17  27  44  68 101 139 179 225 274 334
#     4   9  19  33  50  76 106 143 185 227 278 334
#     4  10  23  42  63  90 121 154 194 241 290 341
#     4  10  20  34  56  81 109 146 187 229 279 340
#
# _framework density 21.369482000000001
#
# number of rings (size 3 to 8) (size 9 to 14) (size 15 to 20)
#    0.000    2.429    0.000    1.714    4.000    4.571 
#    0.000    0.000    0.000    0.000    0.000    0.000 
#    0.000    3.429    0.000    0.000    0.000    0.000 
#
# Total GULP energy -156100.813584 kJ/mol
# GULP energy per Si atom -5575.029057 kJ/mol
# Density = 2.132084 g / cm^3
# Si number density = 21.369482 Si / 1000 Ang^3
#
#
#
# Elastic Constant Matrix: (Units=GPa)
#
#
# Indices 1 2 3 4 5 6 
#
# 1 76.5474 30.5818 19.9042 0.0000 17.1233 0.0000
# 2 30.5818 140.9444 33.7040 0.0000 32.4060 0.0000
# 3 19.9042 33.7040 80.7371 0.0000 12.9113 0.0000
# 4 0.0000 0.0000 0.0000 -52.6959 0.0000 -36.6927
# 5 17.1233 32.4060 12.9113 0.0000 41.5723 0.0000
# 6 0.0000 0.0000 0.0000 -36.6927 0.0000 -18.0570
#
#
#
# Elastic Compliance Matrix: (Units=1/GPa)
#
#
# Indices 1 2 3 4 5 6 
#
# 1 0.015332 -0.001802 -0.002359 0.000000 -0.004178 0.000000
# 2 -0.001802 0.009437 -0.002565 0.000000 -0.005817 0.000000
# 3 -0.002359 -0.002565 0.014272 0.000000 -0.001461 0.000000
# 4 0.000000 0.000000 0.000000 0.045734 0.000000 -0.092934
# 5 -0.004178 -0.005817 -0.001461 0.000000 0.030764 0.000000
# 6 0.000000 0.000000 0.000000 -0.092934 0.000000 0.133466
#
#
# Mechanical properties :
#
#
# Convention : Reuss Voigt Hill
#
# Bulk Modulus (GPa) = 39.08089 51.84546 45.46317
# Shear Modulus (GPa) = 18.45110 8.43314 13.44212
#
# Velocity S-wave (km/s) = 2.94161 1.98870 2.51078
# Velocity P-wave (km/s) = 5.46492 5.43942 5.45218
#
# Compressibility (1/GPa) = 0.02558795
#
# Stress axis : x y z
#
# Youngs Moduli (GPa) = 65.22430 105.96769 70.06737
#
# Poissons Ratio (x) = 0.19094 0.16532
# Poissons Ratio (y) = 0.11753 0.17972
# Poissons Ratio (z) = 0.15389 0.27180
#
# Static dielectric constant tensor:
#      x y z
#    x 1.851150 0.000000 -0.042000 
#    y 0.000000 1.831970 0.000000 
#    z -0.042000 0.000000 1.795690 
# 
# From -- ./inp_files/13566.got.cif
#   From: 2010.05.17/outbox.cif.g08.bks.cpg/sg10_7_cif.got.tgz:13566.got - 2010.06.03 11:33:40.
