data_PCOD9149653
_publ_section_title
;
Structure prediction by ZEFSAII (Michael W. Deem and Ramdas Pophale) SiO2 
 PCOD9149653
Probable space group: P 2/M
;
_chemical_formula_sum "Si O2"
_cell_formula_units_Z 24
_cell_length_a 12.528029
_cell_length_b 8.167375
_cell_length_c 24.048353
_cell_angle_alpha 90.000000
_cell_angle_beta 153.843093
_cell_angle_gamma 90.000000
_cell_volume 1084.732370
_symmetry_space_group_name_H-M "P 2/M"
_symmetry_group_IT_number 10
_symmetry_cell_setting 'monoclinic'
loop_
_space_group_symop_operation_xyz
x,y,z
-x,y,-z
-x,-y,-z
x,-y,z
loop_
_atom_site_type_symbol
_atom_site_label
_atom_site_fract_x
_atom_site_fract_y
_atom_site_fract_z
Si Si1 0.545851 0.693964 0.460393
Si Si2 0.111731 0.692332 0.471960
Si Si3 0.405465 0.197832 0.089995
Si Si4 0.366735 0.809671 0.694635
Si Si5 0.739409 0.684935 0.150842
Si Si6 0.041425 0.191476 0.193642
O O1 0.500000 0.765966 0.500000
O O2 0.586325 0.500000 0.485113
O O3 0.773814 0.755329 0.531798
O O4 0.297413 0.720789 0.311070
O O5 0.045410 0.500000 0.437177
O O6 0.318667 0.710955 0.616106
O O7 0.885114 0.792613 0.388882
O O8 0.436714 0.249618 0.168484
O O9 0.635309 0.253423 0.160489
O O10 0.404651 0.000000 0.088672
O O11 0.162516 0.254176 0.944843
O O12 0.410375 0.000000 0.701384
O O13 0.831820 0.500000 0.199815
O O14 0.930506 0.784635 0.203760
O O15 0.500000 0.683527 0.000000
O O16 0.077797 0.000000 0.200253
#
# Coordination Sequence:
#
# PCOD9149653 Si02
#       6
#     4   4   4   4   4   4
#     4  10  23  41  58  79 111 149 187 229 276 332
#     4  10  21  38  58  82 112 145 185 233 278 325
#     4   9  19  34  53  81 113 144 181 229 279 325
#     4  10  20  36  60  85 112 144 183 230 277 329
#     4   9  17  29  48  75 108 145 181 220 268 321
#     4  10  20  35  54  79 112 146 184 228 274 331
#
# _framework density 22.125271000000001
#
# number of rings (size 3 to 8) (size 9 to 14) (size 15 to 20)
#    0.000    2.333    0.000    3.000    2.333    5.667 
#    0.000    0.833    0.000    5.000    0.000    0.000 
#    0.000    0.000    0.000    0.000    0.000    0.000 
#
# Total GULP energy -134019.428333 kJ/mol
# GULP energy per Si atom -5584.142847 kJ/mol
# Density = 2.207491 g / cm^3
# Si number density = 22.125271 Si / 1000 Ang^3
#
#
#
# Elastic Constant Matrix: (Units=GPa)
#
#
# Indices 1 2 3 4 5 6 
#
# 1 61.6912 -1.3639 9.9275 0.0000 -4.1944 0.0000
# 2 -1.3639 18.9820 -6.7755 0.0000 -2.9191 0.0000
# 3 9.9275 -6.7755 73.4522 0.0000 -10.1130 0.0000
# 4 0.0000 0.0000 0.0000 29.4093 0.0000 -12.8229
# 5 -4.1944 -2.9191 -10.1130 0.0000 36.1125 0.0000
# 6 0.0000 0.0000 0.0000 -12.8229 0.0000 39.6719
#
#
#
# Elastic Compliance Matrix: (Units=1/GPa)
#
#
# Indices 1 2 3 4 5 6 
#
# 1 0.016643 0.000707 -0.001987 0.000000 0.001434 0.000000
# 2 0.000707 0.055804 0.005912 0.000000 0.006249 0.000000
# 3 -0.001987 0.005912 0.015042 0.000000 0.004460 0.000000
# 4 0.000000 0.000000 0.000000 0.039581 0.000000 0.012794
# 5 0.001434 0.006249 0.004460 0.000000 0.029612 0.000000
# 6 0.000000 0.000000 0.000000 0.012794 0.000000 0.029342
#
#
# Mechanical properties :
#
#
# Convention : Reuss Voigt Hill
#
# Bulk Modulus (GPa) = 10.33550 17.52239 13.92894
# Shear Modulus (GPa) = 23.92242 31.19458 27.55850
#
# Velocity S-wave (km/s) = 3.29177 3.75895 3.53309
# Velocity P-wave (km/s) = 4.37369 5.17459 4.79090
#
# Compressibility (1/GPa) = 0.09675394
#
# Stress axis : x y z
#
# Youngs Moduli (GPa) = 60.08685 17.91996 66.47970
#
# Poissons Ratio (x) = -0.01267 0.13208
# Poissons Ratio (y) = -0.04249 -0.39305
# Poissons Ratio (z) = 0.11937 -0.10595
#
# Static dielectric constant tensor:
#      x y z
#    x 1.821460 0.000000 -0.048150 
#    y 0.000000 1.754700 0.000000 
#    z -0.048150 0.000000 1.876820 
# 
# From -- ./inp_files/88753.got.cif
#   From: 2010.05.17/outbox.cif.g08.bks.cpg/sg10_45_cif.got.tgz:88753.got - 2010.06.03 11:33:40.
