data_PCOD9149728
_publ_section_title
;
Structure prediction by ZEFSAII (Michael W. Deem and Ramdas Pophale) SiO2 
 PCOD9149728
Probable space group: P 2/M
;
_chemical_formula_sum "Si O2"
_cell_formula_units_Z 26
_cell_length_a 9.759501
_cell_length_b 8.298654
_cell_length_c 26.293595
_cell_angle_alpha 90.000000
_cell_angle_beta 41.351378
_cell_angle_gamma 90.000000
_cell_volume 1406.932173
_symmetry_space_group_name_H-M "P 2/M"
_symmetry_group_IT_number 10
_symmetry_cell_setting 'monoclinic'
loop_
_space_group_symop_operation_xyz
x,y,z
-x,y,-z
-x,-y,-z
x,-y,z
loop_
_atom_site_type_symbol
_atom_site_label
_atom_site_fract_x
_atom_site_fract_y
_atom_site_fract_z
Si Si1 0.329794 0.192404 0.086501
Si Si2 0.465991 0.311973 0.268826
Si Si3 0.237893 0.000000 0.503588
Si Si4 0.168378 0.682342 0.675374
Si Si5 0.697398 0.308762 0.795614
Si Si6 0.500000 0.760226 0.500000
Si Si7 0.855575 0.189004 0.210946
Si Si8 0.750201 0.000000 0.621432
O O1 0.379054 0.227997 0.131463
O O2 0.093449 0.247910 0.143067
O O3 0.322956 0.000000 0.082169
O O4 0.500000 0.258364 0.000000
O O5 0.399629 0.500000 0.296760
O O6 0.427844 0.274540 0.220328
O O7 0.703898 0.291324 0.218378
O O8 0.349969 0.167710 0.331090
O O9 0.348523 0.144733 0.503203
O O10 0.274898 0.000000 0.432729
O O11 0.988156 0.000000 0.574869
O O12 0.150804 0.500000 0.700201
O O13 0.336996 0.681192 0.584033
O O14 0.218758 0.791978 0.709764
O O15 0.940477 0.734276 0.719596
O O16 0.689484 0.500000 0.806023
O O17 0.845560 0.000000 0.199955
#
# Coordination Sequence:
#
# PCOD9149728 Si02
#       8
#     4   4   2   4   4   2   4   2
#     4   9  19  36  59  86 117 151 189 229 282 344
#     4  11  22  37  60  86 114 148 194 238 279 340
#     4  10  24  36  52  80 110 146 194 242 282 352
#     4  10  20  35  55  80 111 147 193 241 288 343
#     4   9  20  36  55  84 114 147 193 237 281 340
#     4  11  21  34  54  80 114 146 186 243 291 334
#     4  10  20  35  57  85 113 151 192 236 287 339
#     4  11  22  42  58  78 113 154 192 232 297 340
#
# _framework density 18.479925999999999
#
# number of rings (size 3 to 8) (size 9 to 14) (size 15 to 20)
#    0.000    2.000    0.769    2.538    3.231    0.923 
#    0.000    3.846    0.000    4.615    0.000    0.000 
#    0.000    0.000    0.000    0.000    0.000    0.000 
#
# Total GULP energy -144863.233778 kJ/mol
# GULP energy per Si atom -5571.662838 kJ/mol
# Density = 1.843787 g / cm^3
# Si number density = 18.479926 Si / 1000 Ang^3
#
#
#
# Elastic Constant Matrix: (Units=GPa)
#
#
# Indices 1 2 3 4 5 6 
#
# 1 142.5246 37.3854 51.8934 0.0000 8.1271 0.0000
# 2 37.3854 58.7776 31.1889 0.0000 -0.2551 0.0000
# 3 51.8934 31.1889 122.4247 0.0000 -7.8346 0.0000
# 4 0.0000 0.0000 0.0000 3.1490 0.0000 12.7327
# 5 8.1271 -0.2551 -7.8346 0.0000 9.7587 0.0000
# 6 0.0000 0.0000 0.0000 12.7327 0.0000 13.8671
#
#
#
# Elastic Compliance Matrix: (Units=1/GPa)
#
#
# Indices 1 2 3 4 5 6 
#
# 1 0.010333 -0.004504 -0.003996 0.000000 -0.011931 0.000000
# 2 -0.004504 0.021763 -0.003541 0.000000 0.001477 0.000000
# 3 -0.003996 -0.003541 0.011566 0.000000 0.012521 0.000000
# 4 0.000000 0.000000 0.000000 -0.117067 0.000000 0.107490
# 5 -0.011931 0.001477 0.012521 0.000000 0.122499 0.000000
# 6 0.000000 0.000000 0.000000 0.107490 0.000000 -0.026584
#
#
# Mechanical properties :
#
#
# Convention : Reuss Voigt Hill
#
# Bulk Modulus (GPa) = 51.07167 62.74026 56.90597
# Shear Modulus (GPa) = 94.12945 18.90557 56.51751
#
# Velocity S-wave (km/s) = 7.14469 3.20196 5.53621
# Velocity P-wave (km/s) = 9.78563 6.90610 8.46914
#
# Compressibility (1/GPa) = 0.01958033
#
# Stress axis : x y z
#
# Youngs Moduli (GPa) = 96.77689 45.94932 86.46403
#
# Poissons Ratio (x) = 0.20694 0.34553
# Poissons Ratio (y) = 0.43585 0.30616
# Poissons Ratio (z) = 0.38674 0.16270
#
# Static dielectric constant tensor:
#      x y z
#    x 1.632440 0.000000 -0.022350 
#    y 0.000000 1.659020 0.000000 
#    z -0.022350 0.000000 1.641360 
# 
# From -- ./inp_files/36718.got.cif
#   From: 2010.05.17/outbox.cif.g08.bks.cpg/sg10_19_cif.got.tgz:36718.got - 2010.06.03 11:33:40.
