data_PCOD9149912
_publ_section_title
;
Structure prediction by ZEFSAII (Michael W. Deem and Ramdas Pophale) SiO2 
 PCOD9149912
Probable space group: P 2/M
;
_chemical_formula_sum "Si O2"
_cell_formula_units_Z 24
_cell_length_a 9.701696
_cell_length_b 7.442868
_cell_length_c 14.658321
_cell_angle_alpha 90.000000
_cell_angle_beta 72.980176
_cell_angle_gamma 90.000000
_cell_volume 1012.097970
_symmetry_space_group_name_H-M "P 2/M"
_symmetry_group_IT_number 10
_symmetry_cell_setting 'monoclinic'
loop_
_space_group_symop_operation_xyz
x,y,z
-x,y,-z
-x,-y,-z
x,-y,z
loop_
_atom_site_type_symbol
_atom_site_label
_atom_site_fract_x
_atom_site_fract_y
_atom_site_fract_z
Si Si1 0.048257 0.785592 0.588702
Si Si2 0.928727 0.781357 0.798619
Si Si3 0.620696 0.209945 0.908917
Si Si4 0.579913 0.717954 0.209459
Si Si5 0.626044 0.284253 0.408137
Si Si6 0.871875 0.706283 0.082988
O O1 0.214925 0.755304 0.583798
O O2 0.000000 0.712826 0.500000
O O3 0.947531 0.721375 0.691092
O O4 0.029192 0.000000 0.589171
O O5 0.782755 0.717129 0.875914
O O6 0.065854 0.711479 0.827061
O O7 0.930694 0.000000 0.800837
O O8 0.561925 0.226417 0.817128
O O9 0.633417 0.000000 0.929658
O O10 0.500000 0.289926 0.000000
O O11 0.586148 0.500000 0.208817
O O12 0.599511 0.780614 0.309493
O O13 0.713578 0.785462 0.121342
O O14 0.500000 0.218614 0.500000
O O15 0.614625 0.500000 0.406322
O O16 0.857271 0.500000 0.055115
O O17 0.000000 0.793328 0.000000
#
# Coordination Sequence:
#
# PCOD9149912 Si02
#       6
#     4   4   4   4   4   4
#     4  10  22  39  59  85 114 146 187 232 279 334
#     4  10  21  37  56  81 113 147 186 230 276 331
#     4  10  22  38  56  82 115 150 189 231 276 329
#     4  10  21  37  56  82 114 145 184 231 276 331
#     4  10  22  40  60  85 115 146 185 231 280 336
#     4  10  20  35  57  83 110 143 184 230 279 332
#
# _framework density 23.713118000000001
#
# number of rings (size 3 to 8) (size 9 to 14) (size 15 to 20)
#    0.000    2.000    1.667    1.000    2.333    3.333 
#    0.000    0.000    0.000    0.000    0.000    0.000 
#    0.000    0.000    0.000    0.000    0.000    0.000 
#
# Total GULP energy -134139.524378 kJ/mol
# GULP energy per Si atom -5589.146849 kJ/mol
# Density = 2.365915 g / cm^3
# Si number density = 23.713118 Si / 1000 Ang^3
#
#
#
# Elastic Constant Matrix: (Units=GPa)
#
#
# Indices 1 2 3 4 5 6 
#
# 1 100.1073 -6.0769 18.5917 0.0000 0.8926 0.0000
# 2 -6.0769 84.0276 10.1955 0.0000 -5.8419 0.0000
# 3 18.5917 10.1955 115.4421 0.0000 2.1400 0.0000
# 4 0.0000 0.0000 0.0000 8.1542 0.0000 12.7961
# 5 0.8926 -5.8419 2.1400 0.0000 49.1887 0.0000
# 6 0.0000 0.0000 0.0000 12.7961 0.0000 14.2424
#
#
#
# Elastic Compliance Matrix: (Units=1/GPa)
#
#
# Indices 1 2 3 4 5 6 
#
# 1 0.010374 0.000963 -0.001756 0.000000 0.000003 0.000000
# 2 0.000963 0.012227 -0.001263 0.000000 0.001490 0.000000
# 3 -0.001756 -0.001263 0.009066 0.000000 -0.000513 0.000000
# 4 0.000000 0.000000 0.000000 -0.299179 0.000000 0.268798
# 5 0.000003 0.001490 -0.000513 0.000000 0.020529 0.000000
# 6 0.000000 0.000000 0.000000 0.268798 0.000000 -0.171289
#
#
# Mechanical properties :
#
#
# Convention : Reuss Voigt Hill
#
# Bulk Modulus (GPa) = 36.28810 38.33306 37.31058
# Shear Modulus (GPa) = -12.34640 32.77483 10.21421
#
# Velocity S-wave (km/s) = -2.28427 3.72175 2.07768
# Velocity P-wave (km/s) = 2.89465 5.88804 4.63940
#
# Compressibility (1/GPa) = 0.02755724
#
# Stress axis : x y z
#
# Youngs Moduli (GPa) = 96.39637 81.78419 110.30054
#
# Poissons Ratio (x) = -0.07880 0.19367
# Poissons Ratio (y) = -0.09287 0.13927
# Poissons Ratio (z) = 0.16926 0.10327
#
# Static dielectric constant tensor:
#      x y z
#    x 1.834900 0.000000 -0.007820 
#    y 0.000000 1.866290 0.000000 
#    z -0.007820 0.000000 1.938340 
# 
# From -- ./inp_files/60184.got.cif
#   From: 2010.05.17/outbox.cif.g08.bks.cpg/sg10_31_cif.got.tgz:60184.got - 2010.06.03 11:33:40.
