data_PCOD9149796
_publ_section_title
;
Structure prediction by ZEFSAII (Michael W. Deem and Ramdas Pophale) SiO2 
 PCOD9149796
Probable space group: P 2/M
;
_chemical_formula_sum "Si O2"
_cell_formula_units_Z 28
_cell_length_a 14.292484
_cell_length_b 7.583612
_cell_length_c 19.330180
_cell_angle_alpha 90.000000
_cell_angle_beta 35.825593
_cell_angle_gamma 90.000000
_cell_volume 1226.345977
_symmetry_space_group_name_H-M "P 2/M"
_symmetry_group_IT_number 10
_symmetry_cell_setting 'monoclinic'
loop_
_space_group_symop_operation_xyz
x,y,z
-x,y,-z
-x,-y,-z
x,-y,z
loop_
_atom_site_type_symbol
_atom_site_label
_atom_site_fract_x
_atom_site_fract_y
_atom_site_fract_z
Si Si1 0.513811 0.213670 0.680842
Si Si2 0.984352 0.717966 0.285643
Si Si3 0.166278 0.786407 0.933101
Si Si4 0.619471 0.203622 0.769693
Si Si5 0.352862 0.703835 0.546410
Si Si6 0.724908 0.295158 0.978740
Si Si7 0.042488 0.299205 0.400685
O O1 0.326282 0.264547 0.795311
O O2 0.588451 0.269567 0.709796
O O3 0.600734 0.288459 0.562079
O O4 0.522043 0.000000 0.673333
O O5 0.984890 0.500000 0.285430
O O6 0.148164 0.776915 0.152046
O O7 0.976778 0.779675 0.369475
O O8 0.825711 0.777665 0.340506
O O9 0.164340 0.000000 0.936567
O O10 0.193585 0.722694 0.994761
O O11 0.000000 0.725660 0.000000
O O12 0.765474 0.300649 0.718059
O O13 0.666491 0.000000 0.736952
O O14 0.450305 0.213490 0.909894
O O15 0.500000 0.786949 0.500000
O O16 0.341655 0.500000 0.575839
O O17 0.699358 0.500000 0.978650
O O18 0.980532 0.500000 0.440251
O O19 0.000000 0.215876 0.500000
#
# Coordination Sequence:
#
# PCOD9149796 Si02
#       7
#     4   4   4   4   4   4   4
#     4   9  19  35  53  76 106 141 179 223 275 328
#     4   9  20  37  54  81 117 146 180 233 286 332
#     4   9  19  35  54  77 109 146 184 232 282 328
#     4  10  21  38  58  82 115 146 183 233 283 334
#     4  10  21  36  56  80 110 146 183 228 279 328
#     4  10  20  35  56  80 112 148 187 231 278 336
#     4  10  20  36  61  86 111 149 192 230 277 337
#
# _framework density 22.832055
#
# number of rings (size 3 to 8) (size 9 to 14) (size 15 to 20)
#    0.000    2.429    0.000    2.571    2.000    5.429 
#    0.000    6.429    0.000    0.000    0.000    0.000 
#    0.000    0.000    0.000    0.000    0.000    0.000 
#
# Total GULP energy -156422.907592 kJ/mol
# GULP energy per Si atom -5586.532414 kJ/mol
# Density = 2.278009 g / cm^3
# Si number density = 22.832055 Si / 1000 Ang^3
#
#
#
# Elastic Constant Matrix: (Units=GPa)
#
#
# Indices 1 2 3 4 5 6 
#
# 1 73.7007 -2.6382 35.3010 0.0000 -24.8387 0.0000
# 2 -2.6382 55.8024 -2.7558 0.0000 -4.3860 0.0000
# 3 35.3010 -2.7558 95.2466 0.0000 -0.8583 0.0000
# 4 0.0000 0.0000 0.0000 34.2552 0.0000 12.0386
# 5 -24.8387 -4.3860 -0.8583 0.0000 34.5269 0.0000
# 6 0.0000 0.0000 0.0000 12.0386 0.0000 11.4959
#
#
#
# Elastic Compliance Matrix: (Units=1/GPa)
#
#
# Indices 1 2 3 4 5 6 
#
# 1 0.023370 0.002013 -0.008451 0.000000 0.016858 0.000000
# 2 0.002013 0.018303 -0.000182 0.000000 0.003768 0.000000
# 3 -0.008451 -0.000182 0.013574 0.000000 -0.005766 0.000000
# 4 0.000000 0.000000 0.000000 0.046193 0.000000 -0.048373
# 5 0.016858 0.003768 -0.005766 0.000000 0.041426 0.000000
# 6 0.000000 0.000000 0.000000 -0.048373 0.000000 0.137644
#
#
# Mechanical properties :
#
#
# Convention : Reuss Voigt Hill
#
# Bulk Modulus (GPa) = 23.80709 31.61820 27.71264
# Shear Modulus (GPa) = 16.24677 29.04512 22.64594
#
# Velocity S-wave (km/s) = 2.67043 3.57055 3.15278
# Velocity P-wave (km/s) = 4.46743 5.55668 5.04156
#
# Compressibility (1/GPa) = 0.04200429
#
# Stress axis : x y z
#
# Youngs Moduli (GPa) = 42.78997 54.63671 73.66941
#
# Poissons Ratio (x) = -0.10996 0.62261
# Poissons Ratio (y) = -0.08612 0.01344
# Poissons Ratio (z) = 0.36164 0.00996
#
# Static dielectric constant tensor:
#      x y z
#    x 1.828520 0.000000 -0.015560 
#    y 0.000000 1.850190 0.000000 
#    z -0.015560 0.000000 1.852680 
# 
# From -- ./inp_files/84907.got.cif
#   From: 2010.05.17/outbox.cif.g08.bks.cpg/sg10_43_cif.got.tgz:84907.got - 2010.06.03 11:33:40.
