data_PCOD9149182
_publ_section_title
;
Structure prediction by ZEFSAII (Michael W. Deem and Ramdas Pophale) SiO2 
 PCOD9149182
Probable space group: P 2/M
;
_chemical_formula_sum "Si O2"
_cell_formula_units_Z 32
_cell_length_a 14.232157
_cell_length_b 9.252209
_cell_length_c 14.422690
_cell_angle_alpha 90.000000
_cell_angle_beta 120.046076
_cell_angle_gamma 90.000000
_cell_volume 1643.959954
_symmetry_space_group_name_H-M "P 2/M"
_symmetry_group_IT_number 10
_symmetry_cell_setting 'monoclinic'
loop_
_space_group_symop_operation_xyz
x,y,z
-x,y,-z
-x,-y,-z
x,-y,z
loop_
_atom_site_type_symbol
_atom_site_label
_atom_site_fract_x
_atom_site_fract_y
_atom_site_fract_z
Si Si1 0.764558 0.171263 0.963331
Si Si2 0.064666 0.326283 0.820634
Si Si3 0.517218 0.172370 0.901271
Si Si4 0.600060 0.835072 0.623396
Si Si5 0.029401 0.675956 0.412913
Si Si6 0.457404 0.669620 0.696530
Si Si7 0.737824 0.670816 0.546539
Si Si8 0.107038 0.334747 0.119825
O O1 0.842795 0.244518 0.077974
O O2 0.781171 0.000000 0.970421
O O3 0.641255 0.200679 0.931568
O O4 0.803569 0.236239 0.884326
O O5 0.079443 0.500000 0.838035
O O6 0.056618 0.286757 0.709235
O O7 0.947410 0.293699 0.809741
O O8 0.445581 0.257159 0.790847
O O9 0.497417 0.000000 0.884124
O O10 0.500000 0.214147 0.000000
O O11 0.500000 0.838357 0.500000
O O12 0.553696 0.748235 0.687706
O O13 0.695527 0.755713 0.615317
O O14 0.626545 0.000000 0.661794
O O15 0.032579 0.500000 0.417706
O O16 0.147994 0.721989 0.437550
O O17 0.000000 0.729388 0.500000
O O18 0.480511 0.500000 0.717671
O O19 0.351709 0.685595 0.579202
O O20 0.745091 0.500000 0.573062
O O21 0.146018 0.500000 0.143021
O O22 0.000000 0.332128 0.000000
#
# Coordination Sequence:
#
# PCOD9149182 Si02
#       8
#     4   4   4   4   4   4   4   4
#     4  10  20  34  54  78 102 132 170 215 262 304
#     4   9  18  33  54  78 105 138 170 204 254 313
#     4  10  23  41  55  71 102 143 183 219 261 318
#     4   9  17  31  53  80 109 141 174 208 257 322
#     4   9  18  33  53  77 105 139 178 215 255 307
#     4  10  20  34  55  82 109 136 171 221 269 306
#     4   9  18  33  53  80 111 139 173 219 264 306
#     4   8  15  29  49  76 107 134 163 202 254 315
#
# _framework density 19.465192999999999
#
# number of rings (size 3 to 8) (size 9 to 14) (size 15 to 20)
#    0.000    2.750    0.000    1.875    0.000    7.500 
#    0.000    3.125    0.000    1.500    0.000    0.000 
#    0.000    0.000    0.000    0.000    0.000    0.000 
#
# Total GULP energy -178634.407897 kJ/mol
# GULP energy per Si atom -5582.325247 kJ/mol
# Density = 1.942089 g / cm^3
# Si number density = 19.465193 Si / 1000 Ang^3
#
#
#
# Elastic Constant Matrix: (Units=GPa)
#
#
# Indices 1 2 3 4 5 6 
#
# 1 52.8461 24.2419 25.9699 0.0000 -9.2301 0.0000
# 2 24.2419 48.9431 31.3928 0.0000 -3.2597 0.0000
# 3 25.9699 31.3928 88.2867 0.0000 -25.3587 0.0000
# 4 0.0000 0.0000 0.0000 16.7071 0.0000 -6.9130
# 5 -9.2301 -3.2597 -25.3587 0.0000 32.6520 0.0000
# 6 0.0000 0.0000 0.0000 -6.9130 0.0000 22.1919
#
#
#
# Elastic Compliance Matrix: (Units=1/GPa)
#
#
# Indices 1 2 3 4 5 6 
#
# 1 0.025925 -0.010953 -0.002498 0.000000 0.004295 0.000000
# 2 -0.010953 0.032044 -0.010481 0.000000 -0.008037 0.000000
# 3 -0.002498 -0.010481 0.019674 0.000000 0.013527 0.000000
# 4 0.000000 0.000000 0.000000 0.068711 0.000000 0.021404
# 5 0.004295 -0.008037 0.013527 0.000000 0.041543 0.000000
# 6 0.000000 0.000000 0.000000 0.021404 0.000000 0.051729
#
#
# Mechanical properties :
#
#
# Convention : Reuss Voigt Hill
#
# Bulk Modulus (GPa) = 33.57946 39.25390 36.41668
# Shear Modulus (GPa) = 16.81153 21.54162 19.17658
#
# Velocity S-wave (km/s) = 2.94202 3.33028 3.14215
# Velocity P-wave (km/s) = 5.36927 5.91588 5.64919
#
# Compressibility (1/GPa) = 0.02978011
#
# Stress axis : x y z
#
# Youngs Moduli (GPa) = 38.57323 31.20700 50.82978
#
# Poissons Ratio (x) = 0.34180 0.12695
# Poissons Ratio (y) = 0.42248 0.53274
# Poissons Ratio (z) = 0.09634 0.32708
#
# Static dielectric constant tensor:
#      x y z
#    x 1.667940 0.000000 0.005830 
#    y 0.000000 1.650360 0.000000 
#    z 0.005830 0.000000 1.728290 
# 
# From -- ./inp_files/66591.got.cif
#   From: 2010.05.17/outbox.cif.g08.bks.cpg/sg10_34_cif.got.tgz:66591.got - 2010.06.03 11:33:40.
