data_PCOD9149991
_publ_section_title
;
Structure prediction by ZEFSAII (Michael W. Deem and Ramdas Pophale) SiO2 
 PCOD9149991
Probable space group: P 2/M
;
_chemical_formula_sum "Si O2"
_cell_formula_units_Z 32
_cell_length_a 8.336494
_cell_length_b 12.870981
_cell_length_c 27.902035
_cell_angle_alpha 90.000000
_cell_angle_beta 32.189134
_cell_angle_gamma 90.000000
_cell_volume 1594.874589
_symmetry_space_group_name_H-M "P 2/M"
_symmetry_group_IT_number 10
_symmetry_cell_setting 'monoclinic'
loop_
_space_group_symop_operation_xyz
x,y,z
-x,y,-z
-x,-y,-z
x,-y,z
loop_
_atom_site_type_symbol
_atom_site_label
_atom_site_fract_x
_atom_site_fract_y
_atom_site_fract_z
Si Si1 0.236053 0.883824 0.477459
Si Si2 0.836681 0.616567 0.278368
Si Si3 0.895502 0.380537 0.102541
Si Si4 0.755601 0.222252 0.222253
Si Si5 0.290395 0.734879 0.599797
Si Si6 0.376004 0.119829 0.085530
Si Si7 0.824704 0.883539 0.675149
Si Si8 0.466942 0.678710 0.900121
O O1 0.526495 0.818259 0.415118
O O2 0.000000 0.836222 0.500000
O O3 0.060074 0.892259 0.571917
O O4 0.312788 0.000000 0.440546
O O5 0.759129 0.500000 0.283899
O O6 0.671319 0.701718 0.287294
O O7 0.763364 0.637542 0.352491
O O8 0.195294 0.635463 0.181073
O O9 0.824748 0.500000 0.132941
O O10 0.874341 0.301780 0.151809
O O11 0.669180 0.341360 0.118007
O O12 0.229952 0.375439 0.995674
O O13 0.487229 0.155268 0.268058
O O14 0.023526 0.147835 0.171751
O O15 0.500000 0.714451 0.500000
O O16 0.975180 0.792364 0.668280
O O17 0.520745 0.201199 0.086067
O O18 0.427241 0.000000 0.085436
O O19 0.500000 0.136465 0.000000
O O20 0.800412 0.000000 0.702934
#
# Coordination Sequence:
#
# PCOD9149991 Si02
#       8
#     4   4   4   4   4   4   4   4
#     4   9  17  32  57  86 115 148 184 230 288 348
#     4  11  23  39  59  83 114 151 198 250 293 341
#     4  11  21  37  59  83 115 151 193 248 296 339
#     4  11  22  37  58  87 116 154 199 241 288 345
#     4  10  21  38  60  86 119 153 190 237 295 358
#     4  10  20  38  57  80 118 160 196 235 285 342
#     4  10  20  35  57  87 117 148 187 233 287 346
#     4  10  21  38  59  86 112 149 196 241 290 345
#
# _framework density 20.064274999999999
#
# number of rings (size 3 to 8) (size 9 to 14) (size 15 to 20)
#    0.000    1.750    1.250    4.125    0.000    1.750 
#    0.000   13.125    0.000    7.875    0.000    0.000 
#    0.000    0.000    0.000    0.000    0.000    0.000 
#
# Total GULP energy -178650.122724 kJ/mol
# GULP energy per Si atom -5582.816335 kJ/mol
# Density = 2.001861 g / cm^3
# Si number density = 20.064275 Si / 1000 Ang^3
#
#
#
# Elastic Constant Matrix: (Units=GPa)
#
#
# Indices 1 2 3 4 5 6 
#
# 1 32.1071 -1.5849 2.8440 0.0000 -2.3744 0.0000
# 2 -1.5849 84.6080 14.2156 0.0000 3.6362 0.0000
# 3 2.8440 14.2156 42.6079 0.0000 -2.1714 0.0000
# 4 0.0000 0.0000 0.0000 33.5990 0.0000 -2.1585
# 5 -2.3744 3.6362 -2.1714 0.0000 32.9763 0.0000
# 6 0.0000 0.0000 0.0000 -2.1585 0.0000 22.4639
#
#
#
# Elastic Compliance Matrix: (Units=1/GPa)
#
#
# Indices 1 2 3 4 5 6 
#
# 1 0.031543 0.000890 -0.002299 0.000000 0.002022 0.000000
# 2 0.000890 0.012638 -0.004358 0.000000 -0.001616 0.000000
# 3 -0.002299 -0.004358 0.025178 0.000000 0.001973 0.000000
# 4 0.000000 0.000000 0.000000 0.029948 0.000000 0.002878
# 5 0.002022 -0.001616 0.001973 0.000000 0.030779 0.000000
# 6 0.000000 0.000000 0.000000 0.002878 0.000000 0.044792
#
#
# Mechanical properties :
#
#
# Convention : Reuss Voigt Hill
#
# Bulk Modulus (GPa) = 17.29391 21.14137 19.21764
# Shear Modulus (GPa) = 24.30888 27.39772 25.85330
#
# Velocity S-wave (km/s) = 3.48451 3.69927 3.59350
# Velocity P-wave (km/s) = 4.98267 5.36711 5.17846
#
# Compressibility (1/GPa) = 0.05782383
#
# Stress axis : x y z
#
# Youngs Moduli (GPa) = 31.70285 79.12894 39.71740
#
# Poissons Ratio (x) = -0.07045 0.09133
# Poissons Ratio (y) = -0.02823 0.17310
# Poissons Ratio (z) = 0.07290 0.34486
#
# Static dielectric constant tensor:
#      x y z
#    x 1.721270 0.000000 0.023530 
#    y 0.000000 1.701270 0.000000 
#    z 0.023530 0.000000 1.715980 
# 
# From -- ./inp_files/38259.got.cif
#   From: 2010.05.17/outbox.cif.g08.bks.cpg/sg10_20_cif.got.tgz:38259.got - 2010.06.03 11:33:40.
