data_PCOD9149568
_publ_section_title
;
Structure prediction by ZEFSAII (Michael W. Deem and Ramdas Pophale) SiO2 
 PCOD9149568
Probable space group: P 2/M
;
_chemical_formula_sum "Si O2"
_cell_formula_units_Z 28
_cell_length_a 5.173502
_cell_length_b 20.120559
_cell_length_c 13.299220
_cell_angle_alpha 90.000000
_cell_angle_beta 102.841965
_cell_angle_gamma 90.000000
_cell_volume 1349.738329
_symmetry_space_group_name_H-M "P 2/M"
_symmetry_group_IT_number 10
_symmetry_cell_setting 'monoclinic'
loop_
_space_group_symop_operation_xyz
x,y,z
-x,y,-z
-x,-y,-z
x,-y,z
loop_
_atom_site_type_symbol
_atom_site_label
_atom_site_fract_x
_atom_site_fract_y
_atom_site_fract_z
Si Si1 0.365164 0.571149 0.596882
Si Si2 0.753639 0.829423 0.245376
Si Si3 0.839144 0.818587 0.888845
Si Si4 0.190088 0.680371 0.709682
Si Si5 0.159339 0.573747 0.202013
Si Si6 0.343183 0.677486 0.091002
Si Si7 0.296996 0.922758 0.568698
O O1 0.500000 0.574048 0.500000
O O2 0.215823 0.500000 0.592044
O O3 0.215768 0.639120 0.609061
O O4 0.585687 0.567686 0.703402
O O5 0.477888 0.827837 0.155813
O O6 0.852162 0.758923 0.302258
O O7 0.698256 0.879806 0.330299
O O8 0.995672 0.845023 0.191498
O O9 0.855048 0.738058 0.901907
O O10 0.000000 0.844889 0.000000
O O11 0.453405 0.681957 0.799563
O O12 0.005207 0.631823 0.758550
O O13 0.036882 0.500000 0.186742
O O14 0.224563 0.604407 0.098519
O O15 0.500000 0.686064 0.000000
O O16 0.500000 0.898969 0.500000
O O17 0.000000 0.920230 0.500000
O O18 0.363556 0.000000 0.596074
#
# Coordination Sequence:
#
# PCOD9149568 Si02
#       7
#     4   4   4   4   4   4   4
#     4   9  19  35  52  71 100 144 193 239 303 378
#     4  11  22  38  64  93 128 162 211 259 311 362
#     4  11  21  38  62  93 123 166 212 261 313 375
#     4  10  20  35  51  79 110 142 190 254 302 358
#     4  10  20  35  53  73 106 148 195 254 315 372
#     4  10  21  35  54  76 109 151 197 252 309 372
#     4  10  22  43  69  99 136 176 211 246 302 376
#
# _framework density 20.744759999999999
#
# number of rings (size 3 to 8) (size 9 to 14) (size 15 to 20)
#    0.000    1.857    1.429    3.429    0.000    2.000 
#    2.571    2.857    0.000    2.571    0.000    0.000 
#    0.000    0.000    0.000    0.000    0.000    0.000 
#
# Total GULP energy -155931.419415 kJ/mol
# GULP energy per Si atom -5568.979265 kJ/mol
# Density = 2.069754 g / cm^3
# Si number density = 20.744760 Si / 1000 Ang^3
#
#
#
# Elastic Constant Matrix: (Units=GPa)
#
#
# Indices 1 2 3 4 5 6 
#
# 1 60.3596 -2.8800 -2.1201 0.0000 -4.7051 0.0000
# 2 -2.8800 59.5127 25.2282 0.0000 -11.4591 0.0000
# 3 -2.1201 25.2282 77.2406 0.0000 -18.5124 0.0000
# 4 0.0000 0.0000 0.0000 21.2937 0.0000 -16.2243
# 5 -4.7051 -11.4591 -18.5124 0.0000 44.8910 0.0000
# 6 0.0000 0.0000 0.0000 -16.2243 0.0000 -1.7529
#
#
#
# Elastic Compliance Matrix: (Units=1/GPa)
#
#
# Indices 1 2 3 4 5 6 
#
# 1 0.016817 0.000960 0.000698 0.000000 0.002296 0.000000
# 2 0.000960 0.019838 -0.005787 0.000000 0.002778 0.000000
# 3 0.000698 -0.005787 0.016112 0.000000 0.005240 0.000000
# 4 0.000000 0.000000 0.000000 0.005832 0.000000 -0.053981
# 5 0.002296 0.002778 0.005240 0.000000 0.025387 0.000000
# 6 0.000000 0.000000 0.000000 -0.053981 0.000000 -0.070848
#
#
# Mechanical properties :
#
#
# Convention : Reuss Voigt Hill
#
# Bulk Modulus (GPa) = 22.46791 26.39656 24.43223
# Shear Modulus (GPa) = 138.00012 24.67867 81.33939
#
# Velocity S-wave (km/s) = 8.16500 3.45285 6.26855
# Velocity P-wave (km/s) = 9.98719 5.35241 8.01225
#
# Compressibility (1/GPa) = 0.04450792
#
# Stress axis : x y z
#
# Youngs Moduli (GPa) = 59.46495 50.40893 62.06598
#
# Poissons Ratio (x) = -0.04838 -0.04334
# Poissons Ratio (y) = -0.05707 0.35919
# Poissons Ratio (z) = -0.04152 0.29173
#
# Static dielectric constant tensor:
#      x y z
#    x 2.909750 0.000000 0.546210 
#    y 0.000000 1.827120 0.000000 
#    z 0.546210 0.000000 2.017660 
# 
# From -- ./inp_files/39603.got.cif
#   From: 2010.05.17/outbox.cif.g08.bks.cpg/sg10_20_cif.got.tgz:39603.got - 2010.06.03 11:33:40.
