data_PCOD9149976
_publ_section_title
;
Structure prediction by ZEFSAII (Michael W. Deem and Ramdas Pophale) SiO2 
 PCOD9149976
Probable space group: P 2/M
;
_chemical_formula_sum "Si O2"
_cell_formula_units_Z 26
_cell_length_a 5.140678
_cell_length_b 27.091718
_cell_length_c 9.627863
_cell_angle_alpha 90.000000
_cell_angle_beta 100.711672
_cell_angle_gamma 90.000000
_cell_volume 1317.505810
_symmetry_space_group_name_H-M "P 2/M"
_symmetry_group_IT_number 10
_symmetry_cell_setting 'monoclinic'
loop_
_space_group_symop_operation_xyz
x,y,z
-x,y,-z
-x,-y,-z
x,-y,z
loop_
_atom_site_type_symbol
_atom_site_label
_atom_site_fract_x
_atom_site_fract_y
_atom_site_fract_z
Si Si1 0.500000 0.709799 0.500000
Si Si2 0.920695 0.290266 0.144618
Si Si3 0.059964 0.117868 0.170593
Si Si4 0.472142 0.346971 0.236537
Si Si5 0.280504 0.555636 0.098148
Si Si6 0.924594 0.788612 0.645377
Si Si7 0.558463 0.944357 0.171025
O O1 0.395457 0.673092 0.608750
O O2 0.705399 0.747859 0.587448
O O3 0.184110 0.321562 0.203204
O O4 0.870441 0.244676 0.244858
O O5 0.671543 0.326635 0.138131
O O6 0.000000 0.270484 0.000000
O O7 0.145532 0.166848 0.260117
O O8 0.291515 0.077770 0.206530
O O9 0.796868 0.094098 0.210279
O O10 0.000000 0.126912 0.000000
O O11 0.400838 0.404236 0.214842
O O12 0.241929 0.500000 0.150779
O O13 0.500000 0.553197 0.000000
O O14 0.000000 0.571091 0.000000
O O15 0.000000 0.807766 0.500000
O O16 0.619550 0.000000 0.224253
O O17 0.500000 0.947032 0.000000
#
# Coordination Sequence:
#
# PCOD9149976 Si02
#       7
#     2   4   4   4   4   4   4
#     4  10  24  40  57  82 113 164 200 234 284 358
#     4  11  22  36  59  85 112 148 196 247 286 337
#     4  10  21  35  60  89 114 149 191 238 286 340
#     4  11  21  37  58  82 116 150 194 235 288 349
#     4  10  20  35  57  86 116 146 185 240 301 348
#     4  11  23  40  56  80 119 156 195 234 293 347
#     4   9  18  35  59  89 118 145 185 239 293 341
#
# _framework density 19.734259000000002
#
# number of rings (size 3 to 8) (size 9 to 14) (size 15 to 20)
#    0.000    1.692    1.538    3.692    2.154    1.846 
#    0.000    3.462    0.000    2.769    0.000    6.462 
#    0.000    0.000    0.000    0.000    0.000    0.000 
#
# Total GULP energy -144830.165971 kJ/mol
# GULP energy per Si atom -5570.390999 kJ/mol
# Density = 1.968934 g / cm^3
# Si number density = 19.734259 Si / 1000 Ang^3
#
#
#
# Elastic Constant Matrix: (Units=GPa)
#
#
# Indices 1 2 3 4 5 6 
#
# 1 84.4709 5.0814 13.2220 0.0000 0.9974 0.0000
# 2 5.0814 99.5770 51.3787 0.0000 10.1276 0.0000
# 3 13.2220 51.3787 73.7798 0.0000 -5.2723 0.0000
# 4 0.0000 0.0000 0.0000 66.1208 0.0000 -16.7200
# 5 0.9974 10.1276 -5.2723 0.0000 18.0613 0.0000
# 6 0.0000 0.0000 0.0000 -16.7200 0.0000 35.3223
#
#
#
# Elastic Compliance Matrix: (Units=1/GPa)
#
#
# Indices 1 2 3 4 5 6 
#
# 1 0.012302 0.001309 -0.003286 0.000000 -0.002372 0.000000
# 2 0.001309 0.018996 -0.014533 0.000000 -0.014966 0.000000
# 3 -0.003286 -0.014533 0.025388 0.000000 0.015741 0.000000
# 4 0.000000 0.000000 0.000000 0.017180 0.000000 0.008132
# 5 -0.002372 -0.014966 0.015741 0.000000 0.068485 0.000000
# 6 0.000000 0.000000 0.000000 0.008132 0.000000 0.032160
#
#
# Mechanical properties :
#
#
# Convention : Reuss Voigt Hill
#
# Bulk Modulus (GPa) = 42.25270 44.13242 43.19256
# Shear Modulus (GPa) = 23.21053 36.44394 29.82724
#
# Velocity S-wave (km/s) = 3.43323 4.30203 3.89195
# Velocity P-wave (km/s) = 6.09700 6.86210 6.49084
#
# Compressibility (1/GPa) = 0.02366713
#
# Stress axis : x y z
#
# Youngs Moduli (GPa) = 81.28789 52.64195 39.38913
#
# Poissons Ratio (x) = -0.06890 0.12941
# Poissons Ratio (y) = -0.10639 0.57243
# Poissons Ratio (z) = 0.26707 0.76503
#
# Static dielectric constant tensor:
#      x y z
#    x 1.712170 0.000000 0.000450 
#    y 0.000000 1.717550 0.000000 
#    z 0.000450 0.000000 1.782840 
# 
# From -- ./inp_files/15749.got.cif
#   From: 2010.05.17/outbox.cif.g08.bks.cpg/sg10_8_cif.got.tgz:15749.got - 2010.06.03 11:33:40.
