data_PCOD9149572
_publ_section_title
;
Structure prediction by ZEFSAII (Michael W. Deem and Ramdas Pophale) SiO2 
 PCOD9149572
Probable space group: P 2/M
;
_chemical_formula_sum "Si O2"
_cell_formula_units_Z 32
_cell_length_a 23.047411
_cell_length_b 15.819482
_cell_length_c 22.229981
_cell_angle_alpha 90.000000
_cell_angle_beta 167.742454
_cell_angle_gamma 90.000000
_cell_volume 1720.745055
_symmetry_space_group_name_H-M "P 2/M"
_symmetry_group_IT_number 10
_symmetry_cell_setting 'monoclinic'
loop_
_space_group_symop_operation_xyz
x,y,z
-x,y,-z
-x,-y,-z
x,-y,z
loop_
_atom_site_type_symbol
_atom_site_label
_atom_site_fract_x
_atom_site_fract_y
_atom_site_fract_z
Si Si1 0.781960 0.172052 0.320946
Si Si2 0.196266 0.809271 0.910890
Si Si3 0.689625 0.902379 0.359774
Si Si4 0.102522 0.333978 0.335933
Si Si5 0.326940 0.596333 0.688689
Si Si6 0.847653 0.684278 0.246656
Si Si7 0.222097 0.597073 0.180951
Si Si8 0.594462 0.598392 0.762726
O O1 0.687402 0.130613 0.288351
O O2 0.975270 0.251544 0.534285
O O3 0.000000 0.120435 0.500000
O O4 0.500000 0.189741 0.000000
O O5 0.997189 0.885778 0.692496
O O6 0.052814 0.756506 0.818907
O O7 0.181731 0.738851 0.843886
O O8 0.498167 0.846486 0.209736
O O9 0.613246 0.000000 0.284110
O O10 0.264558 0.358605 0.561389
O O11 0.334326 0.348384 0.520887
O O12 0.846517 0.395924 0.064614
O O13 0.411031 0.500000 0.764042
O O14 0.039063 0.603914 0.430362
O O15 0.545400 0.648805 0.949362
O O16 0.500000 0.594057 0.500000
O O17 0.126125 0.500000 0.072043
O O18 0.287717 0.631136 0.181445
O O19 0.000000 0.638047 0.000000
O O20 0.509694 0.500000 0.670272
#
# Coordination Sequence:
#
# PCOD9149572 Si02
#       8
#     4   4   4   4   4   4   4   4
#     4  11  22  37  58  79 100 126 156 194 242 289
#     4  10  20  36  52  72 101 133 161 187 235 306
#     4  11  22  37  57  80 103 126 157 190 226 290
#     4  11  21  32  49  74 103 132 167 212 262 300
#     4  11  20  32  51  72  95 123 161 208 251 289
#     4  10  20  35  52  70  95 128 159 188 235 303
#     4   9  17  29  43  60  90 137 186 225 259 295
#     4  11  20  30  46  72 104 136 181 232 263 283
#
# _framework density 18.596594
#
# number of rings (size 3 to 8) (size 9 to 14) (size 15 to 20)
#    0.000    1.500    0.000    9.375    0.000    2.500 
#    0.000    0.000    0.000    7.500    0.000    0.000 
#    0.000    0.000    0.000    0.000    0.000  157.500 
#
# Total GULP energy -178254.635701 kJ/mol
# GULP energy per Si atom -5570.457366 kJ/mol
# Density = 1.855427 g / cm^3
# Si number density = 18.596594 Si / 1000 Ang^3
#
#
#
# Elastic Constant Matrix: (Units=GPa)
#
#
# Indices 1 2 3 4 5 6 
#
# 1 39.5778 16.6988 16.0917 0.0000 16.3767 0.0000
# 2 16.6988 69.6089 14.4933 0.0000 6.9717 0.0000
# 3 16.0917 14.4933 106.2006 0.0000 16.3518 0.0000
# 4 0.0000 0.0000 0.0000 -1.4201 0.0000 4.7007
# 5 16.3767 6.9717 16.3518 0.0000 31.6425 0.0000
# 6 0.0000 0.0000 0.0000 4.7007 0.0000 3.4041
#
#
#
# Elastic Compliance Matrix: (Units=1/GPa)
#
#
# Indices 1 2 3 4 5 6 
#
# 1 0.035379 -0.006477 -0.002039 0.000000 -0.015829 0.000000
# 2 -0.006477 0.016143 -0.001293 0.000000 0.000464 0.000000
# 3 -0.002039 -0.001293 0.010533 0.000000 -0.004103 0.000000
# 4 0.000000 0.000000 0.000000 -0.126401 0.000000 0.174546
# 5 -0.015829 0.000464 -0.004103 0.000000 0.041814 0.000000
# 6 0.000000 0.000000 0.000000 0.174546 0.000000 0.052731
#
#
# Mechanical properties :
#
#
# Convention : Reuss Voigt Hill
#
# Bulk Modulus (GPa) = 23.56520 34.43944 29.00232
# Shear Modulus (GPa) = 78.17099 17.93221 48.05160
#
# Velocity S-wave (km/s) = 6.49048 3.10865 5.08871
# Velocity P-wave (km/s) = 8.29866 5.60752 7.08209
#
# Compressibility (1/GPa) = 0.04243546
#
# Stress axis : x y z
#
# Youngs Moduli (GPa) = 28.26564 61.94796 94.93669
#
# Poissons Ratio (x) = 0.40125 0.19362
# Poissons Ratio (y) = 0.18308 0.12275
# Poissons Ratio (z) = 0.05765 0.08010
#
# Static dielectric constant tensor:
#      x y z
#    x 1.734120 0.000000 0.023860 
#    y 0.000000 1.658630 0.000000 
#    z 0.023860 0.000000 1.674160 
# 
# From -- ./inp_files/91155.got.cif
#   From: 2010.05.17/outbox.cif.g08.bks.cpg/sg10_46_cif.got.tgz:91155.got - 2010.06.03 11:33:40.
