data_PCOD9149414
_publ_section_title
;
Structure prediction by ZEFSAII (Michael W. Deem and Ramdas Pophale) SiO2 
 PCOD9149414
Probable space group: P 2/M
;
_chemical_formula_sum "Si O2"
_cell_formula_units_Z 28
_cell_length_a 12.689381
_cell_length_b 9.205847
_cell_length_c 14.921001
_cell_angle_alpha 90.000000
_cell_angle_beta 55.234807
_cell_angle_gamma 90.000000
_cell_volume 1431.882819
_symmetry_space_group_name_H-M "P 2/M"
_symmetry_group_IT_number 10
_symmetry_cell_setting 'monoclinic'
loop_
_space_group_symop_operation_xyz
x,y,z
-x,y,-z
-x,-y,-z
x,-y,z
loop_
_atom_site_type_symbol
_atom_site_label
_atom_site_fract_x
_atom_site_fract_y
_atom_site_fract_z
Si Si1 0.526005 0.829035 0.702389
Si Si2 0.035008 0.669377 0.337699
Si Si3 0.413578 0.828090 0.955742
Si Si4 0.213255 0.331149 0.414706
Si Si5 0.046152 0.828238 0.796553
Si Si6 0.171057 0.667929 0.005133
Si Si7 0.715508 0.668278 0.250986
O O1 0.489382 0.806059 0.825323
O O2 0.668074 0.769232 0.619273
O O3 0.422031 0.743274 0.693691
O O4 0.516746 0.000000 0.689034
O O5 0.045102 0.500000 0.304397
O O6 0.905513 0.681536 0.459502
O O7 0.021667 0.775900 0.261503
O O8 0.153306 0.702207 0.346183
O O9 0.379772 0.000000 0.976980
O O10 0.500000 0.792674 0.000000
O O11 0.285779 0.732396 0.010005
O O12 0.254510 0.500000 0.394356
O O13 0.185600 0.754453 0.734862
O O14 0.954646 0.762681 0.917576
O O15 0.056068 0.000000 0.798605
O O16 0.143672 0.500000 0.039649
O O17 0.221778 0.674694 0.878947
O O18 0.705225 0.500000 0.282550
#
# Coordination Sequence:
#
# PCOD9149414 Si02
#       7
#     4   4   4   4   4   4   4
#     4  10  20  34  56  83 114 149 183 225 280 334
#     4   9  20  39  60  84 112 145 186 231 276 329
#     4   9  19  34  50  76 115 150 183 224 271 327
#     4   9  19  38  62  84 111 146 185 229 278 331
#     4  12  24  36  56  84 115 147 184 232 285 332
#     4  10  21  36  55  80 109 148 192 230 271 325
#     4  10  21  39  59  80 110 149 193 233 272 327
#
# _framework density 19.554673000000001
#
# number of rings (size 3 to 8) (size 9 to 14) (size 15 to 20)
#    0.000    2.143    0.000    3.857    2.000    5.429 
#    0.000    2.143    0.000    4.286    0.000    0.000 
#    0.000    0.000    0.000    0.000    0.000    0.000 
#
# Total GULP energy -156434.874469 kJ/mol
# GULP energy per Si atom -5586.959802 kJ/mol
# Density = 1.951017 g / cm^3
# Si number density = 19.554673 Si / 1000 Ang^3
#
#
#
# Elastic Constant Matrix: (Units=GPa)
#
#
# Indices 1 2 3 4 5 6 
#
# 1 53.2619 37.1409 0.3978 0.0000 -20.7196 0.0000
# 2 37.1409 103.4672 10.7225 0.0000 -14.6489 0.0000
# 3 0.3978 10.7225 11.6495 0.0000 -5.8317 0.0000
# 4 0.0000 0.0000 0.0000 -29.7989 0.0000 11.8224
# 5 -20.7196 -14.6489 -5.8317 0.0000 27.2156 0.0000
# 6 0.0000 0.0000 0.0000 11.8224 0.0000 25.4119
#
#
#
# Elastic Compliance Matrix: (Units=1/GPa)
#
#
# Indices 1 2 3 4 5 6 
#
# 1 0.037567 -0.012071 0.023403 0.000000 0.027118 0.000000
# 2 -0.012071 0.014983 -0.015617 0.000000 -0.004472 0.000000
# 3 0.023403 -0.015617 0.116638 0.000000 0.034404 0.000000
# 4 0.000000 0.000000 0.000000 -0.028329 0.000000 0.013180
# 5 0.027118 -0.004472 0.034404 0.000000 0.062354 0.000000
# 6 0.000000 0.000000 0.000000 0.013180 0.000000 0.033220
#
#
# Mechanical properties :
#
#
# Convention : Reuss Voigt Hill
#
# Bulk Modulus (GPa) = 6.22597 29.43345 17.82971
# Shear Modulus (GPa) = 16.74797 12.57356 14.66076
#
# Velocity S-wave (km/s) = 2.92972 2.53849 2.74109
# Velocity P-wave (km/s) = 3.82559 4.86584 4.37673
#
# Compressibility (1/GPa) = 0.16061760
#
# Stress axis : x y z
#
# Youngs Moduli (GPa) = 26.61905 66.74059 8.57351
#
# Poissons Ratio (x) = 0.80564 -0.20065
# Poissons Ratio (y) = 0.32132 0.13390
# Poissons Ratio (z) = -0.62296 1.04231
#
# Static dielectric constant tensor:
#      x y z
#    x 1.672890 0.000000 0.012000 
#    y 0.000000 1.650310 0.000000 
#    z 0.012000 0.000000 1.700970 
# 
# From -- ./inp_files/49482.got.cif
#   From: 2010.05.17/outbox.cif.g08.bks.cpg/sg10_25_cif.got.tgz:49482.got - 2010.06.03 11:33:40.
