data_PCOD9149565
_publ_section_title
;
Structure prediction by ZEFSAII (Michael W. Deem and Ramdas Pophale) SiO2 
 PCOD9149565
Probable space group: P 2/M
;
_chemical_formula_sum "Si O2"
_cell_formula_units_Z 32
_cell_length_a 12.379045
_cell_length_b 7.952497
_cell_length_c 31.996769
_cell_angle_alpha 90.000000
_cell_angle_beta 29.981435
_cell_angle_gamma 90.000000
_cell_volume 1574.066079
_symmetry_space_group_name_H-M "P 2/M"
_symmetry_group_IT_number 10
_symmetry_cell_setting 'monoclinic'
loop_
_space_group_symop_operation_xyz
x,y,z
-x,y,-z
-x,-y,-z
x,-y,z
loop_
_atom_site_type_symbol
_atom_site_label
_atom_site_fract_x
_atom_site_fract_y
_atom_site_fract_z
Si Si1 0.809090 0.703910 0.248098
Si Si2 0.460531 0.200305 0.122569
Si Si3 0.339287 0.192000 0.610667
Si Si4 0.799781 0.305711 0.430260
Si Si5 0.288935 0.302152 0.093500
Si Si6 0.047878 0.203443 0.031962
Si Si7 0.715323 0.704436 0.727505
Si Si8 0.369223 0.698993 0.776835
O O1 0.814336 0.500000 0.244580
O O2 0.727951 0.753064 0.320889
O O3 0.658633 0.766177 0.260716
O O4 0.055051 0.767759 0.159630
O O5 0.324334 0.282107 0.131115
O O6 0.370639 0.239757 0.198530
O O7 0.455506 0.000000 0.118130
O O8 0.710732 0.257655 0.036619
O O9 0.596594 0.210006 0.517813
O O10 0.230030 0.296212 0.609926
O O11 0.273641 0.000000 0.625900
O O12 0.781296 0.500000 0.449533
O O13 0.037361 0.241051 0.361562
O O14 0.283266 0.500000 0.084872
O O15 0.500000 0.227441 0.000000
O O16 0.860800 0.275674 0.123551
O O17 0.039465 0.000000 0.036924
O O18 0.000000 0.251763 0.000000
O O19 0.714660 0.500000 0.727890
O O20 0.554503 0.767833 0.745253
O O21 0.411454 0.500000 0.759338
#
# Coordination Sequence:
#
# PCOD9149565 Si02
#       8
#     4   4   4   4   4   4   4   4
#     4  10  21  38  58  80 111 149 185 224 276 328
#     4  11  22  34  53  79 110 146 183 225 276 328
#     4  11  22  37  59  87 113 142 183 224 266 326
#     4  10  20  37  61  86 114 143 173 221 282 330
#     4  10  21  37  56  79 109 144 184 229 274 320
#     4  10  20  35  51  74 110 149 185 223 273 327
#     4  10  21  36  56  84 111 138 179 228 275 324
#     4  10  21  37  58  82 107 143 191 234 269 318
#
# _framework density 20.329515000000001
#
# number of rings (size 3 to 8) (size 9 to 14) (size 15 to 20)
#    0.000    1.750    1.250    4.125    0.000    7.500 
#    0.000    0.625    0.000    3.750    0.000    0.000 
#    0.000    0.000    0.000    0.000    0.000    0.000 
#
# Total GULP energy -178810.844091 kJ/mol
# GULP energy per Si atom -5587.838878 kJ/mol
# Density = 2.028324 g / cm^3
# Si number density = 20.329515 Si / 1000 Ang^3
#
#
#
# Elastic Constant Matrix: (Units=GPa)
#
#
# Indices 1 2 3 4 5 6 
#
# 1 96.7771 -8.7173 47.5782 0.0000 -5.1135 0.0000
# 2 -8.7173 21.2464 -2.6902 0.0000 -2.0072 0.0000
# 3 47.5782 -2.6902 85.0484 0.0000 -3.5375 0.0000
# 4 0.0000 0.0000 0.0000 78.9904 0.0000 41.6422
# 5 -5.1135 -2.0072 -3.5375 0.0000 36.2396 0.0000
# 6 0.0000 0.0000 0.0000 41.6422 0.0000 22.5525
#
#
#
# Elastic Compliance Matrix: (Units=1/GPa)
#
#
# Indices 1 2 3 4 5 6 
#
# 1 0.014861 0.005225 -0.008082 0.000000 0.001597 0.000000
# 2 0.005225 0.049373 -0.001222 0.000000 0.003353 0.000000
# 3 -0.008082 -0.001222 0.016256 0.000000 0.000379 0.000000
# 4 0.000000 0.000000 0.000000 0.476216 0.000000 -0.879312
# 5 0.001597 0.003353 0.000379 0.000000 0.028042 0.000000
# 6 0.000000 0.000000 0.000000 -0.879312 0.000000 1.667953
#
#
# Mechanical properties :
#
#
# Convention : Reuss Voigt Hill
#
# Bulk Modulus (GPa) = 13.82496 30.60147 22.21322
# Shear Modulus (GPa) = 2.18821 38.68325 20.43573
#
# Velocity S-wave (km/s) = 1.03861 4.36686 3.17397
# Velocity P-wave (km/s) = 2.87289 6.36485 4.93785
#
# Compressibility (1/GPa) = 0.07233292
#
# Stress axis : x y z
#
# Youngs Moduli (GPa) = 67.28797 20.25408 61.51399
#
# Poissons Ratio (x) = -0.10583 0.49717
# Poissons Ratio (y) = -0.35159 0.07517
# Poissons Ratio (z) = 0.54383 0.02475
#
# Static dielectric constant tensor:
#      x y z
#    x 1.724340 0.000000 -0.021060 
#    y 0.000000 1.710890 0.000000 
#    z -0.021060 0.000000 1.700290 
# 
# From -- ./inp_files/94974.got.cif
#   From: 2010.05.17/outbox.cif.g08.bks.cpg/sg10_48_cif.got.tgz:94974.got - 2010.06.03 11:33:40.
