data_PCOD9149075
_publ_section_title
;
Structure prediction by ZEFSAII (Michael W. Deem and Ramdas Pophale) SiO2 
 PCOD9149075
Probable space group: P 2/M
;
_chemical_formula_sum "Si O2"
_cell_formula_units_Z 28
_cell_length_a 8.426165
_cell_length_b 7.284724
_cell_length_c 25.114861
_cell_angle_alpha 90.000000
_cell_angle_beta 136.426232
_cell_angle_gamma 90.000000
_cell_volume 1062.611490
_symmetry_space_group_name_H-M "P 2/M"
_symmetry_group_IT_number 10
_symmetry_cell_setting 'monoclinic'
loop_
_space_group_symop_operation_xyz
x,y,z
-x,y,-z
-x,-y,-z
x,-y,z
loop_
_atom_site_type_symbol
_atom_site_label
_atom_site_fract_x
_atom_site_fract_y
_atom_site_fract_z
Si Si1 0.812296 0.777351 0.030505
Si Si2 0.811678 0.222590 0.258129
Si Si3 0.451881 0.792082 0.313136
Si Si4 0.541125 0.709605 0.451004
Si Si5 0.953703 0.777859 0.404666
Si Si6 0.321137 0.777284 0.114942
Si Si7 0.950671 0.225287 0.174719
O O1 0.074367 0.726282 0.078100
O O2 0.790977 0.718023 0.086427
O O3 0.793354 0.000000 0.026628
O O4 0.664940 0.718423 0.943692
O O5 0.965111 0.277267 0.345283
O O6 0.546203 0.279480 0.201495
O O7 0.879318 0.284768 0.216012
O O8 0.818020 0.000000 0.259230
O O9 0.428253 0.797702 0.371662
O O10 0.703291 0.711987 0.362919
O O11 0.216226 0.714870 0.232436
O O12 0.463445 0.000000 0.294789
O O13 0.500000 0.790538 0.500000
O O14 0.461926 0.500000 0.432780
O O15 0.817440 0.713834 0.510801
O O16 0.957006 0.000000 0.410427
O O17 0.319991 0.000000 0.114576
O O18 0.949694 0.000000 0.174758
#
# Coordination Sequence:
#
# PCOD9149075 Si02
#       7
#     4   4   4   4   4   4   4
#     4   8  13  21  33  51  80 119 158 194 234 280
#     4   9  16  25  39  61  89 121 157 197 239 282
#     4  10  20  34  53  75  98 127 164 202 240 286
#     4  11  24  39  54  74 100 127 156 195 244 294
#     4  10  20  34  53  75  98 127 164 202 240 286
#     4   8  13  21  33  51  80 119 158 194 234 280
#     4   9  16  25  39  61  89 121 157 197 239 282
#
# _framework density 26.350178
#
# number of rings (size 3 to 8) (size 9 to 14) (size 15 to 20)
#    0.000    2.714    0.000    3.429    0.000    8.571 
#    0.000    2.857    0.000    0.000    0.000    0.000 
#    0.000    1.143    0.000   12.000    0.000   16.571 
#
# Total GULP energy -156580.575811 kJ/mol
# GULP energy per Si atom -5592.163422 kJ/mol
# Density = 2.629020 g / cm^3
# Si number density = 26.350178 Si / 1000 Ang^3
#
#
#
# Elastic Constant Matrix: (Units=GPa)
#
#
# Indices 1 2 3 4 5 6 
#
# 1 68.5516 -4.5228 -7.1649 0.0000 -17.4167 0.0000
# 2 -4.5228 113.3683 -6.5556 0.0000 0.3241 0.0000
# 3 -7.1649 -6.5556 125.8852 0.0000 -21.6531 0.0000
# 4 0.0000 0.0000 0.0000 -7.1078 0.0000 22.8207
# 5 -17.4167 0.3241 -21.6531 0.0000 49.4953 0.0000
# 6 0.0000 0.0000 0.0000 22.8207 0.0000 -3.2963
#
#
#
# Elastic Compliance Matrix: (Units=1/GPa)
#
#
# Indices 1 2 3 4 5 6 
#
# 1 0.016583 0.000766 0.002148 0.000000 0.006770 0.000000
# 2 0.000766 0.008884 0.000587 0.000000 0.000468 0.000000
# 3 0.002148 0.000587 0.008895 0.000000 0.004644 0.000000
# 4 0.000000 0.000000 0.000000 0.006628 0.000000 0.045884
# 5 0.006770 0.000468 0.004644 0.000000 0.024615 0.000000
# 6 0.000000 0.000000 0.000000 0.045884 0.000000 0.014291
#
#
# Mechanical properties :
#
#
# Convention : Reuss Voigt Hill
#
# Bulk Modulus (GPa) = 24.17512 30.14651 27.16081
# Shear Modulus (GPa) = 57.68291 29.55480 43.61885
#
# Velocity S-wave (km/s) = 4.68385 3.35269 4.07302
# Velocity P-wave (km/s) = 6.20046 5.14324 5.69643
#
# Compressibility (1/GPa) = 0.04136485
#
# Stress axis : x y z
#
# Youngs Moduli (GPa) = 60.30386 112.56219 112.41897
#
# Poissons Ratio (x) = -0.08627 -0.24150
# Poissons Ratio (y) = -0.04622 -0.06597
# Poissons Ratio (z) = -0.12955 -0.06605
#
# Static dielectric constant tensor:
#      x y z
#    x 2.114050 0.000000 -0.007180 
#    y 0.000000 2.058520 0.000000 
#    z -0.007180 0.000000 1.959930 
# 
# From -- ./inp_files/85657.got.cif
#   From: 2010.05.17/outbox.cif.g08.bks.cpg/sg10_43_cif.got.tgz:85657.got - 2010.06.03 11:33:40.
