data_PCOD9149228
_publ_section_title
;
Structure prediction by ZEFSAII (Michael W. Deem and Ramdas Pophale) SiO2 
 PCOD9149228
Probable space group: P 2/M
;
_chemical_formula_sum "Si O2"
_cell_formula_units_Z 24
_cell_length_a 11.793509
_cell_length_b 19.566899
_cell_length_c 8.009759
_cell_angle_alpha 90.000000
_cell_angle_beta 144.897031
_cell_angle_gamma 90.000000
_cell_volume 1062.890011
_symmetry_space_group_name_H-M "P 2/M"
_symmetry_group_IT_number 10
_symmetry_cell_setting 'monoclinic'
loop_
_space_group_symop_operation_xyz
x,y,z
-x,y,-z
-x,-y,-z
x,-y,z
loop_
_atom_site_type_symbol
_atom_site_label
_atom_site_fract_x
_atom_site_fract_y
_atom_site_fract_z
Si Si1 0.714906 0.677946 0.659972
Si Si2 0.850780 0.685443 0.169143
Si Si3 0.258680 0.077374 0.706429
Si Si4 0.271935 0.828765 0.417050
Si Si5 0.508250 0.423810 0.812014
Si Si6 0.256585 0.841338 0.021668
O O1 0.500000 0.689552 0.500000
O O2 0.747032 0.746862 0.592895
O O3 0.677761 0.611870 0.502118
O O4 0.876953 0.672525 0.001609
O O5 0.797031 0.765748 0.108314
O O6 0.000000 0.673782 0.500000
O O7 0.679099 0.631185 0.994585
O O8 0.197978 0.130440 0.488712
O O9 0.194418 0.102751 0.811839
O O10 0.197634 0.000000 0.596416
O O11 0.500000 0.077863 0.000000
O O12 0.505588 0.843440 0.690421
O O13 0.192546 0.848083 0.137390
O O14 0.543595 0.500000 0.784980
O O15 0.500000 0.429979 0.000000
#
# Coordination Sequence:
#
# PCOD9149228 Si02
#       6
#     4   4   4   4   4   4
#     4   9  16  32  53  76 100 137 183 215 262 317
#     4  10  20  34  54  81 107 138 182 223 268 317
#     4   9  18  26  42  75 104 134 171 219 280 317
#     4   9  14  27  48  71  96 133 176 222 260 313
#     4  10  21  35  56  83 107 139 179 216 265 326
#     4   9  16  29  47  69 101 135 175 219 263 318
#
# _framework density 22.579946
#
# number of rings (size 3 to 8) (size 9 to 14) (size 15 to 20)
#    0.000    2.667    5.000    0.000    2.333    4.000 
#    0.000    4.167    0.000    2.500    0.000    4.667 
#    0.000    0.000    0.000    0.000    0.000    0.000 
#
# Total GULP energy -133954.260439 kJ/mol
# GULP energy per Si atom -5581.427518 kJ/mol
# Density = 2.252855 g / cm^3
# Si number density = 22.579946 Si / 1000 Ang^3
#
#
#
# Elastic Constant Matrix: (Units=GPa)
#
#
# Indices 1 2 3 4 5 6 
#
# 1 74.4099 35.9571 21.8996 0.0000 -17.2302 0.0000
# 2 35.9571 130.3917 68.8268 0.0000 -32.4428 0.0000
# 3 21.8996 68.8268 172.2004 0.0000 -15.1715 0.0000
# 4 0.0000 0.0000 0.0000 5.5985 0.0000 -7.7224
# 5 -17.2302 -32.4428 -15.1715 0.0000 32.8826 0.0000
# 6 0.0000 0.0000 0.0000 -7.7224 0.0000 39.6004
#
#
#
# Elastic Compliance Matrix: (Units=1/GPa)
#
#
# Indices 1 2 3 4 5 6 
#
# 1 0.016225 -0.002893 -0.000427 0.000000 0.005451 0.000000
# 2 -0.002893 0.012888 -0.003958 0.000000 0.009374 0.000000
# 3 -0.000427 -0.003958 0.007380 0.000000 -0.000724 0.000000
# 4 0.000000 0.000000 0.000000 0.244342 0.000000 0.047648
# 5 0.005451 0.009374 -0.000724 0.000000 0.042182 0.000000
# 6 0.000000 0.000000 0.000000 0.047648 0.000000 0.034544
#
#
# Mechanical properties :
#
#
# Convention : Reuss Voigt Hill
#
# Bulk Modulus (GPa) = 45.58256 70.04099 57.81177
# Shear Modulus (GPa) = 13.17774 32.30422 22.74098
#
# Velocity S-wave (km/s) = 2.41841 3.78651 3.17698
# Velocity P-wave (km/s) = 5.29427 7.08543 6.25430
#
# Compressibility (1/GPa) = 0.02193822
#
# Stress axis : x y z
#
# Youngs Moduli (GPa) = 61.63456 77.59011 135.50990
#
# Poissons Ratio (x) = 0.22443 0.05787
# Poissons Ratio (y) = 0.17828 0.53629
# Poissons Ratio (z) = 0.02632 0.30707
#
# Static dielectric constant tensor:
#      x y z
#    x 1.969960 0.000000 0.043590 
#    y 0.000000 1.782380 0.000000 
#    z 0.043590 0.000000 1.895330 
# 
# From -- ./inp_files/33018.got.cif
#   From: 2010.05.17/outbox.cif.g08.bks.cpg/sg10_17_cif.got.tgz:33018.got - 2010.06.03 11:33:40.
