data_PCOD9149780
_publ_section_title
;
Structure prediction by ZEFSAII (Michael W. Deem and Ramdas Pophale) SiO2 
 PCOD9149780
Probable space group: P 2/M
;
_chemical_formula_sum "Si O2"
_cell_formula_units_Z 32
_cell_length_a 19.565824
_cell_length_b 7.464082
_cell_length_c 25.603352
_cell_angle_alpha 90.000000
_cell_angle_beta 157.909223
_cell_angle_gamma 90.000000
_cell_volume 1406.196351
_symmetry_space_group_name_H-M "P 2/M"
_symmetry_group_IT_number 10
_symmetry_cell_setting 'monoclinic'
loop_
_space_group_symop_operation_xyz
x,y,z
-x,y,-z
-x,-y,-z
x,-y,z
loop_
_atom_site_type_symbol
_atom_site_label
_atom_site_fract_x
_atom_site_fract_y
_atom_site_fract_z
Si Si1 0.291295 0.783228 0.353578
Si Si2 0.943096 0.287794 0.708667
Si Si3 0.652825 0.717246 0.975856
Si Si4 0.650134 0.282331 0.853952
Si Si5 0.720853 0.288400 0.452320
Si Si6 0.963298 0.205885 0.917709
Si Si7 0.002891 0.783268 0.442015
Si Si8 0.373706 0.793783 0.866330
O O1 0.500000 0.722736 0.500000
O O2 0.181636 0.735118 0.328385
O O3 0.182716 0.715734 0.225797
O O4 0.291157 0.000000 0.351718
O O5 0.966171 0.500000 0.716555
O O6 0.840218 0.213535 0.584682
O O7 0.147391 0.219541 0.863885
O O8 0.648986 0.500000 0.976117
O O9 0.620503 0.767535 0.893116
O O10 0.493350 0.789295 0.899032
O O11 0.658990 0.500000 0.857858
O O12 0.483183 0.218769 0.700027
O O13 0.843460 0.209393 0.973771
O O14 0.701856 0.500000 0.448989
O O15 0.825642 0.266669 0.471738
O O16 0.904684 0.000000 0.885769
O O17 0.000000 0.291225 0.000000
O O18 0.000000 0.720834 0.500000
O O19 0.822863 0.715178 0.284819
O O20 0.994783 0.000000 0.438034
O O21 0.340262 0.000000 0.858896
O O22 0.500000 0.708451 0.000000
#
# Coordination Sequence:
#
# PCOD9149780 Si02
#       8
#     4   4   4   4   4   4   4   4
#     4  10  22  39  59  85 115 147 184 226 274 329
#     4  10  21  38  57  82 115 147 186 232 276 329
#     4  10  20  35  56  79 107 143 182 227 275 327
#     4  10  21  38  57  82 113 145 186 230 274 326
#     4  10  22  37  56  83 113 147 188 233 278 329
#     4  10  22  39  59  85 115 146 184 228 273 327
#     4  10  21  37  55  79 111 146 186 232 280 332
#     4  10  21  35  53  79 109 140 180 228 275 327
#
# _framework density 22.756423999999999
#
# number of rings (size 3 to 8) (size 9 to 14) (size 15 to 20)
#    0.000    2.000    1.250    1.500    1.750    3.500 
#    0.000    0.000    0.000    0.000    0.000    0.000 
#    0.000    0.000    0.000    0.000    0.000    0.000 
#
# Total GULP energy -178862.498241 kJ/mol
# GULP energy per Si atom -5589.453070 kJ/mol
# Density = 2.270463 g / cm^3
# Si number density = 22.756424 Si / 1000 Ang^3
#
#
#
# Elastic Constant Matrix: (Units=GPa)
#
#
# Indices 1 2 3 4 5 6 
#
# 1 58.3859 -18.1154 5.6483 0.0000 -15.2887 0.0000
# 2 -18.1154 66.7965 2.9911 0.0000 -10.1382 0.0000
# 3 5.6483 2.9911 147.5407 0.0000 -9.4566 0.0000
# 4 0.0000 0.0000 0.0000 3.8711 0.0000 15.3624
# 5 -15.2887 -10.1382 -9.4566 0.0000 45.1707 0.0000
# 6 0.0000 0.0000 0.0000 15.3624 0.0000 23.7064
#
#
#
# Elastic Compliance Matrix: (Units=1/GPa)
#
#
# Indices 1 2 3 4 5 6 
#
# 1 0.021756 0.007271 -0.000409 0.000000 0.008910 0.000000
# 2 0.007271 0.017930 -0.000229 0.000000 0.006437 0.000000
# 3 -0.000409 -0.000229 0.006878 0.000000 0.001250 0.000000
# 4 0.000000 0.000000 0.000000 -0.164363 0.000000 0.106511
# 5 0.008910 0.006437 0.001250 0.000000 0.026860 0.000000
# 6 0.000000 0.000000 0.000000 0.106511 0.000000 -0.026840
#
#
# Mechanical properties :
#
#
# Convention : Reuss Voigt Hill
#
# Bulk Modulus (GPa) = 16.71421 28.19677 22.45549
# Shear Modulus (GPa) = -45.00474 33.36292 -5.82091
#
# Velocity S-wave (km/s) = -4.45193 3.83311 -1.60108
# Velocity P-wave (km/s) = 4.36640 5.65755 2.54386
#
# Compressibility (1/GPa) = 0.05982932
#
# Stress axis : x y z
#
# Youngs Moduli (GPa) = 45.96419 55.77229 145.38633
#
# Poissons Ratio (x) = -0.40552 0.05949
# Poissons Ratio (y) = -0.33420 0.03333
# Poissons Ratio (z) = 0.01881 0.01279
#
# Static dielectric constant tensor:
#      x y z
#    x 1.774190 0.000000 -0.033250 
#    y 0.000000 1.860760 0.000000 
#    z -0.033250 0.000000 1.837760 
# 
# From -- ./inp_files/80276.got.cif
#   From: 2010.05.17/outbox.cif.g08.bks.cpg/sg10_41_cif.got.tgz:80276.got - 2010.06.03 11:33:40.
