data_PCOD9149037
_publ_section_title
;
Structure prediction by ZEFSAII (Michael W. Deem and Ramdas Pophale) SiO2 
 PCOD9149037
Probable space group: P 2/M
;
_chemical_formula_sum "Si O2"
_cell_formula_units_Z 28
_cell_length_a 14.937327
_cell_length_b 14.522056
_cell_length_c 16.091028
_cell_angle_alpha 90.000000
_cell_angle_beta 27.234924
_cell_angle_gamma 90.000000
_cell_volume 1597.381830
_symmetry_space_group_name_H-M "P 2/M"
_symmetry_group_IT_number 10
_symmetry_cell_setting 'monoclinic'
loop_
_space_group_symop_operation_xyz
x,y,z
-x,y,-z
-x,-y,-z
x,-y,z
loop_
_atom_site_type_symbol
_atom_site_label
_atom_site_fract_x
_atom_site_fract_y
_atom_site_fract_z
Si Si1 0.045923 0.707130 0.157521
Si Si2 0.341462 0.392009 0.558113
Si Si3 0.320085 0.892179 0.701807
Si Si4 0.901722 0.106973 0.954166
Si Si5 0.580896 0.390215 0.192147
Si Si6 0.911677 0.608287 0.702407
Si Si7 0.314741 0.608164 0.264917
O O1 0.840324 0.676797 0.287546
O O2 0.083841 0.815893 0.127682
O O3 0.062597 0.663145 0.234678
O O4 0.215229 0.659508 0.964220
O O5 0.500000 0.379946 0.500000
O O6 0.275794 0.500000 0.615015
O O7 0.441698 0.376887 0.385896
O O8 0.500000 0.851096 0.500000
O O9 0.116257 0.890091 0.819980
O O10 0.370135 0.000000 0.673114
O O11 0.258873 0.860650 0.844680
O O12 0.865379 0.000000 0.961568
O O13 0.610144 0.500000 0.160138
O O14 0.481773 0.355060 0.188073
O O15 0.876543 0.500000 0.750047
O O16 0.742562 0.643328 0.779204
O O17 0.115085 0.612505 0.483687
O O18 0.358061 0.500000 0.216874
#
# Coordination Sequence:
#
# PCOD9149037 Si02
#       7
#     4   4   4   4   4   4   4
#     4  12  22  32  52  76 102 140 177 209 254 313
#     4  10  22  38  51  69 107 149 179 209 244 296
#     4   8  15  33  57  72  88 121 165 220 277 312
#     4   9  20  34  48  74 104 128 168 221 266 304
#     4  10  20  34  52  77 104 131 171 215 255 304
#     4   9  16  30  53  79 104 133 165 205 263 316
#     4   8  15  30  53  77 104 130 160 214 269 306
#
# _framework density 17.528683999999998
#
# number of rings (size 3 to 8) (size 9 to 14) (size 15 to 20)
#    0.000    2.571    1.429    3.000    0.000    5.143 
#    0.000    4.286    0.000    0.000    0.000    4.000 
#    0.000    0.000    0.000    0.000    0.000    0.000 
#
# Total GULP energy -156034.095741 kJ/mol
# GULP energy per Si atom -5572.646276 kJ/mol
# Density = 1.748879 g / cm^3
# Si number density = 17.528684 Si / 1000 Ang^3
#
#
#
# Elastic Constant Matrix: (Units=GPa)
#
#
# Indices 1 2 3 4 5 6 
#
# 1 74.4289 35.0429 18.1702 0.0000 3.7947 0.0000
# 2 35.0429 71.1620 35.0749 0.0000 7.2410 0.0000
# 3 18.1702 35.0749 72.8372 0.0000 -12.2031 0.0000
# 4 0.0000 0.0000 0.0000 -6.0087 0.0000 -6.8040
# 5 3.7947 7.2410 -12.2031 0.0000 20.7892 0.0000
# 6 0.0000 0.0000 0.0000 -6.8040 0.0000 4.5684
#
#
#
# Elastic Compliance Matrix: (Units=1/GPa)
#
#
# Indices 1 2 3 4 5 6 
#
# 1 0.017500 -0.008347 -0.000437 0.000000 -0.000544 0.000000
# 2 -0.008347 0.026158 -0.013071 0.000000 -0.015260 0.000000
# 3 -0.000437 -0.013071 0.023189 0.000000 0.018244 0.000000
# 4 0.000000 0.000000 0.000000 -0.061948 0.000000 -0.092264
# 5 -0.000544 -0.015260 0.018244 0.000000 0.064226 0.000000
# 6 0.000000 0.000000 0.000000 -0.092264 0.000000 0.081479
#
#
# Mechanical properties :
#
#
# Convention : Reuss Voigt Hill
#
# Bulk Modulus (GPa) = 43.22011 43.88935 43.55473
# Shear Modulus (GPa) = 24.74929 12.54579 18.64754
#
# Velocity S-wave (km/s) = 3.76164 2.67821 3.26518
# Velocity P-wave (km/s) = 6.60128 5.88700 6.25434
#
# Compressibility (1/GPa) = 0.02313738
#
# Stress axis : x y z
#
# Youngs Moduli (GPa) = 57.14292 38.22937 43.12340
#
# Poissons Ratio (x) = 0.31909 0.01886
# Poissons Ratio (y) = 0.47696 0.56366
# Poissons Ratio (z) = 0.02499 0.49969
#
# Static dielectric constant tensor:
#      x y z
#    x 1.619870 0.000000 -0.008180 
#    y 0.000000 1.590700 0.000000 
#    z -0.008180 0.000000 1.654560 
# 
# From -- ./inp_files/67567.got.cif
#   From: 2010.05.17/outbox.cif.g08.bks.cpg/sg10_34_cif.got.tgz:67567.got - 2010.06.03 11:33:40.
