data_PCOD9149956
_publ_section_title
;
Structure prediction by ZEFSAII (Michael W. Deem and Ramdas Pophale) SiO2 
 PCOD9149956
Probable space group: P 2/M
;
_chemical_formula_sum "Si O2"
_cell_formula_units_Z 20
_cell_length_a 10.268071
_cell_length_b 17.081614
_cell_length_c 14.711862
_cell_angle_alpha 90.000000
_cell_angle_beta 26.184548
_cell_angle_gamma 90.000000
_cell_volume 1138.632998
_symmetry_space_group_name_H-M "P 2/M"
_symmetry_group_IT_number 10
_symmetry_cell_setting 'monoclinic'
loop_
_space_group_symop_operation_xyz
x,y,z
-x,y,-z
-x,-y,-z
x,-y,z
loop_
_atom_site_type_symbol
_atom_site_label
_atom_site_fract_x
_atom_site_fract_y
_atom_site_fract_z
Si Si1 0.660057 0.088593 0.682085
Si Si2 0.224574 0.500000 0.604128
Si Si3 0.763335 0.911899 0.406638
Si Si4 0.306660 0.383675 0.028757
Si Si5 0.698239 0.799639 0.966318
Si Si6 0.341671 0.500000 0.317344
O O1 0.646378 0.095200 0.582357
O O2 0.000000 0.097235 0.500000
O O3 0.567506 0.000000 0.766299
O O4 0.468503 0.154053 0.850192
O O5 0.500000 0.500000 0.500000
O O6 0.336401 0.500000 0.429852
O O7 0.004931 0.426712 0.759716
O O8 0.500000 0.906768 0.500000
O O9 0.999534 0.844983 0.240848
O O10 0.895992 0.000000 0.316347
O O11 0.265474 0.291998 0.036605
O O12 0.500000 0.393524 0.000000
O O13 0.487284 0.426496 0.835151
O O14 0.500000 0.806290 0.000000
O O15 0.000000 0.500000 0.500000
#
# Coordination Sequence:
#
# PCOD9149956 Si02
#       6
#     4   2   4   4   4   2
#     4  10  20  35  57  85 112 149 200 236 273 337
#     4  11  23  41  63  87 117 149 183 233 286 334
#     4  10  22  39  57  81 116 155 193 235 286 337
#     4  10  22  38  59  92 115 143 197 230 273 353
#     4  11  22  36  59  87 118 148 186 243 286 324
#     4  11  19  39  67  82 111 157 185 226 281 337
#
# _framework density 17.564920999999998
#
# number of rings (size 3 to 8) (size 9 to 14) (size 15 to 20)
#    0.000    1.600    4.000    1.200    0.000    6.400 
#    0.000    5.000    0.000    0.000    0.000    0.000 
#    0.000    0.000    0.000    0.000    0.000    0.000 
#
# Total GULP energy -111667.101331 kJ/mol
# GULP energy per Si atom -5583.355067 kJ/mol
# Density = 1.752494 g / cm^3
# Si number density = 17.564921 Si / 1000 Ang^3
#
#
#
# Elastic Constant Matrix: (Units=GPa)
#
#
# Indices 1 2 3 4 5 6 
#
# 1 119.7076 61.6742 56.2632 0.0000 13.0297 0.0000
# 2 61.6742 190.9720 98.1224 0.0000 2.4752 0.0000
# 3 56.2632 98.1224 119.5226 0.0000 15.0553 0.0000
# 4 0.0000 0.0000 0.0000 30.2495 0.0000 8.1410
# 5 13.0297 2.4752 15.0553 0.0000 26.5078 0.0000
# 6 0.0000 0.0000 0.0000 8.1410 0.0000 28.9403
#
#
#
# Elastic Compliance Matrix: (Units=1/GPa)
#
#
# Indices 1 2 3 4 5 6 
#
# 1 0.011263 -0.001891 -0.003311 0.000000 -0.003479 0.000000
# 2 -0.001891 0.009712 -0.007632 0.000000 0.004357 0.000000
# 3 -0.003311 -0.007632 0.017121 0.000000 -0.007384 0.000000
# 4 0.000000 0.000000 0.000000 0.035766 0.000000 -0.010061
# 5 -0.003479 0.004357 -0.007384 0.000000 0.043222 0.000000
# 6 0.000000 0.000000 0.000000 -0.010061 0.000000 0.037384
#
#
# Mechanical properties :
#
#
# Convention : Reuss Voigt Hill
#
# Bulk Modulus (GPa) = 80.46551 95.81354 88.13953
# Shear Modulus (GPa) = 27.13308 31.41566 29.27437
#
# Velocity S-wave (km/s) = 3.93457 4.23371 4.08688
# Velocity P-wave (km/s) = 8.15787 8.86373 8.51812
#
# Compressibility (1/GPa) = 0.01242768
#
# Stress axis : x y z
#
# Youngs Moduli (GPa) = 88.78729 102.96864 58.40947
#
# Poissons Ratio (x) = 0.19470 0.19341
# Poissons Ratio (y) = 0.16789 0.44575
# Poissons Ratio (z) = 0.29400 0.78581
#
# Static dielectric constant tensor:
#      x y z
#    x 1.577480 0.000000 0.004710 
#    y 0.000000 1.594070 0.000000 
#    z 0.004710 0.000000 1.574000 
# 
# From -- ./inp_files/7060.got.cif
#   From: 2010.05.17/outbox.cif.g08.bks.cpg/sg10_4_cif.got.tgz:7060.got - 2010.06.03 11:33:40.
