data_PCOD9149741
_publ_section_title
;
Structure prediction by ZEFSAII (Michael W. Deem and Ramdas Pophale) SiO2 
 PCOD9149741
Probable space group: P 2/M
;
_chemical_formula_sum "Si O2"
_cell_formula_units_Z 28
_cell_length_a 11.547002
_cell_length_b 8.405782
_cell_length_c 15.868478
_cell_angle_alpha 90.000000
_cell_angle_beta 62.096605
_cell_angle_gamma 90.000000
_cell_volume 1361.150413
_symmetry_space_group_name_H-M "P 2/M"
_symmetry_group_IT_number 10
_symmetry_cell_setting 'monoclinic'
loop_
_space_group_symop_operation_xyz
x,y,z
-x,y,-z
-x,-y,-z
x,-y,z
loop_
_atom_site_type_symbol
_atom_site_label
_atom_site_fract_x
_atom_site_fract_y
_atom_site_fract_z
Si Si1 0.132878 0.311472 0.099252
Si Si2 0.851898 0.812034 0.203438
Si Si3 0.851770 0.310957 0.392270
Si Si4 0.323823 0.189205 0.894644
Si Si5 0.581455 0.688791 0.734528
Si Si6 0.144180 0.692630 0.291270
Si Si7 0.415648 0.812073 0.448640
O O1 0.106272 0.500000 0.105082
O O2 0.162372 0.269077 0.186318
O O3 0.999284 0.220848 0.121100
O O4 0.250758 0.268965 0.997624
O O5 0.837409 0.721652 0.297012
O O6 0.751219 0.760587 0.165620
O O7 0.833605 0.000000 0.225727
O O8 0.841585 0.500000 0.411583
O O9 0.735449 0.223533 0.479508
O O10 0.998348 0.254153 0.366462
O O11 0.474754 0.234518 0.832101
O O12 0.309572 0.000000 0.907021
O O13 0.579734 0.500000 0.748242
O O14 0.729118 0.749151 0.701537
O O15 0.545752 0.728153 0.650781
O O16 0.140622 0.500000 0.299296
O O17 0.500000 0.755964 0.500000
O O18 0.438301 0.000000 0.430950
#
# Coordination Sequence:
#
# PCOD9149741 Si02
#       7
#     4   4   4   4   4   4   4
#     4  10  20  36  59  84 111 147 192 234 275 332
#     4  10  20  35  55  82 118 152 182 228 288 336
#     4  10  20  37  62  87 112 146 189 231 274 331
#     4  11  23  37  53  80 118 153 186 231 287 333
#     4  11  23  40  61  82 109 147 191 233 274 330
#     4   8  19  39  59  83 113 144 182 234 285 322
#     4  11  24  41  59  84 119 150 178 223 283 335
#
# _framework density 20.570834999999999
#
# number of rings (size 3 to 8) (size 9 to 14) (size 15 to 20)
#    0.000    1.857    0.000    4.714    0.000    9.714 
#    0.000   14.286    0.000    0.000    0.000    0.000 
#    0.000    0.000    0.000    0.000    0.000    0.000 
#
# Total GULP energy -156503.210742 kJ/mol
# GULP energy per Si atom -5589.400384 kJ/mol
# Density = 2.052401 g / cm^3
# Si number density = 20.570835 Si / 1000 Ang^3
#
#
#
# Elastic Constant Matrix: (Units=GPa)
#
#
# Indices 1 2 3 4 5 6 
#
# 1 80.4269 2.3495 8.2853 0.0000 -7.2833 0.0000
# 2 2.3495 14.8122 -12.1632 0.0000 6.4898 0.0000
# 3 8.2853 -12.1632 54.7900 0.0000 -22.2574 0.0000
# 4 0.0000 0.0000 0.0000 47.3456 0.0000 3.6391
# 5 -7.2833 6.4898 -22.2574 0.0000 23.3800 0.0000
# 6 0.0000 0.0000 0.0000 3.6391 0.0000 15.4067
#
#
#
# Elastic Compliance Matrix: (Units=1/GPa)
#
#
# Indices 1 2 3 4 5 6 
#
# 1 0.013102 -0.005059 -0.001428 0.000000 0.004126 0.000000
# 2 -0.005059 0.085672 0.015463 0.000000 -0.010636 0.000000
# 3 -0.001428 0.015463 0.032573 0.000000 0.026271 0.000000
# 4 0.000000 0.000000 0.000000 0.021512 0.000000 -0.005081
# 5 0.004126 -0.010636 0.026271 0.000000 0.072019 0.000000
# 6 0.000000 0.000000 0.000000 -0.005081 0.000000 0.066107
#
#
# Mechanical properties :
#
#
# Convention : Reuss Voigt Hill
#
# Bulk Modulus (GPa) = 6.69792 16.33026 11.51409
# Shear Modulus (GPa) = 15.48951 27.33030 21.40991
#
# Velocity S-wave (km/s) = 2.74703 3.64894 3.22963
# Velocity P-wave (km/s) = 3.65030 5.07039 4.41778
#
# Compressibility (1/GPa) = 0.14930008
#
# Stress axis : x y z
#
# Youngs Moduli (GPa) = 76.32290 11.67236 30.70068
#
# Poissons Ratio (x) = 0.05905 0.04385
# Poissons Ratio (y) = 0.38611 -0.47474
# Poissons Ratio (z) = 0.10900 -0.18050
#
# Static dielectric constant tensor:
#      x y z
#    x 1.750970 0.000000 -0.003010 
#    y 0.000000 1.695060 0.000000 
#    z -0.003010 0.000000 1.710470 
# 
# From -- ./inp_files/63309.got.cif
#   From: 2010.05.17/outbox.cif.g08.bks.cpg/sg10_32_cif.got.tgz:63309.got - 2010.06.03 11:33:40.
