data_PCOD9149586
_publ_section_title
;
Structure prediction by ZEFSAII (Michael W. Deem and Ramdas Pophale) SiO2 
 PCOD9149586
Probable space group: P 2/M
;
_chemical_formula_sum "Si O2"
_cell_formula_units_Z 32
_cell_length_a 15.274165
_cell_length_b 8.860600
_cell_length_c 15.483862
_cell_angle_alpha 90.000000
_cell_angle_beta 78.970000
_cell_angle_gamma 90.000000
_cell_volume 2056.848075
_symmetry_space_group_name_H-M "P 2/M"
_symmetry_group_IT_number 10
_symmetry_cell_setting 'monoclinic'
loop_
_space_group_symop_operation_xyz
x,y,z
-x,y,-z
-x,-y,-z
x,-y,z
loop_
_atom_site_type_symbol
_atom_site_label
_atom_site_fract_x
_atom_site_fract_y
_atom_site_fract_z
Si Si1 0.626468 0.679866 0.619811
Si Si2 0.434857 0.316951 0.889332
Si Si3 0.116077 0.319175 0.565275
Si Si4 0.747524 0.179370 0.748384
Si Si5 0.582073 0.319042 0.301283
Si Si6 0.632897 0.317500 0.914955
Si Si7 0.699623 0.179300 0.429109
Si Si8 0.086341 0.319322 0.368597
O O1 0.642184 0.500000 0.617652
O O2 0.683832 0.752695 0.685611
O O3 0.521605 0.706310 0.655090
O O4 0.656763 0.746462 0.522771
O O5 0.434666 0.500000 0.888364
O O6 0.405568 0.267266 0.800140
O O7 0.537633 0.275155 0.889520
O O8 0.376104 0.271778 0.983010
O O9 0.128025 0.500000 0.571517
O O10 0.198073 0.233842 0.592267
O O11 0.113751 0.285952 0.462848
O O12 0.018081 0.280429 0.619686
O O13 0.710719 0.242848 0.845547
O O14 0.846638 0.235175 0.707043
O O15 0.742663 0.000000 0.747504
O O16 0.597363 0.500000 0.303244
O O17 0.645555 0.237105 0.356627
O O18 0.640297 0.500000 0.908964
O O19 0.694773 0.000000 0.437020
O O20 0.095075 0.500000 0.355949
#
# Coordination Sequence:
#
# PCOD9149586 Si02
#       8
#     4   4   4   4   4   4   4   4
#     4  11  21  35  52  68  94 135 179 212 237 277
#     4   8  15  30  53  75  92 122 172 215 243 278
#     4   9  18  34  54  73  93 125 168 208 242 287
#     4  12  22  30  46  76 108 135 160 195 249 306
#     4  10  20  35  53  71  93 132 178 212 241 281
#     4   9  16  31  53  73  96 127 165 208 247 289
#     4  12  24  34  47  72 104 135 165 203 249 296
#     4   9  18  33  54  74  94 125 166 206 245 288
#
# _framework density 15.557784
#
# number of rings (size 3 to 8) (size 9 to 14) (size 15 to 20)
#    0.000    2.000    2.500    4.500    0.000    3.000 
#    0.000    3.125    0.000    0.000    0.000    0.875 
#    0.000    7.000    0.000    0.000    0.000    0.000 
#
# Total GULP energy -178583.415469 kJ/mol
# GULP energy per Si atom -5580.731733 kJ/mol
# Density = 1.552237 g / cm^3
# Si number density = 15.557784 Si / 1000 Ang^3
#
#
#
# Elastic Constant Matrix: (Units=GPa)
#
#
# Indices 1 2 3 4 5 6 
#
# 1 86.8835 55.2337 68.5681 0.0000 -14.2385 0.0000
# 2 55.2337 61.8751 48.3316 0.0000 -10.9990 0.0000
# 3 68.5681 48.3316 118.7909 0.0000 -16.2879 0.0000
# 4 0.0000 0.0000 0.0000 3.8679 0.0000 13.3151
# 5 -14.2385 -10.9990 -16.2879 0.0000 24.0345 0.0000
# 6 0.0000 0.0000 0.0000 13.3151 0.0000 -27.5920
#
#
#
# Elastic Compliance Matrix: (Units=1/GPa)
#
#
# Indices 1 2 3 4 5 6 
#
# 1 0.033998 -0.021686 -0.010363 0.000000 0.003194 0.000000
# 2 -0.021686 0.038026 -0.002568 0.000000 0.002814 0.000000
# 3 -0.010363 -0.002568 0.015921 0.000000 0.003475 0.000000
# 4 0.000000 0.000000 0.000000 0.097150 0.000000 0.046882
# 5 0.003194 0.002814 0.003475 0.000000 0.047142 0.000000
# 6 0.000000 0.000000 0.000000 0.046882 0.000000 -0.013619
#
#
# Mechanical properties :
#
#
# Convention : Reuss Voigt Hill
#
# Bulk Modulus (GPa) = 53.44430 67.97960 60.71195
# Shear Modulus (GPa) = 17.00161 6.42316 11.71238
#
# Velocity S-wave (km/s) = 3.30934 2.03410 2.74675
# Velocity P-wave (km/s) = 7.00208 7.02186 7.01197
#
# Compressibility (1/GPa) = 0.01871107
#
# Stress axis : x y z
#
# Youngs Moduli (GPa) = 29.41357 26.29754 62.81007
#
# Poissons Ratio (x) = 0.57030 0.65089
# Poissons Ratio (y) = 0.63788 0.16129
# Poissons Ratio (z) = 0.30481 0.06753
#
# Static dielectric constant tensor:
#      x y z
#    x 1.505240 0.000000 -0.011760 
#    y 0.000000 1.511810 0.000000 
#    z -0.011760 0.000000 1.516750 
# 
# From -- ./inp_files/66090.got.cif
#   From: 2010.05.17/outbox.cif.g08.bks.cpg/sg10_34_cif.got.tgz:66090.got - 2010.06.03 11:33:40.
