data_PCOD9149813
_publ_section_title
;
Structure prediction by ZEFSAII (Michael W. Deem and Ramdas Pophale) SiO2 
 PCOD9149813
Probable space group: P 2/M
;
_chemical_formula_sum "Si O2"
_cell_formula_units_Z 28
_cell_length_a 9.602444
_cell_length_b 8.579775
_cell_length_c 30.098319
_cell_angle_alpha 90.000000
_cell_angle_beta 37.443994
_cell_angle_gamma 90.000000
_cell_volume 1507.624712
_symmetry_space_group_name_H-M "P 2/M"
_symmetry_group_IT_number 10
_symmetry_cell_setting 'monoclinic'
loop_
_space_group_symop_operation_xyz
x,y,z
-x,y,-z
-x,-y,-z
x,-y,z
loop_
_atom_site_type_symbol
_atom_site_label
_atom_site_fract_x
_atom_site_fract_y
_atom_site_fract_z
Si Si1 0.685646 0.313236 0.862654
Si Si2 0.235497 0.313391 0.568912
Si Si3 0.915733 0.813127 0.298386
Si Si4 0.599414 0.810777 0.297007
Si Si5 0.022649 0.186972 0.130898
Si Si6 0.077881 0.811370 0.430747
Si Si7 0.842311 0.311663 0.998806
O O1 0.699259 0.500000 0.856484
O O2 0.790026 0.258017 0.883117
O O3 0.846957 0.240786 0.783929
O O4 0.421290 0.265314 0.926633
O O5 0.500000 0.259389 0.500000
O O6 0.233586 0.500000 0.568446
O O7 0.127227 0.255872 0.642459
O O8 0.091778 0.251176 0.563690
O O9 0.716656 0.762899 0.313926
O O10 0.912484 0.000000 0.301590
O O11 0.339737 0.757025 0.357274
O O12 0.775487 0.764624 0.213557
O O13 0.593839 0.000000 0.298958
O O14 0.066329 0.243101 0.070314
O O15 0.036910 0.000000 0.129834
O O16 0.000000 0.765966 0.500000
O O17 0.074397 0.000000 0.429546
O O18 0.848256 0.500000 0.994082
O O19 0.000000 0.263569 0.000000
#
# Coordination Sequence:
#
# PCOD9149813 Si02
#       7
#     4   4   4   4   4   4   4
#     4  10  20  36  58  82 110 143 180 224 275 329
#     4  11  24  39  55  80 115 150 183 221 268 322
#     4  10  20  37  61  85 110 141 181 226 271 323
#     4   8  17  34  55  82 110 136 174 226 277 322
#     4  10  20  35  56  81 110 144 184 227 271 325
#     4  10  20  36  59  83 108 142 185 229 272 320
#     4  10  22  38  54  76 109 147 185 227 276 327
#
# _framework density 18.572261999999998
#
# number of rings (size 3 to 8) (size 9 to 14) (size 15 to 20)
#    0.000    2.143    0.000    3.857    0.000    6.857 
#    0.000    7.143    0.000    0.000    0.000    0.000 
#    0.000    0.000    0.000    0.000    0.000    0.000 
#
# Total GULP energy -156375.079855 kJ/mol
# GULP energy per Si atom -5584.824281 kJ/mol
# Density = 1.852999 g / cm^3
# Si number density = 18.572262 Si / 1000 Ang^3
#
#
#
# Elastic Constant Matrix: (Units=GPa)
#
#
# Indices 1 2 3 4 5 6 
#
# 1 174.6389 35.4619 129.5937 0.0000 -7.1969 0.0000
# 2 35.4619 24.2020 29.5197 0.0000 -2.6684 0.0000
# 3 129.5937 29.5197 138.4537 0.0000 -2.9796 0.0000
# 4 0.0000 0.0000 0.0000 24.3972 0.0000 1.5879
# 5 -7.1969 -2.6684 -2.9796 0.0000 38.1559 0.0000
# 6 0.0000 0.0000 0.0000 1.5879 0.0000 25.8658
#
#
#
# Elastic Compliance Matrix: (Units=1/GPa)
#
#
# Indices 1 2 3 4 5 6 
#
# 1 0.020167 -0.008606 -0.017001 0.000000 0.001874 0.000000
# 2 -0.008606 0.059854 -0.004659 0.000000 0.002199 0.000000
# 3 -0.017001 -0.004659 0.024093 0.000000 -0.001651 0.000000
# 4 0.000000 0.000000 0.000000 0.041153 0.000000 -0.002526
# 5 0.001874 0.002199 -0.001651 0.000000 0.026587 0.000000
# 6 0.000000 0.000000 0.000000 -0.002526 0.000000 0.038816
#
#
# Mechanical properties :
#
#
# Convention : Reuss Voigt Hill
#
# Bulk Modulus (GPa) = 22.94512 80.71614 51.83063
# Shear Modulus (GPa) = 17.49913 27.19840 22.34876
#
# Velocity S-wave (km/s) = 3.07289 3.83098 3.47268
# Velocity P-wave (km/s) = 4.99715 7.94503 6.63683
#
# Compressibility (1/GPa) = 0.04358225
#
# Stress axis : x y z
#
# Youngs Moduli (GPa) = 49.58639 16.70743 41.50502
#
# Poissons Ratio (x) = 0.14379 0.70563
# Poissons Ratio (y) = 0.42675 0.19335
# Poissons Ratio (z) = 0.84302 0.07783
#
# Static dielectric constant tensor:
#      x y z
#    x 1.611400 0.000000 -0.019720 
#    y 0.000000 1.634160 0.000000 
#    z -0.019720 0.000000 1.628790 
# 
# From -- ./inp_files/37102.got.cif
#   From: 2010.05.17/outbox.cif.g08.bks.cpg/sg10_19_cif.got.tgz:37102.got - 2010.06.03 11:33:40.
