data_PCOD9149425
_publ_section_title
;
Structure prediction by ZEFSAII (Michael W. Deem and Ramdas Pophale) SiO2 
 PCOD9149425
Probable space group: P 2/M
;
_chemical_formula_sum "Si O2"
_cell_formula_units_Z 28
_cell_length_a 13.845851
_cell_length_b 9.240180
_cell_length_c 19.278344
_cell_angle_alpha 90.000000
_cell_angle_beta 143.471882
_cell_angle_gamma 90.000000
_cell_volume 1468.065017
_symmetry_space_group_name_H-M "P 2/M"
_symmetry_group_IT_number 10
_symmetry_cell_setting 'monoclinic'
loop_
_space_group_symop_operation_xyz
x,y,z
-x,y,-z
-x,-y,-z
x,-y,z
loop_
_atom_site_type_symbol
_atom_site_label
_atom_site_fract_x
_atom_site_fract_y
_atom_site_fract_z
Si Si1 0.156615 0.832516 0.050130
Si Si2 0.868921 0.332814 0.100663
Si Si3 0.941131 0.674925 0.388468
Si Si4 0.251758 0.332629 0.340114
Si Si5 0.782513 0.830530 0.537627
Si Si6 0.319852 0.675682 0.870923
Si Si7 0.427691 0.834560 0.322632
O O1 0.303323 0.825383 0.188009
O O2 0.117771 0.000000 0.011652
O O3 0.196475 0.754794 0.001891
O O4 0.000000 0.769703 0.000000
O O5 0.820599 0.500000 0.066054
O O6 0.802048 0.283434 0.136569
O O7 0.063600 0.324752 0.208600
O O8 0.942686 0.500000 0.388672
O O9 0.768123 0.720214 0.252635
O O10 0.000000 0.720468 0.500000
O O11 0.078020 0.736542 0.416319
O O12 0.286592 0.500000 0.378114
O O13 0.257145 0.227810 0.408850
O O14 0.368844 0.274942 0.347763
O O15 0.609270 0.810662 0.400502
O O16 0.825824 0.000000 0.563157
O O17 0.327622 0.500000 0.872106
O O18 0.500000 0.724610 0.000000
O O19 0.421660 0.000000 0.347280
#
# Coordination Sequence:
#
# PCOD9149425 Si02
#       7
#     4   4   4   4   4   4   4
#     4  10  20  35  55  77 108 151 191 228 274 333
#     4  10  20  34  56  84 112 143 183 231 279 336
#     4  10  21  39  63  89 115 148 194 244 293 349
#     4  11  21  35  57  85 115 147 190 240 282 331
#     4  11  23  38  58  82 115 155 193 235 285 344
#     4   9  18  36  60  85 114 146 182 232 294 350
#     4  10  22  38  54  81 117 155 195 233 281 341
#
# _framework density 19.072724000000001
#
# number of rings (size 3 to 8) (size 9 to 14) (size 15 to 20)
#    0.000    1.857    2.857    1.286    0.000    5.714 
#    0.000    1.429    0.000    1.714    0.000    0.000 
#    0.000    0.000    0.000    0.000    0.000    0.000 
#
# Total GULP energy -156094.281945 kJ/mol
# GULP energy per Si atom -5574.795784 kJ/mol
# Density = 1.902931 g / cm^3
# Si number density = 19.072724 Si / 1000 Ang^3
#
#
#
# Elastic Constant Matrix: (Units=GPa)
#
#
# Indices 1 2 3 4 5 6 
#
# 1 56.3630 7.4584 36.7313 0.0000 -10.5109 0.0000
# 2 7.4584 6.9372 15.3239 0.0000 -3.8362 0.0000
# 3 36.7313 15.3239 102.3485 0.0000 -0.3561 0.0000
# 4 0.0000 0.0000 0.0000 19.7633 0.0000 -11.4601
# 5 -10.5109 -3.8362 -0.3561 0.0000 28.9937 0.0000
# 6 0.0000 0.0000 0.0000 -11.4601 0.0000 1.5602
#
#
#
# Elastic Compliance Matrix: (Units=1/GPa)
#
#
# Indices 1 2 3 4 5 6 
#
# 1 0.025397 -0.003698 -0.008531 0.000000 0.008613 0.000000
# 2 -0.003698 0.241546 -0.034733 0.000000 0.030192 0.000000
# 3 -0.008531 -0.034733 0.018007 0.000000 -0.007467 0.000000
# 4 0.000000 0.000000 0.000000 -0.015525 0.000000 -0.114032
# 5 0.008613 0.030192 -0.007467 0.000000 0.041516 0.000000
# 6 0.000000 0.000000 0.000000 -0.114032 0.000000 -0.196651
#
#
# Mechanical properties :
#
#
# Convention : Reuss Voigt Hill
#
# Bulk Modulus (GPa) = 5.23489 31.63067 18.43278
# Shear Modulus (GPa) = 18.38991 17.13911 17.76451
#
# Velocity S-wave (km/s) = 3.10852 3.00095 3.05521
# Velocity P-wave (km/s) = 3.95406 5.35050 4.70438
#
# Compressibility (1/GPa) = 0.19102616
#
# Stress axis : x y z
#
# Youngs Moduli (GPa) = 39.37429 4.14000 55.53540
#
# Poissons Ratio (x) = 0.01531 0.47378
# Poissons Ratio (y) = 0.14560 1.92890
# Poissons Ratio (z) = 0.33591 0.14379
#
# Static dielectric constant tensor:
#      x y z
#    x 1.636220 0.000000 0.004700 
#    y 0.000000 1.649070 0.000000 
#    z 0.004700 0.000000 1.727540 
# 
# From -- ./inp_files/84957.got.cif
#   From: 2010.05.17/outbox.cif.g08.bks.cpg/sg10_43_cif.got.tgz:84957.got - 2010.06.03 11:33:40.
