data_PCOD9149996
_publ_section_title
;
Structure prediction by ZEFSAII (Michael W. Deem and Ramdas Pophale) SiO2 
 PCOD9149996
Probable space group: P 2/M
;
_chemical_formula_sum "Si O2"
_cell_formula_units_Z 26
_cell_length_a 6.996174
_cell_length_b 20.145709
_cell_length_c 9.417145
_cell_angle_alpha 90.000000
_cell_angle_beta 56.138161
_cell_angle_gamma 90.000000
_cell_volume 1102.151176
_symmetry_space_group_name_H-M "P 2/M"
_symmetry_group_IT_number 10
_symmetry_cell_setting 'monoclinic'
loop_
_space_group_symop_operation_xyz
x,y,z
-x,y,-z
-x,-y,-z
x,-y,z
loop_
_atom_site_type_symbol
_atom_site_label
_atom_site_fract_x
_atom_site_fract_y
_atom_site_fract_z
Si Si1 0.166092 0.207502 0.143758
Si Si2 0.162366 0.668186 0.308537
Si Si3 0.237141 0.574781 0.047429
Si Si4 0.337730 0.768664 0.755810
Si Si5 0.996249 0.074163 0.671646
Si Si6 0.543401 0.614760 0.322339
Si Si7 0.500000 0.124729 0.500000
O O1 0.271545 0.264584 0.200177
O O2 0.894954 0.224356 0.241340
O O3 0.163252 0.132454 0.199882
O O4 0.266355 0.216087 0.945797
O O5 0.089708 0.628869 0.195445
O O6 0.303567 0.612271 0.336410
O O7 0.000000 0.693522 0.500000
O O8 0.164331 0.500000 0.106931
O O9 0.500000 0.584126 0.000000
O O10 0.270023 0.584909 0.864512
O O11 0.417121 0.694034 0.695291
O O12 0.509741 0.824646 0.628615
O O13 0.262820 0.084616 0.608931
O O14 0.000000 0.079175 0.500000
O O15 0.920593 0.000000 0.743456
O O16 0.500000 0.590377 0.500000
#
# Coordination Sequence:
#
# PCOD9149996 Si02
#       7
#     4   4   4   4   4   4   2
#     4  10  21  37  58  85 118 150 194 248 297 357
#     4  11  22  35  59  89 114 156 198 245 300 349
#     4   9  20  39  58  82 120 159 196 241 299 361
#     4  10  20  35  57  88 114 149 191 247 302 343
#     4  10  22  40  60  85 119 161 200 247 306 366
#     4  11  21  36  58  88 118 152 198 246 296 357
#     4  10  21  38  60  88 117 160 198 252 307 358
#
# _framework density 23.590229999999998
#
# number of rings (size 3 to 8) (size 9 to 14) (size 15 to 20)
#    0.000    1.846    2.308    1.615    4.308    0.615 
#    0.000    6.923    0.000    8.308    0.000    0.000 
#    0.000    0.000    0.000    0.000    0.000    0.000 
#
# Total GULP energy -145188.867110 kJ/mol
# GULP energy per Si atom -5584.187197 kJ/mol
# Density = 2.353654 g / cm^3
# Si number density = 23.590230 Si / 1000 Ang^3
#
#
#
# Elastic Constant Matrix: (Units=GPa)
#
#
# Indices 1 2 3 4 5 6 
#
# 1 50.3119 3.1922 11.3858 0.0000 13.5424 0.0000
# 2 3.1922 126.6304 40.4369 0.0000 12.3848 0.0000
# 3 11.3858 40.4369 137.3480 0.0000 22.6131 0.0000
# 4 0.0000 0.0000 0.0000 56.9508 0.0000 5.8550
# 5 13.5424 12.3848 22.6131 0.0000 24.3686 0.0000
# 6 0.0000 0.0000 0.0000 5.8550 0.0000 23.0794
#
#
#
# Elastic Compliance Matrix: (Units=1/GPa)
#
#
# Indices 1 2 3 4 5 6 
#
# 1 0.023435 0.000704 0.000063 0.000000 -0.013439 0.000000
# 2 0.000704 0.008860 -0.002197 0.000000 -0.002855 0.000000
# 3 0.000063 -0.002197 0.009141 0.000000 -0.007401 0.000000
# 4 0.000000 0.000000 0.000000 0.018029 0.000000 -0.004574
# 5 -0.013439 -0.002855 -0.007401 0.000000 0.056824 0.000000
# 6 0.000000 0.000000 0.000000 -0.004574 0.000000 0.044489
#
#
# Mechanical properties :
#
#
# Convention : Reuss Voigt Hill
#
# Bulk Modulus (GPa) = 25.92367 47.14668 36.53518
# Shear Modulus (GPa) = 28.32922 38.16480 33.24701
#
# Velocity S-wave (km/s) = 3.46914 4.02658 3.75821
# Velocity P-wave (km/s) = 5.20189 6.45344 5.86116
#
# Compressibility (1/GPa) = 0.03857478
#
# Stress axis : x y z
#
# Youngs Moduli (GPa) = 42.67198 112.86686 109.40003
#
# Poissons Ratio (x) = -0.07941 -0.00688
# Poissons Ratio (y) = -0.03002 0.24032
# Poissons Ratio (z) = -0.00268 0.24793
#
# Static dielectric constant tensor:
#      x y z
#    x 2.103550 0.000000 0.009300 
#    y 0.000000 1.831620 0.000000 
#    z 0.009300 0.000000 1.908560 
# 
# From -- ./inp_files/20429.got.cif
#   From: 2010.05.17/outbox.cif.g08.bks.cpg/sg10_11_cif.got.tgz:20429.got - 2010.06.03 11:33:40.
