data_PCOD9149224
_publ_section_title
;
Structure prediction by ZEFSAII (Michael W. Deem and Ramdas Pophale) SiO2 
 PCOD9149224
Probable space group: P 2/M
;
_chemical_formula_sum "Si O2"
_cell_formula_units_Z 32
_cell_length_a 11.507665
_cell_length_b 13.211843
_cell_length_c 12.331068
_cell_angle_alpha 90.000000
_cell_angle_beta 60.167154
_cell_angle_gamma 90.000000
_cell_volume 1626.338652
_symmetry_space_group_name_H-M "P 2/M"
_symmetry_group_IT_number 10
_symmetry_cell_setting 'monoclinic'
loop_
_space_group_symop_operation_xyz
x,y,z
-x,y,-z
-x,-y,-z
x,-y,z
loop_
_atom_site_type_symbol
_atom_site_label
_atom_site_fract_x
_atom_site_fract_y
_atom_site_fract_z
Si Si1 0.399198 0.221263 0.130958
Si Si2 0.383896 0.682725 0.473212
Si Si3 0.091819 0.703977 0.715183
Si Si4 0.634766 0.888105 0.629940
Si Si5 0.188582 0.614783 0.879889
Si Si6 0.940590 0.886505 0.415364
Si Si7 0.184067 0.383481 0.141875
Si Si8 0.512054 0.391223 0.216890
O O1 0.356524 0.148282 0.249115
O O2 0.278194 0.292598 0.143252
O O3 0.498098 0.303701 0.138083
O O4 0.500000 0.167627 0.000000
O O5 0.500000 0.647400 0.500000
O O6 0.235202 0.681018 0.591897
O O7 0.425763 0.795865 0.411847
O O8 0.393640 0.618806 0.358466
O O9 0.118391 0.691851 0.831193
O O10 0.045591 0.813249 0.692884
O O11 0.967311 0.631579 0.745011
O O12 0.783717 0.894911 0.513442
O O13 0.571934 0.000000 0.650790
O O14 0.143073 0.500000 0.873728
O O15 0.347689 0.619655 0.786521
O O16 0.175228 0.628163 0.014948
O O17 0.000000 0.843144 0.500000
O O18 0.996451 0.000000 0.373430
O O19 0.229116 0.500000 0.142874
O O20 0.513026 0.500000 0.162261
#
# Coordination Sequence:
#
# PCOD9149224 Si02
#       8
#     4   4   4   4   4   4   4   4
#     4  11  21  36  59  81 111 148 196 237 281 330
#     4  10  20  35  55  82 111 148 188 227 279 337
#     4  11  21  35  58  84 117 145 186 236 285 332
#     4   9  20  36  55  82 112 139 182 237 287 335
#     4  10  20  35  55  78 110 152 193 227 270 333
#     4   9  18  36  61  83 107 147 191 229 279 344
#     4  11  23  37  56  84 115 152 193 236 282 329
#     4  10  20  34  54  80 109 147 193 231 269 330
#
# _framework density 19.676100000000002
#
# number of rings (size 3 to 8) (size 9 to 14) (size 15 to 20)
#    0.000    1.875    2.500    1.875    0.000    3.250 
#    0.000    0.000    0.000   11.250    0.000    0.000 
#    0.000    0.000    0.000    0.000    0.000    0.000 
#
# Total GULP energy -178247.172679 kJ/mol
# GULP energy per Si atom -5570.224146 kJ/mol
# Density = 1.963132 g / cm^3
# Si number density = 19.676100 Si / 1000 Ang^3
#
#
#
# Elastic Constant Matrix: (Units=GPa)
#
#
# Indices 1 2 3 4 5 6 
#
# 1 56.3839 7.2767 12.1957 0.0000 -3.7228 0.0000
# 2 7.2767 67.8991 14.9529 0.0000 7.8769 0.0000
# 3 12.1957 14.9529 65.9447 0.0000 -5.5250 0.0000
# 4 0.0000 0.0000 0.0000 37.8818 0.0000 -16.1667
# 5 -3.7228 7.8769 -5.5250 0.0000 32.6434 0.0000
# 6 0.0000 0.0000 0.0000 -16.1667 0.0000 38.3128
#
#
#
# Elastic Compliance Matrix: (Units=1/GPa)
#
#
# Indices 1 2 3 4 5 6 
#
# 1 0.018708 -0.001595 -0.002929 0.000000 0.002023 0.000000
# 2 -0.001595 0.016286 -0.003796 0.000000 -0.004754 0.000000
# 3 -0.002929 -0.003796 0.016854 0.000000 0.003435 0.000000
# 4 0.000000 0.000000 0.000000 0.032196 0.000000 0.013585
# 5 0.002023 -0.004754 0.003435 0.000000 0.032593 0.000000
# 6 0.000000 0.000000 0.000000 0.013585 0.000000 0.031834
#
#
# Mechanical properties :
#
#
# Convention : Reuss Voigt Hill
#
# Bulk Modulus (GPa) = 28.40142 28.78648 28.59395
# Shear Modulus (GPa) = 28.27293 32.15443 30.21368
#
# Velocity S-wave (km/s) = 3.79478 4.04689 3.92286
# Velocity P-wave (km/s) = 5.80227 6.04139 5.92304
#
# Compressibility (1/GPa) = 0.03520950
#
# Stress axis : x y z
#
# Youngs Moduli (GPa) = 53.45193 61.40173 59.33146
#
# Poissons Ratio (x) = 0.09791 0.17377
# Poissons Ratio (y) = 0.08524 0.22524
# Poissons Ratio (z) = 0.15655 0.23310
#
# Static dielectric constant tensor:
#      x y z
#    x 1.707420 0.000000 -0.025870 
#    y 0.000000 1.733140 0.000000 
#    z -0.025870 0.000000 1.725590 
# 
# From -- ./inp_files/46966.got.cif
#   From: 2010.05.17/outbox.cif.g08.bks.cpg/sg10_24_cif.got.tgz:46966.got - 2010.06.03 11:33:40.
