data_PCOD9149313
_publ_section_title
;
Structure prediction by ZEFSAII (Michael W. Deem and Ramdas Pophale) SiO2 
 PCOD9149313
Probable space group: P 2/M
;
_chemical_formula_sum "Si O2"
_cell_formula_units_Z 24
_cell_length_a 21.028428
_cell_length_b 9.757223
_cell_length_c 5.211090
_cell_angle_alpha 90.000000
_cell_angle_beta 76.952157
_cell_angle_gamma 90.000000
_cell_volume 1041.601659
_symmetry_space_group_name_H-M "P 2/M"
_symmetry_group_IT_number 10
_symmetry_cell_setting 'monoclinic'
loop_
_space_group_symop_operation_xyz
x,y,z
-x,y,-z
-x,-y,-z
x,-y,z
loop_
_atom_site_type_symbol
_atom_site_label
_atom_site_fract_x
_atom_site_fract_y
_atom_site_fract_z
Si Si1 0.131983 0.851921 0.863868
Si Si2 0.739734 0.145333 0.556607
Si Si3 0.381822 0.837192 0.668669
Si Si4 0.422934 0.662474 0.128785
Si Si5 0.059092 0.648011 0.644135
Si Si6 0.805659 0.650194 0.794467
O O1 0.184728 0.868718 0.589728
O O2 0.068645 0.773371 0.825195
O O3 0.117492 0.000000 0.989950
O O4 0.170983 0.754930 0.015856
O O5 0.693831 0.157867 0.352162
O O6 0.743117 0.284888 0.711472
O O7 0.720337 0.000000 0.705172
O O8 0.393295 0.754168 0.921457
O O9 0.403022 0.000000 0.662090
O O10 0.412535 0.748417 0.403617
O O11 0.401501 0.500000 0.162194
O O12 0.500000 0.658007 0.000000
O O13 0.052214 0.500000 0.780834
O O14 0.129040 0.639033 0.438231
O O15 0.000000 0.665148 0.500000
O O16 0.790895 0.500000 0.911900
#
# Coordination Sequence:
#
# PCOD9149313 Si02
#       6
#     4   4   4   4   4   4
#     4  10  20  35  55  78 110 148 184 233 295 356
#     4   9  21  39  57  81 115 152 191 241 299 357
#     4  11  24  42  68  99 130 171 223 271 319 384
#     4  11  25  45  67  96 136 176 215 266 327 383
#     4   9  19  36  54  74 104 142 187 237 288 347
#     4  10  20  34  55  81 108 143 188 238 291 352
#
# _framework density 23.041437999999999
#
# number of rings (size 3 to 8) (size 9 to 14) (size 15 to 20)
#    0.000    2.000    0.000    2.500    2.333    7.000 
#    0.000    3.333    0.000    0.000    0.000    0.000 
#    0.000    0.000    0.000    0.000    0.000    0.000 
#
# Total GULP energy -133819.751531 kJ/mol
# GULP energy per Si atom -5575.822980 kJ/mol
# Density = 2.298899 g / cm^3
# Si number density = 23.041438 Si / 1000 Ang^3
#
#
#
# Elastic Constant Matrix: (Units=GPa)
#
#
# Indices 1 2 3 4 5 6 
#
# 1 77.9732 42.2157 4.6531 0.0000 4.6284 0.0000
# 2 42.2157 236.5967 58.6154 0.0000 30.4984 0.0000
# 3 4.6531 58.6154 67.5584 0.0000 -5.0554 0.0000
# 4 0.0000 0.0000 0.0000 26.9585 0.0000 4.7638
# 5 4.6284 30.4984 -5.0554 0.0000 37.9940 0.0000
# 6 0.0000 0.0000 0.0000 4.7638 0.0000 31.4204
#
#
#
# Elastic Compliance Matrix: (Units=1/GPa)
#
#
# Indices 1 2 3 4 5 6 
#
# 1 0.014357 -0.003142 0.001813 0.000000 0.001014 0.000000
# 2 -0.003142 0.007207 -0.006505 0.000000 -0.006268 0.000000
# 3 0.001813 -0.006505 0.020904 0.000000 0.007783 0.000000
# 4 0.000000 0.000000 0.000000 0.038115 0.000000 -0.005779
# 5 0.001014 -0.006268 0.007783 0.000000 0.032263 0.000000
# 6 0.000000 0.000000 0.000000 -0.005779 0.000000 0.032703
#
#
# Mechanical properties :
#
#
# Convention : Reuss Voigt Hill
#
# Bulk Modulus (GPa) = 37.31421 65.89965 51.60693
# Shear Modulus (GPa) = 29.38567 37.71752 33.55159
#
# Velocity S-wave (km/s) = 3.57506 4.05030 3.82008
# Velocity P-wave (km/s) = 5.76810 7.10886 6.47329
#
# Compressibility (1/GPa) = 0.02679944
#
# Stress axis : x y z
#
# Youngs Moduli (GPa) = 69.65027 138.75778 47.83807
#
# Poissons Ratio (x) = 0.43592 -0.08672
# Poissons Ratio (y) = 0.21881 0.31121
# Poissons Ratio (z) = -0.12626 0.90268
#
# Static dielectric constant tensor:
#      x y z
#    x 1.847790 0.000000 -0.053440 
#    y 0.000000 2.011130 0.000000 
#    z -0.053440 0.000000 1.942620 
# 
# From -- ./inp_files/12997.got.cif
#   From: 2010.05.17/outbox.cif.g08.bks.cpg/sg10_7_cif.got.tgz:12997.got - 2010.06.03 11:33:40.
