data_PCOD9149915
_publ_section_title
;
Structure prediction by ZEFSAII (Michael W. Deem and Ramdas Pophale) SiO2 
 PCOD9149915
Probable space group: P 2/M
;
_chemical_formula_sum "Si O2"
_cell_formula_units_Z 28
_cell_length_a 14.073122
_cell_length_b 7.629169
_cell_length_c 14.101892
_cell_angle_alpha 90.000000
_cell_angle_beta 58.322785
_cell_angle_gamma 90.000000
_cell_volume 1288.501247
_symmetry_space_group_name_H-M "P 2/M"
_symmetry_group_IT_number 10
_symmetry_cell_setting 'monoclinic'
loop_
_space_group_symop_operation_xyz
x,y,z
-x,y,-z
-x,-y,-z
x,-y,z
loop_
_atom_site_type_symbol
_atom_site_label
_atom_site_fract_x
_atom_site_fract_y
_atom_site_fract_z
Si Si1 0.171628 0.212516 0.659572
Si Si2 0.418365 0.294039 0.462373
Si Si3 0.975764 0.212536 0.620101
Si Si4 0.563455 0.297326 0.758314
Si Si5 0.732698 0.294746 0.826017
Si Si6 0.878512 0.785599 0.099253
Si Si7 0.317543 0.797627 0.935957
O O1 0.291801 0.277283 0.563138
O O2 0.144917 0.268235 0.780747
O O3 0.074563 0.269201 0.638569
O O4 0.174511 0.000000 0.656986
O O5 0.500000 0.217650 0.500000
O O6 0.448781 0.500000 0.437959
O O7 0.429520 0.217914 0.350691
O O8 0.856447 0.274764 0.719934
O O9 0.000000 0.269835 0.500000
O O10 0.973363 0.000000 0.621969
O O11 0.600552 0.500000 0.729498
O O12 0.645037 0.219927 0.795273
O O13 0.436423 0.292499 0.859634
O O14 0.707291 0.500000 0.853902
O O15 0.721152 0.210783 0.935172
O O16 0.779757 0.726844 0.081189
O O17 0.879321 0.000000 0.096619
O O18 0.000000 0.727934 0.000000
O O19 0.335769 0.000000 0.899855
#
# Coordination Sequence:
#
# PCOD9149915 Si02
#       7
#     4   4   4   4   4   4   4
#     4  10  20  35  57  83 111 144 181 224 274 326
#     4  10  21  37  57  81 111 146 182 224 271 320
#     4  10  21  37  58  85 114 143 180 228 274 317
#     4  10  22  39  56  78 111 147 181 220 271 328
#     4  11  23  38  57  80 110 149 185 220 270 330
#     4   9  18  34  55  79 109 143 177 218 272 327
#     4  11  22  36  58  84 108 140 184 231 274 318
#
# _framework density 21.730675999999999
#
# number of rings (size 3 to 8) (size 9 to 14) (size 15 to 20)
#    0.000    1.857    0.000    3.857    0.000    6.857 
#    0.000    0.714    0.000    3.000    0.000    0.000 
#    0.000    0.000    0.000    0.000    0.000    0.000 
#
# Total GULP energy -156560.052255 kJ/mol
# GULP energy per Si atom -5591.430438 kJ/mol
# Density = 2.168122 g / cm^3
# Si number density = 21.730676 Si / 1000 Ang^3
#
#
#
# Elastic Constant Matrix: (Units=GPa)
#
#
# Indices 1 2 3 4 5 6 
#
# 1 209.9789 -6.1268 82.5148 0.0000 19.7412 0.0000
# 2 -6.1268 43.4819 -17.7264 0.0000 9.5314 0.0000
# 3 82.5148 -17.7264 157.5950 0.0000 17.7788 0.0000
# 4 0.0000 0.0000 0.0000 23.1437 0.0000 -12.8796
# 5 19.7412 9.5314 17.7788 0.0000 45.3065 0.0000
# 6 0.0000 0.0000 0.0000 -12.8796 0.0000 7.8462
#
#
#
# Elastic Compliance Matrix: (Units=1/GPa)
#
#
# Indices 1 2 3 4 5 6 
#
# 1 0.006088 -0.000060 -0.003031 0.000000 -0.001451 0.000000
# 2 -0.000060 0.026031 0.003740 0.000000 -0.006918 0.000000
# 3 -0.003031 0.003740 0.008677 0.000000 -0.002871 0.000000
# 4 0.000000 0.000000 0.000000 0.499588 0.000000 0.820080
# 5 -0.001451 -0.006918 -0.002871 0.000000 0.025286 0.000000
# 6 0.000000 0.000000 0.000000 0.820080 0.000000 1.473622
#
#
# Mechanical properties :
#
#
# Convention : Reuss Voigt Hill
#
# Bulk Modulus (GPa) = 23.75640 58.70876 41.23258
# Shear Modulus (GPa) = 2.43662 38.75223 20.59442
#
# Velocity S-wave (km/s) = 1.06005 4.22749 3.08183
# Velocity P-wave (km/s) = 3.52905 7.13471 5.62842
#
# Compressibility (1/GPa) = 0.04209391
#
# Stress axis : x y z
#
# Youngs Moduli (GPa) = 164.25807 38.41634 115.25125
#
# Poissons Ratio (x) = 0.00229 0.34928
# Poissons Ratio (y) = 0.00979 -0.43099
# Poissons Ratio (z) = 0.49780 -0.14366
#
# Static dielectric constant tensor:
#      x y z
#    x 1.768100 0.000000 0.038160 
#    y 0.000000 1.834410 0.000000 
#    z 0.038160 0.000000 1.725600 
# 
# From -- ./inp_files/63650.got.cif
#   From: 2010.05.17/outbox.cif.g08.bks.cpg/sg10_32_cif.got.tgz:63650.got - 2010.06.03 11:33:40.
