data_PCOD9149326
_publ_section_title
;
Structure prediction by ZEFSAII (Michael W. Deem and Ramdas Pophale) SiO2 
 PCOD9149326
Probable space group: P 2/M
;
_chemical_formula_sum "Si O2"
_cell_formula_units_Z 28
_cell_length_a 29.609317
_cell_length_b 8.034502
_cell_length_c 9.226291
_cell_angle_alpha 90.000000
_cell_angle_beta 141.051884
_cell_angle_gamma 90.000000
_cell_volume 1379.749363
_symmetry_space_group_name_H-M "P 2/M"
_symmetry_group_IT_number 10
_symmetry_cell_setting 'monoclinic'
loop_
_space_group_symop_operation_xyz
x,y,z
-x,y,-z
-x,-y,-z
x,-y,z
loop_
_atom_site_type_symbol
_atom_site_label
_atom_site_fract_x
_atom_site_fract_y
_atom_site_fract_z
Si Si1 0.143014 0.798773 0.189776
Si Si2 0.428315 0.700616 0.901800
Si Si3 0.285178 0.301196 0.045381
Si Si4 0.000749 0.796220 0.334664
Si Si5 0.429422 0.199068 0.239521
Si Si6 0.713290 0.299081 0.619607
Si Si7 0.857460 0.800048 0.480454
O O1 0.213984 0.748028 0.280718
O O2 0.144921 0.737489 0.360289
O O3 0.140988 0.000000 0.188136
O O4 0.071024 0.742440 0.927982
O O5 0.428203 0.500000 0.890648
O O6 0.356440 0.762217 0.642284
O O7 0.500000 0.762314 0.000000
O O8 0.428824 0.744320 0.071833
O O9 0.281474 0.500000 0.041448
O O10 0.357383 0.253006 0.141625
O O11 0.286554 0.237479 0.214304
O O12 0.215146 0.239878 0.785837
O O13 0.072429 0.739361 0.430958
O O14 0.000000 0.743029 0.500000
O O15 0.001165 0.000000 0.335386
O O16 0.500000 0.263340 0.500000
O O17 0.431930 0.000000 0.246778
O O18 0.709289 0.500000 0.613933
O O19 0.863717 0.000000 0.503723
#
# Coordination Sequence:
#
# PCOD9149326 Si02
#       7
#     4   4   4   4   4   4   4
#     4  10  20  34  55  82 111 146 185 227 278 333
#     4  10  21  39  62  85 112 149 190 229 274 330
#     4  11  23  39  59  82 111 148 188 228 275 332
#     4   9  17  31  53  80 110 146 186 227 274 330
#     4  11  24  40  59  86 117 147 183 229 278 327
#     4  10  22  38  56  81 111 144 185 232 278 327
#     4  10  20  35  56  83 114 145 183 231 279 329
#
# _framework density 20.293541999999999
#
# number of rings (size 3 to 8) (size 9 to 14) (size 15 to 20)
#    0.000    1.857    0.000    3.857    0.000   10.000 
#    0.000    0.714    0.000    4.286    0.000    0.000 
#    0.000    0.000    0.000    0.000    0.000    0.000 
#
# Total GULP energy -156520.599675 kJ/mol
# GULP energy per Si atom -5590.021417 kJ/mol
# Density = 2.024735 g / cm^3
# Si number density = 20.293542 Si / 1000 Ang^3
#
#
#
# Elastic Constant Matrix: (Units=GPa)
#
#
# Indices 1 2 3 4 5 6 
#
# 1 247.6499 7.1516 153.8404 0.0000 -0.6655 0.0000
# 2 7.1516 12.3205 8.8574 0.0000 -0.8937 0.0000
# 3 153.8404 8.8574 250.5531 0.0000 0.8194 0.0000
# 4 0.0000 0.0000 0.0000 33.6950 0.0000 0.3476
# 5 -0.6655 -0.8937 0.8194 0.0000 48.6117 0.0000
# 6 0.0000 0.0000 0.0000 0.3476 0.0000 24.2446
#
#
#
# Elastic Compliance Matrix: (Units=1/GPa)
#
#
# Indices 1 2 3 4 5 6 
#
# 1 0.006539 -0.000922 -0.003983 0.000000 0.000140 0.000000
# 2 -0.000922 0.083534 -0.002392 0.000000 0.001563 0.000000
# 3 -0.003983 -0.002392 0.006522 0.000000 -0.000208 0.000000
# 4 0.000000 0.000000 0.000000 0.029682 0.000000 -0.000426
# 5 0.000140 0.001563 -0.000208 0.000000 0.020605 0.000000
# 6 0.000000 0.000000 0.000000 -0.000426 0.000000 0.041252
#
#
# Mechanical properties :
#
#
# Convention : Reuss Voigt Hill
#
# Bulk Modulus (GPa) = 12.19501 94.46918 53.33209
# Shear Modulus (GPa) = 21.73320 44.02187 32.87754
#
# Velocity S-wave (km/s) = 3.27608 4.66258 4.02941
# Velocity P-wave (km/s) = 4.50917 8.69705 6.92716
#
# Compressibility (1/GPa) = 0.08200074
#
# Stress axis : x y z
#
# Youngs Moduli (GPa) = 152.92483 11.97121 153.32876
#
# Poissons Ratio (x) = 0.01104 0.61070
# Poissons Ratio (y) = 0.14103 0.36675
# Poissons Ratio (z) = 0.60909 0.02863
#
# Static dielectric constant tensor:
#      x y z
#    x 1.689860 0.000000 0.002430 
#    y 0.000000 1.734700 0.000000 
#    z 0.002430 0.000000 1.705160 
# 
# From -- ./inp_files/34260.got.cif
#   From: 2010.05.17/outbox.cif.g08.bks.cpg/sg10_18_cif.got.tgz:34260.got - 2010.06.03 11:33:40.
