data_PCOD9149343
_publ_section_title
;
Structure prediction by ZEFSAII (Michael W. Deem and Ramdas Pophale) SiO2 
 PCOD9149343
Probable space group: P 2/M
;
_chemical_formula_sum "Si O2"
_cell_formula_units_Z 28
_cell_length_a 22.258599
_cell_length_b 14.741450
_cell_length_c 9.255973
_cell_angle_alpha 90.000000
_cell_angle_beta 30.946468
_cell_angle_gamma 90.000000
_cell_volume 1561.792820
_symmetry_space_group_name_H-M "P 2/M"
_symmetry_group_IT_number 10
_symmetry_cell_setting 'monoclinic'
loop_
_space_group_symop_operation_xyz
x,y,z
-x,y,-z
-x,-y,-z
x,-y,z
loop_
_atom_site_type_symbol
_atom_site_label
_atom_site_fract_x
_atom_site_fract_y
_atom_site_fract_z
Si Si1 0.375081 0.605688 0.692274
Si Si2 0.419852 0.894191 0.882145
Si Si3 0.237459 0.605305 0.270597
Si Si4 0.978251 0.393032 0.716898
Si Si5 0.238921 0.266641 0.771158
Si Si6 0.627115 0.738521 0.796786
Si Si7 0.682178 0.105932 0.215799
O O1 0.500000 0.630556 0.500000
O O2 0.378758 0.500000 0.640220
O O3 0.337915 0.670789 0.641569
O O4 0.283373 0.615043 0.011774
O O5 0.341560 0.870716 0.903035
O O6 0.554894 0.885106 0.554387
O O7 0.400437 0.000000 0.955746
O O8 0.393843 0.829375 0.068108
O O9 0.253433 0.500000 0.277255
O O10 0.099652 0.624773 0.549241
O O11 0.313377 0.666531 0.219170
O O12 0.946702 0.500000 0.800988
O O13 0.000000 0.380479 0.500000
O O14 0.877562 0.326572 0.979246
O O15 0.284817 0.245690 0.517326
O O16 0.233322 0.175688 0.878700
O O17 0.500000 0.708746 0.000000
O O18 0.716074 0.000000 0.154885
#
# Coordination Sequence:
#
# PCOD9149343 Si02
#       7
#     4   4   4   4   4   4   4
#     4  10  20  34  55  83 113 151 193 240 298 351
#     4   9  19  37  59  85 121 159 195 239 292 357
#     4  10  22  40  59  80 117 160 200 245 290 346
#     4  10  21  41  65  87 109 152 215 259 288 334
#     4  12  22  33  60  88 119 153 197 248 294 350
#     4  12  24  36  54  91 130 159 189 232 306 371
#     4   9  19  36  61  89 116 154 202 245 290 349
#
# _framework density 17.928113
#
# number of rings (size 3 to 8) (size 9 to 14) (size 15 to 20)
#    0.000    1.714    2.857    3.000    2.000    2.857 
#    0.000    1.429    0.000    1.286    0.000    2.000 
#    0.000    0.000    0.000    0.000    0.000    0.000 
#
# Total GULP energy -156414.485393 kJ/mol
# GULP energy per Si atom -5586.231621 kJ/mol
# Density = 1.788731 g / cm^3
# Si number density = 17.928113 Si / 1000 Ang^3
#
#
#
# Elastic Constant Matrix: (Units=GPa)
#
#
# Indices 1 2 3 4 5 6 
#
# 1 81.5413 60.3272 32.7579 0.0000 5.9255 0.0000
# 2 60.3272 78.7720 42.8166 0.0000 -3.1442 0.0000
# 3 32.7579 42.8166 74.7971 0.0000 -2.5650 0.0000
# 4 0.0000 0.0000 0.0000 -4.2155 0.0000 -79.7718
# 5 5.9255 -3.1442 -2.5650 0.0000 17.9184 0.0000
# 6 0.0000 0.0000 0.0000 -79.7718 0.0000 -180.4849
#
#
#
# Elastic Compliance Matrix: (Units=1/GPa)
#
#
# Indices 1 2 3 4 5 6 
#
# 1 0.031813 -0.024835 -0.000227 0.000000 -0.014911 0.000000
# 2 -0.024835 0.037871 -0.010343 0.000000 0.013377 0.000000
# 3 -0.000227 -0.010343 0.019426 0.000000 0.001041 0.000000
# 4 0.000000 0.000000 0.000000 0.032214 0.000000 -0.014238
# 5 -0.014911 0.013377 0.001041 0.000000 0.063236 0.000000
# 6 0.000000 0.000000 0.000000 -0.014238 0.000000 0.000752
#
#
# Mechanical properties :
#
#
# Convention : Reuss Voigt Hill
#
# Bulk Modulus (GPa) = 54.65173 56.32375 55.48774
# Shear Modulus (GPa) = 19.06788 -26.74250 -3.83731
#
# Velocity S-wave (km/s) = 3.26479 -3.86638 -1.46459
# Velocity P-wave (km/s) = 6.69042 3.39894 5.30634
#
# Compressibility (1/GPa) = 0.01829768
#
# Stress axis : x y z
#
# Youngs Moduli (GPa) = 31.43417 26.40569 51.47867
#
# Poissons Ratio (x) = 0.65579 0.01170
# Poissons Ratio (y) = 0.78067 0.53245
# Poissons Ratio (z) = 0.00715 0.27312
#
# Static dielectric constant tensor:
#      x y z
#    x 1.616870 0.000000 0.003630 
#    y 0.000000 1.613220 0.000000 
#    z 0.003630 0.000000 1.614500 
# 
# From -- ./inp_files/29394.got.cif
#   From: 2010.05.17/outbox.cif.g08.bks.cpg/sg10_15_cif.got.tgz:29394.got - 2010.06.03 11:33:40.
