data_PCOD9149038
_publ_section_title
;
Structure prediction by ZEFSAII (Michael W. Deem and Ramdas Pophale) SiO2 
 PCOD9149038
Probable space group: P 2/M
;
_chemical_formula_sum "Si O2"
_cell_formula_units_Z 28
_cell_length_a 13.737085
_cell_length_b 10.569914
_cell_length_c 10.724313
_cell_angle_alpha 90.000000
_cell_angle_beta 96.211097
_cell_angle_gamma 90.000000
_cell_volume 1548.027645
_symmetry_space_group_name_H-M "P 2/M"
_symmetry_group_IT_number 10
_symmetry_cell_setting 'monoclinic'
loop_
_space_group_symop_operation_xyz
x,y,z
-x,y,-z
-x,-y,-z
x,-y,z
loop_
_atom_site_type_symbol
_atom_site_label
_atom_site_fract_x
_atom_site_fract_y
_atom_site_fract_z
Si Si1 0.651021 0.647549 0.307568
Si Si2 0.294653 0.651487 0.959166
Si Si3 0.584300 0.862407 0.906731
Si Si4 0.738303 0.653313 0.571734
Si Si5 0.934973 0.347422 0.105451
Si Si6 0.961025 0.345903 0.629703
Si Si7 0.539706 0.775383 0.635599
O O1 0.671563 0.500000 0.298133
O O2 0.664060 0.695495 0.169876
O O3 0.725152 0.693195 0.424604
O O4 0.542439 0.669957 0.344469
O O5 0.312815 0.500000 0.981391
O O6 0.178866 0.673497 0.936459
O O7 0.346600 0.740972 0.065850
O O8 0.542811 0.857525 0.760742
O O9 0.632996 0.000000 0.931913
O O10 0.500000 0.852620 0.000000
O O11 0.728375 0.500000 0.577789
O O12 0.846720 0.687439 0.631757
O O13 0.646818 0.717150 0.627548
O O14 0.946983 0.500000 0.110621
O O15 0.973537 0.301779 0.244947
O O16 0.000000 0.298834 0.000000
O O17 0.964777 0.500000 0.627842
O O18 0.000000 0.303369 0.500000
O O19 0.500000 0.834167 0.500000
#
# Coordination Sequence:
#
# PCOD9149038 Si02
#       7
#     4   4   4   4   4   4   4
#     4   9  16  29  47  76 113 145 174 217 267 321
#     4  10  20  34  57  82 110 145 184 221 267 323
#     4  11  24  41  58  80 111 144 181 223 270 328
#     4   9  17  27  47  77 113 146 176 220 276 320
#     4   9  18  30  45  73 109 139 172 221 270 310
#     4   9  16  27  43  67 102 145 182 212 258 321
#     4  10  20  34  52  77 105 136 180 222 270 322
#
# _framework density 18.087533000000001
#
# number of rings (size 3 to 8) (size 9 to 14) (size 15 to 20)
#    0.000    2.429    1.429    1.286    2.000    6.857 
#    0.000    0.000    0.000    0.429    0.000    0.000 
#    0.000    2.286    0.000    0.000    0.000    0.000 
#
# Total GULP energy -155910.088969 kJ/mol
# GULP energy per Si atom -5568.217463 kJ/mol
# Density = 1.804636 g / cm^3
# Si number density = 18.087533 Si / 1000 Ang^3
#
#
#
# Elastic Constant Matrix: (Units=GPa)
#
#
# Indices 1 2 3 4 5 6 
#
# 1 79.2899 22.4167 40.9481 0.0000 0.5178 0.0000
# 2 22.4167 40.5305 30.3818 0.0000 9.2206 0.0000
# 3 40.9481 30.3818 131.6936 0.0000 -1.7023 0.0000
# 4 0.0000 0.0000 0.0000 -5.0960 0.0000 -0.1698
# 5 0.5178 9.2206 -1.7023 0.0000 26.5523 0.0000
# 6 0.0000 0.0000 0.0000 -0.1698 0.0000 -1.4266
#
#
#
# Elastic Compliance Matrix: (Units=1/GPa)
#
#
# Indices 1 2 3 4 5 6 
#
# 1 0.016329 -0.006845 -0.003475 0.000000 0.001836 0.000000
# 2 -0.006845 0.036160 -0.006380 0.000000 -0.012833 0.000000
# 3 -0.003475 -0.006380 0.010184 0.000000 0.002936 0.000000
# 4 0.000000 0.000000 0.000000 -0.197013 0.000000 0.023447
# 5 0.001836 -0.012833 0.002936 0.000000 0.042270 0.000000
# 6 0.000000 0.000000 0.000000 0.023447 0.000000 -0.703781
#
#
# Mechanical properties :
#
#
# Convention : Reuss Voigt Hill
#
# Bulk Modulus (GPa) = 34.15869 48.77857 41.46863
# Shear Modulus (GPa) = -6.64280 14.52378 3.94049
#
# Velocity S-wave (km/s) = -1.91848 2.83675 1.47760
# Velocity P-wave (km/s) = 3.74417 6.14460 5.08797
#
# Compressibility (1/GPa) = 0.02927513
#
# Stress axis : x y z
#
# Youngs Moduli (GPa) = 61.23904 27.65479 98.19749
#
# Poissons Ratio (x) = 0.18928 0.34120
# Poissons Ratio (y) = 0.41915 0.62649
# Poissons Ratio (z) = 0.21278 0.17643
#
# Static dielectric constant tensor:
#      x y z
#    x 1.615980 0.000000 -0.003740 
#    y 0.000000 1.590100 0.000000 
#    z -0.003740 0.000000 1.677840 
# 
# From -- ./inp_files/46138.got.cif
#   From: 2010.05.17/outbox.cif.g08.bks.cpg/sg10_24_cif.got.tgz:46138.got - 2010.06.03 11:33:40.
