data_PCOD9149518
_publ_section_title
;
Structure prediction by ZEFSAII (Michael W. Deem and Ramdas Pophale) SiO2 
 PCOD9149518
Probable space group: P 2/M
;
_chemical_formula_sum "Si O2"
_cell_formula_units_Z 28
_cell_length_a 8.266349
_cell_length_b 18.344461
_cell_length_c 15.416336
_cell_angle_alpha 90.000000
_cell_angle_beta 141.949349
_cell_angle_gamma 90.000000
_cell_volume 1440.896534
_symmetry_space_group_name_H-M "P 2/M"
_symmetry_group_IT_number 10
_symmetry_cell_setting 'monoclinic'
loop_
_space_group_symop_operation_xyz
x,y,z
-x,y,-z
-x,-y,-z
x,-y,z
loop_
_atom_site_type_symbol
_atom_site_label
_atom_site_fract_x
_atom_site_fract_y
_atom_site_fract_z
Si Si1 0.612899 0.795123 0.410365
Si Si2 0.062813 0.500000 0.306711
Si Si3 0.303204 0.356358 0.650262
Si Si4 0.932058 0.204561 0.712620
Si Si5 0.421985 0.916980 0.211273
Si Si6 0.868637 0.083060 0.084510
Si Si7 0.742180 0.649822 0.167621
Si Si8 0.525354 0.500000 0.364070
O O1 0.632868 0.715733 0.376887
O O2 0.339705 0.796313 0.348150
O O3 0.846440 0.807948 0.577204
O O4 0.600689 0.857192 0.332339
O O5 0.273297 0.500000 0.318717
O O6 0.225220 0.500000 0.465234
O O7 0.892341 0.572872 0.228383
O O8 0.341616 0.340836 0.767701
O O9 0.462637 0.427078 0.687565
O O10 0.000000 0.372909 0.500000
O O11 0.109434 0.141686 0.830197
O O12 0.068211 0.283011 0.775960
O O13 0.147149 0.916597 0.149807
O O14 0.522688 0.000000 0.257802
O O15 0.345194 0.899507 0.079740
O O16 0.827872 0.000000 0.098126
O O17 0.500000 0.649207 0.000000
#
# Coordination Sequence:
#
# PCOD9149518 Si02
#       8
#     4   2   4   4   4   4   4   2
#     4  10  20  34  58  86 114 149 196 250 282 334
#     4  11  22  43  66  93 118 147 192 240 283 329
#     4  12  22  40  61  88 117 154 198 227 282 352
#     4  10  20  36  55  85 118 149 196 242 291 334
#     4   8  15  29  51  81 113 148 192 240 289 337
#     4   8  15  29  51  79 114 152 190 235 288 347
#     4  12  26  41  59  86 123 157 187 234 291 344
#     4  11  22  40  72  92 112 150 195 238 279 333
#
# _framework density 19.432345000000002
#
# number of rings (size 3 to 8) (size 9 to 14) (size 15 to 20)
#    0.000    1.857    2.857    2.571    2.000    2.857 
#    0.000    5.714    0.000    1.714    0.000    0.000 
#    0.000    0.000    0.000    0.000    0.000    0.000 
#
# Total GULP energy -156428.371409 kJ/mol
# GULP energy per Si atom -5586.727550 kJ/mol
# Density = 1.938812 g / cm^3
# Si number density = 19.432345 Si / 1000 Ang^3
#
#
#
# Elastic Constant Matrix: (Units=GPa)
#
#
# Indices 1 2 3 4 5 6 
#
# 1 35.4727 35.8279 39.2443 0.0000 -15.8759 0.0000
# 2 35.8279 171.5975 76.5170 0.0000 -28.0684 0.0000
# 3 39.2443 76.5170 115.6347 0.0000 -28.7052 0.0000
# 4 0.0000 0.0000 0.0000 34.8912 0.0000 -37.3559
# 5 -15.8759 -28.0684 -28.7052 0.0000 23.9037 0.0000
# 6 0.0000 0.0000 0.0000 -37.3559 0.0000 -25.0674
#
#
#
# Elastic Compliance Matrix: (Units=1/GPa)
#
#
# Indices 1 2 3 4 5 6 
#
# 1 0.051170 -0.002884 -0.011201 0.000000 0.017148 0.000000
# 2 -0.002884 0.008779 -0.003913 0.000000 0.003693 0.000000
# 3 -0.011201 -0.003913 0.017170 0.000000 0.008584 0.000000
# 4 0.000000 0.000000 0.000000 0.011042 0.000000 -0.016456
# 5 0.017148 0.003693 0.008584 0.000000 0.067868 0.000000
# 6 0.000000 0.000000 0.000000 -0.016456 0.000000 -0.015370
#
#
# Mechanical properties :
#
#
# Convention : Reuss Voigt Hill
#
# Bulk Modulus (GPa) = 24.31811 69.54258 46.93035
# Shear Modulus (GPa) = 26.26537 18.15322 22.20929
#
# Velocity S-wave (km/s) = 3.68044 3.05974 3.38435
# Velocity P-wave (km/s) = 5.53193 6.95323 6.28290
#
# Compressibility (1/GPa) = 0.04112162
#
# Stress axis : x y z
#
# Youngs Moduli (GPa) = 19.54259 113.90840 58.24174
#
# Poissons Ratio (x) = 0.32856 0.65236
# Poissons Ratio (y) = 0.05637 0.22792
# Poissons Ratio (z) = 0.21889 0.44577
#
# Static dielectric constant tensor:
#      x y z
#    x 1.694630 0.000000 0.005590 
#    y 0.000000 1.655400 0.000000 
#    z 0.005590 0.000000 1.658860 
# 
# From -- ./inp_files/62380.got.cif
#   From: 2010.05.17/outbox.cif.g08.bks.cpg/sg10_32_cif.got.tgz:62380.got - 2010.06.03 11:33:40.
