data_PCOD9149552
_publ_section_title
;
Structure prediction by ZEFSAII (Michael W. Deem and Ramdas Pophale) SiO2 
 PCOD9149552
Probable space group: P 2/M
;
_chemical_formula_sum "Si O2"
_cell_formula_units_Z 18
_cell_length_a 20.381072
_cell_length_b 7.983278
_cell_length_c 12.874067
_cell_angle_alpha 90.000000
_cell_angle_beta 153.677665
_cell_angle_gamma 90.000000
_cell_volume 928.837906
_symmetry_space_group_name_H-M "P 2/M"
_symmetry_group_IT_number 10
_symmetry_cell_setting 'monoclinic'
loop_
_space_group_symop_operation_xyz
x,y,z
-x,y,-z
-x,-y,-z
x,-y,z
loop_
_atom_site_type_symbol
_atom_site_label
_atom_site_fract_x
_atom_site_fract_y
_atom_site_fract_z
Si Si1 0.591198 0.000000 0.235448
Si Si2 0.402539 0.808905 0.558636
Si Si3 0.888891 0.000000 0.247883
Si Si4 0.127158 0.312053 0.060762
Si Si5 0.944653 0.000000 0.736382
Si Si6 0.289656 0.686548 0.069305
O O1 0.558268 0.841976 0.264921
O O2 0.768581 0.000000 0.474760
O O3 0.500000 0.000000 0.000000
O O4 0.535399 0.716481 0.689852
O O5 0.387468 0.000000 0.494385
O O6 0.246772 0.720640 0.320152
O O7 0.000000 0.000000 0.500000
O O8 0.787032 0.835478 0.102751
O O9 0.981338 0.000000 0.272298
O O10 0.065428 0.500000 0.978444
O O11 0.007279 0.165177 0.882440
O O12 0.225960 0.300764 0.095430
O O13 0.254339 0.500000 0.980620
#
# Coordination Sequence:
#
# PCOD9149552 Si02
#       6
#     2   4   2   4   2   4
#     4  10  24  41  61  80 112 164 211 240 278 332
#     4  10  20  34  61  85 116 155 195 227 288 344
#     4  10  21  34  59  86 111 157 199 235 292 342
#     4  10  20  36  61  95 123 145 181 241 307 357
#     4  10  21  39  61  80 120 155 191 244 293 339
#     4  10  20  35  57  91 125 148 183 239 297 354
#
# _framework density 19.379052999999999
#
# number of rings (size 3 to 8) (size 9 to 14) (size 15 to 20)
#    0.667    1.333    2.222    1.333    3.111    4.889 
#    0.000    3.333    0.000    3.333    0.000    0.000 
#    0.000    0.000    0.000    0.000    0.000    0.000 
#
# Total GULP energy -100443.246984 kJ/mol
# GULP energy per Si atom -5580.180388 kJ/mol
# Density = 1.933495 g / cm^3
# Si number density = 19.379053 Si / 1000 Ang^3
#
#
#
# Elastic Constant Matrix: (Units=GPa)
#
#
# Indices 1 2 3 4 5 6 
#
# 1 59.4376 33.7114 47.7384 0.0000 7.1406 0.0000
# 2 33.7114 150.0243 52.3641 0.0000 -4.0402 0.0000
# 3 47.7384 52.3641 116.0139 0.0000 -4.0673 0.0000
# 4 0.0000 0.0000 0.0000 -12.1973 0.0000 -1.8117
# 5 7.1406 -4.0402 -4.0673 0.0000 41.4046 0.0000
# 6 0.0000 0.0000 0.0000 -1.8117 0.0000 4.0464
#
#
#
# Elastic Compliance Matrix: (Units=1/GPa)
#
#
# Indices 1 2 3 4 5 6 
#
# 1 0.027288 -0.002730 -0.010206 0.000000 -0.005975 0.000000
# 2 -0.002730 0.008193 -0.002538 0.000000 0.001021 0.000000
# 3 -0.010206 -0.002538 0.014066 0.000000 0.002894 0.000000
# 4 0.000000 0.000000 0.000000 -0.076873 0.000000 -0.034419
# 5 -0.005975 0.001021 0.002894 0.000000 0.025566 0.000000
# 6 0.000000 0.000000 0.000000 -0.034419 0.000000 0.231721
#
#
# Mechanical properties :
#
#
# Convention : Reuss Voigt Hill
#
# Bulk Modulus (GPa) = 53.77051 65.90039 59.83545
# Shear Modulus (GPa) = 18.71891 19.42821 19.07356
#
# Velocity S-wave (km/s) = 3.11132 3.16972 3.14066
# Velocity P-wave (km/s) = 6.38076 6.89028 6.64041
#
# Compressibility (1/GPa) = 0.01859755
#
# Stress axis : x y z
#
# Youngs Moduli (GPa) = 36.64667 122.06037 71.09153
#
# Poissons Ratio (x) = 0.33328 0.72553
# Poissons Ratio (y) = 0.10006 0.18047
# Poissons Ratio (z) = 0.37400 0.30985
#
# Static dielectric constant tensor:
#      x y z
#    x 1.717480 0.000000 0.019230 
#    y 0.000000 1.693170 0.000000 
#    z 0.019230 0.000000 1.641700 
# 
# From -- ./inp_files/71205.got.cif
#   From: 2010.05.17/outbox.cif.g08.bks.cpg/sg10_36_cif.got.tgz:71205.got - 2010.06.03 11:33:40.
