data_PCOD9149893
_publ_section_title
;
Structure prediction by ZEFSAII (Michael W. Deem and Ramdas Pophale) SiO2 
 PCOD9149893
Probable space group: P 2/M
;
_chemical_formula_sum "Si O2"
_cell_formula_units_Z 28
_cell_length_a 26.697638
_cell_length_b 9.379827
_cell_length_c 7.653738
_cell_angle_alpha 90.000000
_cell_angle_beta 135.783178
_cell_angle_gamma 90.000000
_cell_volume 1336.620081
_symmetry_space_group_name_H-M "P 2/M"
_symmetry_group_IT_number 10
_symmetry_cell_setting 'monoclinic'
loop_
_space_group_symop_operation_xyz
x,y,z
-x,y,-z
-x,-y,-z
x,-y,z
loop_
_atom_site_type_symbol
_atom_site_label
_atom_site_fract_x
_atom_site_fract_y
_atom_site_fract_z
Si Si1 0.142571 0.838437 0.565349
Si Si2 1.000000 0.661809 0.708116
Si Si3 0.718693 0.663878 0.082448
Si Si4 0.142570 0.161563 0.147504
Si Si5 0.419749 0.837113 0.839766
Si Si6 0.419749 0.162887 0.258981
Si Si7 0.281307 0.663878 0.488983
O O1 0.212637 0.754670 0.805734
O O2 0.151019 0.848876 0.377547
O O3 0.070889 0.748403 0.417559
O O4 0.137125 0.000000 0.620608
O O5 1.000000 0.500000 0.779440
O O6 0.000000 0.652493 0.500000
O O7 0.070889 0.748403 0.936888
O O8 0.723530 0.500000 0.039057
O O9 0.718997 0.664022 0.297493
O O10 0.644923 0.738417 0.839878
O O11 0.212636 0.245330 0.257449
O O12 0.137125 0.000000 0.065018
O O13 0.413503 0.843686 0.033759
O O14 0.413382 0.000000 0.756875
O O15 0.500000 0.784891 0.000000
O O16 0.355077 0.738417 0.615262
O O17 0.500000 0.215110 0.500000
O O18 0.413382 0.000000 0.310034
O O19 0.276470 0.500000 0.421409
#
# Coordination Sequence:
#
# PCOD9149893 Si02
#       7
#     4   4   4   4   4   4   4
#     4  10  20  35  57  82 104 131 172 216 255 301
#     4  11  24  39  54  76 108 141 170 205 254 308
#     4   9  17  30  50  75 101 130 166 209 254 297
#     4  10  20  35  57  82 104 131 172 216 255 301
#     4   9  17  30  48  70  97 129 165 205 249 298
#     4   9  17  30  48  70  97 129 165 205 249 298
#     4   9  17  30  50  75 101 130 166 209 254 297
#
# _framework density 20.948360000000001
#
# number of rings (size 3 to 8) (size 9 to 14) (size 15 to 20)
#    0.000    2.429    0.000    2.571    0.000    8.571 
#    0.000    1.429    0.000    5.143    0.000    0.000 
#    0.000    0.000    0.000    0.000    0.000    0.000 
#
# Total GULP energy -156397.575739 kJ/mol
# GULP energy per Si atom -5585.627705 kJ/mol
# Density = 2.090068 g / cm^3
# Si number density = 20.948360 Si / 1000 Ang^3
#
#
#
# Elastic Constant Matrix: (Units=GPa)
#
#
# Indices 1 2 3 4 5 6 
#
# 1 63.7874 60.6282 46.4355 0.0000 34.6786 0.0000
# 2 60.6282 211.5486 98.5308 0.0000 69.2717 0.0000
# 3 46.4355 98.5308 115.8362 0.0000 60.4465 0.0000
# 4 0.0000 0.0000 0.0000 -56.3555 0.0000 -48.1121
# 5 34.6786 69.2717 60.4465 0.0000 65.2571 0.0000
# 6 0.0000 0.0000 0.0000 -48.1121 0.0000 -30.0306
#
#
#
# Elastic Compliance Matrix: (Units=1/GPa)
#
#
# Indices 1 2 3 4 5 6 
#
# 1 0.025076 -0.003307 -0.004099 0.000000 -0.006019 0.000000
# 2 -0.003307 0.008890 -0.004314 0.000000 -0.003684 0.000000
# 3 -0.004099 -0.004314 0.020167 0.000000 -0.011923 0.000000
# 4 0.000000 0.000000 0.000000 0.048251 0.000000 -0.077303
# 5 -0.006019 -0.003684 -0.011923 0.000000 0.033477 0.000000
# 6 0.000000 0.000000 0.000000 -0.077303 0.000000 0.090547
#
#
# Mechanical properties :
#
#
# Convention : Reuss Voigt Hill
#
# Bulk Modulus (GPa) = 32.57902 89.15123 60.86513
# Shear Modulus (GPa) = 19.22486 8.14606 13.68546
#
# Velocity S-wave (km/s) = 3.03269 1.97410 2.55874
# Velocity P-wave (km/s) = 5.27719 6.91709 6.15203
#
# Compressibility (1/GPa) = 0.03069460
#
# Stress axis : x y z
#
# Youngs Moduli (GPa) = 39.87871 112.48030 49.58494
#
# Poissons Ratio (x) = 0.37193 0.20323
# Poissons Ratio (y) = 0.13186 0.21393
# Poissons Ratio (z) = 0.16345 0.48529
#
# Static dielectric constant tensor:
#      x y z
#    x 1.763820 0.000000 -0.039420 
#    y 0.000000 1.736650 0.000000 
#    z -0.039420 0.000000 1.742250 
# 
# From -- ./inp_files/37303.got.cif
#   From: 2010.05.17/outbox.cif.g08.bks.cpg/sg10_19_cif.got.tgz:37303.got - 2010.06.03 11:33:40.
