data_PCOD9149973
_publ_section_title
;
Structure prediction by ZEFSAII (Michael W. Deem and Ramdas Pophale) SiO2 
 PCOD9149973
Probable space group: P 2/M
;
_chemical_formula_sum "Si O2"
_cell_formula_units_Z 28
_cell_length_a 26.950734
_cell_length_b 8.899957
_cell_length_c 9.817550
_cell_angle_alpha 90.000000
_cell_angle_beta 38.112200
_cell_angle_gamma 90.000000
_cell_volume 1453.416058
_symmetry_space_group_name_H-M "P 2/M"
_symmetry_group_IT_number 10
_symmetry_cell_setting 'monoclinic'
loop_
_space_group_symop_operation_xyz
x,y,z
-x,y,-z
-x,-y,-z
x,-y,z
loop_
_atom_site_type_symbol
_atom_site_label
_atom_site_fract_x
_atom_site_fract_y
_atom_site_fract_z
Si Si1 0.420982 0.179155 0.260250
Si Si2 0.738991 0.680812 0.517628
Si Si3 0.479359 0.823128 0.702203
Si Si4 0.309178 0.678943 0.083351
Si Si5 0.807756 0.819374 0.865882
Si Si6 0.973558 0.827936 0.397729
Si Si7 0.866570 0.679734 0.021531
O O1 0.341965 0.260829 0.379026
O O2 0.446503 0.215460 0.359610
O O3 0.407741 0.000000 0.277370
O O4 0.500000 0.216017 0.000000
O O5 0.736886 0.500000 0.521823
O O6 0.736891 0.728526 0.679635
O O7 0.815722 0.728224 0.263151
O O8 0.500000 0.804725 0.500000
O O9 0.460675 0.000000 0.767944
O O10 0.401412 0.726017 0.904193
O O11 0.302061 0.500000 0.082512
O O12 0.272498 0.761066 0.031551
O O13 0.882078 0.772923 0.606057
O O14 0.825378 0.750712 0.975924
O O15 0.808810 0.000000 0.874189
O O16 0.000000 0.829673 0.500000
O O17 0.040967 0.732845 0.176118
O O18 0.975313 0.000000 0.345244
O O19 0.863811 0.500000 0.015632
#
# Coordination Sequence:
#
# PCOD9149973 Si02
#       7
#     4   4   4   4   4   4   4
#     4  10  20  36  58  81 105 142 188 225 267 325
#     4  10  23  39  55  80 115 149 183 226 274 326
#     4  10  22  39  57  81 112 143 181 229 277 326
#     4  11  23  39  57  80 112 150 187 225 276 329
#     4  10  21  37  58  83 113 146 183 230 278 325
#     4   8  16  33  55  81 111 144 182 225 274 324
#     4  10  20  35  57  86 114 144 184 227 272 328
#
# _framework density 19.264959000000001
#
# number of rings (size 3 to 8) (size 9 to 14) (size 15 to 20)
#    0.000    2.143    1.429    2.143    2.000    6.000 
#    0.000    0.714    0.000    4.286    0.000    0.000 
#    0.000    0.000    0.000    0.000    0.000    0.000 
#
# Total GULP energy -156277.212516 kJ/mol
# GULP energy per Si atom -5581.329018 kJ/mol
# Density = 1.922111 g / cm^3
# Si number density = 19.264959 Si / 1000 Ang^3
#
#
#
# Elastic Constant Matrix: (Units=GPa)
#
#
# Indices 1 2 3 4 5 6 
#
# 1 28.8279 -0.8093 -17.3058 0.0000 8.5055 0.0000
# 2 -0.8093 26.7715 20.2281 0.0000 6.2571 0.0000
# 3 -17.3058 20.2281 60.4508 0.0000 6.9358 0.0000
# 4 0.0000 0.0000 0.0000 25.1713 0.0000 -15.4121
# 5 8.5055 6.2571 6.9358 0.0000 24.0994 0.0000
# 6 0.0000 0.0000 0.0000 -15.4121 0.0000 2.7353
#
#
#
# Elastic Compliance Matrix: (Units=1/GPa)
#
#
# Indices 1 2 3 4 5 6 
#
# 1 0.053712 -0.008915 0.020961 0.000000 -0.022675 0.000000
# 2 -0.008915 0.053191 -0.019781 0.000000 -0.004971 0.000000
# 3 0.020961 -0.019781 0.030426 0.000000 -0.011019 0.000000
# 4 0.000000 0.000000 0.000000 -0.016215 0.000000 -0.091368
# 5 -0.022675 -0.004971 -0.011019 0.000000 0.053960 0.000000
# 6 0.000000 0.000000 0.000000 -0.091368 0.000000 -0.149223
#
#
# Mechanical properties :
#
#
# Convention : Reuss Voigt Hill
#
# Bulk Modulus (GPa) = 8.20604 13.36405 10.78505
# Shear Modulus (GPa) = 61.02064 17.99701 39.50882
#
# Velocity S-wave (km/s) = 5.63411 3.05976 4.53350
# Velocity P-wave (km/s) = 6.82591 4.40850 5.74578
#
# Compressibility (1/GPa) = 0.12186139
#
# Stress axis : x y z
#
# Youngs Moduli (GPa) = 18.61788 18.80001 32.86623
#
# Poissons Ratio (x) = 0.16759 -0.68891
# Poissons Ratio (y) = 0.16597 0.65012
# Poissons Ratio (z) = -0.39025 0.37188
#
# Static dielectric constant tensor:
#      x y z
#    x 1.646840 0.000000 0.005450 
#    y 0.000000 1.648210 0.000000 
#    z 0.005450 0.000000 1.696500 
# 
# From -- ./inp_files/36998.got.cif
#   From: 2010.05.17/outbox.cif.g08.bks.cpg/sg10_19_cif.got.tgz:36998.got - 2010.06.03 11:33:40.
