data_PCOD9149000
_publ_section_title
;
Structure prediction by ZEFSAII (Michael W. Deem and Ramdas Pophale) SiO2 
 PCOD9149000
Probable space group: P 2/M
;
_chemical_formula_sum "Si O2"
_cell_formula_units_Z 28
_cell_length_a 26.623330
_cell_length_b 8.790200
_cell_length_c 9.716957
_cell_angle_alpha 90.000000
_cell_angle_beta 139.978374
_cell_angle_gamma 90.000000
_cell_volume 1462.359631
_symmetry_space_group_name_H-M "P 2/M"
_symmetry_group_IT_number 10
_symmetry_cell_setting 'monoclinic'
loop_
_space_group_symop_operation_xyz
x,y,z
-x,y,-z
-x,-y,-z
x,-y,z
loop_
_atom_site_type_symbol
_atom_site_label
_atom_site_fract_x
_atom_site_fract_y
_atom_site_fract_z
Si Si1 0.681597 0.679642 0.679949
Si Si2 0.242107 0.818371 0.909175
Si Si3 0.001846 0.819493 0.843021
Si Si4 0.413104 0.316162 0.778197
Si Si5 0.181382 0.820656 0.204447
Si Si6 0.075704 0.319523 0.571742
Si Si7 0.273714 0.181634 0.664869
O O1 0.674922 0.500000 0.688288
O O2 0.613643 0.730587 0.431960
O O3 0.760436 0.718448 0.760975
O O4 0.692152 0.761984 0.847137
O O5 0.157601 0.757657 0.779606
O O6 0.257668 0.763981 0.785683
O O7 0.239338 0.000000 0.903486
O O8 0.944639 0.724862 0.627547
O O9 0.983774 0.000000 0.790898
O O10 0.091200 0.793195 0.985106
O O11 0.000000 0.782217 0.000000
O O12 0.410439 0.500000 0.776019
O O13 0.349001 0.254726 0.750501
O O14 0.500000 0.266311 0.000000
O O15 0.201998 0.793506 0.408441
O O16 0.198075 0.000000 0.211981
O O17 0.083128 0.500000 0.604884
O O18 0.000000 0.266562 0.500000
O O19 0.285591 0.000000 0.696139
#
# Coordination Sequence:
#
# PCOD9149000 Si02
#       7
#     4   4   4   4   4   4   4
#     4  10  20  34  54  79 106 136 172 214 258 309
#     4  11  22  37  56  78 107 142 181 222 267 322
#     4  10  20  34  52  74 101 136 178 223 271 321
#     4   9  19  37  60  85 112 142 175 210 255 316
#     4   9  17  32  53  74  99 134 176 219 264 315
#     4  11  24  38  52  75 107 142 183 230 275 318
#     4   9  19  35  56  82 108 138 178 222 265 311
#
# _framework density 19.147137000000001
#
# number of rings (size 3 to 8) (size 9 to 14) (size 15 to 20)
#    0.000    2.143    0.000    3.000    0.000    8.571 
#    0.000    3.571    0.000    4.286    0.000    0.000 
#    0.000    0.000    0.000    0.000    0.000    0.000 
#
# Total GULP energy -156338.838862 kJ/mol
# GULP energy per Si atom -5583.529959 kJ/mol
# Density = 1.910356 g / cm^3
# Si number density = 19.147137 Si / 1000 Ang^3
#
#
#
# Elastic Constant Matrix: (Units=GPa)
#
#
# Indices 1 2 3 4 5 6 
#
# 1 44.1582 9.5655 35.9021 0.0000 -8.0357 0.0000
# 2 9.5655 20.1917 30.7960 0.0000 0.7374 0.0000
# 3 35.9021 30.7960 128.8794 0.0000 -4.2655 0.0000
# 4 0.0000 0.0000 0.0000 31.9538 0.0000 -3.0819
# 5 -8.0357 0.7374 -4.2655 0.0000 30.1824 0.0000
# 6 0.0000 0.0000 0.0000 -3.0819 0.0000 19.2481
#
#
#
# Elastic Compliance Matrix: (Units=1/GPa)
#
#
# Indices 1 2 3 4 5 6 
#
# 1 0.030821 -0.003358 -0.007545 0.000000 0.007222 0.000000
# 2 -0.003358 0.078919 -0.018100 0.000000 -0.005380 0.000000
# 3 -0.007545 -0.018100 0.014201 0.000000 0.000441 0.000000
# 4 0.000000 0.000000 0.000000 0.031786 0.000000 0.005089
# 5 0.007222 -0.005380 0.000441 0.000000 0.035248 0.000000
# 6 0.000000 0.000000 0.000000 0.005089 0.000000 0.052768
#
#
# Mechanical properties :
#
#
# Convention : Reuss Voigt Hill
#
# Bulk Modulus (GPa) = 15.16652 38.41740 26.79196
# Shear Modulus (GPa) = 15.44507 24.07457 19.75982
#
# Velocity S-wave (km/s) = 2.84324 3.54975 3.21596
# Velocity P-wave (km/s) = 4.32631 6.07527 5.27379
#
# Compressibility (1/GPa) = 0.06593470
#
# Stress axis : x y z
#
# Youngs Moduli (GPa) = 32.44496 12.67123 70.41958
#
# Poissons Ratio (x) = 0.04255 0.53128
# Poissons Ratio (y) = 0.10896 1.27462
# Poissons Ratio (z) = 0.24478 0.22935
#
# Static dielectric constant tensor:
#      x y z
#    x 1.666720 0.000000 -0.029700 
#    y 0.000000 1.646340 0.000000 
#    z -0.029700 0.000000 1.686330 
# 
# From -- ./inp_files/36974.got.cif
#   From: 2010.05.17/outbox.cif.g08.bks.cpg/sg10_19_cif.got.tgz:36974.got - 2010.06.03 11:33:40.
