data_PCOD9149668
_publ_section_title
;
Structure prediction by ZEFSAII (Michael W. Deem and Ramdas Pophale) SiO2 
 PCOD9149668
Probable space group: P 2/M
;
_chemical_formula_sum "Si O2"
_cell_formula_units_Z 24
_cell_length_a 13.619943
_cell_length_b 10.834288
_cell_length_c 20.181676
_cell_angle_alpha 90.000000
_cell_angle_beta 156.353729
_cell_angle_gamma 90.000000
_cell_volume 1194.465420
_symmetry_space_group_name_H-M "P 2/M"
_symmetry_group_IT_number 10
_symmetry_cell_setting 'monoclinic'
loop_
_space_group_symop_operation_xyz
x,y,z
-x,y,-z
-x,-y,-z
x,-y,z
loop_
_atom_site_type_symbol
_atom_site_label
_atom_site_fract_x
_atom_site_fract_y
_atom_site_fract_z
Si Si1 0.095444 0.763726 0.854382
Si Si2 0.967554 0.000000 0.402024
Si Si3 0.579407 0.000000 0.974379
Si Si4 0.577372 0.357427 0.296044
Si Si5 0.405295 0.637925 0.843157
Si Si6 0.159357 0.146970 0.032273
Si Si7 0.043448 0.247494 0.373222
O O1 0.916986 0.750123 0.681434
O O2 0.259269 0.882516 0.939917
O O3 0.303303 0.658196 0.981352
O O4 0.013627 0.795445 0.878591
O O5 0.073862 0.116640 0.428232
O O6 0.000000 0.000000 0.500000
O O7 0.674184 0.000000 0.219301
O O8 0.500000 0.000000 0.000000
O O9 0.480296 0.500000 0.239531
O O10 0.685463 0.344124 0.288539
O O11 0.383286 0.244078 0.180387
O O12 0.781534 0.339158 0.478399
O O13 0.355559 0.500000 0.834233
O O14 0.243083 0.721812 0.790472
O O15 0.224620 0.000000 0.060860
O O16 0.000000 0.149195 0.000000
#
# Coordination Sequence:
#
# PCOD9149668 Si02
#       7
#     4   2   2   4   4   4   4
#     4  11  21  35  57  84 118 156 196 244 292 347
#     4  12  24  30  50  83 120 166 201 223 279 341
#     4  12  18  36  51  81 124 157 191 235 280 346
#     4  10  23  40  61  89 121 159 200 245 296 354
#     4  10  20  35  54  81 122 168 203 230 274 350
#     4  10  23  44  69  89 109 147 201 259 312 361
#     4  12  22  33  53  86 126 160 191 237 289 350
#
# _framework density 20.092669999999998
#
# number of rings (size 3 to 8) (size 9 to 14) (size 15 to 20)
#    0.000    1.167    4.167    2.500    3.500    3.667 
#    0.000    0.833    0.000    3.000    0.000    0.000 
#    0.000    0.000    0.000    0.000    0.000    0.000 
#
# Total GULP energy -133825.657569 kJ/mol
# GULP energy per Si atom -5576.069065 kJ/mol
# Density = 2.004694 g / cm^3
# Si number density = 20.092670 Si / 1000 Ang^3
#
#
#
# Elastic Constant Matrix: (Units=GPa)
#
#
# Indices 1 2 3 4 5 6 
#
# 1 111.9370 24.1752 26.9452 0.0000 -35.6686 0.0000
# 2 24.1752 111.3070 10.9400 0.0000 -0.0983 0.0000
# 3 26.9452 10.9400 67.9632 0.0000 -41.0404 0.0000
# 4 0.0000 0.0000 0.0000 23.5074 0.0000 0.2972
# 5 -35.6686 -0.0983 -41.0404 0.0000 39.7302 0.0000
# 6 0.0000 0.0000 0.0000 0.2972 0.0000 16.2454
#
#
#
# Elastic Compliance Matrix: (Units=1/GPa)
#
#
# Indices 1 2 3 4 5 6 
#
# 1 0.014580 -0.003864 0.007283 0.000000 0.020603 0.000000
# 2 -0.003864 0.010395 -0.005902 0.000000 -0.009541 0.000000
# 3 0.007283 -0.005902 0.044431 0.000000 0.052420 0.000000
# 4 0.000000 0.000000 0.000000 0.042550 0.000000 -0.000779
# 5 0.020603 -0.009541 0.052420 0.000000 0.097792 0.000000
# 6 0.000000 0.000000 0.000000 -0.000779 0.000000 0.061570
#
#
# Mechanical properties :
#
#
# Convention : Reuss Voigt Hill
#
# Bulk Modulus (GPa) = 15.51860 46.14754 30.83307
# Shear Modulus (GPa) = 16.79175 31.17305 23.98240
#
# Velocity S-wave (km/s) = 2.89401 3.94314 3.45858
# Velocity P-wave (km/s) = 4.34826 6.61425 5.59713
#
# Compressibility (1/GPa) = 0.06443880
#
# Stress axis : x y z
#
# Youngs Moduli (GPa) = 68.58571 96.19843 22.50686
#
# Poissons Ratio (x) = 0.37175 -0.16392
# Poissons Ratio (y) = 0.26504 0.13285
# Poissons Ratio (z) = -0.49951 0.56781
#
# Static dielectric constant tensor:
#      x y z
#    x -6.533610 0.000000 8.265440 
#    y 0.000000 1.769090 0.000000 
#    z 8.265440 0.000000 -6.636720 
# 
# From -- ./inp_files/24089.got.cif
#   From: 2010.05.17/outbox.cif.g08.bks.cpg/sg10_13_cif.got.tgz:24089.got - 2010.06.03 11:33:40.
