data_PCOD9149072
_publ_section_title
;
Structure prediction by ZEFSAII (Michael W. Deem and Ramdas Pophale) SiO2 
 PCOD9149072
Probable space group: P 2/M
;
_chemical_formula_sum "Si O2"
_cell_formula_units_Z 24
_cell_length_a 21.801257
_cell_length_b 7.427821
_cell_length_c 8.961502
_cell_angle_alpha 90.000000
_cell_angle_beta 49.724391
_cell_angle_gamma 90.000000
_cell_volume 1107.174832
_symmetry_space_group_name_H-M "P 2/M"
_symmetry_group_IT_number 10
_symmetry_cell_setting 'monoclinic'
loop_
_space_group_symop_operation_xyz
x,y,z
-x,y,-z
-x,-y,-z
x,-y,z
loop_
_atom_site_type_symbol
_atom_site_label
_atom_site_fract_x
_atom_site_fract_y
_atom_site_fract_z
Si Si1 0.744492 0.719746 0.700953
Si Si2 0.908495 0.716926 0.813126
Si Si3 0.266083 0.282133 0.933609
Si Si4 0.918898 0.716963 0.439205
Si Si5 0.571065 0.792392 0.491597
Si Si6 0.417433 0.705227 0.189546
O O1 0.747601 0.500000 0.688417
O O2 0.833480 0.782011 0.510649
O O3 0.667350 0.784122 0.730882
O O4 0.732125 0.767474 0.894283
O O5 0.908404 0.500000 0.832004
O O6 0.913118 0.748993 0.627066
O O7 0.992898 0.784404 0.747774
O O8 0.819815 0.779953 0.998435
O O9 0.267091 0.500000 0.925919
O O10 0.344608 0.216420 0.726455
O O11 0.920558 0.500000 0.417266
O O12 0.500000 0.716860 0.500000
O O13 0.578867 0.701507 0.638782
O O14 0.550270 0.000000 0.555455
O O15 0.416928 0.500000 0.130176
O O16 0.500000 0.789826 0.000000
#
# Coordination Sequence:
#
# PCOD9149072 Si02
#       6
#     4   4   4   4   4   4
#     4   8  14  25  45  74 102 125 152 191 237 280
#     4   7  10  17  35  66  98 124 149 182 226 271
#     4   9  16  29  51  76  99 123 155 194 234 274
#     4   7   9  16  33  63 101 127 145 180 229 273
#     4  11  24  38  50  67  93 125 159 193 233 282
#     4  10  20  34  53  75  96 120 154 195 238 282
#
# _framework density 21.676794999999998
#
# number of rings (size 3 to 8) (size 9 to 14) (size 15 to 20)
#    0.000    3.333    0.000    4.500    0.000    3.000 
#    0.000    0.833    0.000    1.000    0.000   17.500 
#    0.000    0.000    0.000    0.000    0.000    0.000 
#
# Total GULP energy -133716.683119 kJ/mol
# GULP energy per Si atom -5571.528463 kJ/mol
# Density = 2.162746 g / cm^3
# Si number density = 21.676795 Si / 1000 Ang^3
#
#
#
# Elastic Constant Matrix: (Units=GPa)
#
#
# Indices 1 2 3 4 5 6 
#
# 1 193.4892 5.0789 85.4917 0.0000 -61.5541 0.0000
# 2 5.0789 64.8976 -6.4260 0.0000 -2.0634 0.0000
# 3 85.4917 -6.4260 95.8418 0.0000 -44.0289 0.0000
# 4 0.0000 0.0000 0.0000 38.8314 0.0000 -19.3370
# 5 -61.5541 -2.0634 -44.0289 0.0000 44.2589 0.0000
# 6 0.0000 0.0000 0.0000 -19.3370 0.0000 57.9377
#
#
#
# Elastic Compliance Matrix: (Units=1/GPa)
#
#
# Indices 1 2 3 4 5 6 
#
# 1 0.010419 -0.001012 -0.005022 0.000000 0.009448 0.000000
# 2 -0.001012 0.015866 0.003057 0.000000 0.002373 0.000000
# 3 -0.005022 0.003057 0.022054 0.000000 0.015098 0.000000
# 4 0.000000 0.000000 0.000000 0.030886 0.000000 0.010308
# 5 0.009448 0.002373 0.015098 0.000000 0.050865 0.000000
# 6 0.000000 0.000000 0.000000 0.010308 0.000000 0.020700
#
#
# Mechanical properties :
#
#
# Convention : Reuss Voigt Hill
#
# Bulk Modulus (GPa) = 23.59297 58.05752 40.82524
# Shear Modulus (GPa) = 29.26155 46.21120 37.73637
#
# Velocity S-wave (km/s) = 3.67809 4.62218 4.17689
# Velocity P-wave (km/s) = 5.38009 7.43824 6.49126
#
# Compressibility (1/GPa) = 0.04238551
#
# Stress axis : x y z
#
# Youngs Moduli (GPa) = 95.97608 63.02694 45.34332
#
# Poissons Ratio (x) = 0.06380 0.22769
# Poissons Ratio (y) = 0.09715 -0.13860
# Poissons Ratio (z) = 0.48194 -0.19266
#
# Static dielectric constant tensor:
#      x y z
#    x 1.819260 0.000000 -0.064200 
#    y 0.000000 1.821630 0.000000 
#    z -0.064200 0.000000 1.762490 
# 
# From -- ./inp_files/33796.got.cif
#   From: 2010.05.17/outbox.cif.g08.bks.cpg/sg10_17_cif.got.tgz:33796.got - 2010.06.03 11:33:40.
