data_PCOD9149820
_publ_section_title
;
Structure prediction by ZEFSAII (Michael W. Deem and Ramdas Pophale) SiO2 
 PCOD9149820
Probable space group: P 2/M
;
_chemical_formula_sum "Si O2"
_cell_formula_units_Z 32
_cell_length_a 14.280556
_cell_length_b 7.663638
_cell_length_c 23.215354
_cell_angle_alpha 90.000000
_cell_angle_beta 32.641472
_cell_angle_gamma 90.000000
_cell_volume 1370.410238
_symmetry_space_group_name_H-M "P 2/M"
_symmetry_group_IT_number 10
_symmetry_cell_setting 'monoclinic'
loop_
_space_group_symop_operation_xyz
x,y,z
-x,y,-z
-x,-y,-z
x,-y,z
loop_
_atom_site_type_symbol
_atom_site_label
_atom_site_fract_x
_atom_site_fract_y
_atom_site_fract_z
Si Si1 0.245221 0.788076 0.774992
Si Si2 0.129919 0.204713 0.015223
Si Si3 0.890650 0.700597 0.398214
Si Si4 0.343138 0.786917 0.009459
Si Si5 0.176746 0.285334 0.440230
Si Si6 0.309056 0.793452 0.612835
Si Si7 0.723928 0.210892 0.823628
Si Si8 0.450470 0.700366 0.772850
O O1 0.244553 0.731189 0.708642
O O2 0.403686 0.713311 0.729517
O O3 0.260807 0.000000 0.770562
O O4 0.062194 0.727713 0.897877
O O5 0.206020 0.280133 0.034858
O O6 0.286988 0.215246 0.889215
O O7 0.099280 0.000000 0.041275
O O8 0.837760 0.500000 0.424913
O O9 0.824535 0.776918 0.492812
O O10 0.817674 0.773570 0.376050
O O11 0.099198 0.714160 0.292142
O O12 0.539861 0.734125 0.892092
O O13 0.343467 0.000000 0.008338
O O14 0.295021 0.738912 0.099280
O O15 0.178516 0.500000 0.439720
O O16 0.356581 0.227167 0.317703
O O17 0.000000 0.232142 0.500000
O O18 0.500000 0.719933 0.500000
O O19 0.329455 0.000000 0.610571
O O20 0.735909 0.000000 0.814460
O O21 0.450436 0.500000 0.791107
#
# Coordination Sequence:
#
# PCOD9149820 Si02
#       8
#     4   4   4   4   4   4   4   4
#     4  10  21  38  60  85 117 155 186 224 285 349
#     4  10  20  35  56  81 113 152 191 228 281 346
#     4  11  22  35  57  85 112 146 186 230 283 340
#     4   8  16  32  55  80 108 147 189 228 277 335
#     4   9  21  41  59  77 110 155 194 228 283 349
#     4  10  21  38  62  88 114 148 189 234 284 338
#     4   9  17  33  56  80 110 146 185 231 279 332
#     4  11  23  38  59  83 109 148 195 244 286 329
#
# _framework density 23.350671999999999
#
# number of rings (size 3 to 8) (size 9 to 14) (size 15 to 20)
#    0.000    2.250    0.000    3.375    1.750    4.750 
#    0.000    5.000    0.000    3.000    0.000    0.000 
#    0.000    0.000    0.000    0.000    0.000    0.000 
#
# Total GULP energy -178721.687055 kJ/mol
# GULP energy per Si atom -5585.052720 kJ/mol
# Density = 2.329752 g / cm^3
# Si number density = 23.350672 Si / 1000 Ang^3
#
#
#
# Elastic Constant Matrix: (Units=GPa)
#
#
# Indices 1 2 3 4 5 6 
#
# 1 59.9884 -3.8177 16.3708 0.0000 -21.0987 0.0000
# 2 -3.8177 37.5740 -3.4696 0.0000 -0.4509 0.0000
# 3 16.3708 -3.4696 112.3256 0.0000 -22.0931 0.0000
# 4 0.0000 0.0000 0.0000 21.1467 0.0000 1.5247
# 5 -21.0987 -0.4509 -22.0931 0.0000 38.7827 0.0000
# 6 0.0000 0.0000 0.0000 1.5247 0.0000 0.8021
#
#
#
# Elastic Compliance Matrix: (Units=1/GPa)
#
#
# Indices 1 2 3 4 5 6 
#
# 1 0.020871 0.002175 -0.000829 0.000000 0.010907 0.000000
# 2 0.002175 0.026944 0.000912 0.000000 0.002016 0.000000
# 3 -0.000829 0.000912 0.010096 0.000000 0.005311 0.000000
# 4 0.000000 0.000000 0.000000 0.054800 0.000000 -0.104170
# 5 0.010907 0.002016 0.005311 0.000000 0.034767 0.000000
# 6 0.000000 0.000000 0.000000 -0.104170 0.000000 1.444758
#
#
# Mechanical properties :
#
#
# Convention : Reuss Voigt Hill
#
# Bulk Modulus (GPa) = 16.01915 25.33944 20.67930
# Shear Modulus (GPa) = 3.10843 25.53328 14.32086
#
# Velocity S-wave (km/s) = 1.15503 3.31035 2.47917
# Velocity P-wave (km/s) = 2.94176 5.04842 4.13161
#
# Compressibility (1/GPa) = 0.06242529
#
# Stress axis : x y z
#
# Youngs Moduli (GPa) = 47.91390 37.11466 99.04601
#
# Poissons Ratio (x) = -0.08072 0.08214
# Poissons Ratio (y) = -0.10421 -0.09031
# Poissons Ratio (z) = 0.03974 -0.03384
#
# Static dielectric constant tensor:
#      x y z
#    x 1.877350 0.000000 0.016540 
#    y 0.000000 1.871240 0.000000 
#    z 0.016540 0.000000 1.888290 
# 
# From -- ./inp_files/89359.got.cif
#   From: 2010.05.17/outbox.cif.g08.bks.cpg/sg10_45_cif.got.tgz:89359.got - 2010.06.03 11:33:40.
