data_PCOD9149759
_publ_section_title
;
Structure prediction by ZEFSAII (Michael W. Deem and Ramdas Pophale) SiO2 
 PCOD9149759
Probable space group: P 2/M
;
_chemical_formula_sum "Si O2"
_cell_formula_units_Z 24
_cell_length_a 9.180719
_cell_length_b 11.810774
_cell_length_c 24.212272
_cell_angle_alpha 90.000000
_cell_angle_beta 151.447611
_cell_angle_gamma 90.000000
_cell_volume 1254.827633
_symmetry_space_group_name_H-M "P 2/M"
_symmetry_group_IT_number 10
_symmetry_cell_setting 'monoclinic'
loop_
_space_group_symop_operation_xyz
x,y,z
-x,y,-z
-x,-y,-z
x,-y,z
loop_
_atom_site_type_symbol
_atom_site_label
_atom_site_fract_x
_atom_site_fract_y
_atom_site_fract_z
Si Si1 0.296125 0.220985 0.279268
Si Si2 0.637712 0.132841 0.879344
Si Si3 0.226563 0.000000 0.330534
Si Si4 0.603027 0.635334 0.472333
Si Si5 0.792198 0.773557 0.350628
Si Si6 0.752463 0.870754 0.037542
Si Si7 0.081505 0.000000 0.404654
O O1 0.212408 0.109815 0.287247
O O2 0.364165 0.316406 0.347674
O O3 0.605676 0.221043 0.345652
O O4 0.017125 0.217125 0.142437
O O5 0.462832 0.220121 0.782434
O O6 0.583908 0.000000 0.845043
O O7 0.568517 0.151757 0.920256
O O8 0.000000 0.148397 0.000000
O O9 0.025506 0.000000 0.319512
O O10 0.563212 0.000000 0.466520
O O11 0.500000 0.673596 0.500000
O O12 0.604533 0.500000 0.471933
O O13 0.942240 0.681241 0.569807
O O14 0.960233 0.890888 0.395173
O O15 0.882117 0.000000 0.074256
O O16 0.500000 0.872838 0.000000
#
# Coordination Sequence:
#
# PCOD9149759 Si02
#       7
#     4   4   2   4   4   4   2
#     4  12  23  38  63  92 127 160 204 257 304 367
#     4  10  20  35  55  86 133 170 197 235 290 364
#     4  11  23  35  53  87 132 163 203 242 301 377
#     4  11  27  48  67  87 115 158 210 265 319 368
#     4  12  23  37  64  92 125 164 202 253 309 365
#     4  10  22  35  55  90 131 172 203 237 288 363
#     4  11  23  35  53  89 126 170 199 239 309 372
#
# _framework density 19.126134
#
# number of rings (size 3 to 8) (size 9 to 14) (size 15 to 20)
#    0.000    1.000    5.000    2.000    4.667    2.000 
#    0.000    0.000    0.000    2.000    0.000    0.000 
#    0.000    0.000    0.000    0.000    0.000    0.000 
#
# Total GULP energy -133822.156026 kJ/mol
# GULP energy per Si atom -5575.923168 kJ/mol
# Density = 1.908260 g / cm^3
# Si number density = 19.126134 Si / 1000 Ang^3
#
#
#
# Elastic Constant Matrix: (Units=GPa)
#
#
# Indices 1 2 3 4 5 6 
#
# 1 118.6187 22.7378 7.4761 0.0000 -9.0861 0.0000
# 2 22.7378 66.9596 22.1373 0.0000 -4.4026 0.0000
# 3 7.4761 22.1373 88.6752 0.0000 -3.9342 0.0000
# 4 0.0000 0.0000 0.0000 10.6834 0.0000 -3.1790
# 5 -9.0861 -4.4026 -3.9342 0.0000 39.9143 0.0000
# 6 0.0000 0.0000 0.0000 -3.1790 0.0000 13.6310
#
#
#
# Elastic Compliance Matrix: (Units=1/GPa)
#
#
# Indices 1 2 3 4 5 6 
#
# 1 0.009137 -0.003007 0.000058 0.000000 0.001754 0.000000
# 2 -0.003007 0.017346 -0.004040 0.000000 0.000831 0.000000
# 3 0.000058 -0.004040 0.012315 0.000000 0.000782 0.000000
# 4 0.000000 0.000000 0.000000 0.100583 0.000000 0.023458
# 5 0.001754 0.000831 0.000782 0.000000 0.025622 0.000000
# 6 0.000000 0.000000 0.000000 0.023458 0.000000 0.078833
#
#
# Mechanical properties :
#
#
# Convention : Reuss Voigt Hill
#
# Bulk Modulus (GPa) = 40.28782 42.10620 41.19701
# Shear Modulus (GPa) = 18.79086 27.63923 23.21505
#
# Velocity S-wave (km/s) = 3.13784 3.80558 3.48772
# Velocity P-wave (km/s) = 5.85133 6.43216 6.14861
#
# Compressibility (1/GPa) = 0.02482140
#
# Stress axis : x y z
#
# Youngs Moduli (GPa) = 109.44000 57.65151 81.19903
#
# Poissons Ratio (x) = 0.17334 -0.00472
# Poissons Ratio (y) = 0.32905 0.32804
# Poissons Ratio (z) = -0.00636 0.23291
#
# Static dielectric constant tensor:
#      x y z
#    x 1.770900 0.000000 -0.032290 
#    y 0.000000 1.629890 0.000000 
#    z -0.032290 0.000000 1.758180 
# 
# From -- ./inp_files/88142.got.cif
#   From: 2010.05.17/outbox.cif.g08.bks.cpg/sg10_45_cif.got.tgz:88142.got - 2010.06.03 11:33:40.
