data_PCOD9149120
_publ_section_title
;
Structure prediction by ZEFSAII (Michael W. Deem and Ramdas Pophale) SiO2 
 PCOD9149120
Probable space group: P 2/M
;
_chemical_formula_sum "Si O2"
_cell_formula_units_Z 32
_cell_length_a 15.827450
_cell_length_b 24.761491
_cell_length_c 9.252204
_cell_angle_alpha 90.000000
_cell_angle_beta 27.008983
_cell_angle_gamma 90.000000
_cell_volume 1646.695562
_symmetry_space_group_name_H-M "P 2/M"
_symmetry_group_IT_number 10
_symmetry_cell_setting 'monoclinic'
loop_
_space_group_symop_operation_xyz
x,y,z
-x,y,-z
-x,-y,-z
x,-y,z
loop_
_atom_site_type_symbol
_atom_site_label
_atom_site_fract_x
_atom_site_fract_y
_atom_site_fract_z
Si Si1 0.655449 0.062253 0.372874
Si Si2 0.296163 0.659098 0.240633
Si Si3 0.195499 0.133679 0.611470
Si Si4 0.469716 0.337616 0.375337
Si Si5 0.035986 0.439997 0.614078
Si Si6 0.201306 0.741981 0.618979
Si Si7 0.959668 0.062085 0.394108
Si Si8 0.794901 0.561728 0.240232
O O1 0.500000 0.082363 0.500000
O O2 0.671408 0.098405 0.489994
O O3 0.613837 0.000000 0.475526
O O4 0.847850 0.062107 0.989890
O O5 0.175661 0.606162 0.448652
O O6 0.203551 0.708819 0.465650
O O7 0.500000 0.653720 0.000000
O O8 0.338244 0.665361 0.006851
O O9 0.252342 0.195897 0.513390
O O10 0.166184 0.103995 0.503135
O O11 0.000000 0.133413 0.000000
O O12 0.500000 0.336121 0.500000
O O13 0.344418 0.288204 0.507671
O O14 0.356748 0.392239 0.503211
O O15 0.111294 0.500000 0.531025
O O16 0.000000 0.435701 0.500000
O O17 0.845357 0.435364 0.993399
O O18 0.000000 0.739212 0.000000
O O19 0.000000 0.075710 0.500000
O O20 0.887517 0.000000 0.500236
O O21 0.737600 0.500000 0.362436
O O22 0.000000 0.570905 0.000000
#
# Coordination Sequence:
#
# PCOD9149120 Si02
#       8
#     4   4   4   4   4   4   4   4
#     4   9  17  31  53  82 113 143 176 214 261 318
#     4  10  21  36  54  76 103 135 172 213 263 314
#     4   9  18  34  56  78 102 142 185 220 263 314
#     4  11  22  36  55  79 107 137 174 221 272 318
#     4  10  20  34  53  78 105 132 166 208 256 312
#     4  10  21  39  57  73 101 140 184 224 261 315
#     4   9  17  32  54  81 112 141 175 218 262 314
#     4  10  20  35  56  79 105 139 174 209 259 323
#
# _framework density 19.432856999999998
#
# number of rings (size 3 to 8) (size 9 to 14) (size 15 to 20)
#    0.000    2.250    0.000    3.750    0.000    3.000 
#    0.000    8.750    0.000    3.000    0.000    0.000 
#    0.000    0.000    0.000    0.000    0.000    0.000 
#
# Total GULP energy -178552.541839 kJ/mol
# GULP energy per Si atom -5579.766932 kJ/mol
# Density = 1.938863 g / cm^3
# Si number density = 19.432857 Si / 1000 Ang^3
#
#
#
# Elastic Constant Matrix: (Units=GPa)
#
#
# Indices 1 2 3 4 5 6 
#
# 1 113.0510 84.7206 25.0403 0.0000 25.1951 0.0000
# 2 84.7206 159.3110 38.3516 0.0000 6.2314 0.0000
# 3 25.0403 38.3516 43.4638 0.0000 18.2597 0.0000
# 4 0.0000 0.0000 0.0000 -10.5295 0.0000 3.7329
# 5 25.1951 6.2314 18.2597 0.0000 32.4639 0.0000
# 6 0.0000 0.0000 0.0000 3.7329 0.0000 6.1413
#
#
#
# Elastic Compliance Matrix: (Units=1/GPa)
#
#
# Indices 1 2 3 4 5 6 
#
# 1 0.019471 -0.010970 0.005141 0.000000 -0.015897 0.000000
# 2 -0.010970 0.014409 -0.011535 0.000000 0.012236 0.000000
# 3 0.005141 -0.011535 0.040552 0.000000 -0.024585 0.000000
# 4 0.000000 0.000000 0.000000 -0.078134 0.000000 0.047492
# 5 -0.015897 0.012236 -0.024585 0.000000 0.054621 0.000000
# 6 0.000000 0.000000 0.000000 0.047492 0.000000 0.133964
#
#
# Mechanical properties :
#
#
# Convention : Reuss Voigt Hill
#
# Bulk Modulus (GPa) = 25.18605 68.00563 46.59584
# Shear Modulus (GPa) = 21.47343 16.79603 19.13473
#
# Velocity S-wave (km/s) = 3.32777 2.94311 3.14133
# Velocity P-wave (km/s) = 5.26821 6.82791 6.09813
#
# Compressibility (1/GPa) = 0.03970452
#
# Stress axis : x y z
#
# Youngs Moduli (GPa) = 51.35847 69.40017 24.65954
#
# Poissons Ratio (x) = 0.76135 -0.12678
# Poissons Ratio (y) = 0.56342 0.28444
# Poissons Ratio (z) = -0.26404 0.80051
#
# Static dielectric constant tensor:
#      x y z
#    x 1.705090 0.000000 0.023980 
#    y 0.000000 1.668930 0.000000 
#    z 0.023980 0.000000 1.703740 
# 
# From -- ./inp_files/30573.got.cif
#   From: 2010.05.17/outbox.cif.g08.bks.cpg/sg10_16_cif.got.tgz:30573.got - 2010.06.03 11:33:40.
