data_PCOD9149928
_publ_section_title
;
Structure prediction by ZEFSAII (Michael W. Deem and Ramdas Pophale) SiO2 
 PCOD9149928
Probable space group: P 2/M
;
_chemical_formula_sum "Si O2"
_cell_formula_units_Z 28
_cell_length_a 29.829252
_cell_length_b 8.992667
_cell_length_c 9.486185
_cell_angle_alpha 90.000000
_cell_angle_beta 37.666448
_cell_angle_gamma 90.000000
_cell_volume 1554.922971
_symmetry_space_group_name_H-M "P 2/M"
_symmetry_group_IT_number 10
_symmetry_cell_setting 'monoclinic'
loop_
_space_group_symop_operation_xyz
x,y,z
-x,y,-z
-x,-y,-z
x,-y,z
loop_
_atom_site_type_symbol
_atom_site_label
_atom_site_fract_x
_atom_site_fract_y
_atom_site_fract_z
Si Si1 0.496703 0.177028 0.173753
Si Si2 0.627597 0.323528 0.015574
Si Si3 0.203728 0.321306 0.390112
Si Si4 0.068897 0.179031 0.232112
Si Si5 0.207928 0.821692 0.076133
Si Si6 0.069255 0.678959 0.924097
Si Si7 0.364557 0.322884 0.671999
O O1 0.570245 0.232765 0.067054
O O2 0.427918 0.256688 0.417831
O O3 0.489280 0.000000 0.208492
O O4 0.500000 0.212395 0.000000
O O5 0.616542 0.500000 0.019330
O O6 0.616885 0.295308 0.209185
O O7 0.712723 0.287204 0.772868
O O8 0.200318 0.500000 0.375124
O O9 0.189378 0.241277 0.277394
O O10 0.143560 0.280651 0.655757
O O11 0.143761 0.218731 0.127070
O O12 0.000000 0.225348 0.500000
O O13 0.066365 0.000000 0.225383
O O14 0.065454 0.249368 0.086739
O O15 0.213589 0.000000 0.068491
O O16 0.286003 0.752077 0.839818
O O17 0.067773 0.500000 0.942309
O O18 0.000000 0.722727 0.000000
O O19 0.358678 0.500000 0.668519
#
# Coordination Sequence:
#
# PCOD9149928 Si02
#       7
#     4   4   4   4   4   4   4
#     4  11  24  38  53  79 113 144 179 225 271 318
#     4   9  19  36  57  80 106 140 182 223 267 325
#     4   9  19  36  56  81 112 142 178 225 273 324
#     4  10  22  38  55  79 112 148 185 225 271 326
#     4  10  20  35  57  84 111 141 181 225 269 322
#     4  10  21  36  56  83 112 144 186 232 273 318
#     4  10  21  38  60  83 108 141 181 223 270 326
#
# _framework density 18.007321999999998
#
# number of rings (size 3 to 8) (size 9 to 14) (size 15 to 20)
#    0.000    2.143    0.000    3.429    0.000    9.143 
#    0.000    2.857    0.000    0.000    0.000    0.000 
#    0.000    0.000    0.000    0.000    0.000    0.000 
#
# Total GULP energy -156392.531553 kJ/mol
# GULP energy per Si atom -5585.447555 kJ/mol
# Density = 1.796634 g / cm^3
# Si number density = 18.007322 Si / 1000 Ang^3
#
#
#
# Elastic Constant Matrix: (Units=GPa)
#
#
# Indices 1 2 3 4 5 6 
#
# 1 168.2606 72.4091 109.6490 0.0000 -6.3292 0.0000
# 2 72.4091 48.7801 66.2881 0.0000 -0.6268 0.0000
# 3 109.6490 66.2881 181.5597 0.0000 4.0298 0.0000
# 4 0.0000 0.0000 0.0000 31.6456 0.0000 4.6218
# 5 -6.3292 -0.6268 4.0298 0.0000 13.8628 0.0000
# 6 0.0000 0.0000 0.0000 4.6218 0.0000 36.9336
#
#
#
# Elastic Compliance Matrix: (Units=1/GPa)
#
#
# Indices 1 2 3 4 5 6 
#
# 1 0.017623 -0.022550 -0.002582 0.000000 0.007777 0.000000
# 2 -0.022550 0.070077 -0.011885 0.000000 -0.003672 0.000000
# 3 -0.002582 -0.011885 0.011519 0.000000 -0.005065 0.000000
# 4 0.000000 0.000000 0.000000 0.032188 0.000000 -0.004028
# 5 0.007777 -0.003672 -0.005065 0.000000 0.076993 0.000000
# 6 0.000000 0.000000 0.000000 -0.004028 0.000000 0.027580
#
#
# Mechanical properties :
#
#
# Convention : Reuss Voigt Hill
#
# Bulk Modulus (GPa) = 39.70817 99.47698 69.59258
# Shear Modulus (GPa) = 15.70306 26.50534 21.10420
#
# Velocity S-wave (km/s) = 2.95623 3.84072 3.42713
# Velocity P-wave (km/s) = 5.80960 8.66202 7.37503
#
# Compressibility (1/GPa) = 0.02518373
#
# Stress axis : x y z
#
# Youngs Moduli (GPa) = 56.74542 14.27000 86.81116
#
# Poissons Ratio (x) = 0.32178 0.22418
# Poissons Ratio (y) = 1.27959 1.03179
# Poissons Ratio (z) = 0.14654 0.16961
#
# Static dielectric constant tensor:
#      x y z
#    x 1.585030 0.000000 -0.012970 
#    y 0.000000 1.600930 0.000000 
#    z -0.012970 0.000000 1.601030 
# 
# From -- ./inp_files/36820.got.cif
#   From: 2010.05.17/outbox.cif.g08.bks.cpg/sg10_19_cif.got.tgz:36820.got - 2010.06.03 11:33:40.
