data_PCOD9149659
_publ_section_title
;
Structure prediction by ZEFSAII (Michael W. Deem and Ramdas Pophale) SiO2 
 PCOD9149659
Probable space group: P 2/M
;
_chemical_formula_sum "Si O2"
_cell_formula_units_Z 28
_cell_length_a 30.983996
_cell_length_b 7.875067
_cell_length_c 9.501171
_cell_angle_alpha 90.000000
_cell_angle_beta 40.104739
_cell_angle_gamma 90.000000
_cell_volume 1493.415675
_symmetry_space_group_name_H-M "P 2/M"
_symmetry_group_IT_number 10
_symmetry_cell_setting 'monoclinic'
loop_
_space_group_symop_operation_xyz
x,y,z
-x,y,-z
-x,-y,-z
x,-y,z
loop_
_atom_site_type_symbol
_atom_site_label
_atom_site_fract_x
_atom_site_fract_y
_atom_site_fract_z
Si Si1 0.328323 0.698964 0.509880
Si Si2 0.803200 0.295142 0.343212
Si Si3 0.208952 0.193661 0.304562
Si Si4 0.430416 0.000000 0.592203
Si Si5 0.078469 0.705418 0.461290
Si Si6 0.569530 0.000000 0.744925
Si Si7 0.927325 0.292772 0.848452
Si Si8 0.334107 0.311854 0.827343
O O1 0.345100 0.500000 0.440118
O O2 0.261703 0.743290 0.589414
O O3 0.315057 0.713686 0.710520
O O4 0.386727 0.832209 0.329800
O O5 0.807355 0.500000 0.343024
O O6 0.795831 0.225300 0.517777
O O7 0.870320 0.234044 0.097149
O O8 0.137657 0.230199 0.410946
O O9 0.227506 0.000000 0.230261
O O10 0.267416 0.301512 0.086557
O O11 0.500000 0.000000 0.500000
O O12 0.441862 0.000000 0.395125
O O13 0.386239 0.165837 0.737043
O O14 0.079931 0.500000 0.461100
O O15 0.088018 0.757502 0.274422
O O16 0.003459 0.759647 0.692150
O O17 0.500000 0.000000 0.000000
O O18 0.926786 0.500000 0.850972
O O19 0.364053 0.500000 0.765571
#
# Coordination Sequence:
#
# PCOD9149659 Si02
#       8
#     4   4   4   2   4   2   4   4
#     4   9  20  38  63  87 112 148 196 236 276 335
#     4  10  20  35  54  81 110 145 189 239 291 341
#     4  12  24  35  50  80 116 151 190 239 289 342
#     4  10  22  40  60  92 125 150 189 230 272 341
#     4   9  17  34  58  80 103 142 189 240 291 344
#     4  10  22  38  60  88 121 156 183 224 280 329
#     4   8  16  33  58  81 103 137 192 242 287 345
#     4  10  20  40  64  86 114 154 195 238 282 332
#
# _framework density 18.748964999999998
#
# number of rings (size 3 to 8) (size 9 to 14) (size 15 to 20)
#    0.000    2.286    0.714    3.000    1.000    4.571 
#    0.000    5.714    0.000    0.000    0.000    0.000 
#    0.000    0.000    0.000    0.000    0.000    0.000 
#
# Total GULP energy -156316.651771 kJ/mol
# GULP energy per Si atom -5582.737563 kJ/mol
# Density = 1.870629 g / cm^3
# Si number density = 18.748965 Si / 1000 Ang^3
#
#
#
# Elastic Constant Matrix: (Units=GPa)
#
#
# Indices 1 2 3 4 5 6 
#
# 1 114.9383 47.8081 54.6283 0.0000 -21.8571 0.0000
# 2 47.8081 74.8149 48.4625 0.0000 -7.6997 0.0000
# 3 54.6283 48.4625 139.2474 0.0000 -9.3543 0.0000
# 4 0.0000 0.0000 0.0000 24.7373 0.0000 2.0447
# 5 -21.8571 -7.6997 -9.3543 0.0000 16.8024 0.0000
# 6 0.0000 0.0000 0.0000 2.0447 0.0000 33.6144
#
#
#
# Elastic Compliance Matrix: (Units=1/GPa)
#
#
# Indices 1 2 3 4 5 6 
#
# 1 0.015855 -0.006652 -0.002830 0.000000 0.016001 0.000000
# 2 -0.006652 0.020419 -0.004622 0.000000 -0.001869 0.000000
# 3 -0.002830 -0.004622 0.009880 0.000000 -0.000299 0.000000
# 4 0.000000 0.000000 0.000000 0.040629 0.000000 -0.002471
# 5 0.016001 -0.001869 -0.000299 0.000000 0.079307 0.000000
# 6 0.000000 0.000000 0.000000 -0.002471 0.000000 0.029900
#
#
# Mechanical properties :
#
#
# Convention : Reuss Voigt Hill
#
# Bulk Modulus (GPa) = 55.72366 70.08870 62.90618
# Shear Modulus (GPa) = 21.72213 26.90426 24.31320
#
# Velocity S-wave (km/s) = 3.40748 3.79221 3.60498
# Velocity P-wave (km/s) = 6.72805 7.52585 7.13810
#
# Compressibility (1/GPa) = 0.01794570
#
# Stress axis : x y z
#
# Youngs Moduli (GPa) = 63.07168 48.97482 101.21006
#
# Poissons Ratio (x) = 0.32576 0.28645
# Poissons Ratio (y) = 0.41952 0.46784
# Poissons Ratio (z) = 0.17851 0.22638
#
# Static dielectric constant tensor:
#      x y z
#    x 1.610390 0.000000 0.007130 
#    y 0.000000 1.670160 0.000000 
#    z 0.007130 0.000000 1.623330 
# 
# From -- ./inp_files/37169.got.cif
#   From: 2010.05.17/outbox.cif.g08.bks.cpg/sg10_19_cif.got.tgz:37169.got - 2010.06.03 11:33:40.
