data_PCOD9149822
_publ_section_title
;
Structure prediction by ZEFSAII (Michael W. Deem and Ramdas Pophale) SiO2 
 PCOD9149822
Probable space group: P 2/M
;
_chemical_formula_sum "Si O2"
_cell_formula_units_Z 32
_cell_length_a 14.644085
_cell_length_b 7.442358
_cell_length_c 14.630813
_cell_angle_alpha 90.000000
_cell_angle_beta 112.179563
_cell_angle_gamma 90.000000
_cell_volume 1476.572343
_symmetry_space_group_name_H-M "P 2/M"
_symmetry_group_IT_number 10
_symmetry_cell_setting 'monoclinic'
loop_
_space_group_symop_operation_xyz
x,y,z
-x,y,-z
-x,-y,-z
x,-y,z
loop_
_atom_site_type_symbol
_atom_site_label
_atom_site_fract_x
_atom_site_fract_y
_atom_site_fract_z
Si Si1 0.606594 0.711255 0.065685
Si Si2 0.587176 0.217166 0.411263
Si Si3 0.980070 0.217142 0.206874
Si Si4 0.284622 0.290535 0.716076
Si Si5 0.178259 0.780268 0.179288
Si Si6 0.633467 0.218871 0.632590
Si Si7 0.066894 0.288996 0.606191
Si Si8 0.792896 0.217037 0.018359
O O1 0.590130 0.500000 0.078306
O O2 0.657745 0.789499 0.175737
O O3 0.686410 0.728063 0.015534
O O4 0.500000 0.788307 0.000000
O O5 0.649005 0.280429 0.348683
O O6 0.632781 0.274017 0.525989
O O7 0.472548 0.273994 0.366763
O O8 0.587964 0.000000 0.410449
O O9 0.982235 0.272993 0.313077
O O10 0.879502 0.278996 0.119492
O O11 0.076261 0.276759 0.187534
O O12 0.979195 0.000000 0.204844
O O13 0.267435 0.500000 0.732793
O O14 0.176842 0.210485 0.656838
O O15 0.272674 0.721638 0.274062
O O16 0.178215 0.000000 0.179200
O O17 0.187147 0.722972 0.077509
O O18 0.634315 0.000000 0.633418
O O19 0.079536 0.500000 0.589044
O O20 0.000000 0.211561 0.500000
O O21 0.795383 0.000000 0.019200
#
# Coordination Sequence:
#
# PCOD9149822 Si02
#       8
#     4   4   4   4   4   4   4   4
#     4  10  22  39  57  77 107 146 182 219 268 321
#     4   9  18  32  54  78 105 137 175 214 256 315
#     4  10  20  35  56  82 109 138 176 221 267 318
#     4  10  21  37  55  77 107 142 174 216 273 318
#     4   9  18  32  53  78 108 139 170 215 270 313
#     4   8  16  32  50  76 108 139 169 211 266 313
#     4  10  22  39  57  77 107 146 182 219 268 321
#     4  10  20  35  56  82 109 138 176 221 267 318
#
# _framework density 21.671814000000001
#
# number of rings (size 3 to 8) (size 9 to 14) (size 15 to 20)
#    0.000    2.500    1.250    1.125    3.500    3.000 
#    0.000    1.875    0.000    3.000    0.000    0.000 
#    0.000    0.000    0.000    0.000    0.000    0.000 
#
# Total GULP energy -178767.570014 kJ/mol
# GULP energy per Si atom -5586.486563 kJ/mol
# Density = 2.162249 g / cm^3
# Si number density = 21.671814 Si / 1000 Ang^3
#
#
#
# Elastic Constant Matrix: (Units=GPa)
#
#
# Indices 1 2 3 4 5 6 
#
# 1 130.1187 -13.1077 163.9408 0.0000 -13.4393 0.0000
# 2 -13.1077 64.8015 2.2666 0.0000 14.0863 0.0000
# 3 163.9408 2.2666 94.6694 0.0000 58.3956 0.0000
# 4 0.0000 0.0000 0.0000 -3.7037 0.0000 -17.0781
# 5 -13.4393 14.0863 58.3956 0.0000 22.1012 0.0000
# 6 0.0000 0.0000 0.0000 -17.0781 0.0000 16.0892
#
#
#
# Elastic Compliance Matrix: (Units=1/GPa)
#
#
# Indices 1 2 3 4 5 6 
#
# 1 0.001678 0.002671 0.004048 0.000000 -0.011379 0.000000
# 2 0.002671 0.017356 -0.001238 0.000000 -0.006166 0.000000
# 3 0.004048 -0.001238 -0.002503 0.000000 0.009866 0.000000
# 4 0.000000 0.000000 0.000000 -0.045805 0.000000 -0.048621
# 5 -0.011379 -0.006166 0.009866 0.000000 0.016191 0.000000
# 6 0.000000 0.000000 0.000000 -0.048621 0.000000 0.010544
#
#
# Mechanical properties :
#
#
# Convention : Reuss Voigt Hill
#
# Bulk Modulus (GPa) = 36.37140 66.19879 51.28509
# Shear Modulus (GPa) = -1152.43033 15.99667 -568.21683
#
# Velocity S-wave (km/s) = -23.08504 2.71981 -16.20990
# Velocity P-wave (km/s) = 26.33893 6.36203 18.07296
#
# Compressibility (1/GPa) = 0.02749413
#
# Stress axis : x y z
#
# Youngs Moduli (GPa) = 595.81933 57.61777 -399.44499
#
# Poissons Ratio (x) = -0.15392 1.61713
# Poissons Ratio (y) = -1.59165 -0.49454
# Poissons Ratio (z) = -2.41214 0.07133
#
# Static dielectric constant tensor:
#      x y z
#    x 1.738250 0.000000 0.031110 
#    y 0.000000 1.822640 0.000000 
#    z 0.031110 0.000000 1.773570 
# 
# From -- ./inp_files/66572.got.cif
#   From: 2010.05.17/outbox.cif.g08.bks.cpg/sg10_34_cif.got.tgz:66572.got - 2010.06.03 11:33:40.
