data_PCOD9149318
_publ_section_title
;
Structure prediction by ZEFSAII (Michael W. Deem and Ramdas Pophale) SiO2 
 PCOD9149318
Probable space group: P 2/M
;
_chemical_formula_sum "Si O2"
_cell_formula_units_Z 28
_cell_length_a 23.974367
_cell_length_b 8.065075
_cell_length_c 21.212083
_cell_angle_alpha 90.000000
_cell_angle_beta 18.986111
_cell_angle_gamma 90.000000
_cell_volume 1334.365881
_symmetry_space_group_name_H-M "P 2/M"
_symmetry_group_IT_number 10
_symmetry_cell_setting 'monoclinic'
loop_
_space_group_symop_operation_xyz
x,y,z
-x,y,-z
-x,-y,-z
x,-y,z
loop_
_atom_site_type_symbol
_atom_site_label
_atom_site_fract_x
_atom_site_fract_y
_atom_site_fract_z
Si Si1 0.140471 0.801824 0.026593
Si Si2 0.515802 0.809755 0.052372
Si Si3 0.513672 0.301731 0.413751
Si Si4 0.350326 0.188489 0.353568
Si Si5 0.085242 0.810716 0.345995
Si Si6 0.754947 0.799769 0.402475
Si Si7 0.007992 0.688345 0.292013
O O1 0.955107 0.746246 0.195126
O O2 0.148313 0.727895 0.088924
O O3 0.135639 0.000000 0.036597
O O4 0.307416 0.754125 0.808705
O O5 0.714703 0.820310 0.854509
O O6 0.443697 0.000000 0.123978
O O7 0.500000 0.731715 0.000000
O O8 0.430628 0.730691 0.205332
O O9 0.500000 0.238281 0.500000
O O10 0.514617 0.500000 0.414217
O O11 0.349995 0.248087 0.547122
O O12 0.353079 0.262382 0.420785
O O13 0.148039 0.189009 0.555912
O O14 0.420578 0.000000 0.281751
O O15 0.000000 0.738275 0.500000
O O16 0.059263 0.715284 0.309032
O O17 0.017488 0.000000 0.410618
O O18 0.756742 0.000000 0.404905
O O19 0.948931 0.500000 0.346033
#
# Coordination Sequence:
#
# PCOD9149318 Si02
#       7
#     4   4   4   4   4   4   4
#     4  10  22  42  67  92 121 160 210 259 303 358
#     4   9  17  30  52  80 108 142 189 243 291 340
#     4  11  25  42  62  93 132 168 201 246 308 377
#     4   9  18  35  57  82 110 147 196 245 295 350
#     4  10  20  34  55  81 110 150 197 245 296 351
#     4   9  20  38  62  91 120 159 209 262 307 355
#     4  11  22  36  56  84 116 151 190 240 305 365
#
# _framework density 20.983751000000002
#
# number of rings (size 3 to 8) (size 9 to 14) (size 15 to 20)
#    0.000    2.143    0.000    3.857    2.000    7.143 
#    0.000    3.571    0.000    1.714    0.000    0.000 
#    0.000    0.000    0.000    0.000    0.000    0.000 
#
# Total GULP energy -156163.113868 kJ/mol
# GULP energy per Si atom -5577.254067 kJ/mol
# Density = 2.093599 g / cm^3
# Si number density = 20.983751 Si / 1000 Ang^3
#
#
#
# Elastic Constant Matrix: (Units=GPa)
#
#
# Indices 1 2 3 4 5 6 
#
# 1 152.2898 17.6121 42.9648 0.0000 22.2656 0.0000
# 2 17.6121 45.6316 8.3623 0.0000 3.2777 0.0000
# 3 42.9648 8.3623 97.7140 0.0000 26.0634 0.0000
# 4 0.0000 0.0000 0.0000 11.1431 0.0000 2.6911
# 5 22.2656 3.2777 26.0634 0.0000 33.9378 0.0000
# 6 0.0000 0.0000 0.0000 2.6911 0.0000 -15.9409
#
#
#
# Elastic Compliance Matrix: (Units=1/GPa)
#
#
# Indices 1 2 3 4 5 6 
#
# 1 0.008000 -0.002409 -0.002482 0.000000 -0.003110 0.000000
# 2 -0.002409 0.023010 -0.000929 0.000000 0.000072 0.000000
# 3 -0.002482 -0.000929 0.013766 0.000000 -0.008854 0.000000
# 4 0.000000 0.000000 0.000000 0.086226 0.000000 0.014556
# 5 -0.003110 0.000072 -0.008854 0.000000 0.038299 0.000000
# 6 0.000000 0.000000 0.000000 0.014556 0.000000 -0.060274
#
#
# Mechanical properties :
#
#
# Convention : Reuss Voigt Hill
#
# Bulk Modulus (GPa) = 30.17911 48.16820 39.17366
# Shear Modulus (GPa) = 37.96157 20.94109 29.45133
#
# Velocity S-wave (km/s) = 4.25796 3.16249 3.75044
# Velocity P-wave (km/s) = 6.21184 6.02826 6.12074
#
# Compressibility (1/GPa) = 0.03313551
#
# Stress axis : x y z
#
# Youngs Moduli (GPa) = 125.00070 43.46001 72.64049
#
# Poissons Ratio (x) = 0.10472 0.18029
# Poissons Ratio (y) = 0.30119 0.06748
# Poissons Ratio (z) = 0.31024 0.04037
#
# Static dielectric constant tensor:
#      x y z
#    x 1.577080 0.000000 0.080970 
#    y 0.000000 1.777740 0.000000 
#    z 0.080970 0.000000 1.753290 
# 
# From -- ./inp_files/86465.got.cif
#   From: 2010.05.17/outbox.cif.g08.bks.cpg/sg10_44_cif.got.tgz:86465.got - 2010.06.03 11:33:40.
