data_PCOD9149575
_publ_section_title
;
Structure prediction by ZEFSAII (Michael W. Deem and Ramdas Pophale) SiO2 
 PCOD9149575
Probable space group: P 2/M
;
_chemical_formula_sum "Si O2"
_cell_formula_units_Z 32
_cell_length_a 20.979920
_cell_length_b 8.403070
_cell_length_c 14.621450
_cell_angle_alpha 90.000000
_cell_angle_beta 135.965605
_cell_angle_gamma 90.000000
_cell_volume 1791.733181
_symmetry_space_group_name_H-M "P 2/M"
_symmetry_group_IT_number 10
_symmetry_cell_setting 'monoclinic'
loop_
_space_group_symop_operation_xyz
x,y,z
-x,y,-z
-x,-y,-z
x,-y,z
loop_
_atom_site_type_symbol
_atom_site_label
_atom_site_fract_x
_atom_site_fract_y
_atom_site_fract_z
Si Si1 0.396447 0.690444 0.654212
Si Si2 0.602832 0.809475 0.850946
Si Si3 0.248377 0.692203 0.352018
Si Si4 0.257078 0.690816 0.151866
Si Si5 0.895444 0.807398 0.143655
Si Si6 0.252772 0.807617 0.647558
Si Si7 0.755354 0.806076 0.152371
Si Si8 0.104680 0.192305 0.345352
O O1 0.396073 0.500000 0.654804
O O2 0.499725 0.749713 0.752598
O O3 0.333687 0.744677 0.503535
O O4 0.344383 0.751857 0.690679
O O5 0.655045 0.749784 0.814357
O O6 0.603292 0.000000 0.850418
O O7 0.666106 0.756774 0.002028
O O8 0.247783 0.500000 0.351182
O O9 0.256313 0.747284 0.255881
O O10 0.156988 0.750322 0.308772
O O11 0.257521 0.500000 0.152142
O O12 0.167925 0.749890 0.004887
O O13 0.843466 0.757336 0.183188
O O14 0.000055 0.752035 0.244770
O O15 0.895425 0.000000 0.142394
O O16 0.245455 0.750394 0.744169
O O17 0.167463 0.755410 0.495996
O O18 0.252639 0.000000 0.648490
O O19 0.755497 0.000000 0.154676
O O20 0.104047 0.000000 0.344609
#
# Coordination Sequence:
#
# PCOD9149575 Si02
#       8
#     4   4   4   4   4   4   4   4
#     4  10  20  35  52  72  99 131 163 202 246 292
#     4  10  20  35  53  75 101 129 160 201 247 293
#     4   9  20  36  52  70  98 132 166 202 245 292
#     4  10  20  35  53  73  96 129 168 204 241 291
#     4   9  18  33  50  74 104 132 161 201 249 292
#     4   9  17  32  52  74  98 130 168 204 240 286
#     4   8  16  31  51  72  99 131 163 199 243 290
#     4   9  18  31  51  76 101 128 165 207 244 284
#
# _framework density 17.859802999999999
#
# number of rings (size 3 to 8) (size 9 to 14) (size 15 to 20)
#    0.000    2.750    0.000    1.875    0.000    4.000 
#    0.000   13.125    0.000    0.000    0.000    7.000 
#    0.000    0.000    0.000    0.000    0.000    0.000 
#
# Total GULP energy -178451.536638 kJ/mol
# GULP energy per Si atom -5576.610520 kJ/mol
# Density = 1.781915 g / cm^3
# Si number density = 17.859803 Si / 1000 Ang^3
#
#
#
# Elastic Constant Matrix: (Units=GPa)
#
#
# Indices 1 2 3 4 5 6 
#
# 1 326.8800 40.6493 231.8452 0.0000 0.0179 0.0000
# 2 40.6493 16.6480 31.0400 0.0000 0.2194 0.0000
# 3 231.8452 31.0400 184.7620 0.0000 6.7430 0.0000
# 4 0.0000 0.0000 0.0000 21.2653 0.0000 8.7605
# 5 0.0179 0.2194 6.7430 0.0000 44.9161 0.0000
# 6 0.0000 0.0000 0.0000 8.7605 0.0000 117.9896
#
#
#
# Elastic Compliance Matrix: (Units=1/GPa)
#
#
# Indices 1 2 3 4 5 6 
#
# 1 0.029280 -0.003916 -0.036282 0.000000 0.005454 0.000000
# 2 -0.003916 0.088131 -0.009930 0.000000 0.001062 0.000000
# 3 -0.036282 -0.009930 0.052897 0.000000 -0.007878 0.000000
# 4 0.000000 0.000000 0.000000 0.048509 0.000000 -0.003602
# 5 0.005454 0.001062 -0.007878 0.000000 0.023439 0.000000
# 6 0.000000 0.000000 0.000000 -0.003602 0.000000 0.008743
#
#
# Mechanical properties :
#
#
# Convention : Reuss Voigt Hill
#
# Bulk Modulus (GPa) = 14.27578 126.15101 70.21340
# Shear Modulus (GPa) = 13.34738 51.81790 32.58264
#
# Velocity S-wave (km/s) = 2.73672 5.39228 4.27588
# Velocity P-wave (km/s) = 4.24226 10.46691 7.98602
#
# Compressibility (1/GPa) = 0.07004870
#
# Stress axis : x y z
#
# Youngs Moduli (GPa) = 34.15314 11.34681 18.90481
#
# Poissons Ratio (x) = 0.04444 0.68591
# Poissons Ratio (y) = 0.13375 0.18773
# Poissons Ratio (z) = 1.23916 0.11268
#
# Static dielectric constant tensor:
#      x y z
#    x 1.588100 0.000000 -0.008020 
#    y 0.000000 1.617540 0.000000 
#    z -0.008020 0.000000 1.605490 
# 
# From -- ./inp_files/66116.got.cif
#   From: 2010.05.17/outbox.cif.g08.bks.cpg/sg10_34_cif.got.tgz:66116.got - 2010.06.03 11:33:40.
