data_PCOD9149970
_publ_section_title
;
Structure prediction by ZEFSAII (Michael W. Deem and Ramdas Pophale) SiO2 
 PCOD9149970
Probable space group: P 2/M
;
_chemical_formula_sum "Si O2"
_cell_formula_units_Z 30
_cell_length_a 22.883689
_cell_length_b 12.049685
_cell_length_c 5.225882
_cell_angle_alpha 90.000000
_cell_angle_beta 81.103526
_cell_angle_gamma 90.000000
_cell_volume 1423.655193
_symmetry_space_group_name_H-M "P 2/M"
_symmetry_group_IT_number 10
_symmetry_cell_setting 'monoclinic'
loop_
_space_group_symop_operation_xyz
x,y,z
-x,y,-z
-x,-y,-z
x,-y,z
loop_
_atom_site_type_symbol
_atom_site_label
_atom_site_fract_x
_atom_site_fract_y
_atom_site_fract_z
Si Si1 0.609031 0.500000 0.054746
Si Si2 0.835434 0.731892 0.818136
Si Si3 0.330338 0.306827 0.327926
Si Si4 0.736135 0.878287 0.948453
Si Si5 0.040266 0.371263 0.222139
Si Si6 0.373420 0.874442 0.634786
Si Si7 0.785507 0.625645 0.349176
Si Si8 0.540091 0.716718 0.225020
O O1 0.641285 0.402683 0.857403
O O2 0.574107 0.599783 0.232730
O O3 0.805260 0.848777 0.916517
O O4 0.904580 0.711586 0.808006
O O5 0.819042 0.700609 0.536770
O O6 0.804052 0.651463 0.047867
O O7 0.290336 0.223745 0.189362
O O8 0.375948 0.222190 0.424526
O O9 0.284940 0.358695 0.565754
O O10 0.727200 0.000000 0.836479
O O11 0.695378 0.878202 0.228717
O O12 0.062357 0.500000 0.203015
O O13 0.000000 0.358969 0.500000
O O14 0.000000 0.355637 0.000000
O O15 0.415030 0.821503 0.824331
O O16 0.390492 0.000000 0.555029
O O17 0.801057 0.500000 0.402627
O O18 0.500000 0.736415 0.500000
O O19 0.500000 0.705988 0.000000
#
# Coordination Sequence:
#
# PCOD9149970 Si02
#       8
#     2   4   4   4   4   4   4   4
#     4  12  24  46  70  98 136 176 214 274 330 418
#     4  11  22  38  60  93 129 169 219 263 321 381
#     4  11  22  41  64 102 133 173 211 264 339 407
#     4  10  22  42  66  94 131 169 218 273 332 395
#     4  10  20  35  57  85 126 176 218 262 315 375
#     4  11  24  45  72  97 130 173 224 280 339 400
#     4  11  21  35  56  92 134 165 200 255 319 391
#     4  12  28  50  70 100 134 176 226 274 335 403
#
# _framework density 21.072517000000001
#
# number of rings (size 3 to 8) (size 9 to 14) (size 15 to 20)
#    0.000    1.067    3.333    3.600    0.000    3.200 
#    4.800    0.000    0.000    0.800    0.000    0.000 
#    0.000    0.000    0.000    0.000    0.000    0.000 
#
# Total GULP energy -167014.192442 kJ/mol
# GULP energy per Si atom -5567.139748 kJ/mol
# Density = 2.102455 g / cm^3
# Si number density = 21.072517 Si / 1000 Ang^3
#
#
#
# Elastic Constant Matrix: (Units=GPa)
#
#
# Indices 1 2 3 4 5 6 
#
# 1 75.7329 34.9620 21.2347 0.0000 -9.1375 0.0000
# 2 34.9620 133.8157 12.6591 0.0000 2.9697 0.0000
# 3 21.2347 12.6591 76.2790 0.0000 -4.0125 0.0000
# 4 0.0000 0.0000 0.0000 23.8116 0.0000 -10.5434
# 5 -9.1375 2.9697 -4.0125 0.0000 26.0996 0.0000
# 6 0.0000 0.0000 0.0000 -10.5434 0.0000 18.5072
#
#
#
# Elastic Compliance Matrix: (Units=1/GPa)
#
#
# Indices 1 2 3 4 5 6 
#
# 1 0.016876 -0.004189 -0.003697 0.000000 0.005817 0.000000
# 2 -0.004189 0.008661 -0.000404 0.000000 -0.002514 0.000000
# 3 -0.003697 -0.000404 0.014256 0.000000 0.000943 0.000000
# 4 0.000000 0.000000 0.000000 0.056164 0.000000 0.031996
# 5 0.005817 -0.002514 0.000943 0.000000 0.040782 0.000000
# 6 0.000000 0.000000 0.000000 0.031996 0.000000 0.072261
#
#
# Mechanical properties :
#
#
# Convention : Reuss Voigt Hill
#
# Bulk Modulus (GPa) = 43.07603 47.05991 45.06797
# Shear Modulus (GPa) = 21.43012 28.14847 24.78930
#
# Velocity S-wave (km/s) = 3.19246 3.65881 3.43356
# Velocity P-wave (km/s) = 5.83740 6.34272 6.09530
#
# Compressibility (1/GPa) = 0.02321477
#
# Stress axis : x y z
#
# Youngs Moduli (GPa) = 59.25442 115.45604 70.14817
#
# Poissons Ratio (x) = 0.48360 0.25934
# Poissons Ratio (y) = 0.24820 0.02831
# Poissons Ratio (z) = 0.21906 0.04660
#
# Static dielectric constant tensor:
#      x y z
#    x 1.855710 0.000000 0.034240 
#    y 0.000000 1.733920 0.000000 
#    z 0.034240 0.000000 1.815180 
# 
# From -- ./inp_files/13161.got.cif
#   From: 2010.05.17/outbox.cif.g08.bks.cpg/sg10_7_cif.got.tgz:13161.got - 2010.06.03 11:33:40.
