data_PCOD9149698
_publ_section_title
;
Structure prediction by ZEFSAII (Michael W. Deem and Ramdas Pophale) SiO2 
 PCOD9149698
Probable space group: P 2/M
;
_chemical_formula_sum "Si O2"
_cell_formula_units_Z 28
_cell_length_a 9.756450
_cell_length_b 8.302932
_cell_length_c 26.399882
_cell_angle_alpha 90.000000
_cell_angle_beta 139.891668
_cell_angle_gamma 90.000000
_cell_volume 1377.747114
_symmetry_space_group_name_H-M "P 2/M"
_symmetry_group_IT_number 10
_symmetry_cell_setting 'monoclinic'
loop_
_space_group_symop_operation_xyz
x,y,z
-x,y,-z
-x,-y,-z
x,-y,z
loop_
_atom_site_type_symbol
_atom_site_label
_atom_site_fract_x
_atom_site_fract_y
_atom_site_fract_z
Si Si1 0.339755 0.188583 0.998815
Si Si2 0.173915 0.806862 0.686420
Si Si3 0.412032 0.189749 0.247922
Si Si4 0.272135 0.304873 0.414584
Si Si5 0.141783 0.692518 0.265520
Si Si6 0.687925 0.690723 0.164813
Si Si7 0.921508 0.311189 0.923126
O O1 0.479325 0.216128 0.088633
O O2 0.291461 0.000000 0.977901
O O3 0.500000 0.243954 0.000000
O O4 0.122659 0.285586 0.942940
O O5 0.344734 0.757440 0.692221
O O6 0.249916 0.722794 0.759772
O O7 0.929231 0.757883 0.610521
O O8 0.187525 0.000000 0.696504
O O9 0.288874 0.266046 0.260099
O O10 0.278727 0.227751 0.159391
O O11 0.410918 0.000000 0.255879
O O12 0.500000 0.252451 0.500000
O O13 0.266323 0.500000 0.413699
O O14 0.235535 0.250626 0.346001
O O15 0.126219 0.500000 0.264573
O O16 0.896683 0.749559 0.192718
O O17 0.652765 0.500000 0.146926
O O18 0.872432 0.500000 0.914863
O O19 0.000000 0.248515 0.000000
#
# Coordination Sequence:
#
# PCOD9149698 Si02
#       7
#     4   4   4   4   4   4   4
#     4  11  23  36  52  76 105 139 180 227 279 329
#     4  10  21  36  56  82 110 143 180 217 264 321
#     4  11  23  37  54  79 112 147 184 226 271 324
#     4   9  19  38  63  89 114 141 178 222 267 320
#     4   9  19  35  57  83 110 143 181 223 272 323
#     4  10  20  35  55  78 104 138 183 230 273 322
#     4  11  24  39  56  78 105 143 189 234 281 328
#
# _framework density 20.323034
#
# number of rings (size 3 to 8) (size 9 to 14) (size 15 to 20)
#    0.000    1.857    0.000    4.714    0.000   12.286 
#    0.000    0.714    0.000    4.286    0.000    0.000 
#    0.000    0.000    0.000    0.000    0.000    0.000 
#
# Total GULP energy -156434.867281 kJ/mol
# GULP energy per Si atom -5586.959546 kJ/mol
# Density = 2.027678 g / cm^3
# Si number density = 20.323034 Si / 1000 Ang^3
#
#
#
# Elastic Constant Matrix: (Units=GPa)
#
#
# Indices 1 2 3 4 5 6 
#
# 1 99.2171 -1.7990 21.5234 0.0000 22.6526 0.0000
# 2 -1.7990 6.4324 -3.1543 0.0000 0.9459 0.0000
# 3 21.5234 -3.1543 81.9354 0.0000 24.8862 0.0000
# 4 0.0000 0.0000 0.0000 20.8913 0.0000 6.7819
# 5 22.6526 0.9459 24.8862 0.0000 29.6590 0.0000
# 6 0.0000 0.0000 0.0000 6.7819 0.0000 -19.2287
#
#
#
# Elastic Compliance Matrix: (Units=1/GPa)
#
#
# Indices 1 2 3 4 5 6 
#
# 1 0.012360 0.004743 -0.000203 0.000000 -0.009421 0.000000
# 2 0.004743 0.164504 0.010442 0.000000 -0.017631 0.000000
# 3 -0.000203 0.010442 0.017063 0.000000 -0.014495 0.000000
# 4 0.000000 0.000000 0.000000 0.042949 0.000000 0.015148
# 5 -0.009421 -0.017631 -0.014495 0.000000 0.053637 0.000000
# 6 0.000000 0.000000 0.000000 0.015148 0.000000 -0.046663
#
#
# Mechanical properties :
#
#
# Convention : Reuss Voigt Hill
#
# Bulk Modulus (GPa) = 4.46647 24.52500 14.49573
# Shear Modulus (GPa) = 17.33011 17.66529 17.49770
#
# Velocity S-wave (km/s) = 2.92333 2.95146 2.93743
# Velocity P-wave (km/s) = 3.68740 4.86915 4.31889
#
# Compressibility (1/GPa) = 0.22389059
#
# Stress axis : x y z
#
# Youngs Moduli (GPa) = 80.90696 6.07889 58.60794
#
# Poissons Ratio (x) = -0.02883 0.01188
# Poissons Ratio (y) = -0.38373 -0.61199
# Poissons Ratio (z) = 0.01640 -0.06348
#
# Static dielectric constant tensor:
#      x y z
#    x 1.772120 0.000000 0.001860 
#    y 0.000000 1.687790 0.000000 
#    z 0.001860 0.000000 1.717370 
# 
# From -- ./inp_files/36976.got.cif
#   From: 2010.05.17/outbox.cif.g08.bks.cpg/sg10_19_cif.got.tgz:36976.got - 2010.06.03 11:33:40.
