data_PCOD9149858
_publ_section_title
;
Structure prediction by ZEFSAII (Michael W. Deem and Ramdas Pophale) SiO2 
 PCOD9149858
Probable space group: P 2/M
;
_chemical_formula_sum "Si O2"
_cell_formula_units_Z 28
_cell_length_a 11.832534
_cell_length_b 8.309716
_cell_length_c 15.400562
_cell_angle_alpha 90.000000
_cell_angle_beta 114.802247
_cell_angle_gamma 90.000000
_cell_volume 1374.586408
_symmetry_space_group_name_H-M "P 2/M"
_symmetry_group_IT_number 10
_symmetry_cell_setting 'monoclinic'
loop_
_space_group_symop_operation_xyz
x,y,z
-x,y,-z
-x,-y,-z
x,-y,z
loop_
_atom_site_type_symbol
_atom_site_label
_atom_site_fract_x
_atom_site_fract_y
_atom_site_fract_z
Si Si1 0.629235 0.808410 0.297441
Si Si2 0.860715 0.195161 0.479832
Si Si3 0.804231 0.313278 0.948679
Si Si4 0.831120 0.308266 0.665832
Si Si5 0.990958 0.814232 0.866469
Si Si6 0.447025 0.305940 0.387760
Si Si7 0.531162 0.804763 0.912349
O O1 0.759875 0.746056 0.376990
O O2 0.527724 0.773839 0.339018
O O3 0.573590 0.746209 0.189256
O O4 0.643562 0.000000 0.291976
O O5 0.829689 0.260455 0.564914
O O6 0.000000 0.242814 0.500000
O O7 0.855169 0.000000 0.481496
O O8 0.800995 0.500000 0.922714
O O9 0.876373 0.219875 0.895431
O O10 0.666276 0.253121 0.924317
O O11 0.893361 0.288527 0.060967
O O12 0.841606 0.500000 0.677137
O O13 0.941927 0.228477 0.755541
O O14 0.697529 0.259496 0.662364
O O15 0.027078 0.000000 0.883547
O O16 0.500000 0.263571 0.500000
O O17 0.456053 0.500000 0.382042
O O18 0.532682 0.000000 0.911769
O O19 0.500000 0.752412 0.000000
#
# Coordination Sequence:
#
# PCOD9149858 Si02
#       7
#     4   4   4   4   4   4   4
#     4  10  21  37  59  86 115 152 199 249 295 345
#     4  10  22  39  57  81 116 157 201 245 291 349
#     4  11  22  39  61  89 122 154 197 250 304 357
#     4  11  22  37  58  87 120 153 195 243 297 357
#     4  11  22  38  62  89 120 157 196 241 302 365
#     4  10  20  35  56  84 117 153 188 234 296 357
#     4  10  22  40  61  86 119 162 210 253 299 357
#
# _framework density 20.369762999999999
#
# number of rings (size 3 to 8) (size 9 to 14) (size 15 to 20)
#    0.000    1.571    1.429    4.714    0.000    6.000 
#    0.000    2.857    0.000    0.000    0.000    0.000 
#    0.000    0.000    0.000    0.000    0.000    0.000 
#
# Total GULP energy -156519.346088 kJ/mol
# GULP energy per Si atom -5589.976646 kJ/mol
# Density = 2.032340 g / cm^3
# Si number density = 20.369763 Si / 1000 Ang^3
#
#
#
# Elastic Constant Matrix: (Units=GPa)
#
#
# Indices 1 2 3 4 5 6 
#
# 1 84.7344 0.3079 39.7265 0.0000 17.4896 0.0000
# 2 0.3079 19.8561 -0.6198 0.0000 0.8405 0.0000
# 3 39.7265 -0.6198 155.7972 0.0000 12.1930 0.0000
# 4 0.0000 0.0000 0.0000 82.8066 0.0000 -54.7883
# 5 17.4896 0.8405 12.1930 0.0000 21.0260 0.0000
# 6 0.0000 0.0000 0.0000 -54.7883 0.0000 69.6861
#
#
#
# Elastic Compliance Matrix: (Units=1/GPa)
#
#
# Indices 1 2 3 4 5 6 
#
# 1 0.015552 0.000134 -0.003093 0.000000 -0.011148 0.000000
# 2 0.000134 0.050470 0.000349 0.000000 -0.002332 0.000000
# 3 -0.003093 0.000349 0.007342 0.000000 -0.001699 0.000000
# 4 0.000000 0.000000 0.000000 0.025169 0.000000 0.019788
# 5 -0.011148 -0.002332 -0.001699 0.000000 0.057912 0.000000
# 6 0.000000 0.000000 0.000000 0.019788 0.000000 0.029908
#
#
# Mechanical properties :
#
#
# Convention : Reuss Voigt Hill
#
# Bulk Modulus (GPa) = 14.67461 37.69075 26.18268
# Shear Modulus (GPa) = 23.33329 49.43526 36.38428
#
# Velocity S-wave (km/s) = 3.38818 4.93170 4.23092
# Velocity P-wave (km/s) = 4.74616 7.13949 6.06211
#
# Compressibility (1/GPa) = 0.06814491
#
# Stress axis : x y z
#
# Youngs Moduli (GPa) = 64.30010 19.81380 136.21158
#
# Poissons Ratio (x) = -0.00266 0.42124
# Poissons Ratio (y) = -0.00863 -0.04754
# Poissons Ratio (z) = 0.19885 -0.00692
#
# Static dielectric constant tensor:
#      x y z
#    x 1.682680 0.000000 0.016060 
#    y 0.000000 1.696700 0.000000 
#    z 0.016060 0.000000 1.742040 
# 
# From -- ./inp_files/63937.got.cif
#   From: 2010.05.17/outbox.cif.g08.bks.cpg/sg10_32_cif.got.tgz:63937.got - 2010.06.03 11:33:40.
