data_PCOD9149540
_publ_section_title
;
Structure prediction by ZEFSAII (Michael W. Deem and Ramdas Pophale) SiO2 
 PCOD9149540
Probable space group: P 2/M
;
_chemical_formula_sum "Si O2"
_cell_formula_units_Z 32
_cell_length_a 23.537958
_cell_length_b 7.567535
_cell_length_c 14.388234
_cell_angle_alpha 90.000000
_cell_angle_beta 32.357043
_cell_angle_gamma 90.000000
_cell_volume 1371.644730
_symmetry_space_group_name_H-M "P 2/M"
_symmetry_group_IT_number 10
_symmetry_cell_setting 'monoclinic'
loop_
_space_group_symop_operation_xyz
x,y,z
-x,y,-z
-x,-y,-z
x,-y,z
loop_
_atom_site_type_symbol
_atom_site_label
_atom_site_fract_x
_atom_site_fract_y
_atom_site_fract_z
Si Si1 0.724711 0.201543 0.126899
Si Si2 0.894562 0.784262 0.759062
Si Si3 0.550083 0.706948 0.225377
Si Si4 0.469139 0.786510 0.145908
Si Si5 0.859657 0.785009 0.604500
Si Si6 0.769054 0.786555 0.537493
Si Si7 0.325767 0.703050 0.602488
Si Si8 0.112001 0.290491 0.807537
O O1 0.642928 0.203571 0.154502
O O2 0.679242 0.295394 0.279535
O O3 0.743553 0.000000 0.130017
O O4 0.832284 0.279168 0.935245
O O5 0.840753 0.725339 0.736361
O O6 0.017919 0.737704 0.585975
O O7 0.889809 0.000000 0.766898
O O8 0.556148 0.500000 0.241131
O O9 0.548315 0.726705 0.117048
O O10 0.436240 0.782907 0.415743
O O11 0.347914 0.727719 0.333286
O O12 0.470867 0.000000 0.143824
O O13 0.500000 0.728119 0.000000
O O14 0.790128 0.724866 0.613704
O O15 0.853165 0.000000 0.615286
O O16 0.860864 0.733134 0.338694
O O17 0.768052 0.000000 0.540362
O O18 0.328339 0.500000 0.566003
O O19 0.216724 0.783602 0.714304
O O20 0.109560 0.500000 0.830901
O O21 0.000000 0.218258 0.000000
#
# Coordination Sequence:
#
# PCOD9149540 Si02
#       8
#     4   4   4   4   4   4   4   4
#     4  11  23  35  58  89 113 140 184 239 290 337
#     4   8  16  31  51  79 113 146 178 221 272 332
#     4  11  23  41  61  80 110 153 193 232 280 341
#     4  10  22  38  59  89 121 152 189 239 293 341
#     4   8  15  30  52  78 112 148 180 214 271 336
#     4  10  20  34  59  89 116 148 186 237 289 336
#     4  10  22  41  59  78 110 150 190 232 281 340
#     4  10  22  40  60  82 114 158 196 231 283 342
#
# _framework density 23.329656
#
# number of rings (size 3 to 8) (size 9 to 14) (size 15 to 20)
#    0.000    2.250    1.250    1.875    3.500    3.500 
#    0.000    0.000    0.000    0.000    0.000    4.375 
#    0.000    0.000    0.000    0.000    0.000    0.000 
#
# Total GULP energy -178794.937470 kJ/mol
# GULP energy per Si atom -5587.341796 kJ/mol
# Density = 2.327656 g / cm^3
# Si number density = 23.329656 Si / 1000 Ang^3
#
#
#
# Elastic Constant Matrix: (Units=GPa)
#
#
# Indices 1 2 3 4 5 6 
#
# 1 70.2668 -7.6193 -18.3562 0.0000 14.4357 0.0000
# 2 -7.6193 58.1729 2.2479 0.0000 -3.2387 0.0000
# 3 -18.3562 2.2479 66.0056 0.0000 17.1830 0.0000
# 4 0.0000 0.0000 0.0000 6.1077 0.0000 5.8715
# 5 14.4357 -3.2387 17.1830 0.0000 32.2695 0.0000
# 6 0.0000 0.0000 0.0000 5.8715 0.0000 14.4035
#
#
#
# Elastic Compliance Matrix: (Units=1/GPa)
#
#
# Indices 1 2 3 4 5 6 
#
# 1 0.019398 0.001466 0.008783 0.000000 -0.013207 0.000000
# 2 0.001466 0.017481 -0.000550 0.000000 0.001391 0.000000
# 3 0.008783 -0.000550 0.021650 0.000000 -0.015512 0.000000
# 4 0.000000 0.000000 0.000000 0.269236 0.000000 -0.109753
# 5 -0.013207 0.001391 -0.015512 0.000000 0.045297 0.000000
# 6 0.000000 0.000000 0.000000 -0.109753 0.000000 0.114168
#
#
# Mechanical properties :
#
#
# Convention : Reuss Voigt Hill
#
# Bulk Modulus (GPa) = 12.83246 16.33222 14.58234
# Shear Modulus (GPa) = 10.12539 25.10099 17.61319
#
# Velocity S-wave (km/s) = 2.08556 3.28369 2.75065
# Velocity P-wave (km/s) = 3.36331 4.62522 4.04379
#
# Compressibility (1/GPa) = 0.07792735
#
# Stress axis : x y z
#
# Youngs Moduli (GPa) = 51.55107 57.20538 46.18969
#
# Poissons Ratio (x) = -0.08386 -0.40568
# Poissons Ratio (y) = -0.07558 0.02540
# Poissons Ratio (z) = -0.45277 0.03145
#
# Static dielectric constant tensor:
#      x y z
#    x 1.865480 0.000000 -0.006850 
#    y 0.000000 1.886970 0.000000 
#    z -0.006850 0.000000 1.882200 
# 
# From -- ./inp_files/71412.got.cif
#   From: 2010.05.17/outbox.cif.g08.bks.cpg/sg10_36_cif.got.tgz:71412.got - 2010.06.03 11:33:40.
