data_PCOD9149156
_publ_section_title
;
Structure prediction by ZEFSAII (Michael W. Deem and Ramdas Pophale) SiO2 
 PCOD9149156
Probable space group: P 2/M
;
_chemical_formula_sum "Si O2"
_cell_formula_units_Z 12
_cell_length_a 7.978737
_cell_length_b 8.196661
_cell_length_c 8.804493
_cell_angle_alpha 90.000000
_cell_angle_beta 111.818666
_cell_angle_gamma 90.000000
_cell_volume 534.557144
_symmetry_space_group_name_H-M "P 2/M"
_symmetry_group_IT_number 10
_symmetry_cell_setting 'monoclinic'
loop_
_space_group_symop_operation_xyz
x,y,z
-x,y,-z
-x,-y,-z
x,-y,z
loop_
_atom_site_type_symbol
_atom_site_label
_atom_site_fract_x
_atom_site_fract_y
_atom_site_fract_z
Si Si1 0.207251 0.000000 0.508700
Si Si2 0.302254 0.681887 0.008978
Si Si3 0.196174 0.000000 0.144359
Si Si4 0.805289 0.678574 0.355100
O O1 0.291433 0.834410 0.604249
O O2 0.000000 0.000000 0.500000
O O3 0.199007 0.000000 0.326187
O O4 0.268305 0.500000 0.061570
O O5 0.173652 0.705186 0.818218
O O6 0.500000 0.683308 0.000000
O O7 0.284115 0.832725 0.113973
O O8 0.000000 0.000000 0.000000
O O9 0.716688 0.500000 0.344676
O O10 0.000000 0.669117 0.500000
#
# Coordination Sequence:
#
# PCOD9149156 Si02
#       4
#     2   4   2   4
#     4  10  20  34  53  81 116 150 189 239 291 340
#     4  10  22  41  63  88 121 158 197 247 304 357
#     4  12  23  36  62  93 121 156 202 251 294 354
#     4   9  17  33  57  80 108 149 193 237 285 341
#
# _framework density 22.448488000000001
#
# number of rings (size 3 to 8) (size 9 to 14) (size 15 to 20)
#    0.000    2.000    0.000    5.500    0.000    2.000 
#    0.000    3.333    0.000    6.000    0.000    0.000 
#    0.000    0.000    0.000    0.000    0.000    0.000 
#
# Total GULP energy -67020.451184 kJ/mol
# GULP energy per Si atom -5585.037599 kJ/mol
# Density = 2.239739 g / cm^3
# Si number density = 22.448488 Si / 1000 Ang^3
#
#
#
# Elastic Constant Matrix: (Units=GPa)
#
#
# Indices 1 2 3 4 5 6 
#
# 1 39.2359 35.3489 23.9441 0.0000 -4.5507 0.0000
# 2 35.3489 287.5028 89.3594 0.0000 -50.5886 0.0000
# 3 23.9441 89.3594 115.5854 0.0000 -23.4847 0.0000
# 4 0.0000 0.0000 0.0000 -15.0566 0.0000 16.4001
# 5 -4.5507 -50.5886 -23.4847 0.0000 35.2461 0.0000
# 6 0.0000 0.0000 0.0000 16.4001 0.0000 6.2575
#
#
#
# Elastic Compliance Matrix: (Units=1/GPa)
#
#
# Indices 1 2 3 4 5 6 
#
# 1 0.030610 -0.002858 -0.004813 0.000000 -0.003358 0.000000
# 2 -0.002858 0.005705 -0.002579 0.000000 0.006101 0.000000
# 3 -0.004813 -0.002579 0.012449 0.000000 0.003973 0.000000
# 4 0.000000 0.000000 0.000000 -0.017230 0.000000 0.045157
# 5 -0.003358 0.006101 0.003973 0.000000 0.039341 0.000000
# 6 0.000000 0.000000 0.000000 0.045157 0.000000 0.041458
#
#
# Mechanical properties :
#
#
# Convention : Reuss Voigt Hill
#
# Bulk Modulus (GPa) = 35.38150 82.18100 58.78125
# Shear Modulus (GPa) = 35.14804 24.86750 30.00777
#
# Velocity S-wave (km/s) = 3.96121 3.33191 3.66011
# Velocity P-wave (km/s) = 6.05945 7.17568 6.64106
#
# Compressibility (1/GPa) = 0.02826336
#
# Stress axis : x y z
#
# Youngs Moduli (GPa) = 32.66900 175.29832 80.32497
#
# Poissons Ratio (x) = 0.50105 0.38664
# Poissons Ratio (y) = 0.09338 0.20713
# Poissons Ratio (z) = 0.15725 0.45202
#
# Static dielectric constant tensor:
#      x y z
#    x 1.862560 0.000000 0.060640 
#    y 0.000000 1.970030 0.000000 
#    z 0.060640 0.000000 1.817130 
# 
# From -- ./inp_files/16039.got.cif
#   From: 2010.05.17/outbox.cif.g08.bks.cpg/sg10_9_cif.got.tgz:16039.got - 2010.06.03 11:33:40.
