data_PCOD9149648
_publ_section_title
;
Structure prediction by ZEFSAII (Michael W. Deem and Ramdas Pophale) SiO2 
 PCOD9149648
Probable space group: P 2/M
;
_chemical_formula_sum "Si O2"
_cell_formula_units_Z 26
_cell_length_a 10.592664
_cell_length_b 7.710659
_cell_length_c 19.876274
_cell_angle_alpha 90.000000
_cell_angle_beta 37.931480
_cell_angle_gamma 90.000000
_cell_volume 997.948341
_symmetry_space_group_name_H-M "P 2/M"
_symmetry_group_IT_number 10
_symmetry_cell_setting 'monoclinic'
loop_
_space_group_symop_operation_xyz
x,y,z
-x,y,-z
-x,-y,-z
x,-y,z
loop_
_atom_site_type_symbol
_atom_site_label
_atom_site_fract_x
_atom_site_fract_y
_atom_site_fract_z
Si Si1 0.791004 0.199928 0.388468
Si Si2 0.241848 0.701891 0.234476
Si Si3 0.336084 0.805890 0.988434
Si Si4 0.882585 0.207491 0.203514
Si Si5 0.757334 0.310922 0.113451
Si Si6 0.665359 0.500000 0.545541
Si Si7 0.753398 0.805512 0.613286
O O1 0.696708 0.344892 0.475402
O O2 0.038030 0.201799 0.295893
O O3 0.769514 0.253413 0.319512
O O4 0.722927 0.000000 0.428209
O O5 0.188075 0.500000 0.261917
O O6 0.437464 0.723788 0.102901
O O7 0.285159 0.768183 0.291846
O O8 0.308449 0.812210 0.918771
O O9 0.343810 0.000000 0.012052
O O10 0.119164 0.722030 0.102754
O O11 0.753581 0.261979 0.192735
O O12 0.902994 0.000000 0.192093
O O13 0.662384 0.500000 0.140577
O O14 0.000000 0.324616 0.000000
O O15 0.672682 0.652074 0.601365
O O16 0.000000 0.804669 0.500000
O O17 0.678522 0.000000 0.627727
#
# Coordination Sequence:
#
# PCOD9149648 Si02
#       7
#     4   4   4   4   4   2   4
#     4  11  22  36  54  80 113 149 184 221 267 324
#     4  12  22  36  52  80 114 142 183 224 273 332
#     4  10  20  35  54  78 110 147 181 224 271 316
#     4   9  20  36  54  77 109 147 186 221 263 319
#     4   9  17  31  53  78 103 136 182 229 268 310
#     4  12  21  36  54  81 106 141 181 234 268 326
#     4  11  20  34  55  77 105 140 179 227 277 321
#
# _framework density 26.053455
#
# number of rings (size 3 to 8) (size 9 to 14) (size 15 to 20)
#    0.000    1.538    3.077    3.000    1.077    3.077 
#    0.000    3.077    0.000    0.000    0.000    2.154 
#    0.000    4.923    0.000    0.000    0.000    0.000 
#
# Total GULP energy -145042.310031 kJ/mol
# GULP energy per Si atom -5578.550386 kJ/mol
# Density = 2.599416 g / cm^3
# Si number density = 26.053455 Si / 1000 Ang^3
#
#
#
# Elastic Constant Matrix: (Units=GPa)
#
#
# Indices 1 2 3 4 5 6 
#
# 1 74.2923 25.1854 42.7912 0.0000 15.7944 0.0000
# 2 25.1854 160.0310 51.7256 0.0000 4.6428 0.0000
# 3 42.7912 51.7256 116.7166 0.0000 -7.6449 0.0000
# 4 0.0000 0.0000 0.0000 37.5459 0.0000 -7.4657
# 5 15.7944 4.6428 -7.6449 0.0000 55.4608 0.0000
# 6 0.0000 0.0000 0.0000 -7.4657 0.0000 51.8080
#
#
#
# Elastic Compliance Matrix: (Units=1/GPa)
#
#
# Indices 1 2 3 4 5 6 
#
# 1 0.019149 -0.000494 -0.007222 0.000000 -0.006408 0.000000
# 2 -0.000494 0.007369 -0.003144 0.000000 -0.000910 0.000000
# 3 -0.007222 -0.003144 0.012877 0.000000 0.004095 0.000000
# 4 0.000000 0.000000 0.000000 0.027420 0.000000 0.003951
# 5 -0.006408 -0.000910 0.004095 0.000000 0.020496 0.000000
# 6 0.000000 0.000000 0.000000 0.003951 0.000000 0.019871
#
#
# Mechanical properties :
#
#
# Convention : Reuss Voigt Hill
#
# Bulk Modulus (GPa) = 56.57243 65.60493 61.08868
# Shear Modulus (GPa) = 37.09344 44.38546 40.73945
#
# Velocity S-wave (km/s) = 3.77735 4.13198 3.95864
# Velocity P-wave (km/s) = 6.38636 6.92820 6.66279
#
# Compressibility (1/GPa) = 0.01767646
#
# Stress axis : x y z
#
# Youngs Moduli (GPa) = 52.22070 135.69944 77.65693
#
# Poissons Ratio (x) = 0.06698 0.56081
# Poissons Ratio (y) = 0.02578 0.24419
# Poissons Ratio (z) = 0.37712 0.42670
#
# Static dielectric constant tensor:
#      x y z
#    x 2.142120 0.000000 -0.088790 
#    y 0.000000 1.941060 0.000000 
#    z -0.088790 0.000000 2.083260 
# 
# From -- ./inp_files/83486.got.cif
#   From: 2010.05.17/outbox.cif.g08.bks.cpg/sg10_42_cif.got.tgz:83486.got - 2010.06.03 11:33:40.
