data_PCOD9149276
_publ_section_title
;
Structure prediction by ZEFSAII (Michael W. Deem and Ramdas Pophale) SiO2 
 PCOD9149276
Probable space group: P 2/M
;
_chemical_formula_sum "Si O2"
_cell_formula_units_Z 32
_cell_length_a 12.216029
_cell_length_b 13.740180
_cell_length_c 18.654510
_cell_angle_alpha 90.000000
_cell_angle_beta 29.908819
_cell_angle_gamma 90.000000
_cell_volume 1561.266474
_symmetry_space_group_name_H-M "P 2/M"
_symmetry_group_IT_number 10
_symmetry_cell_setting 'monoclinic'
loop_
_space_group_symop_operation_xyz
x,y,z
-x,y,-z
-x,-y,-z
x,-y,z
loop_
_atom_site_type_symbol
_atom_site_label
_atom_site_fract_x
_atom_site_fract_y
_atom_site_fract_z
Si Si1 0.345221 0.803739 0.653155
Si Si2 0.777333 0.613871 0.581459
Si Si3 0.141391 0.117422 0.080877
Si Si4 0.842358 0.384870 0.197034
Si Si5 0.274344 0.194517 0.457685
Si Si6 0.840207 0.116007 0.769090
Si Si7 0.590382 0.882193 0.768856
Si Si8 0.696942 0.384402 0.113715
O O1 0.500000 0.835592 0.500000
O O2 0.293864 0.688390 0.677079
O O3 0.489133 0.821783 0.641924
O O4 0.108203 0.853029 0.791899
O O5 0.753423 0.500000 0.574102
O O6 0.779880 0.690627 0.515485
O O7 0.557141 0.642972 0.750962
O O8 0.000000 0.623225 0.500000
O O9 0.205414 0.152525 0.124889
O O10 0.147258 0.000000 0.078997
O O11 0.333668 0.147211 0.916873
O O12 0.825826 0.500000 0.222674
O O13 0.757078 0.370486 0.163542
O O14 0.097322 0.350123 0.050123
O O15 0.280820 0.156371 0.372893
O O16 0.090506 0.140406 0.607583
O O17 0.698232 0.151771 0.782362
O O18 0.807166 0.000000 0.789924
O O19 0.602660 0.000000 0.759612
O O20 0.703549 0.500000 0.098458
#
# Coordination Sequence:
#
# PCOD9149276 Si02
#       8
#     4   4   4   4   4   4   4   4
#     4  12  25  39  56  81 117 159 201 236 294 362
#     4  10  20  34  54  85 123 156 188 234 293 351
#     4  10  23  41  61  86 120 159 194 233 294 365
#     4   9  18  34  57  79 108 146 191 245 287 334
#     4  12  23  37  59  89 122 152 199 251 290 340
#     4  10  20  40  65  86 118 157 192 237 297 359
#     4  10  22  39  63  94 116 144 197 253 296 341
#     4   8  15  30  53  81 106 140 187 232 288 345
#
# _framework density 20.496179999999999
#
# number of rings (size 3 to 8) (size 9 to 14) (size 15 to 20)
#    0.000    1.875    2.500    2.625    1.750    4.500 
#    0.000    1.250    0.000    0.000    0.000    0.000 
#    0.000    9.000    0.000    0.000    0.000    0.000 
#
# Total GULP energy -178519.167645 kJ/mol
# GULP energy per Si atom -5578.723989 kJ/mol
# Density = 2.044953 g / cm^3
# Si number density = 20.496180 Si / 1000 Ang^3
#
#
#
# Elastic Constant Matrix: (Units=GPa)
#
#
# Indices 1 2 3 4 5 6 
#
# 1 56.0237 5.1066 4.8444 0.0000 -15.6645 0.0000
# 2 5.1066 22.4883 -1.9370 0.0000 -1.7489 0.0000
# 3 4.8444 -1.9370 74.6832 0.0000 -12.9207 0.0000
# 4 0.0000 0.0000 0.0000 30.1256 0.0000 -7.3481
# 5 -15.6645 -1.7489 -12.9207 0.0000 32.4433 0.0000
# 6 0.0000 0.0000 0.0000 -7.3481 0.0000 16.6730
#
#
#
# Elastic Compliance Matrix: (Units=1/GPa)
#
#
# Indices 1 2 3 4 5 6 
#
# 1 0.020992 -0.003963 0.000271 0.000000 0.010030 0.000000
# 2 -0.003963 0.045603 0.001648 0.000000 0.001201 0.000000
# 3 0.000271 0.001648 0.014449 0.000000 0.005974 0.000000
# 4 0.000000 0.000000 0.000000 0.037192 0.000000 0.016391
# 5 0.010030 0.001201 0.005974 0.000000 0.038109 0.000000
# 6 0.000000 0.000000 0.000000 0.016391 0.000000 0.067201
#
#
# Mechanical properties :
#
#
# Convention : Reuss Voigt Hill
#
# Bulk Modulus (GPa) = 12.99495 18.80259 15.89877
# Shear Modulus (GPa) = 19.74042 25.52713 22.63378
#
# Velocity S-wave (km/s) = 3.10680 3.53293 3.32669
# Velocity P-wave (km/s) = 4.38446 5.08289 4.74654
#
# Compressibility (1/GPa) = 0.07695296
#
# Stress axis : x y z
#
# Youngs Moduli (GPa) = 47.63768 21.92842 69.21112
#
# Poissons Ratio (x) = 0.08691 -0.01874
# Poissons Ratio (y) = 0.18881 -0.11403
# Poissons Ratio (z) = -0.01290 -0.03613
#
# Static dielectric constant tensor:
#      x y z
#    x 1.742470 0.000000 -0.024920 
#    y 0.000000 1.758630 0.000000 
#    z -0.024920 0.000000 1.737220 
# 
# From -- ./inp_files/54010.got.cif
#   From: 2010.05.17/outbox.cif.g08.bks.cpg/sg10_28_cif.got.tgz:54010.got - 2010.06.03 11:33:40.
