data_PCOD9149548
_publ_section_title
;
Structure prediction by ZEFSAII (Michael W. Deem and Ramdas Pophale) SiO2 
 PCOD9149548
Probable space group: P 2/M
;
_chemical_formula_sum "Si O2"
_cell_formula_units_Z 28
_cell_length_a 21.863680
_cell_length_b 8.586117
_cell_length_c 19.984881
_cell_angle_alpha 90.000000
_cell_angle_beta 160.559474
_cell_angle_gamma 90.000000
_cell_volume 1248.652955
_symmetry_space_group_name_H-M "P 2/M"
_symmetry_group_IT_number 10
_symmetry_cell_setting 'monoclinic'
loop_
_space_group_symop_operation_xyz
x,y,z
-x,y,-z
-x,-y,-z
x,-y,z
loop_
_atom_site_type_symbol
_atom_site_label
_atom_site_fract_x
_atom_site_fract_y
_atom_site_fract_z
Si Si1 0.427328 0.500000 0.847022
Si Si2 0.580092 0.688337 0.418891
Si Si3 0.418164 0.833612 0.841270
Si Si4 0.991413 0.500000 0.412259
Si Si5 0.001338 0.827853 0.621525
Si Si6 0.286428 0.679108 0.304484
Si Si7 0.181743 0.312701 0.056355
Si Si8 0.123123 0.179238 0.353486
O O1 0.480097 0.669730 0.873501
O O2 0.205179 0.500000 0.610471
O O3 0.500000 0.500000 0.000000
O O4 0.583583 0.500000 0.423259
O O5 0.698096 0.746633 0.605302
O O6 0.371805 0.738895 0.217451
O O7 0.676804 0.748796 0.452408
O O8 0.196471 0.828824 0.619716
O O9 0.460038 0.000000 0.850316
O O10 0.500000 0.837382 0.000000
O O11 0.904936 0.664847 0.301113
O O12 0.000000 0.500000 0.500000
O O13 0.947533 0.813964 0.643863
O O14 0.086636 0.000000 0.697382
O O15 0.500000 0.673806 0.500000
O O16 0.223940 0.500000 0.248816
O O17 0.177841 0.747628 0.129156
O O18 0.190644 0.500000 0.071280
O O19 0.016115 0.267987 0.838451
O O20 0.128984 0.000000 0.339743
#
# Coordination Sequence:
#
# PCOD9149548 Si02
#       8
#     2   4   4   2   4   4   4   4
#     4   8  14  26  46  72 102 122 151 196 250 304
#     4   9  18  34  58  83 109 145 199 250 296 346
#     4   8  13  25  48  71  93 126 165 207 254 309
#     4  10  20  34  60  84 102 139 175 222 282 331
#     4   9  20  36  54  79 114 149 184 225 283 349
#     4   7  12  27  51  80 108 141 187 249 302 338
#     4   9  18  34  58  82 111 149 198 250 294 340
#     4  11  23  36  54  79 116 164 191 228 291 354
#
# _framework density 22.424164999999999
#
# number of rings (size 3 to 8) (size 9 to 14) (size 15 to 20)
#    0.000    3.143    0.000    2.143    2.000    1.429 
#    0.000    3.571   12.571    2.571    0.000    0.000 
#    0.000    0.000    0.000    0.000    0.000    0.000 
#
# Total GULP energy -156043.281681 kJ/mol
# GULP energy per Si atom -5572.974346 kJ/mol
# Density = 2.237313 g / cm^3
# Si number density = 22.424165 Si / 1000 Ang^3
#
#
#
# Elastic Constant Matrix: (Units=GPa)
#
#
# Indices 1 2 3 4 5 6 
#
# 1 39.1955 27.7296 -1.7755 0.0000 6.7893 0.0000
# 2 27.7296 156.4237 -4.1585 0.0000 7.6589 0.0000
# 3 -1.7755 -4.1585 52.7631 0.0000 8.1230 0.0000
# 4 0.0000 0.0000 0.0000 54.6230 0.0000 -49.1537
# 5 6.7893 7.6589 8.1230 0.0000 19.2479 0.0000
# 6 0.0000 0.0000 0.0000 -49.1537 0.0000 22.6997
#
#
#
# Elastic Compliance Matrix: (Units=1/GPa)
#
#
# Indices 1 2 3 4 5 6 
#
# 1 0.030792 -0.004921 0.002159 0.000000 -0.009815 0.000000
# 2 -0.004921 0.007354 0.000639 0.000000 -0.001460 0.000000
# 3 0.002159 0.000639 0.020568 0.000000 -0.009696 0.000000
# 4 0.000000 0.000000 0.000000 -0.019300 0.000000 -0.041792
# 5 -0.009815 -0.001460 -0.009696 0.000000 0.060088 0.000000
# 6 0.000000 0.000000 0.000000 -0.041792 0.000000 -0.046442
#
#
# Mechanical properties :
#
#
# Convention : Reuss Voigt Hill
#
# Bulk Modulus (GPa) = 18.35904 32.44151 25.40028
# Shear Modulus (GPa) = 66.25806 34.41990 50.33898
#
# Velocity S-wave (km/s) = 5.44167 3.92209 4.74313
# Velocity P-wave (km/s) = 6.90560 5.91684 6.43025
#
# Compressibility (1/GPa) = 0.05446906
#
# Stress axis : x y z
#
# Youngs Moduli (GPa) = 32.47582 135.98680 48.61834
#
# Poissons Ratio (x) = 0.66914 -0.10498
# Poissons Ratio (y) = 0.15980 -0.03106
# Poissons Ratio (z) = -0.07013 -0.08686
#
# Static dielectric constant tensor:
#      x y z
#    x 1.808710 0.000000 0.007780 
#    y 0.000000 1.883310 0.000000 
#    z 0.007780 0.000000 1.843170 
# 
# From -- ./inp_files/86577.got.cif
#   From: 2010.05.17/outbox.cif.g08.bks.cpg/sg10_44_cif.got.tgz:86577.got - 2010.06.03 11:33:40.
