data_PCOD9149031
_publ_section_title
;
Structure prediction by ZEFSAII (Michael W. Deem and Ramdas Pophale) SiO2 
 PCOD9149031
Probable space group: P 2/M
;
_chemical_formula_sum "Si O2"
_cell_formula_units_Z 32
_cell_length_a 23.927589
_cell_length_b 9.352542
_cell_length_c 16.132437
_cell_angle_alpha 90.000000
_cell_angle_beta 151.584346
_cell_angle_gamma 90.000000
_cell_volume 1717.955515
_symmetry_space_group_name_H-M "P 2/M"
_symmetry_group_IT_number 10
_symmetry_cell_setting 'monoclinic'
loop_
_space_group_symop_operation_xyz
x,y,z
-x,y,-z
-x,-y,-z
x,-y,z
loop_
_atom_site_type_symbol
_atom_site_label
_atom_site_fract_x
_atom_site_fract_y
_atom_site_fract_z
Si Si1 0.423530 0.169486 0.774463
Si Si2 0.208658 0.328940 0.964227
Si Si3 0.987318 0.330962 0.156378
Si Si4 0.761637 0.669318 0.571192
Si Si5 0.324979 0.830662 0.830249
Si Si6 0.375298 0.166644 0.302705
Si Si7 0.828080 0.166077 0.824249
Si Si8 0.863877 0.327944 0.315029
O O1 0.354384 0.260424 0.617322
O O2 0.362300 0.193528 0.783924
O O3 0.415365 0.000000 0.745522
O O4 0.560104 0.206401 0.964985
O O5 0.226039 0.500000 0.989287
O O6 0.186656 0.285275 0.840972
O O7 0.091002 0.298259 0.865034
O O8 0.316868 0.252375 0.150979
O O9 0.970453 0.500000 0.115671
O O10 0.126312 0.306396 0.343426
O O11 0.935262 0.237697 0.013632
O O12 0.747915 0.500000 0.564559
O O13 0.795863 0.744637 0.701448
O O14 0.214647 0.742102 0.716664
O O15 0.303745 0.000000 0.812054
O O16 0.500000 0.220316 0.500000
O O17 0.281354 0.172795 0.254772
O O18 0.390474 0.000000 0.298525
O O19 0.850831 0.000000 0.834479
O O20 0.857861 0.500000 0.313057
O O21 0.000000 0.286546 0.500000
#
# Coordination Sequence:
#
# PCOD9149031 Si02
#       8
#     4   4   4   4   4   4   4   4
#     4   9  20  39  59  80 108 145 184 229 283 330
#     4   9  19  36  54  77 108 144 181 221 272 325
#     4   9  19  35  53  73 106 144 180 220 266 321
#     4  11  22  33  53  82 108 140 182 223 267 328
#     4   9  20  40  61  80 109 145 184 231 281 332
#     4   9  19  36  56  77 103 139 181 223 269 323
#     4  10  20  34  52  76 107 141 177 221 273 321
#     4  10  22  37  58  86 118 151 186 231 281 334
#
# _framework density 18.626791000000001
#
# number of rings (size 3 to 8) (size 9 to 14) (size 15 to 20)
#    0.000    2.500    0.000    1.875    1.750    6.000 
#    0.000    5.000    0.000    0.000    0.000    0.000 
#    0.000    0.000    0.000    0.000    0.000    0.000 
#
# Total GULP energy -178607.767705 kJ/mol
# GULP energy per Si atom -5581.492741 kJ/mol
# Density = 1.858440 g / cm^3
# Si number density = 18.626791 Si / 1000 Ang^3
#
#
#
# Elastic Constant Matrix: (Units=GPa)
#
#
# Indices 1 2 3 4 5 6 
#
# 1 34.0102 17.5517 14.2633 0.0000 10.9815 0.0000
# 2 17.5517 29.5259 21.7716 0.0000 6.6302 0.0000
# 3 14.2633 21.7716 66.8939 0.0000 13.5304 0.0000
# 4 0.0000 0.0000 0.0000 23.2542 0.0000 6.0601
# 5 10.9815 6.6302 13.5304 0.0000 22.2761 0.0000
# 6 0.0000 0.0000 0.0000 6.0601 0.0000 -8.8752
#
#
#
# Elastic Compliance Matrix: (Units=1/GPa)
#
#
# Indices 1 2 3 4 5 6 
#
# 1 0.047309 -0.025560 0.001608 0.000000 -0.016691 0.000000
# 2 -0.025560 0.058883 -0.014499 0.000000 0.003882 0.000000
# 3 0.001608 -0.014499 0.021220 0.000000 -0.009366 0.000000
# 4 0.000000 0.000000 0.000000 0.036507 0.000000 0.024927
# 5 -0.016691 0.003882 -0.009366 0.000000 0.057653 0.000000
# 6 0.000000 0.000000 0.000000 0.024927 0.000000 -0.095653
#
#
# Mechanical properties :
#
#
# Convention : Reuss Voigt Hill
#
# Bulk Modulus (GPa) = 19.79912 26.40035 23.09974
# Shear Modulus (GPa) = 22.76274 12.45391 17.60832
#
# Velocity S-wave (km/s) = 3.49957 2.58854 3.07795
# Velocity P-wave (km/s) = 5.19439 4.81021 5.00599
#
# Compressibility (1/GPa) = 0.05050729
#
# Stress axis : x y z
#
# Youngs Moduli (GPa) = 21.13769 16.98292 47.12606
#
# Poissons Ratio (x) = 0.43409 -0.07576
# Poissons Ratio (y) = 0.54028 0.68330
# Poissons Ratio (z) = -0.03398 0.24624
#
# Static dielectric constant tensor:
#      x y z
#    x 1.651330 0.000000 0.011150 
#    y 0.000000 1.618220 0.000000 
#    z 0.011150 0.000000 1.623160 
# 
# From -- ./inp_files/71691.got.cif
#   From: 2010.05.17/outbox.cif.g08.bks.cpg/sg10_36_cif.got.tgz:71691.got - 2010.06.03 11:33:40.
