data_PCOD9149962
_publ_section_title
;
Structure prediction by ZEFSAII (Michael W. Deem and Ramdas Pophale) SiO2 
 PCOD9149962
Probable space group: P 2/M
;
_chemical_formula_sum "Si O2"
_cell_formula_units_Z 24
_cell_length_a 14.756277
_cell_length_b 7.584330
_cell_length_c 16.934620
_cell_angle_alpha 90.000000
_cell_angle_beta 30.136119
_cell_angle_gamma 90.000000
_cell_volume 951.528190
_symmetry_space_group_name_H-M "P 2/M"
_symmetry_group_IT_number 10
_symmetry_cell_setting 'monoclinic'
loop_
_space_group_symop_operation_xyz
x,y,z
-x,y,-z
-x,-y,-z
x,-y,z
loop_
_atom_site_type_symbol
_atom_site_label
_atom_site_fract_x
_atom_site_fract_y
_atom_site_fract_z
Si Si1 0.384645 0.786233 0.334245
Si Si2 0.935103 0.702602 0.847141
Si Si3 0.376988 0.215417 0.164629
Si Si4 0.979089 0.797760 0.641560
Si Si5 0.702202 0.798145 0.350876
Si Si6 0.263106 0.703630 0.848846
O O1 0.444223 0.736620 0.200587
O O2 0.179157 0.720961 0.495472
O O3 0.524695 0.714096 0.291574
O O4 0.387543 0.000000 0.339980
O O5 0.878767 0.500000 0.880657
O O6 0.902428 0.794674 0.788458
O O7 0.147339 0.710322 0.708523
O O8 0.834360 0.778863 0.999886
O O9 0.172708 0.277390 0.301590
O O10 0.373324 0.000000 0.165092
O O11 0.500000 0.276205 0.000000
O O12 0.006285 0.000000 0.595813
O O13 0.500000 0.721165 0.500000
O O14 0.771756 0.793167 0.208272
O O15 0.685901 0.000000 0.391244
O O16 0.206769 0.500000 0.883263
#
# Coordination Sequence:
#
# PCOD9149962 Si02
#       6
#     4   4   4   4   4   4
#     4  10  20  35  57  85 115 148 189 235 281 332
#     4  11  24  40  58  83 115 150 188 230 278 333
#     4   9  17  31  54  83 114 149 188 232 282 331
#     4  10  20  35  57  85 115 148 189 235 281 332
#     4  11  24  41  62  88 114 143 184 231 278 332
#     4  11  24  40  58  83 115 150 188 230 278 333
#
# _framework density 25.222584000000001
#
# number of rings (size 3 to 8) (size 9 to 14) (size 15 to 20)
#    0.000    1.667    0.000    4.500    0.000   14.000 
#    0.000    0.833    0.000    5.000    0.000    0.000 
#    0.000    0.000    0.000    0.000    0.000    0.000 
#
# Total GULP energy -134373.726816 kJ/mol
# GULP energy per Si atom -5598.905284 kJ/mol
# Density = 2.516518 g / cm^3
# Si number density = 25.222584 Si / 1000 Ang^3
#
#
#
# Elastic Constant Matrix: (Units=GPa)
#
#
# Indices 1 2 3 4 5 6 
#
# 1 123.9437 -3.8685 -1.2354 0.0000 -1.4898 0.0000
# 2 -3.8685 66.4053 -6.0605 0.0000 -0.2986 0.0000
# 3 -1.2354 -6.0605 67.3157 0.0000 0.2525 0.0000
# 4 0.0000 0.0000 0.0000 20.8981 0.0000 -8.6798
# 5 -1.4898 -0.2986 0.2525 0.0000 48.5889 0.0000
# 6 0.0000 0.0000 0.0000 -8.6798 0.0000 -43.4646
#
#
#
# Elastic Compliance Matrix: (Units=1/GPa)
#
#
# Indices 1 2 3 4 5 6 
#
# 1 0.008088 0.000490 0.000192 0.000000 0.000250 0.000000
# 2 0.000490 0.015214 0.001378 0.000000 0.000101 0.000000
# 3 0.000192 0.001378 0.014983 0.000000 -0.000064 0.000000
# 4 0.000000 0.000000 0.000000 0.044186 0.000000 -0.008824
# 5 0.000250 0.000101 -0.000064 0.000000 0.020589 0.000000
# 6 0.000000 0.000000 0.000000 -0.008824 0.000000 -0.021245
#
#
# Mechanical properties :
#
#
# Convention : Reuss Voigt Hill
#
# Bulk Modulus (GPa) = 23.58218 26.14843 24.86531
# Shear Modulus (GPa) = 54.44747 23.12640 38.78694
#
# Velocity S-wave (km/s) = 4.65120 3.03131 3.92572
# Velocity P-wave (km/s) = 6.18181 4.75829 5.51617
#
# Compressibility (1/GPa) = 0.04240490
#
# Stress axis : x y z
#
# Youngs Moduli (GPa) = 123.63412 65.72968 66.74128
#
# Poissons Ratio (x) = -0.03219 -0.01279
# Poissons Ratio (y) = -0.06056 -0.09199
# Poissons Ratio (z) = -0.02369 -0.09060
#
# Static dielectric constant tensor:
#      x y z
#    x 1.895850 0.000000 0.006140 
#    y 0.000000 1.923120 0.000000 
#    z 0.006140 0.000000 2.055850 
# 
# From -- ./inp_files/60285.got.cif
#   From: 2010.05.17/outbox.cif.g08.bks.cpg/sg10_31_cif.got.tgz:60285.got - 2010.06.03 11:33:40.
