data_PCOD9149362
_publ_section_title
;
Structure prediction by ZEFSAII (Michael W. Deem and Ramdas Pophale) SiO2 
 PCOD9149362
Probable space group: P 2/M
;
_chemical_formula_sum "Si O2"
_cell_formula_units_Z 32
_cell_length_a 26.298652
_cell_length_b 7.576954
_cell_length_c 20.489845
_cell_angle_alpha 90.000000
_cell_angle_beta 158.480315
_cell_angle_gamma 90.000000
_cell_volume 1497.686258
_symmetry_space_group_name_H-M "P 2/M"
_symmetry_group_IT_number 10
_symmetry_cell_setting 'monoclinic'
loop_
_space_group_symop_operation_xyz
x,y,z
-x,y,-z
-x,-y,-z
x,-y,z
loop_
_atom_site_type_symbol
_atom_site_label
_atom_site_fract_x
_atom_site_fract_y
_atom_site_fract_z
Si Si1 0.581796 0.287073 0.395305
Si Si2 0.905801 0.703116 0.569984
Si Si3 0.088307 0.716502 0.668592
Si Si4 0.863049 0.292208 0.662368
Si Si5 0.400993 0.207605 0.824634
Si Si6 0.079915 0.786142 0.030477
Si Si7 0.609794 0.789768 0.579520
Si Si8 0.403652 0.713221 0.063183
O O1 0.584508 0.500000 0.397553
O O2 0.727252 0.221268 0.537709
O O3 0.570645 0.236274 0.457325
O O4 0.458800 0.229280 0.200084
O O5 0.951111 0.500000 0.633004
O O6 0.893745 0.785312 0.627649
O O7 0.749363 0.705830 0.356033
O O8 0.009763 0.778112 0.640279
O O9 0.087529 0.500000 0.667377
O O10 0.000000 0.771995 0.500000
O O11 0.248755 0.773477 0.860433
O O12 0.833114 0.500000 0.616275
O O13 0.994610 0.273208 0.865949
O O14 0.482904 0.231751 0.854820
O O15 0.378106 0.000000 0.808547
O O16 0.500000 0.277130 0.000000
O O17 0.236528 0.720530 0.222594
O O18 0.079860 0.000000 0.030089
O O19 0.000000 0.727929 0.000000
O O20 0.500000 0.717174 0.500000
O O21 0.617497 0.000000 0.598915
O O22 0.401190 0.500000 0.060041
#
# Coordination Sequence:
#
# PCOD9149362 Si02
#       8
#     4   4   4   4   4   4   4   4
#     4  10  20  35  56  84 114 143 181 229 281 333
#     4  10  20  37  58  83 113 145 185 232 281 334
#     4   9  18  33  57  86 112 144 186 229 277 333
#     4  10  20  34  55  85 114 141 179 229 279 327
#     4  11  23  36  53  82 114 146 189 235 279 331
#     4  10  20  35  56  80 104 142 187 221 266 324
#     4  10  22  39  57  80 112 148 187 229 272 327
#     4  10  20  37  59  84 113 148 190 232 281 344
#
# _framework density 21.366289999999999
#
# number of rings (size 3 to 8) (size 9 to 14) (size 15 to 20)
#    0.000    2.000    2.500    1.125    0.000    5.000 
#    0.000    1.875    0.000    2.250    0.000    0.000 
#    0.000    0.000    0.000    0.000    0.000    0.000 
#
# Total GULP energy -178773.851499 kJ/mol
# GULP energy per Si atom -5586.682859 kJ/mol
# Density = 2.131766 g / cm^3
# Si number density = 21.366290 Si / 1000 Ang^3
#
#
#
# Elastic Constant Matrix: (Units=GPa)
#
#
# Indices 1 2 3 4 5 6 
#
# 1 90.8535 -2.2174 9.0614 0.0000 5.8428 0.0000
# 2 -2.2174 47.6476 -6.7236 0.0000 5.0482 0.0000
# 3 9.0614 -6.7236 85.8304 0.0000 1.3854 0.0000
# 4 0.0000 0.0000 0.0000 -8.2109 0.0000 -7.3058
# 5 5.8428 5.0482 1.3854 0.0000 42.7404 0.0000
# 6 0.0000 0.0000 0.0000 -7.3058 0.0000 15.0283
#
#
#
# Elastic Compliance Matrix: (Units=1/GPa)
#
#
# Indices 1 2 3 4 5 6 
#
# 1 0.011232 0.000530 -0.001119 0.000000 -0.001562 0.000000
# 2 0.000530 0.021531 0.001674 0.000000 -0.002670 0.000000
# 3 -0.001119 0.001674 0.011907 0.000000 -0.000431 0.000000
# 4 0.000000 0.000000 0.000000 -0.085016 0.000000 -0.041329
# 5 -0.001562 -0.002670 -0.000431 0.000000 0.023940 0.000000
# 6 0.000000 0.000000 0.000000 -0.041329 0.000000 0.046449
#
#
# Mechanical properties :
#
#
# Convention : Reuss Voigt Hill
#
# Bulk Modulus (GPa) = 21.34927 24.95247 23.15087
# Shear Modulus (GPa) = 114.97773 24.85897 69.91835
#
# Velocity S-wave (km/s) = 7.34367 3.41466 5.72667
# Velocity P-wave (km/s) = 9.05095 5.22019 7.38817
#
# Compressibility (1/GPa) = 0.04684000
#
# Stress axis : x y z
#
# Youngs Moduli (GPa) = 89.03359 46.44433 83.98360
#
# Poissons Ratio (x) = -0.02463 0.09398
# Poissons Ratio (y) = -0.04721 -0.14057
# Poissons Ratio (z) = 0.09963 -0.07774
#
# Static dielectric constant tensor:
#      x y z
#    x 1.757370 0.000000 0.014850 
#    y 0.000000 1.809050 0.000000 
#    z 0.014850 0.000000 1.804370 
# 
# From -- ./inp_files/87044.got.cif
#   From: 2010.05.17/outbox.cif.g08.bks.cpg/sg10_44_cif.got.tgz:87044.got - 2010.06.03 11:33:40.
