data_PCOD9149953
_publ_section_title
;
Structure prediction by ZEFSAII (Michael W. Deem and Ramdas Pophale) SiO2 
 PCOD9149953
Probable space group: P 2/M
;
_chemical_formula_sum "Si O2"
_cell_formula_units_Z 20
_cell_length_a 8.101900
_cell_length_b 13.407303
_cell_length_c 11.608918
_cell_angle_alpha 90.000000
_cell_angle_beta 49.477341
_cell_angle_gamma 90.000000
_cell_volume 958.558920
_symmetry_space_group_name_H-M "P 2/M"
_symmetry_group_IT_number 10
_symmetry_cell_setting 'monoclinic'
loop_
_space_group_symop_operation_xyz
x,y,z
-x,y,-z
-x,-y,-z
x,-y,z
loop_
_atom_site_type_symbol
_atom_site_label
_atom_site_fract_x
_atom_site_fract_y
_atom_site_fract_z
Si Si1 0.763316 0.386586 0.583453
Si Si2 0.826877 0.385477 0.289256
Si Si3 0.217725 0.884399 0.324503
Si Si4 0.751241 0.731432 0.899800
Si Si5 0.395866 0.244444 0.791168
O O1 0.770130 0.500000 0.618237
O O2 0.728361 0.382430 0.462149
O O3 0.571838 0.331853 0.732924
O O4 0.000000 0.342242 0.500000
O O5 0.795176 0.500000 0.259289
O O6 0.734243 0.294259 0.255213
O O7 0.081312 0.359358 0.186771
O O8 0.199572 0.816123 0.218000
O O9 0.434047 0.847209 0.295785
O O10 0.000000 0.876355 0.500000
O O11 0.244967 0.000000 0.280277
O O12 0.755826 0.771187 0.029606
O O13 0.500000 0.703630 0.000000
#
# Coordination Sequence:
#
# PCOD9149953 Si02
#       5
#     4   4   4   4   4
#     4  10  20  35  57  84 118 164 210 248 292 353
#     4  11  23  38  58  89 130 170 205 247 300 359
#     4  10  22  43  69  91 115 154 204 257 310 366
#     4  10  22  38  60  88 120 161 206 252 302 359
#     4  11  21  35  58  88 124 158 197 249 306 361
#
# _framework density 20.864652
#
# number of rings (size 3 to 8) (size 9 to 14) (size 15 to 20)
#    0.000    1.600    0.000    6.000    0.000    8.000 
#    0.000    4.000    0.000   10.800    0.000    0.000 
#    0.000    0.000    0.000    0.000    0.000    0.000 
#
# Total GULP energy -111521.397901 kJ/mol
# GULP energy per Si atom -5576.069895 kJ/mol
# Density = 2.081716 g / cm^3
# Si number density = 20.864652 Si / 1000 Ang^3
#
#
#
# Elastic Constant Matrix: (Units=GPa)
#
#
# Indices 1 2 3 4 5 6 
#
# 1 78.2025 29.5172 21.0186 0.0000 6.0792 0.0000
# 2 29.5172 103.6524 33.0727 0.0000 4.7784 0.0000
# 3 21.0186 33.0727 110.7789 0.0000 7.2489 0.0000
# 4 0.0000 0.0000 0.0000 221.3214 0.0000 -42.4314
# 5 6.0792 4.7784 7.2489 0.0000 27.9438 0.0000
# 6 0.0000 0.0000 0.0000 -42.4314 0.0000 41.3599
#
#
#
# Elastic Compliance Matrix: (Units=1/GPa)
#
#
# Indices 1 2 3 4 5 6 
#
# 1 0.014738 -0.003592 -0.001581 0.000000 -0.002182 0.000000
# 2 -0.003592 0.011567 -0.002740 0.000000 -0.000486 0.000000
# 3 -0.001581 -0.002740 0.010266 0.000000 -0.001851 0.000000
# 4 0.000000 0.000000 0.000000 0.005625 0.000000 0.005770
# 5 -0.002182 -0.000486 -0.001851 0.000000 0.036824 0.000000
# 6 0.000000 0.000000 0.000000 0.005770 0.000000 0.030098
#
#
# Mechanical properties :
#
#
# Convention : Reuss Voigt Hill
#
# Bulk Modulus (GPa) = 48.20461 51.09452 49.64957
# Shear Modulus (GPa) = 37.91957 72.06004 54.98981
#
# Velocity S-wave (km/s) = 4.26773 5.88319 5.13933
# Velocity P-wave (km/s) = 6.88755 8.40779 7.68535
#
# Compressibility (1/GPa) = 0.02074490
#
# Stress axis : x y z
#
# Youngs Moduli (GPa) = 67.85366 86.45181 97.40775
#
# Poissons Ratio (x) = 0.31051 0.15402
# Poissons Ratio (y) = 0.24371 0.26690
# Poissons Ratio (z) = 0.10729 0.23688
#
# Static dielectric constant tensor:
#      x y z
#    x 1.880580 0.000000 0.002240 
#    y 0.000000 1.737570 0.000000 
#    z 0.002240 0.000000 1.761590 
# 
# From -- ./inp_files/32697.got.cif
#   From: 2010.05.17/outbox.cif.g08.bks.cpg/sg10_17_cif.got.tgz:32697.got - 2010.06.03 11:33:40.
