data_PCOD9149815
_publ_section_title
;
Structure prediction by ZEFSAII (Michael W. Deem and Ramdas Pophale) SiO2 
 PCOD9149815
Probable space group: P 2/M
;
_chemical_formula_sum "Si O2"
_cell_formula_units_Z 28
_cell_length_a 12.384717
_cell_length_b 7.625648
_cell_length_c 12.455980
_cell_angle_alpha 90.000000
_cell_angle_beta 110.517924
_cell_angle_gamma 90.000000
_cell_volume 1101.736021
_symmetry_space_group_name_H-M "P 2/M"
_symmetry_group_IT_number 10
_symmetry_cell_setting 'monoclinic'
loop_
_space_group_symop_operation_xyz
x,y,z
-x,y,-z
-x,-y,-z
x,-y,z
loop_
_atom_site_type_symbol
_atom_site_label
_atom_site_fract_x
_atom_site_fract_y
_atom_site_fract_z
Si Si1 0.322271 0.195446 0.778003
Si Si2 0.662884 0.715040 0.735759
Si Si3 0.322375 0.697582 0.019749
Si Si4 0.191807 0.285440 0.410057
Si Si5 0.953116 0.699041 0.089814
Si Si6 0.944710 0.286690 0.326806
Si Si7 0.417762 0.697752 0.604044
O O1 0.186115 0.223731 0.705010
O O2 0.395162 0.312683 0.723658
O O3 0.354046 0.000000 0.759305
O O4 0.349443 0.220670 0.913365
O O5 0.663415 0.500000 0.741902
O O6 0.655608 0.779916 0.855851
O O7 0.772425 0.762378 0.700192
O O8 0.545486 0.771553 0.635221
O O9 0.370013 0.500000 0.034882
O O10 0.183548 0.686043 0.969540
O O11 0.187631 0.500000 0.411764
O O12 0.301831 0.221201 0.515600
O O13 0.068727 0.233222 0.419489
O O14 0.003320 0.500000 0.110495
O O15 0.972046 0.771238 0.213701
O O16 0.000000 0.788357 0.000000
O O17 0.936082 0.500000 0.331454
O O18 0.419771 0.500000 0.561666
#
# Coordination Sequence:
#
# PCOD9149815 Si02
#       7
#     4   4   4   4   4   4   4
#     4  11  23  38  53  73 106 145 186 225 265 313
#     4   9  17  31  56  88 113 135 170 218 269 319
#     4   9  17  31  53  79 106 136 173 217 265 318
#     4   9  17  31  56  88 113 135 170 218 269 319
#     4   8  12  20  40  70  99 126 159 202 250 302
#     4   9  17  31  53  79 106 136 173 217 265 318
#     4  10  20  35  56  81 111 143 177 219 263 312
#
# _framework density 25.414435999999998
#
# number of rings (size 3 to 8) (size 9 to 14) (size 15 to 20)
#    0.000    2.714    0.000    3.429    0.000    6.286 
#    0.000    7.143    0.000   18.857    0.000    0.000 
#    0.000    0.000    0.000    0.000    0.000    0.000 
#
# Total GULP energy -156176.528123 kJ/mol
# GULP energy per Si atom -5577.733147 kJ/mol
# Density = 2.535659 g / cm^3
# Si number density = 25.414436 Si / 1000 Ang^3
#
#
#
# Elastic Constant Matrix: (Units=GPa)
#
#
# Indices 1 2 3 4 5 6 
#
# 1 127.7780 0.0730 22.8699 0.0000 -2.9765 0.0000
# 2 0.0730 65.5272 2.7452 0.0000 -2.3905 0.0000
# 3 22.8699 2.7452 78.1611 0.0000 0.5104 0.0000
# 4 0.0000 0.0000 0.0000 -23.2020 0.0000 -2.9974
# 5 -2.9765 -2.3905 0.5104 0.0000 51.8845 0.0000
# 6 0.0000 0.0000 0.0000 -2.9974 0.0000 35.4367
#
#
#
# Elastic Compliance Matrix: (Units=1/GPa)
#
#
# Indices 1 2 3 4 5 6 
#
# 1 0.008272 0.000111 -0.002428 0.000000 0.000504 0.000000
# 2 0.000111 0.015311 -0.000575 0.000000 0.000717 0.000000
# 3 -0.002428 -0.000575 0.013527 0.000000 -0.000299 0.000000
# 4 0.000000 0.000000 0.000000 -0.042634 0.000000 -0.003606
# 5 0.000504 0.000717 -0.000299 0.000000 0.019338 0.000000
# 6 0.000000 0.000000 0.000000 -0.003606 0.000000 0.027914
#
#
# Mechanical properties :
#
#
# Convention : Reuss Voigt Hill
#
# Bulk Modulus (GPa) = 31.92192 35.87140 33.89666
# Shear Modulus (GPa) = 86.27499 29.20905 57.74202
#
# Velocity S-wave (km/s) = 5.83275 3.39382 4.77174
# Velocity P-wave (km/s) = 7.61243 5.43163 6.61255
#
# Compressibility (1/GPa) = 0.03132644
#
# Stress axis : x y z
#
# Youngs Moduli (GPa) = 120.88622 65.31266 73.92861
#
# Poissons Ratio (x) = -0.00724 0.17947
# Poissons Ratio (y) = -0.01340 0.04250
# Poissons Ratio (z) = 0.29347 0.03755
#
# Static dielectric constant tensor:
#      x y z
#    x 1.982160 0.000000 0.026690 
#    y 0.000000 2.012500 0.000000 
#    z 0.026690 0.000000 2.120670 
# 
# From -- ./inp_files/49395.got.cif
#   From: 2010.05.17/outbox.cif.g08.bks.cpg/sg10_25_cif.got.tgz:49395.got - 2010.06.03 11:33:40.
