data_PCOD9149358
_publ_section_title
;
Structure prediction by ZEFSAII (Michael W. Deem and Ramdas Pophale) SiO2 
 PCOD9149358
Probable space group: P 2/M
;
_chemical_formula_sum "Si O2"
_cell_formula_units_Z 26
_cell_length_a 19.847578
_cell_length_b 7.810856
_cell_length_c 8.593557
_cell_angle_alpha 90.000000
_cell_angle_beta 122.287015
_cell_angle_gamma 90.000000
_cell_volume 1126.244222
_symmetry_space_group_name_H-M "P 2/M"
_symmetry_group_IT_number 10
_symmetry_cell_setting 'monoclinic'
loop_
_space_group_symop_operation_xyz
x,y,z
-x,y,-z
-x,-y,-z
x,-y,z
loop_
_atom_site_type_symbol
_atom_site_label
_atom_site_fract_x
_atom_site_fract_y
_atom_site_fract_z
Si Si1 0.161380 0.688723 0.259416
Si Si2 0.227839 0.199563 0.024012
Si Si3 0.533509 0.209205 0.376217
Si Si4 0.000000 0.763863 0.000000
Si Si5 0.940941 0.699849 0.288329
Si Si6 0.312805 0.206920 0.599252
Si Si7 0.379077 0.791141 0.012287
O O1 0.122985 0.500000 0.223560
O O2 0.209799 0.701515 0.159603
O O3 0.225301 0.718940 0.470573
O O4 0.088768 0.819141 0.157007
O O5 0.239865 0.000000 0.079251
O O6 0.146598 0.214407 0.822959
O O7 0.307631 0.261285 0.038455
O O8 0.500000 0.264081 0.500000
O O9 0.623272 0.262481 0.451479
O O10 0.535113 0.000000 0.376367
O O11 0.466924 0.264459 0.170112
O O12 0.025266 0.709073 0.848904
O O13 0.927540 0.500000 0.304633
O O14 0.000000 0.763559 0.500000
O O15 0.353141 0.259315 0.809294
O O16 0.305488 0.000000 0.585041
O O17 0.380190 0.000000 0.016207
#
# Coordination Sequence:
#
# PCOD9149358 Si02
#       7
#     4   4   4   2   4   4   4
#     4  11  22  38  59  80 109 146 189 233 285 342
#     4  10  20  36  56  81 112 144 183 234 283 330
#     4   9  16  29  53  82 111 147 186 223 268 327
#     4  10  21  40  59  80 109 148 197 244 279 342
#     4  10  21  37  59  82 111 151 195 236 286 346
#     4  10  20  34  55  84 114 144 184 230 279 332
#     4   9  18  32  53  83 117 148 181 227 277 330
#
# _framework density 23.085578999999999
#
# number of rings (size 3 to 8) (size 9 to 14) (size 15 to 20)
#    0.000    2.154    0.000    4.615    2.154    4.615 
#    0.000   10.385    0.000    6.923    0.000    0.000 
#    0.000    0.000    0.000    0.000    0.000    0.000 
#
# Total GULP energy -144876.496282 kJ/mol
# GULP energy per Si atom -5572.172934 kJ/mol
# Density = 2.303304 g / cm^3
# Si number density = 23.085579 Si / 1000 Ang^3
#
#
#
# Elastic Constant Matrix: (Units=GPa)
#
#
# Indices 1 2 3 4 5 6 
#
# 1 88.9029 8.8237 14.5475 0.0000 22.1081 0.0000
# 2 8.8237 52.0387 3.8345 0.0000 1.3568 0.0000
# 3 14.5475 3.8345 140.4406 0.0000 28.6065 0.0000
# 4 0.0000 0.0000 0.0000 7.0629 0.0000 -1.1211
# 5 22.1081 1.3568 28.6065 0.0000 34.8108 0.0000
# 6 0.0000 0.0000 0.0000 -1.1211 0.0000 5.3198
#
#
#
# Elastic Compliance Matrix: (Units=1/GPa)
#
#
# Indices 1 2 3 4 5 6 
#
# 1 0.013605 -0.002108 0.000470 0.000000 -0.008945 0.000000
# 2 -0.002108 0.019586 -0.000521 0.000000 0.001004 0.000000
# 3 0.000470 -0.000521 0.008579 0.000000 -0.007328 0.000000
# 4 0.000000 0.000000 0.000000 0.146486 0.000000 0.030871
# 5 -0.008945 0.001004 -0.007328 0.000000 0.040390 0.000000
# 6 0.000000 0.000000 0.000000 0.030871 0.000000 0.194484
#
#
# Mechanical properties :
#
#
# Convention : Reuss Voigt Hill
#
# Bulk Modulus (GPa) = 26.70083 37.31039 32.00561
# Shear Modulus (GPa) = 11.36542 26.38378 18.87460
#
# Velocity S-wave (km/s) = 2.22123 3.38430 2.86246
# Velocity P-wave (km/s) = 4.26258 5.60965 4.98186
#
# Compressibility (1/GPa) = 0.03745202
#
# Stress axis : x y z
#
# Youngs Moduli (GPa) = 73.50311 51.05648 116.56902
#
# Poissons Ratio (x) = 0.10764 -0.05482
# Poissons Ratio (y) = 0.15496 0.06071
# Poissons Ratio (z) = -0.03457 0.02659
#
# Static dielectric constant tensor:
#      x y z
#    x 1.826060 0.000000 -0.023880 
#    y 0.000000 1.996050 0.000000 
#    z -0.023880 0.000000 1.873740 
# 
# From -- ./inp_files/34198.got.cif
#   From: 2010.05.17/outbox.cif.g08.bks.cpg/sg10_18_cif.got.tgz:34198.got - 2010.06.03 11:33:40.
