data_PCOD9149747
_publ_section_title
;
Structure prediction by ZEFSAII (Michael W. Deem and Ramdas Pophale) SiO2 
 PCOD9149747
Probable space group: P 2/M
;
_chemical_formula_sum "Si O2"
_cell_formula_units_Z 32
_cell_length_a 25.351841
_cell_length_b 8.616345
_cell_length_c 16.609756
_cell_angle_alpha 90.000000
_cell_angle_beta 153.439502
_cell_angle_gamma 90.000000
_cell_volume 1622.339719
_symmetry_space_group_name_H-M "P 2/M"
_symmetry_group_IT_number 10
_symmetry_cell_setting 'monoclinic'
loop_
_space_group_symop_operation_xyz
x,y,z
-x,y,-z
-x,-y,-z
x,-y,z
loop_
_atom_site_type_symbol
_atom_site_label
_atom_site_fract_x
_atom_site_fract_y
_atom_site_fract_z
Si Si1 0.826163 0.686298 0.954306
Si Si2 0.255849 0.185794 0.856082
Si Si3 0.508430 0.189405 0.266643
Si Si4 0.276206 0.815630 0.547771
Si Si5 0.591871 0.812800 0.556854
Si Si6 0.946696 0.314385 0.840226
Si Si7 0.184131 0.314236 0.590042
Si Si8 0.911662 0.687446 0.241039
O O1 0.813262 0.500000 0.934581
O O2 0.720701 0.758488 0.759646
O O3 0.833202 0.736943 0.056874
O O4 0.952197 0.722494 0.086519
O O5 0.249979 0.247572 0.757534
O O6 0.144955 0.247091 0.755537
O O7 0.253751 0.000000 0.852393
O O8 0.376374 0.238497 0.064244
O O9 0.601554 0.238175 0.325445
O O10 0.551880 0.242131 0.413955
O O11 0.509185 0.000000 0.269080
O O12 0.172056 0.774018 0.343322
O O13 0.241441 0.740186 0.584996
O O14 0.282093 0.000000 0.566886
O O15 0.500000 0.760498 0.500000
O O16 0.590869 0.000000 0.554155
O O17 0.923913 0.500000 0.805778
O O18 0.000000 0.277672 0.000000
O O19 0.185393 0.500000 0.594022
O O20 0.046693 0.264214 0.409681
O O21 0.910352 0.500000 0.242852
#
# Coordination Sequence:
#
# PCOD9149747 Si02
#       8
#     4   4   4   4   4   4   4   4
#     4  10  20  35  55  83 116 153 191 234 291 347
#     4  11  23  40  63  89 116 151 200 248 294 355
#     4   9  21  40  58  83 123 160 192 244 306 349
#     4  11  22  38  61  86 117 157 202 246 292 351
#     4  10  20  36  58  84 116 157 200 242 292 346
#     4  10  20  36  57  83 117 156 194 237 294 350
#     4  11  23  42  63  86 121 157 192 243 306 358
#     4  10  21  39  60  84 121 158 189 237 305 361
#
# _framework density 19.724599000000001
#
# number of rings (size 3 to 8) (size 9 to 14) (size 15 to 20)
#    0.000    1.750    1.250    3.000    0.000    5.500 
#    0.000    6.875    0.000    0.000    0.000    0.000 
#    0.000    0.000    0.000    0.000    0.000    0.000 
#
# Total GULP energy -178828.977452 kJ/mol
# GULP energy per Si atom -5588.405545 kJ/mol
# Density = 1.967970 g / cm^3
# Si number density = 19.724599 Si / 1000 Ang^3
#
#
#
# Elastic Constant Matrix: (Units=GPa)
#
#
# Indices 1 2 3 4 5 6 
#
# 1 107.3237 17.4275 25.4589 0.0000 -2.6291 0.0000
# 2 17.4275 17.6032 14.4936 0.0000 -0.9859 0.0000
# 3 25.4589 14.4936 86.6212 0.0000 -5.8796 0.0000
# 4 0.0000 0.0000 0.0000 32.5599 0.0000 -2.7043
# 5 -2.6291 -0.9859 -5.8796 0.0000 32.1118 0.0000
# 6 0.0000 0.0000 0.0000 -2.7043 0.0000 24.5895
#
#
#
# Elastic Compliance Matrix: (Units=1/GPa)
#
#
# Indices 1 2 3 4 5 6 
#
# 1 0.011313 -0.009815 -0.001661 0.000000 0.000321 0.000000
# 2 -0.009815 0.074399 -0.009583 0.000000 -0.000274 0.000000
# 3 -0.001661 -0.009583 0.013778 0.000000 0.002093 0.000000
# 4 0.000000 0.000000 0.000000 0.030996 0.000000 0.003409
# 5 0.000321 -0.000274 0.002093 0.000000 0.031542 0.000000
# 6 0.000000 0.000000 0.000000 0.003409 0.000000 0.041043
#
#
# Mechanical properties :
#
#
# Convention : Reuss Voigt Hill
#
# Bulk Modulus (GPa) = 17.42960 36.25645 26.84302
# Shear Modulus (GPa) = 18.91705 28.13011 23.52358
#
# Velocity S-wave (km/s) = 3.10023 3.78053 3.45715
# Velocity P-wave (km/s) = 4.65520 6.12191 5.43823
#
# Compressibility (1/GPa) = 0.05737367
#
# Stress axis : x y z
#
# Youngs Moduli (GPa) = 88.39213 13.44108 72.57879
#
# Poissons Ratio (x) = 0.13192 0.12056
# Poissons Ratio (y) = 0.86754 0.69549
# Poissons Ratio (z) = 0.14683 0.12880
#
# Static dielectric constant tensor:
#      x y z
#    x 1.690290 0.000000 -0.003360 
#    y 0.000000 1.672550 0.000000 
#    z -0.003360 0.000000 1.679970 
# 
# From -- ./inp_files/71627.got.cif
#   From: 2010.05.17/outbox.cif.g08.bks.cpg/sg10_36_cif.got.tgz:71627.got - 2010.06.03 11:33:40.
