data_PCOD9149889
_publ_section_title
;
Structure prediction by ZEFSAII (Michael W. Deem and Ramdas Pophale) SiO2 
 PCOD9149889
Probable space group: P 2/M
;
_chemical_formula_sum "Si O2"
_cell_formula_units_Z 28
_cell_length_a 9.053126
_cell_length_b 9.559803
_cell_length_c 29.629106
_cell_angle_alpha 90.000000
_cell_angle_beta 141.253172
_cell_angle_gamma 90.000000
_cell_volume 1604.934579
_symmetry_space_group_name_H-M "P 2/M"
_symmetry_group_IT_number 10
_symmetry_cell_setting 'monoclinic'
loop_
_space_group_symop_operation_xyz
x,y,z
-x,y,-z
-x,-y,-z
x,-y,z
loop_
_atom_site_type_symbol
_atom_site_label
_atom_site_fract_x
_atom_site_fract_y
_atom_site_fract_z
Si Si1 0.350797 0.161527 0.366112
Si Si2 0.571381 0.168343 0.195886
Si Si3 0.056571 0.169457 0.792803
Si Si4 0.690036 0.660546 0.503767
Si Si5 0.782319 0.835319 0.068932
Si Si6 0.912719 0.335582 0.927814
Si Si7 0.975555 0.840432 0.360084
O O1 0.566539 0.255273 0.433909
O O2 0.196539 0.215577 0.287137
O O3 0.161639 0.160184 0.362497
O O4 0.422711 0.000000 0.376009
O O5 0.736763 0.209702 0.192817
O O6 0.332236 0.253935 0.137247
O O7 0.726138 0.195016 0.277737
O O8 0.530668 0.000000 0.183775
O O9 0.120605 0.208016 0.858779
O O10 0.048876 0.000000 0.789061
O O11 0.500000 0.662871 0.500000
O O12 0.734427 0.500000 0.502803
O O13 0.920400 0.737716 0.577873
O O14 0.898440 0.739135 0.059137
O O15 0.157611 0.000000 0.923925
O O16 0.500000 0.824618 0.000000
O O17 0.887614 0.500000 0.911524
O O18 0.000000 0.322084 0.000000
O O19 0.968177 0.000000 0.375296
#
# Coordination Sequence:
#
# PCOD9149889 Si02
#       7
#     4   4   4   4   4   4   4
#     4   8  13  23  39  59  89 125 157 194 240 287
#     4   9  17  32  54  76  98 127 166 208 246 289
#     4   8  15  29  50  76 100 124 161 208 253 292
#     4   9  15  21  32  56  91 127 162 197 232 276
#     4  10  20  35  57  80  99 124 162 206 248 291
#     4  11  24  38  51  72 103 135 164 196 240 294
#     4   8  14  24  40  63  90 122 158 196 241 286
#
# _framework density 17.446194999999999
#
# number of rings (size 3 to 8) (size 9 to 14) (size 15 to 20)
#    0.000    3.000    0.000    3.429    0.000    4.857 
#    0.000    3.571    0.000    0.000    0.000    1.000 
#    0.000    8.000    0.000    0.000    0.000    0.000 
#
# Total GULP energy -156033.471068 kJ/mol
# GULP energy per Si atom -5572.623967 kJ/mol
# Density = 1.740649 g / cm^3
# Si number density = 17.446195 Si / 1000 Ang^3
#
#
#
# Elastic Constant Matrix: (Units=GPa)
#
#
# Indices 1 2 3 4 5 6 
#
# 1 46.6518 41.7684 40.5347 0.0000 -3.6577 0.0000
# 2 41.7684 103.1885 93.7452 0.0000 3.7460 0.0000
# 3 40.5347 93.7452 145.3186 0.0000 -5.3848 0.0000
# 4 0.0000 0.0000 0.0000 12.2380 0.0000 -1.8872
# 5 -3.6577 3.7460 -5.3848 0.0000 18.6875 0.0000
# 6 0.0000 0.0000 0.0000 -1.8872 0.0000 12.6644
#
#
#
# Elastic Compliance Matrix: (Units=1/GPa)
#
#
# Indices 1 2 3 4 5 6 
#
# 1 0.035334 -0.014580 -0.000087 0.000000 0.009813 0.000000
# 2 -0.014580 0.031082 -0.016497 0.000000 -0.013838 0.000000
# 3 -0.000087 -0.016497 0.017861 0.000000 0.008436 0.000000
# 4 0.000000 0.000000 0.000000 0.083634 0.000000 0.012463
# 5 0.009813 -0.013838 0.008436 0.000000 0.060637 0.000000
# 6 0.000000 0.000000 0.000000 0.012463 0.000000 0.080818
#
#
# Mechanical properties :
#
#
# Convention : Reuss Voigt Hill
#
# Bulk Modulus (GPa) = 45.55954 71.91727 58.73840
# Shear Modulus (GPa) = 13.19223 16.65870 14.92547
#
# Velocity S-wave (km/s) = 2.75283 3.09344 2.92809
# Velocity P-wave (km/s) = 6.02288 7.35329 6.72109
#
# Compressibility (1/GPa) = 0.02194930
#
# Stress axis : x y z
#
# Youngs Moduli (GPa) = 28.30148 32.17259 55.98891
#
# Poissons Ratio (x) = 0.46906 0.00487
# Poissons Ratio (y) = 0.41263 0.92366
# Poissons Ratio (z) = 0.00246 0.53076
#
# Static dielectric constant tensor:
#      x y z
#    x 1.589340 0.000000 -0.007230 
#    y 0.000000 1.573610 0.000000 
#    z -0.007230 0.000000 1.602750 
# 
# From -- ./inp_files/86459.got.cif
#   From: 2010.05.17/outbox.cif.g08.bks.cpg/sg10_44_cif.got.tgz:86459.got - 2010.06.03 11:33:40.
