data_PCOD9149197
_publ_section_title
;
Structure prediction by ZEFSAII (Michael W. Deem and Ramdas Pophale) SiO2 
 PCOD9149197
Probable space group: P 2/M
;
_chemical_formula_sum "Si O2"
_cell_formula_units_Z 32
_cell_length_a 17.672490
_cell_length_b 8.932510
_cell_length_c 28.411765
_cell_angle_alpha 90.000000
_cell_angle_beta 23.624154
_cell_angle_gamma 90.000000
_cell_volume 1797.326904
_symmetry_space_group_name_H-M "P 2/M"
_symmetry_group_IT_number 10
_symmetry_cell_setting 'monoclinic'
loop_
_space_group_symop_operation_xyz
x,y,z
-x,y,-z
-x,-y,-z
x,-y,z
loop_
_atom_site_type_symbol
_atom_site_label
_atom_site_fract_x
_atom_site_fract_y
_atom_site_fract_z
Si Si1 0.603623 0.820951 0.839327
Si Si2 0.803662 0.679301 0.474997
Si Si3 0.808112 0.329613 0.078102
Si Si4 0.018154 0.822647 0.877034
Si Si5 0.621593 0.680860 0.277966
Si Si6 0.204675 0.321026 0.076624
Si Si7 0.966687 0.819759 0.572306
Si Si8 0.165550 0.320581 0.208573
O O1 0.404218 0.742732 0.945285
O O2 0.760593 0.780285 0.710679
O O3 0.689395 0.764114 0.840045
O O4 0.581768 0.000000 0.852389
O O5 0.803184 0.500000 0.481478
O O6 0.588905 0.724123 0.587111
O O7 0.882015 0.752692 0.477846
O O8 0.956219 0.713914 0.347580
O O9 0.770836 0.500000 0.083253
O O10 0.653029 0.281464 0.204679
O O11 0.856633 0.225589 0.006758
O O12 0.000000 0.333645 0.000000
O O13 0.214066 0.757088 0.785529
O O14 0.028200 0.000000 0.868052
O O15 0.959549 0.749700 0.861242
O O16 0.644704 0.500000 0.268181
O O17 0.200432 0.500000 0.074835
O O18 0.186113 0.281684 0.142324
O O19 0.000000 0.769093 0.500000
O O20 0.980952 0.000000 0.565402
O O21 0.197229 0.500000 0.195495
#
# Coordination Sequence:
#
# PCOD9149197 Si02
#       8
#     4   4   4   4   4   4   4   4
#     4  10  20  34  54  79 105 134 168 208 254 304
#     4   9  18  34  56  79 101 130 173 215 249 297
#     4   8  15  30  50  71  98 131 164 199 244 296
#     4  11  22  34  50  75 105 135 171 214 256 300
#     4   9  18  34  55  77 103 136 171 208 252 302
#     4  11  22  36  54  74 101 136 171 212 260 305
#     4   9  19  35  52  75 110 143 168 201 248 300
#     4   9  19  36  56  77 100 131 171 211 254 306
#
# _framework density 17.804217999999999
#
# number of rings (size 3 to 8) (size 9 to 14) (size 15 to 20)
#    0.000    2.500    0.000    3.000    0.000    7.000 
#    0.000    3.125    0.000    3.750    0.000    0.000 
#    0.000    0.000    0.000    0.000    0.000    0.000 
#
# Total GULP energy -178517.855050 kJ/mol
# GULP energy per Si atom -5578.682970 kJ/mol
# Density = 1.776369 g / cm^3
# Si number density = 17.804218 Si / 1000 Ang^3
#
#
#
# Elastic Constant Matrix: (Units=GPa)
#
#
# Indices 1 2 3 4 5 6 
#
# 1 94.6408 40.1599 55.4338 0.0000 7.4292 0.0000
# 2 40.1599 44.5506 34.9935 0.0000 0.9223 0.0000
# 3 55.4338 34.9935 84.3160 0.0000 -11.1711 0.0000
# 4 0.0000 0.0000 0.0000 20.5624 0.0000 6.1163
# 5 7.4292 0.9223 -11.1711 0.0000 23.6902 0.0000
# 6 0.0000 0.0000 0.0000 6.1163 0.0000 56.0561
#
#
#
# Elastic Compliance Matrix: (Units=1/GPa)
#
#
# Indices 1 2 3 4 5 6 
#
# 1 0.023784 -0.011176 -0.012724 0.000000 -0.013023 0.000000
# 2 -0.011176 0.040172 -0.009672 0.000000 -0.002620 0.000000
# 3 -0.012724 -0.009672 0.026472 0.000000 0.016850 0.000000
# 4 0.000000 0.000000 0.000000 0.050264 0.000000 -0.005484
# 5 -0.013023 -0.002620 0.016850 0.000000 0.054343 0.000000
# 6 0.000000 0.000000 0.000000 -0.005484 0.000000 0.018438
#
#
# Mechanical properties :
#
#
# Convention : Reuss Voigt Hill
#
# Bulk Modulus (GPa) = 42.94722 53.85354 48.40038
# Shear Modulus (GPa) = 17.33834 26.25641 21.79737
#
# Velocity S-wave (km/s) = 3.12402 3.84439 3.50277
# Velocity P-wave (km/s) = 6.09811 7.07241 6.60326
#
# Compressibility (1/GPa) = 0.02328440
#
# Stress axis : x y z
#
# Youngs Moduli (GPa) = 42.04574 24.89278 37.77542
#
# Poissons Ratio (x) = 0.27819 0.48065
# Poissons Ratio (y) = 0.46989 0.36538
# Poissons Ratio (z) = 0.53499 0.24077
#
# Static dielectric constant tensor:
#      x y z
#    x 1.587050 0.000000 0.010230 
#    y 0.000000 1.593130 0.000000 
#    z 0.010230 0.000000 1.629310 
# 
# From -- ./inp_files/89504.got.cif
#   From: 2010.05.17/outbox.cif.g08.bks.cpg/sg10_45_cif.got.tgz:89504.got - 2010.06.03 11:33:40.
