data_PCOD9149984
_publ_section_title
;
Structure prediction by ZEFSAII (Michael W. Deem and Ramdas Pophale) SiO2 
 PCOD9149984
Probable space group: P 2/M
;
_chemical_formula_sum "Si O2"
_cell_formula_units_Z 28
_cell_length_a 12.048722
_cell_length_b 8.654667
_cell_length_c 15.368418
_cell_angle_alpha 90.000000
_cell_angle_beta 61.505151
_cell_angle_gamma 90.000000
_cell_volume 1408.446039
_symmetry_space_group_name_H-M "P 2/M"
_symmetry_group_IT_number 10
_symmetry_cell_setting 'monoclinic'
loop_
_space_group_symop_operation_xyz
x,y,z
-x,y,-z
-x,-y,-z
x,-y,z
loop_
_atom_site_type_symbol
_atom_site_label
_atom_site_fract_x
_atom_site_fract_y
_atom_site_fract_z
Si Si1 0.373457 0.683569 0.495069
Si Si2 0.144589 0.180925 0.189571
Si Si3 0.878446 0.676685 0.983789
Si Si4 0.460903 0.176604 0.288837
Si Si5 0.131485 0.813337 0.682752
Si Si6 0.751555 0.178095 0.181972
Si Si7 0.419322 0.316122 0.115411
O O1 0.500000 0.738689 0.500000
O O2 0.367700 0.500000 0.508506
O O3 0.387745 0.726137 0.388411
O O4 0.244490 0.754559 0.580608
O O5 0.119777 0.206896 0.096466
O O6 0.271721 0.273963 0.160523
O O7 0.012945 0.232826 0.283718
O O8 0.165288 0.000000 0.200643
O O9 0.869417 0.500000 0.955684
O O10 0.766350 0.719253 0.091094
O O11 0.000000 0.691964 0.000000
O O12 0.606643 0.177485 0.263831
O O13 0.458341 0.239092 0.191750
O O14 0.414851 0.000000 0.306696
O O15 0.166596 0.761946 0.767888
O O16 0.134139 0.000000 0.682616
O O17 0.788559 0.000000 0.148239
O O18 0.435717 0.500000 0.115400
O O19 0.500000 0.263296 0.000000
#
# Coordination Sequence:
#
# PCOD9149984 Si02
#       7
#     4   4   4   4   4   4   4
#     4  11  23  38  61  94 130 167 206 255 313 372
#     4  11  23  40  63  88 121 163 209 258 308 368
#     4  11  22  33  51  83 122 160 198 245 305 369
#     4  11  23  40  65  92 122 163 211 259 306 365
#     4  10  21  38  60  89 123 160 202 251 308 367
#     4  10  20  35  57  86 120 159 201 249 304 365
#     4  11  25  45  67  92 126 165 208 259 312 370
#
# _framework density 19.880065999999999
#
# number of rings (size 3 to 8) (size 9 to 14) (size 15 to 20)
#    0.000    1.286    2.857    3.000    0.000    7.429 
#    0.000    0.714    0.000    4.286    0.000    0.000 
#    0.000    0.000    0.000    0.000    0.000    0.000 
#
# Total GULP energy -156351.545335 kJ/mol
# GULP energy per Si atom -5583.983762 kJ/mol
# Density = 1.983482 g / cm^3
# Si number density = 19.880066 Si / 1000 Ang^3
#
#
#
# Elastic Constant Matrix: (Units=GPa)
#
#
# Indices 1 2 3 4 5 6 
#
# 1 76.4424 6.3152 26.9124 0.0000 -12.6440 0.0000
# 2 6.3152 15.0540 -1.1355 0.0000 -4.8240 0.0000
# 3 26.9124 -1.1355 98.9903 0.0000 -14.5983 0.0000
# 4 0.0000 0.0000 0.0000 17.8979 0.0000 -0.8290
# 5 -12.6440 -4.8240 -14.5983 0.0000 32.0523 0.0000
# 6 0.0000 0.0000 0.0000 -0.8290 0.0000 26.8594
#
#
#
# Elastic Compliance Matrix: (Units=1/GPa)
#
#
# Indices 1 2 3 4 5 6 
#
# 1 0.015450 -0.005628 -0.003743 0.000000 0.003543 0.000000
# 2 -0.005628 0.072434 0.003904 0.000000 0.010459 0.000000
# 3 -0.003743 0.003904 0.011828 0.000000 0.004498 0.000000
# 4 0.000000 0.000000 0.000000 0.055952 0.000000 0.001727
# 5 0.003543 0.010459 0.004498 0.000000 0.036220 0.000000
# 6 0.000000 0.000000 0.000000 0.001727 0.000000 0.037284
#
#
# Mechanical properties :
#
#
# Convention : Reuss Voigt Hill
#
# Bulk Modulus (GPa) = 11.26409 28.29675 19.78042
# Shear Modulus (GPa) = 18.53940 25.92156 22.23048
#
# Velocity S-wave (km/s) = 3.05710 3.61487 3.34762
# Velocity P-wave (km/s) = 4.25905 5.62918 4.99135
#
# Compressibility (1/GPa) = 0.08877773
#
# Stress axis : x y z
#
# Youngs Moduli (GPa) = 64.72323 13.80558 84.54810
#
# Poissons Ratio (x) = 0.07770 0.31642
# Poissons Ratio (y) = 0.36429 -0.33004
# Poissons Ratio (z) = 0.24223 -0.05389
#
# Static dielectric constant tensor:
#      x y z
#    x 1.741840 0.000000 -0.027090 
#    y 0.000000 1.686510 0.000000 
#    z -0.027090 0.000000 1.692740 
# 
# From -- ./inp_files/49618.got.cif
#   From: 2010.05.17/outbox.cif.g08.bks.cpg/sg10_25_cif.got.tgz:49618.got - 2010.06.03 11:33:40.
