data_PCOD9149629
_publ_section_title
;
Structure prediction by ZEFSAII (Michael W. Deem and Ramdas Pophale) SiO2 
 PCOD9149629
Probable space group: P 2/M
;
_chemical_formula_sum "Si O2"
_cell_formula_units_Z 32
_cell_length_a 22.095125
_cell_length_b 7.618182
_cell_length_c 21.968972
_cell_angle_alpha 90.000000
_cell_angle_beta 156.109398
_cell_angle_gamma 90.000000
_cell_volume 1497.626716
_symmetry_space_group_name_H-M "P 2/M"
_symmetry_group_IT_number 10
_symmetry_cell_setting 'monoclinic'
loop_
_space_group_symop_operation_xyz
x,y,z
-x,y,-z
-x,-y,-z
x,-y,z
loop_
_atom_site_type_symbol
_atom_site_label
_atom_site_fract_x
_atom_site_fract_y
_atom_site_fract_z
Si Si1 0.080963 0.796547 0.267251
Si Si2 0.372824 0.787779 0.299000
Si Si3 0.743546 0.295921 0.940559
Si Si4 0.290515 0.213874 0.354382
Si Si5 0.388961 0.711946 0.950927
Si Si6 0.501462 0.287202 0.815649
Si Si7 0.954939 0.209321 0.392220
Si Si8 0.160428 0.207889 0.472343
O O1 0.164808 0.721369 0.285233
O O2 0.126368 0.717128 0.374061
O O3 0.130143 0.000000 0.314433
O O4 0.903802 0.791026 0.096648
O O5 0.310722 0.720112 0.178552
O O6 0.546275 0.739827 0.469072
O O7 0.285557 0.727987 0.279532
O O8 0.366152 0.000000 0.290292
O O9 0.765622 0.500000 0.975888
O O10 0.616451 0.226462 0.869321
O O11 0.284976 0.000000 0.346202
O O12 0.395553 0.500000 0.957400
O O13 0.218951 0.762292 0.781128
O O14 0.500000 0.774983 0.000000
O O15 0.442953 0.772372 0.066945
O O16 0.500676 0.500000 0.814409
O O17 0.333455 0.229096 0.647743
O O18 0.000000 0.280810 0.500000
O O19 0.056461 0.281325 0.430611
O O20 0.982231 0.000000 0.419465
O O21 0.125924 0.000000 0.437165
#
# Coordination Sequence:
#
# PCOD9149629 Si02
#       8
#     4   4   4   4   4   4   4   4
#     4  10  20  35  54  77 104 135 175 219 259 305
#     4   9  17  34  58  79 101 133 172 215 262 309
#     4  11  23  36  50  75 109 141 173 210 259 316
#     4   8  16  32  56  81 101 128 172 220 262 306
#     4  10  21  37  57  81 107 140 185 224 253 301
#     4  10  22  38  55  77 107 140 174 216 265 312
#     4  10  21  36  54  81 115 144 172 213 267 318
#     4  10  21  36  57  83 106 134 178 222 259 311
#
# _framework density 21.367141
#
# number of rings (size 3 to 8) (size 9 to 14) (size 15 to 20)
#    0.000    2.250    0.000    3.375    0.000    4.500 
#    0.000    5.000    0.000    0.000    0.000    0.000 
#    0.000    0.000    0.000    0.000    0.000    0.000 
#
# Total GULP energy -178772.446666 kJ/mol
# GULP energy per Si atom -5586.638958 kJ/mol
# Density = 2.131851 g / cm^3
# Si number density = 21.367141 Si / 1000 Ang^3
#
#
#
# Elastic Constant Matrix: (Units=GPa)
#
#
# Indices 1 2 3 4 5 6 
#
# 1 230.6227 -0.6318 95.7300 0.0000 6.9617 0.0000
# 2 -0.6318 39.1754 -25.7223 0.0000 0.5299 0.0000
# 3 95.7300 -25.7223 99.9992 0.0000 -0.6512 0.0000
# 4 0.0000 0.0000 0.0000 33.1896 0.0000 3.4503
# 5 6.9617 0.5299 -0.6512 0.0000 43.9819 0.0000
# 6 0.0000 0.0000 0.0000 3.4503 0.0000 6.3605
#
#
#
# Elastic Compliance Matrix: (Units=1/GPa)
#
#
# Indices 1 2 3 4 5 6 
#
# 1 0.008328 -0.006121 -0.009556 0.000000 -0.001386 0.000000
# 2 -0.006121 0.035216 0.014923 0.000000 0.000766 0.000000
# 3 -0.009556 0.014923 0.022997 0.000000 0.001673 0.000000
# 4 0.000000 0.000000 0.000000 0.031931 0.000000 -0.017321
# 5 -0.001386 0.000766 0.001673 0.000000 0.022972 0.000000
# 6 0.000000 0.000000 0.000000 -0.017321 0.000000 0.166616
#
#
# Mechanical properties :
#
#
# Convention : Reuss Voigt Hill
#
# Bulk Modulus (GPa) = 15.37675 56.50545 35.94110
# Shear Modulus (GPa) = 16.06459 36.73449 26.39954
#
# Velocity S-wave (km/s) = 2.74494 4.15083 3.51881
# Velocity P-wave (km/s) = 4.15431 7.03384 5.77638
#
# Compressibility (1/GPa) = 0.06503325
#
# Stress axis : x y z
#
# Youngs Moduli (GPa) = 120.08194 28.39650 43.48338
#
# Poissons Ratio (x) = 0.17382 0.41551
# Poissons Ratio (y) = 0.73504 -0.64891
# Poissons Ratio (z) = 1.14746 -0.42377
#
# Static dielectric constant tensor:
#      x y z
#    x 1.790380 0.000000 -0.003650 
#    y 0.000000 1.815210 0.000000 
#    z -0.003650 0.000000 1.689480 
# 
# From -- ./inp_files/90656.got.cif
#   From: 2010.05.17/outbox.cif.g08.bks.cpg/sg10_46_cif.got.tgz:90656.got - 2010.06.03 11:33:40.
