data_PCOD9149415
_publ_section_title
;
Structure prediction by ZEFSAII (Michael W. Deem and Ramdas Pophale) SiO2 
 PCOD9149415
Probable space group: P 2/M
;
_chemical_formula_sum "Si O2"
_cell_formula_units_Z 32
_cell_length_a 19.423113
_cell_length_b 14.192046
_cell_length_c 5.616942
_cell_angle_alpha 90.000000
_cell_angle_beta 107.329714
_cell_angle_gamma 90.000000
_cell_volume 1478.046683
_symmetry_space_group_name_H-M "P 2/M"
_symmetry_group_IT_number 10
_symmetry_cell_setting 'monoclinic'
loop_
_space_group_symop_operation_xyz
x,y,z
-x,y,-z
-x,-y,-z
x,-y,z
loop_
_atom_site_type_symbol
_atom_site_label
_atom_site_fract_x
_atom_site_fract_y
_atom_site_fract_z
Si Si1 0.835623 0.394358 0.795011
Si Si2 0.967898 0.387467 0.220351
Si Si3 0.667585 0.106965 0.892676
Si Si4 0.157417 0.795853 0.414567
Si Si5 0.315212 0.764449 0.698448
Si Si6 0.303872 0.393750 0.052871
Si Si7 0.415073 0.280693 0.422816
Si Si8 0.157147 0.109773 0.919886
O O1 0.850822 0.500000 0.724012
O O2 0.856734 0.314926 0.630955
O O3 0.882495 0.378250 0.083110
O O4 0.752569 0.388051 0.786648
O O5 0.982501 0.500000 0.239572
O O6 0.000000 0.348409 0.500000
O O7 0.000000 0.352058 0.000000
O O8 0.624894 0.183131 0.692904
O O9 0.646938 0.000000 0.823343
O O10 0.650956 0.144508 0.140299
O O11 0.754963 0.113134 0.976892
O O12 0.244960 0.801217 0.490508
O O13 0.136123 0.839668 0.647975
O O14 0.130282 0.845278 0.142004
O O15 0.283016 0.689386 0.853171
O O16 0.379295 0.707126 0.642462
O O17 0.300370 0.500000 0.954541
O O18 0.382298 0.363310 0.226854
O O19 0.500000 0.274331 0.500000
O O20 0.136471 0.000000 0.886391
#
# Coordination Sequence:
#
# PCOD9149415 Si02
#       8
#     4   4   4   4   4   4   4   4
#     4  10  20  36  60  88 121 160 197 236 286 348
#     4   9  19  35  54  82 123 163 195 230 279 343
#     4   9  19  34  52  76 103 140 183 229 293 367
#     4  11  19  35  57  84 119 151 193 244 292 342
#     4  10  20  36  54  76 106 141 187 243 298 349
#     4  10  22  39  56  79 107 145 198 245 287 343
#     4  11  22  38  55  74 106 143 186 247 306 352
#     4  10  20  34  56  83 115 152 193 246 304 351
#
# _framework density 21.650196999999999
#
# number of rings (size 3 to 8) (size 9 to 14) (size 15 to 20)
#    0.000    2.000    2.500    1.875    0.000    6.500 
#    0.000    5.625    0.000    0.000    0.000    0.000 
#    0.000   10.000    0.000    0.000    0.000    0.000 
#
# Total GULP energy -178379.843508 kJ/mol
# GULP energy per Si atom -5574.370110 kJ/mol
# Density = 2.160092 g / cm^3
# Si number density = 21.650197 Si / 1000 Ang^3
#
#
#
# Elastic Constant Matrix: (Units=GPa)
#
#
# Indices 1 2 3 4 5 6 
#
# 1 38.9607 2.4567 10.8609 0.0000 7.5183 0.0000
# 2 2.4567 138.7130 49.9450 0.0000 -9.3929 0.0000
# 3 10.8609 49.9450 103.9939 0.0000 -12.0950 0.0000
# 4 0.0000 0.0000 0.0000 26.2013 0.0000 5.4088
# 5 7.5183 -9.3929 -12.0950 0.0000 25.3764 0.0000
# 6 0.0000 0.0000 0.0000 5.4088 0.0000 2.0792
#
#
#
# Elastic Compliance Matrix: (Units=1/GPa)
#
#
# Indices 1 2 3 4 5 6 
#
# 1 0.028909 0.000366 -0.004421 0.000000 -0.010536 0.000000
# 2 0.000366 0.008762 -0.004110 0.000000 0.001176 0.000000
# 3 -0.004421 -0.004110 0.012733 0.000000 0.005857 0.000000
# 4 0.000000 0.000000 0.000000 0.082437 0.000000 -0.214455
# 5 -0.010536 0.001176 0.005857 0.000000 0.045755 0.000000
# 6 0.000000 0.000000 0.000000 -0.214455 0.000000 1.038858
#
#
# Mechanical properties :
#
#
# Convention : Reuss Voigt Hill
#
# Bulk Modulus (GPa) = 29.34619 45.35475 37.35047
# Shear Modulus (GPa) = 4.01561 25.29171 14.65366
#
# Velocity S-wave (km/s) = 1.36338 3.42160 2.60443
# Velocity P-wave (km/s) = 4.00781 6.05014 5.13160
#
# Compressibility (1/GPa) = 0.03407597
#
# Stress axis : x y z
#
# Youngs Moduli (GPa) = 34.59098 114.12967 78.53891
#
# Poissons Ratio (x) = -0.04179 0.34718
# Poissons Ratio (y) = -0.01267 0.32276
# Poissons Ratio (z) = 0.15291 0.46902
#
# Static dielectric constant tensor:
#      x y z
#    x 1.787670 0.000000 -0.026920 
#    y 0.000000 1.775350 0.000000 
#    z -0.026920 0.000000 1.913680 
# 
# From -- ./inp_files/12723.got.cif
#   From: 2010.05.17/outbox.cif.g08.bks.cpg/sg10_7_cif.got.tgz:12723.got - 2010.06.03 11:33:40.
