data_PCOD9149209
_publ_section_title
;
Structure prediction by ZEFSAII (Michael W. Deem and Ramdas Pophale) SiO2 
 PCOD9149209
Probable space group: P 2/M
;
_chemical_formula_sum "Si O2"
_cell_formula_units_Z 32
_cell_length_a 15.220423
_cell_length_b 8.678065
_cell_length_c 23.142555
_cell_angle_alpha 90.000000
_cell_angle_beta 32.173844
_cell_angle_gamma 90.000000
_cell_volume 1627.692348
_symmetry_space_group_name_H-M "P 2/M"
_symmetry_group_IT_number 10
_symmetry_cell_setting 'monoclinic'
loop_
_space_group_symop_operation_xyz
x,y,z
-x,y,-z
-x,-y,-z
x,-y,z
loop_
_atom_site_type_symbol
_atom_site_label
_atom_site_fract_x
_atom_site_fract_y
_atom_site_fract_z
Si Si1 0.114533 0.683489 0.800895
Si Si2 0.020282 0.686012 0.361758
Si Si3 0.283624 0.312671 0.395036
Si Si4 0.988340 0.184059 0.757749
Si Si5 0.861662 0.174487 0.026348
Si Si6 0.375115 0.685450 0.751529
Si Si7 0.387623 0.814361 0.007808
Si Si8 0.369794 0.313735 0.217463
O O1 0.122355 0.500000 0.791406
O O2 0.265996 0.736733 0.757560
O O3 0.106506 0.759061 0.742899
O O4 0.947672 0.731166 0.927666
O O5 0.017967 0.500000 0.362420
O O6 0.891546 0.738729 0.482519
O O7 0.968772 0.747769 0.328269
O O8 0.207062 0.733572 0.271981
O O9 0.276562 0.500000 0.396385
O O10 0.433683 0.270327 0.354096
O O11 0.333314 0.261877 0.303180
O O12 0.988934 0.000000 0.754820
O O13 0.800810 0.235465 0.877593
O O14 0.707871 0.251542 0.143674
O O15 0.826401 0.000000 0.026937
O O16 0.000000 0.168867 0.000000
O O17 0.363904 0.500000 0.759756
O O18 0.470678 0.752255 0.903231
O O19 0.390372 0.000000 0.004567
O O20 0.500000 0.764307 0.000000
O O21 0.381338 0.500000 0.211089
#
# Coordination Sequence:
#
# PCOD9149209 Si02
#       8
#     4   4   4   4   4   4   4   4
#     4  10  20  34  54  79 108 144 188 231 275 327
#     4  10  20  37  59  82 111 146 185 228 274 327
#     4   9  19  36  58  84 112 144 184 230 276 322
#     4  11  23  38  57  80 111 149 187 227 278 334
#     4   9  17  30  49  74 107 144 178 219 272 325
#     4   9  18  34  54  78 109 146 187 231 273 320
#     4  10  21  38  56  78 113 150 180 222 276 332
#     4  10  20  34  58  88 114 142 180 226 275 328
#
# _framework density 19.659735000000001
#
# number of rings (size 3 to 8) (size 9 to 14) (size 15 to 20)
#    0.000    2.250    1.250    1.500    1.750    4.750 
#    0.000    1.875    0.000    5.250    0.000    0.000 
#    0.000    0.000    0.000    0.000    0.000    0.000 
#
# Total GULP energy -178641.803006 kJ/mol
# GULP energy per Si atom -5582.556344 kJ/mol
# Density = 1.961499 g / cm^3
# Si number density = 19.659735 Si / 1000 Ang^3
#
#
#
# Elastic Constant Matrix: (Units=GPa)
#
#
# Indices 1 2 3 4 5 6 
#
# 1 78.6221 7.3617 7.3747 0.0000 19.0292 0.0000
# 2 7.3617 8.8457 3.5351 0.0000 -0.0974 0.0000
# 3 7.3747 3.5351 61.5166 0.0000 17.5946 0.0000
# 4 0.0000 0.0000 0.0000 -66.7937 0.0000 -99.6497
# 5 19.0292 -0.0974 17.5946 0.0000 27.8719 0.0000
# 6 0.0000 0.0000 0.0000 -99.6497 0.0000 -108.6247
#
#
#
# Elastic Compliance Matrix: (Units=1/GPa)
#
#
# Indices 1 2 3 4 5 6 
#
# 1 0.017184 -0.015524 0.002689 0.000000 -0.013484 0.000000
# 2 -0.015524 0.130456 -0.010736 0.000000 0.017832 0.000000
# 3 0.002689 -0.010736 0.020851 0.000000 -0.015035 0.000000
# 4 0.000000 0.000000 0.000000 0.040613 0.000000 -0.037258
# 5 -0.013484 0.017832 -0.015035 0.000000 0.054638 0.000000
# 6 0.000000 0.000000 0.000000 -0.037258 0.000000 0.024973
#
#
# Mechanical properties :
#
#
# Convention : Reuss Voigt Hill
#
# Bulk Modulus (GPa) = 8.24076 20.61417 14.42746
# Shear Modulus (GPa) = 13.28702 -20.79511 -3.75404
#
# Velocity S-wave (km/s) = 2.60253 -3.25584 -1.38335
# Velocity P-wave (km/s) = 3.63754 1.90413 2.19157
#
# Compressibility (1/GPa) = 0.12134808
#
# Stress axis : x y z
#
# Youngs Moduli (GPa) = 58.19392 7.66542 47.95988
#
# Poissons Ratio (x) = 0.11900 -0.12894
# Poissons Ratio (y) = 0.90340 0.51489
# Poissons Ratio (z) = -0.15646 0.08230
#
# Static dielectric constant tensor:
#      x y z
#    x 1.717480 0.000000 -0.018550 
#    y 0.000000 1.668520 0.000000 
#    z -0.018550 0.000000 1.669030 
# 
# From -- ./inp_files/89519.got.cif
#   From: 2010.05.17/outbox.cif.g08.bks.cpg/sg10_45_cif.got.tgz:89519.got - 2010.06.03 11:33:40.
