data_PCOD9149778
_publ_section_title
;
Structure prediction by ZEFSAII (Michael W. Deem and Ramdas Pophale) SiO2 
 PCOD9149778
Probable space group: P 2/M
;
_chemical_formula_sum "Si O2"
_cell_formula_units_Z 32
_cell_length_a 7.134139
_cell_length_b 9.013766
_cell_length_c 28.644149
_cell_angle_alpha 90.000000
_cell_angle_beta 89.999986
_cell_angle_gamma 90.000000
_cell_volume 1841.975165
_symmetry_space_group_name_H-M "P 2/M"
_symmetry_group_IT_number 10
_symmetry_cell_setting 'monoclinic'
loop_
_space_group_symop_operation_xyz
x,y,z
-x,y,-z
-x,-y,-z
x,-y,z
loop_
_atom_site_type_symbol
_atom_site_label
_atom_site_fract_x
_atom_site_fract_y
_atom_site_fract_z
Si Si1 0.528878 0.323121 0.300133
Si Si2 0.544388 0.323076 0.052894
Si Si3 0.471122 0.176879 0.800133
Si Si4 0.237252 0.323563 0.132139
Si Si5 0.834551 0.823580 0.120038
Si Si6 0.762748 0.176436 0.632139
Si Si7 0.455612 0.176924 0.552894
Si Si8 0.165449 0.676420 0.620039
O O1 0.507135 0.500000 0.295883
O O2 0.557977 0.249999 0.250000
O O3 0.347720 0.253377 0.325404
O O4 0.703561 0.293554 0.334783
O O5 0.583341 0.500000 0.053425
O O6 0.365437 0.297088 0.086291
O O7 0.718147 0.238518 0.076075
O O8 0.500000 0.278509 0.000000
O O9 0.652280 0.246625 0.825404
O O10 0.296439 0.206447 0.834783
O O11 0.492867 0.000000 0.795884
O O12 0.227006 0.500000 0.139751
O O13 0.032807 0.255934 0.125354
O O14 0.859309 0.000000 0.116057
O O15 0.634564 0.202910 0.586291
O O16 0.967193 0.244065 0.625354
O O17 0.772993 0.000000 0.639751
O O18 0.500000 0.221491 0.500000
O O19 0.281854 0.261483 0.576075
O O20 0.416658 0.000000 0.553425
O O21 0.140690 0.500000 0.616057
#
# Coordination Sequence:
#
# PCOD9149778 Si02
#       8
#     4   4   4   4   4   4   4   4
#     4  10  21  37  56  78 105 137 174 216 261 310
#     4   9  19  36  56  78 105 139 180 222 264 314
#     4  10  21  37  56  78 105 137 174 216 261 310
#     4  10  20  35  56  79 106 140 176 217 263 312
#     4  10  21  36  54  78 109 141 175 218 265 316
#     4  10  20  35  56  79 106 140 176 217 263 312
#     4   9  19  36  56  78 105 139 180 222 264 314
#     4  10  21  36  54  78 109 141 175 218 265 316
#
# _framework density 17.372654000000001
#
# number of rings (size 3 to 8) (size 9 to 14) (size 15 to 20)
#    0.000    2.250    0.000    2.250    0.000    6.500 
#    0.000    7.500    0.000    0.000    0.000    0.000 
#    0.000    0.000    0.000    0.000    0.000    0.000 
#
# Total GULP energy -178665.274286 kJ/mol
# GULP energy per Si atom -5583.289821 kJ/mol
# Density = 1.733311 g / cm^3
# Si number density = 17.372654 Si / 1000 Ang^3
#
#
#
# Elastic Constant Matrix: (Units=GPa)
#
#
# Indices 1 2 3 4 5 6 
#
# 1 107.8966 59.5977 13.7908 0.0000 0.0005 0.0000
# 2 59.5977 70.3778 44.7651 0.0000 0.0003 0.0000
# 3 13.7908 44.7651 95.0446 0.0000 0.0003 0.0000
# 4 0.0000 0.0000 0.0000 28.5328 0.0000 -0.0002
# 5 0.0005 0.0003 0.0003 0.0000 7.2977 0.0000
# 6 0.0000 0.0000 0.0000 -0.0002 0.0000 33.0407
#
#
#
# Elastic Compliance Matrix: (Units=1/GPa)
#
#
# Indices 1 2 3 4 5 6 
#
# 1 0.020538 -0.022125 0.007440 0.000000 -0.000001 0.000000
# 2 -0.022125 0.044121 -0.017570 0.000000 0.000000 0.000000
# 3 0.007440 -0.017570 0.017717 0.000000 -0.000001 0.000000
# 4 0.000000 0.000000 0.000000 0.035047 0.000000 0.000000
# 5 -0.000001 0.000000 -0.000001 0.000000 0.137030 0.000000
# 6 0.000000 0.000000 0.000000 0.000000 0.000000 0.030266
#
#
# Mechanical properties :
#
#
# Convention : Reuss Voigt Hill
#
# Bulk Modulus (GPa) = 55.96910 56.62515 56.29712
# Shear Modulus (GPa) = 14.07727 24.11860 19.09794
#
# Velocity S-wave (km/s) = 2.84969 3.73004 3.31918
# Velocity P-wave (km/s) = 6.56615 7.15654 6.86770
#
# Compressibility (1/GPa) = 0.01786700
#
# Stress axis : x y z
#
# Youngs Moduli (GPa) = 48.69049 22.66519 56.44259
#
# Poissons Ratio (x) = 0.50146 -0.41996
# Poissons Ratio (y) = 1.07726 0.99170
# Poissons Ratio (z) = -0.36228 0.39823
#
# Static dielectric constant tensor:
#      x y z
#    x 1.555600 0.000000 0.000000 
#    y 0.000000 1.575970 0.000000 
#    z 0.000000 0.000000 1.571170 
# 
# From -- ./inp_files/94330.got.cif
#   From: 2010.05.17/outbox.cif.g08.bks.cpg/sg10_48_cif.got.tgz:94330.got - 2010.06.03 11:33:40.
