data_PCOD9149992
_publ_section_title
;
Structure prediction by ZEFSAII (Michael W. Deem and Ramdas Pophale) SiO2 
 PCOD9149992
Probable space group: P 2/M
;
_chemical_formula_sum "Si O2"
_cell_formula_units_Z 32
_cell_length_a 13.512698
_cell_length_b 7.547445
_cell_length_c 31.547225
_cell_angle_alpha 90.000000
_cell_angle_beta 27.008382
_cell_angle_gamma 90.000000
_cell_volume 1461.082121
_symmetry_space_group_name_H-M "P 2/M"
_symmetry_group_IT_number 10
_symmetry_cell_setting 'monoclinic'
loop_
_space_group_symop_operation_xyz
x,y,z
-x,y,-z
-x,-y,-z
x,-y,z
loop_
_atom_site_type_symbol
_atom_site_label
_atom_site_fract_x
_atom_site_fract_y
_atom_site_fract_z
Si Si1 0.253149 0.216271 0.600948
Si Si2 0.034334 0.215286 0.597844
Si Si3 0.891408 0.301031 0.906344
Si Si4 0.080976 0.214897 0.202660
Si Si5 0.349237 0.214526 0.774337
Si Si6 0.221038 0.216309 0.439831
Si Si7 0.528090 0.200545 0.887847
Si Si8 0.535580 0.783974 0.790086
O O1 0.500000 0.275396 0.500000
O O2 0.111113 0.273589 0.614727
O O3 0.135245 0.269726 0.689263
O O4 0.255113 0.000000 0.600275
O O5 0.191472 0.272179 0.499819
O O6 0.785012 0.264957 0.684216
O O7 0.038150 0.000000 0.596686
O O8 0.821550 0.500000 0.941776
O O9 0.909519 0.275102 0.849186
O O10 0.123605 0.268286 0.839306
O O11 0.697692 0.190904 0.001061
O O12 0.286902 0.278460 0.152094
O O13 0.086155 0.000000 0.198965
O O14 0.558891 0.275217 0.667114
O O15 0.381924 0.275815 0.810375
O O16 0.353472 0.000000 0.772614
O O17 0.000000 0.269682 0.500000
O O18 0.224597 0.000000 0.437574
O O19 0.493764 0.278278 0.854034
O O20 0.609938 0.000000 0.848185
O O21 0.521059 0.000000 0.795315
#
# Coordination Sequence:
#
# PCOD9149992 Si02
#       8
#     4   4   4   4   4   4   4   4
#     4   9  17  27  46  84 125 150 170 211 272 330
#     4   9  14  24  43  78 121 149 172 213 269 324
#     4  12  27  42  55  76 111 152 192 239 289 334
#     4  10  20  37  62  89 114 144 185 231 279 337
#     4  10  20  35  57  87 118 150 187 227 276 334
#     4   9  15  24  46  83 119 144 172 215 265 319
#     4  10  20  38  63  87 109 139 184 239 290 338
#     4   9  16  30  55  86 118 145 178 229 283 332
#
# _framework density 21.901575000000001
#
# number of rings (size 3 to 8) (size 9 to 14) (size 15 to 20)
#    0.000    2.250    2.500    1.500    1.750    2.500 
#    0.000    3.125    0.000    0.750    0.000    0.000 
#    0.000    0.000    0.000    0.000    0.000    0.000 
#
# Total GULP energy -178718.559397 kJ/mol
# GULP energy per Si atom -5584.954981 kJ/mol
# Density = 2.185173 g / cm^3
# Si number density = 21.901575 Si / 1000 Ang^3
#
#
#
# Elastic Constant Matrix: (Units=GPa)
#
#
# Indices 1 2 3 4 5 6 
#
# 1 165.5395 2.3732 73.7815 0.0000 17.9069 0.0000
# 2 2.3732 56.9273 -3.6605 0.0000 0.6372 0.0000
# 3 73.7815 -3.6605 125.6814 0.0000 2.3939 0.0000
# 4 0.0000 0.0000 0.0000 -49.7012 0.0000 15.1485
# 5 17.9069 0.6372 2.3939 0.0000 31.5116 0.0000
# 6 0.0000 0.0000 0.0000 15.1485 0.0000 -68.1519
#
#
#
# Elastic Compliance Matrix: (Units=1/GPa)
#
#
# Indices 1 2 3 4 5 6 
#
# 1 0.008829 -0.000645 -0.005114 0.000000 -0.004615 0.000000
# 2 -0.000645 0.017651 0.000894 0.000000 -0.000058 0.000000
# 3 -0.005114 0.000894 0.010946 0.000000 0.002056 0.000000
# 4 0.000000 0.000000 0.000000 -0.021582 0.000000 -0.004797
# 5 -0.004615 -0.000058 0.002056 0.000000 0.034202 0.000000
# 6 0.000000 0.000000 0.000000 -0.004797 0.000000 -0.015739
#
#
# Mechanical properties :
#
#
# Convention : Reuss Voigt Hill
#
# Bulk Modulus (GPa) = 36.10696 54.79296 45.44996
# Shear Modulus (GPa) = 93.86613 1.10863 47.48738
#
# Velocity S-wave (km/s) = 6.55372 0.71224 4.66146
# Velocity P-wave (km/s) = 8.59011 5.07430 7.05474
#
# Compressibility (1/GPa) = 0.02769549
#
# Stress axis : x y z
#
# Youngs Moduli (GPa) = 113.26865 56.65310 91.36162
#
# Poissons Ratio (x) = 0.03655 0.46720
# Poissons Ratio (y) = 0.07308 -0.08167
# Poissons Ratio (z) = 0.57922 -0.05065
#
# Static dielectric constant tensor:
#      x y z
#    x 1.777110 0.000000 0.011460 
#    y 0.000000 1.838900 0.000000 
#    z 0.011460 0.000000 1.756500 
# 
# From -- ./inp_files/94970.got.cif
#   From: 2010.05.17/outbox.cif.g08.bks.cpg/sg10_48_cif.got.tgz:94970.got - 2010.06.03 11:33:40.
