data_PCOD9149828
_publ_section_title
;
Structure prediction by ZEFSAII (Michael W. Deem and Ramdas Pophale) SiO2 
 PCOD9149828
Probable space group: P 2/M
;
_chemical_formula_sum "Si O2"
_cell_formula_units_Z 28
_cell_length_a 12.821264
_cell_length_b 9.071787
_cell_length_c 14.914199
_cell_angle_alpha 90.000000
_cell_angle_beta 124.015415
_cell_angle_gamma 90.000000
_cell_volume 1437.867937
_symmetry_space_group_name_H-M "P 2/M"
_symmetry_group_IT_number 10
_symmetry_cell_setting 'monoclinic'
loop_
_space_group_symop_operation_xyz
x,y,z
-x,y,-z
-x,-y,-z
x,-y,z
loop_
_atom_site_type_symbol
_atom_site_label
_atom_site_fract_x
_atom_site_fract_y
_atom_site_fract_z
Si Si1 0.931455 0.671263 0.626216
Si Si2 0.937870 0.824126 0.814597
Si Si3 0.248990 0.170380 0.591614
Si Si4 0.765019 0.329155 0.236077
Si Si5 0.506196 0.172644 0.606176
Si Si6 0.722166 0.674879 0.822421
Si Si7 0.789957 0.676372 0.050794
O O1 0.899259 0.500000 0.625349
O O2 0.894936 0.766380 0.695872
O O3 0.860767 0.733155 0.505758
O O4 0.082256 0.680593 0.688772
O O5 0.845380 0.755832 0.843555
O O6 0.078332 0.761527 0.894583
O O7 0.936502 0.000000 0.817003
O O8 0.282314 0.229679 0.706003
O O9 0.369912 0.182714 0.585911
O O10 0.209810 0.000000 0.577384
O O11 0.729934 0.500000 0.234125
O O12 0.729000 0.285146 0.117336
O O13 0.500000 0.220898 0.500000
O O14 0.604869 0.265416 0.710492
O O15 0.545455 0.000000 0.625869
O O16 0.737047 0.500000 0.817207
O O17 0.710887 0.703738 0.923357
O O18 0.817785 0.500000 0.068969
#
# Coordination Sequence:
#
# PCOD9149828 Si02
#       7
#     4   4   4   4   4   4   4
#     4  10  20  35  56  82 113 149 187 227 272 325
#     4  11  21  33  54  85 118 149 180 221 277 334
#     4  11  22  35  55  83 112 144 184 231 281 330
#     4   9  19  36  56  79 111 148 182 222 274 328
#     4  10  23  42  59  78 109 145 181 226 277 328
#     4  11  22  37  59  83 108 144 189 232 273 323
#     4   9  20  38  57  81 113 146 184 229 272 320
#
# _framework density 19.473275999999998
#
# number of rings (size 3 to 8) (size 9 to 14) (size 15 to 20)
#    0.000    1.857    0.000    5.143    0.000   10.000 
#    0.000    0.714    0.000    4.286    0.000    0.000 
#    0.000    0.000    0.000    0.000    0.000    0.000 
#
# Total GULP energy -156462.062426 kJ/mol
# GULP energy per Si atom -5587.930801 kJ/mol
# Density = 1.942895 g / cm^3
# Si number density = 19.473276 Si / 1000 Ang^3
#
#
#
# Elastic Constant Matrix: (Units=GPa)
#
#
# Indices 1 2 3 4 5 6 
#
# 1 34.5318 25.2744 32.2250 0.0000 -26.0328 0.0000
# 2 25.2744 81.3039 56.1936 0.0000 -14.4022 0.0000
# 3 32.2250 56.1936 135.2307 0.0000 -32.4232 0.0000
# 4 0.0000 0.0000 0.0000 4.2315 0.0000 -5.4028
# 5 -26.0328 -14.4022 -32.4232 0.0000 29.3712 0.0000
# 6 0.0000 0.0000 0.0000 -5.4028 0.0000 25.1260
#
#
#
# Elastic Compliance Matrix: (Units=1/GPa)
#
#
# Indices 1 2 3 4 5 6 
#
# 1 0.108583 -0.020804 0.004623 0.000000 0.091143 0.000000
# 2 -0.020804 0.021253 -0.007883 0.000000 -0.016720 0.000000
# 3 0.004623 -0.007883 0.013089 0.000000 0.014681 0.000000
# 4 0.000000 0.000000 0.000000 0.325757 0.000000 0.070046
# 5 0.091143 -0.016720 0.014681 0.000000 0.122838 0.000000
# 6 0.000000 0.000000 0.000000 0.070046 0.000000 0.054861
#
#
# Mechanical properties :
#
#
# Convention : Reuss Voigt Hill
#
# Bulk Modulus (GPa) = 10.54900 53.16137 31.85519
# Shear Modulus (GPa) = 6.88603 20.90397 13.89500
#
# Velocity S-wave (km/s) = 1.88250 3.27994 2.67412
# Velocity P-wave (km/s) = 3.18654 6.45778 5.09200
#
# Compressibility (1/GPa) = 0.09479571
#
# Stress axis : x y z
#
# Youngs Moduli (GPa) = 9.20958 47.05148 76.40186
#
# Poissons Ratio (x) = 0.97888 -0.35319
# Poissons Ratio (y) = 0.19160 0.60226
# Poissons Ratio (z) = -0.04257 0.37090
#
# Static dielectric constant tensor:
#      x y z
#    x 1.669350 0.000000 -0.024150 
#    y 0.000000 1.654470 0.000000 
#    z -0.024150 0.000000 1.695180 
# 
# From -- ./inp_files/63901.got.cif
#   From: 2010.05.17/outbox.cif.g08.bks.cpg/sg10_32_cif.got.tgz:63901.got - 2010.06.03 11:33:40.
