data_PCOD9149560
_publ_section_title
;
Structure prediction by ZEFSAII (Michael W. Deem and Ramdas Pophale) SiO2 
 PCOD9149560
Probable space group: P 2/M
;
_chemical_formula_sum "Si O2"
_cell_formula_units_Z 28
_cell_length_a 11.809750
_cell_length_b 7.740750
_cell_length_c 17.617335
_cell_angle_alpha 90.000000
_cell_angle_beta 110.314933
_cell_angle_gamma 90.000000
_cell_volume 1510.335683
_symmetry_space_group_name_H-M "P 2/M"
_symmetry_group_IT_number 10
_symmetry_cell_setting 'monoclinic'
loop_
_space_group_symop_operation_xyz
x,y,z
-x,y,-z
-x,-y,-z
x,-y,z
loop_
_atom_site_type_symbol
_atom_site_label
_atom_site_fract_x
_atom_site_fract_y
_atom_site_fract_z
Si Si1 0.213660 0.295815 0.186360
Si Si2 0.949594 0.290148 0.405705
Si Si3 0.627645 0.208845 0.498354
Si Si4 0.326349 0.797432 0.661109
Si Si5 0.412317 0.000000 0.053949
Si Si6 0.152721 0.705828 0.340225
Si Si7 0.856063 0.000000 0.946753
Si Si8 0.530548 0.307637 0.818971
O O1 0.182420 0.500000 0.168632
O O2 0.170831 0.231940 0.258806
O O3 0.359027 0.284339 0.214577
O O4 0.164847 0.170831 0.109551
O O5 0.948317 0.500000 0.405731
O O6 0.815460 0.225782 0.360616
O O7 0.000000 0.235448 0.500000
O O8 0.038443 0.227360 0.360388
O O9 0.500000 0.269256 0.500000
O O10 0.647778 0.272006 0.417454
O O11 0.732434 0.261231 0.580025
O O12 0.627489 0.000000 0.495562
O O13 0.407105 0.711429 0.744216
O O14 0.357922 0.000000 0.669955
O O15 0.450847 0.166200 0.112281
O O16 0.261449 0.000000 0.020978
O O17 0.500000 0.000000 0.000000
O O18 0.138744 0.500000 0.330255
O O19 0.000000 0.000000 0.000000
O O20 0.540915 0.500000 0.853622
#
# Coordination Sequence:
#
# PCOD9149560 Si02
#       8
#     4   4   4   4   2   4   2   4
#     4   9  20  38  61  89 118 150 192 241 288 344
#     4  10  20  35  51  70 108 158 200 240 287 340
#     4  10  21  32  48  75 108 146 190 240 286 332
#     4  11  21  34  52  79 114 151 199 246 287 339
#     4  10  22  44  68  93 128 149 185 238 287 368
#     4  10  20  35  53  76 107 147 196 240 285 334
#     4  10  22  42  68  95 118 155 189 226 299 360
#     4  10  20  38  64  88 117 155 191 237 294 342
#
# _framework density 18.538924999999999
#
# number of rings (size 3 to 8) (size 9 to 14) (size 15 to 20)
#    0.000    2.000    2.143    1.286    1.000    2.286 
#    2.571    0.000    0.000    0.000    0.000    0.000 
#    0.000    0.000    0.000    0.000    0.000    0.000 
#
# Total GULP energy -156177.651883 kJ/mol
# GULP energy per Si atom -5577.773282 kJ/mol
# Density = 1.849673 g / cm^3
# Si number density = 18.538925 Si / 1000 Ang^3
#
#
#
# Elastic Constant Matrix: (Units=GPa)
#
#
# Indices 1 2 3 4 5 6 
#
# 1 150.9306 25.0618 64.7550 0.0000 -6.5550 0.0000
# 2 25.0618 65.1308 28.0489 0.0000 -9.3256 0.0000
# 3 64.7550 28.0489 73.2280 0.0000 -7.4452 0.0000
# 4 0.0000 0.0000 0.0000 19.4511 0.0000 7.9100
# 5 -6.5550 -9.3256 -7.4452 0.0000 41.5721 0.0000
# 6 0.0000 0.0000 0.0000 7.9100 0.0000 25.0677
#
#
#
# Elastic Compliance Matrix: (Units=1/GPa)
#
#
# Indices 1 2 3 4 5 6 
#
# 1 0.010676 -0.000053 -0.009422 0.000000 -0.000016 0.000000
# 2 -0.000053 0.018741 -0.006830 0.000000 0.002973 0.000000
# 3 -0.009422 -0.006830 0.024748 0.000000 0.001414 0.000000
# 4 0.000000 0.000000 0.000000 0.058979 0.000000 -0.018610
# 5 -0.000016 0.002973 0.001414 0.000000 0.024972 0.000000
# 6 0.000000 0.000000 0.000000 -0.018610 0.000000 0.045764
#
#
# Mechanical properties :
#
#
# Convention : Reuss Voigt Hill
#
# Bulk Modulus (GPa) = 46.39145 58.33565 52.36355
# Shear Modulus (GPa) = 22.35389 28.64644 25.50016
#
# Velocity S-wave (km/s) = 3.47620 3.93517 3.71279
# Velocity P-wave (km/s) = 6.41795 7.22373 6.83273
#
# Compressibility (1/GPa) = 0.02155570
#
# Stress axis : x y z
#
# Youngs Moduli (GPa) = 93.66692 53.35942 40.40755
#
# Poissons Ratio (x) = 0.00281 0.38073
# Poissons Ratio (y) = 0.00493 0.27597
# Poissons Ratio (z) = 0.88256 0.36443
#
# Static dielectric constant tensor:
#      x y z
#    x 1.697650 0.000000 -0.031570 
#    y 0.000000 1.662460 0.000000 
#    z -0.031570 0.000000 1.601730 
# 
# From -- ./inp_files/49423.got.cif
#   From: 2010.05.17/outbox.cif.g08.bks.cpg/sg10_25_cif.got.tgz:49423.got - 2010.06.03 11:33:40.
