data_PCOD9149199
_publ_section_title
;
Structure prediction by ZEFSAII (Michael W. Deem and Ramdas Pophale) SiO2 
 PCOD9149199
Probable space group: P 2/M
;
_chemical_formula_sum "Si O2"
_cell_formula_units_Z 28
_cell_length_a 13.620103
_cell_length_b 8.453254
_cell_length_c 17.836233
_cell_angle_alpha 90.000000
_cell_angle_beta 137.605722
_cell_angle_gamma 90.000000
_cell_volume 1384.569122
_symmetry_space_group_name_H-M "P 2/M"
_symmetry_group_IT_number 10
_symmetry_cell_setting 'monoclinic'
loop_
_space_group_symop_operation_xyz
x,y,z
-x,y,-z
-x,-y,-z
x,-y,z
loop_
_atom_site_type_symbol
_atom_site_label
_atom_site_fract_x
_atom_site_fract_y
_atom_site_fract_z
Si Si1 0.954904 0.323607 0.096789
Si Si2 0.478404 0.312568 0.105846
Si Si3 0.270646 0.190881 0.861895
Si Si4 0.369685 0.805983 0.483800
Si Si5 0.517131 0.179084 0.294495
Si Si6 0.039688 0.179261 0.287660
Si Si7 0.761799 0.324538 0.846720
O O1 0.944810 0.500000 0.126461
O O2 0.976166 0.187435 0.168045
O O3 0.099983 0.322257 0.128523
O O4 0.823478 0.307306 0.965129
O O5 0.462911 0.500000 0.093728
O O6 0.618704 0.257272 0.137383
O O7 0.504964 0.262486 0.207086
O O8 0.341318 0.241261 0.981899
O O9 0.104255 0.248273 0.752888
O O10 0.270633 0.000000 0.859226
O O11 0.500000 0.753812 0.500000
O O12 0.394869 0.756147 0.584642
O O13 0.203185 0.752612 0.373308
O O14 0.373931 0.000000 0.483734
O O15 0.352847 0.189959 0.233791
O O16 0.563984 0.000000 0.307294
O O17 0.058183 0.000000 0.325430
O O18 0.693316 0.500000 0.801365
#
# Coordination Sequence:
#
# PCOD9149199 Si02
#       7
#     4   4   4   4   4   4   4
#     4   9  18  31  48  72 104 140 172 212 268 328
#     4  11  22  37  58  83 114 147 178 217 275 338
#     4  10  20  36  59  87 115 140 178 227 273 326
#     4   9  19  36  56  79 109 145 185 228 273 319
#     4  11  21  34  55  79 105 141 184 228 272 319
#     4  10  20  34  54  79 105 138 180 226 272 318
#     4   9  18  32  48  71 105 139 173 215 268 327
#
# _framework density 20.222897
#
# number of rings (size 3 to 8) (size 9 to 14) (size 15 to 20)
#    0.000    2.143    0.000    5.571    0.000    5.714 
#    0.000    3.571    0.000    8.143    0.000    0.000 
#    0.000    0.000    0.000    0.000    0.000    0.000 
#
# Total GULP energy -155922.546534 kJ/mol
# GULP energy per Si atom -5568.662376 kJ/mol
# Density = 2.017687 g / cm^3
# Si number density = 20.222897 Si / 1000 Ang^3
#
#
#
# Elastic Constant Matrix: (Units=GPa)
#
#
# Indices 1 2 3 4 5 6 
#
# 1 94.0997 10.1923 48.1941 0.0000 17.8833 0.0000
# 2 10.1923 36.0397 19.0009 0.0000 -2.1144 0.0000
# 3 48.1941 19.0009 94.6529 0.0000 15.9025 0.0000
# 4 0.0000 0.0000 0.0000 -25.9947 0.0000 20.1724
# 5 17.8833 -2.1144 15.9025 0.0000 37.8286 0.0000
# 6 0.0000 0.0000 0.0000 20.1724 0.0000 -1.6336
#
#
#
# Elastic Compliance Matrix: (Units=1/GPa)
#
#
# Indices 1 2 3 4 5 6 
#
# 1 0.014990 -0.000952 -0.006716 0.000000 -0.004316 0.000000
# 2 -0.000952 0.031883 -0.006769 0.000000 0.005077 0.000000
# 3 -0.006716 -0.006769 0.016004 0.000000 -0.003931 0.000000
# 4 0.000000 0.000000 0.000000 0.004482 0.000000 0.055349
# 5 -0.004316 0.005077 -0.003931 0.000000 0.030412 0.000000
# 6 0.000000 0.000000 0.000000 0.055349 0.000000 0.071324
#
#
# Mechanical properties :
#
#
# Convention : Reuss Voigt Hill
#
# Bulk Modulus (GPa) = 29.40868 42.17409 35.79139
# Shear Modulus (GPa) = 23.88879 11.86705 17.87792
#
# Velocity S-wave (km/s) = 3.44070 2.42505 2.97651
# Velocity P-wave (km/s) = 5.50984 5.36107 5.43596
#
# Compressibility (1/GPa) = 0.03400356
#
# Stress axis : x y z
#
# Youngs Moduli (GPa) = 66.71008 31.36479 62.48481
#
# Poissons Ratio (x) = 0.02985 0.41967
# Poissons Ratio (y) = 0.06348 0.42295
# Poissons Ratio (z) = 0.44805 0.21230
#
# Static dielectric constant tensor:
#      x y z
#    x 1.786770 0.000000 0.012830 
#    y 0.000000 1.753140 0.000000 
#    z 0.012830 0.000000 1.720810 
# 
# From -- ./inp_files/77811.got.cif
#   From: 2010.05.17/outbox.cif.g08.bks.cpg/sg10_39_cif.got.tgz:77811.got - 2010.06.03 11:33:40.
