data_PCOD9149083
_publ_section_title
;
Structure prediction by ZEFSAII (Michael W. Deem and Ramdas Pophale) SiO2 
 PCOD9149083
Probable space group: P 2/M
;
_chemical_formula_sum "Si O2"
_cell_formula_units_Z 28
_cell_length_a 21.243584
_cell_length_b 7.384171
_cell_length_c 24.193356
_cell_angle_alpha 90.000000
_cell_angle_beta 160.730320
_cell_angle_gamma 90.000000
_cell_volume 1252.446551
_symmetry_space_group_name_H-M "P 2/M"
_symmetry_group_IT_number 10
_symmetry_cell_setting 'monoclinic'
loop_
_space_group_symop_operation_xyz
x,y,z
-x,y,-z
-x,-y,-z
x,-y,z
loop_
_atom_site_type_symbol
_atom_site_label
_atom_site_fract_x
_atom_site_fract_y
_atom_site_fract_z
Si Si1 0.291866 0.785662 0.990063
Si Si2 0.031630 0.283783 0.871448
Si Si3 0.348027 0.702137 0.643375
Si Si4 0.316277 0.219661 0.883396
Si Si5 0.405565 0.278926 0.479339
Si Si6 0.406840 0.721802 0.250800
Si Si7 0.058137 0.295320 0.489869
O O1 0.309247 0.725774 0.941470
O O2 0.098848 0.754435 0.864298
O O3 0.330362 0.000000 0.023027
O O4 0.453872 0.690727 0.159812
O O5 0.026888 0.500000 0.874732
O O6 0.815646 0.218113 0.701161
O O7 0.203276 0.219137 0.055137
O O8 0.269263 0.500000 0.566760
O O9 0.418110 0.782958 0.643791
O O10 0.207203 0.791704 0.570879
O O11 0.135258 0.300853 0.703835
O O12 0.302915 0.000000 0.870803
O O13 0.500000 0.271055 0.000000
O O14 0.500000 0.223670 0.500000
O O15 0.401937 0.500000 0.477610
O O16 0.535936 0.224444 0.639854
O O17 0.405724 0.500000 0.247589
O O18 0.131243 0.500000 0.563224
O O19 0.000000 0.208918 0.500000
#
# Coordination Sequence:
#
# PCOD9149083 Si02
#       7
#     4   4   4   4   4   4   4
#     4  10  20  34  53  76 101 131 173 219 257 307
#     4   9  18  32  52  75 103 139 171 211 270 314
#     4   9  18  33  52  74 101 132 167 210 262 314
#     4  10  22  37  51  71 101 138 176 214 260 311
#     4   9  17  28  47  77 107 135 171 214 261 315
#     4   8  15  28  45  70 102 132 168 209 252 310
#     4  10  21  34  51  77 104 132 170 216 262 311
#
# _framework density 22.356242999999999
#
# number of rings (size 3 to 8) (size 9 to 14) (size 15 to 20)
#    0.000    2.714    0.000    2.143    2.000    2.857 
#    0.000    2.857    0.000    0.429    0.000    4.000 
#    0.000    0.000    0.000    0.000    0.000    0.000 
#
# Total GULP energy -156163.935676 kJ/mol
# GULP energy per Si atom -5577.283417 kJ/mol
# Density = 2.230536 g / cm^3
# Si number density = 22.356243 Si / 1000 Ang^3
#
#
#
# Elastic Constant Matrix: (Units=GPa)
#
#
# Indices 1 2 3 4 5 6 
#
# 1 217.5646 5.2516 82.7859 0.0000 -1.5973 0.0000
# 2 5.2516 76.1372 4.1334 0.0000 0.9162 0.0000
# 3 82.7859 4.1334 91.2710 0.0000 13.2471 0.0000
# 4 0.0000 0.0000 0.0000 24.9043 0.0000 -24.5775
# 5 -1.5973 0.9162 13.2471 0.0000 44.9589 0.0000
# 6 0.0000 0.0000 0.0000 -24.5775 0.0000 36.6302
#
#
#
# Elastic Compliance Matrix: (Units=1/GPa)
#
#
# Indices 1 2 3 4 5 6 
#
# 1 0.007239 -0.000153 -0.006892 0.000000 0.002291 0.000000
# 2 -0.000153 0.013170 -0.000437 0.000000 -0.000145 0.000000
# 3 -0.006892 -0.000437 0.018033 0.000000 -0.005549 0.000000
# 4 0.000000 0.000000 0.000000 0.118853 0.000000 0.079746
# 5 0.002291 -0.000145 -0.005549 0.000000 0.023962 0.000000
# 6 0.000000 0.000000 0.000000 0.079746 0.000000 0.080806
#
#
# Mechanical properties :
#
#
# Convention : Reuss Voigt Hill
#
# Bulk Modulus (GPa) = 42.59068 63.25718 52.92393
# Shear Modulus (GPa) = 17.55297 40.81881 29.18589
#
# Velocity S-wave (km/s) = 2.80509 4.27761 3.61708
# Velocity P-wave (km/s) = 5.43908 7.26318 6.41629
#
# Compressibility (1/GPa) = 0.02347932
#
# Stress axis : x y z
#
# Youngs Moduli (GPa) = 138.13527 75.92912 55.45468
#
# Poissons Ratio (x) = 0.01160 0.38219
# Poissons Ratio (y) = 0.02110 0.02422
# Poissons Ratio (z) = 0.95201 0.03317
#
# Static dielectric constant tensor:
#      x y z
#    x 2.492210 0.000000 -0.184510 
#    y 0.000000 1.892110 0.000000 
#    z -0.184510 0.000000 1.872770 
# 
# From -- ./inp_files/38033.got.cif
#   From: 2010.05.17/outbox.cif.g08.bks.cpg/sg10_20_cif.got.tgz:38033.got - 2010.06.03 11:33:40.
