data_PCOD9149216
_publ_section_title
;
Structure prediction by ZEFSAII (Michael W. Deem and Ramdas Pophale) SiO2 
 PCOD9149216
Probable space group: P 2/M
;
_chemical_formula_sum "Si O2"
_cell_formula_units_Z 28
_cell_length_a 21.262841
_cell_length_b 8.852790
_cell_length_c 16.011050
_cell_angle_alpha 90.000000
_cell_angle_beta 151.376144
_cell_angle_gamma 90.000000
_cell_volume 1443.805864
_symmetry_space_group_name_H-M "P 2/M"
_symmetry_group_IT_number 10
_symmetry_cell_setting 'monoclinic'
loop_
_space_group_symop_operation_xyz
x,y,z
-x,y,-z
-x,-y,-z
x,-y,z
loop_
_atom_site_type_symbol
_atom_site_label
_atom_site_fract_x
_atom_site_fract_y
_atom_site_fract_z
Si Si1 0.157661 0.818193 0.275154
Si Si2 0.577909 0.680241 0.348355
Si Si3 0.136341 0.818435 0.054849
Si Si4 0.142933 0.179934 0.580721
Si Si5 0.580761 0.819749 0.176398
Si Si6 0.862045 0.319182 0.245304
Si Si7 0.686146 0.318442 0.880063
O O1 0.281251 0.747705 0.464905
O O2 0.013752 0.770193 0.140003
O O3 0.164109 0.000000 0.289817
O O4 0.162202 0.779619 0.181844
O O5 0.584021 0.500000 0.357518
O O6 0.539197 0.733859 0.210773
O O7 0.463720 0.730666 0.279103
O O8 0.139750 0.000000 0.052896
O O9 0.241571 0.750131 0.115104
O O10 0.266142 0.208733 0.664820
O O11 0.176098 0.237688 0.712728
O O12 0.010417 0.264754 0.400108
O O13 0.119261 0.000000 0.555711
O O14 0.563036 0.000000 0.167628
O O15 0.500000 0.775310 0.000000
O O16 0.859587 0.500000 0.254602
O O17 0.768566 0.279122 0.059432
O O18 0.687732 0.500000 0.874611
#
# Coordination Sequence:
#
# PCOD9149216 Si02
#       7
#     4   4   4   4   4   4   4
#     4   9  20  41  63  89 119 147 191 242 289 347
#     4  11  24  39  58  86 120 158 196 237 289 346
#     4   9  20  39  65  89 114 151 191 239 293 344
#     4  10  20  34  54  80 107 142 190 242 287 335
#     4  10  22  39  58  81 113 153 196 243 291 339
#     4  10  20  35  54  77 111 149 187 233 284 339
#     4  10  23  39  55  83 120 154 191 236 284 345
#
# _framework density 19.393189
#
# number of rings (size 3 to 8) (size 9 to 14) (size 15 to 20)
#    0.000    2.143    0.000    3.857    2.000    5.429 
#    0.000    4.286    0.000    0.000    0.000    0.000 
#    0.000    0.000    0.000    0.000    0.000    0.000 
#
# Total GULP energy -156415.537985 kJ/mol
# GULP energy per Si atom -5586.269214 kJ/mol
# Density = 1.934905 g / cm^3
# Si number density = 19.393189 Si / 1000 Ang^3
#
#
#
# Elastic Constant Matrix: (Units=GPa)
#
#
# Indices 1 2 3 4 5 6 
#
# 1 104.6686 24.6950 30.1281 0.0000 17.9478 0.0000
# 2 24.6950 22.6106 17.2049 0.0000 1.7823 0.0000
# 3 30.1281 17.2049 70.8772 0.0000 3.0283 0.0000
# 4 0.0000 0.0000 0.0000 51.5205 0.0000 -17.9321
# 5 17.9478 1.7823 3.0283 0.0000 15.4196 0.0000
# 6 0.0000 0.0000 0.0000 -17.9321 0.0000 30.5055
#
#
#
# Elastic Compliance Matrix: (Units=1/GPa)
#
#
# Indices 1 2 3 4 5 6 
#
# 1 0.016851 -0.014903 -0.002804 0.000000 -0.017340 0.000000
# 2 -0.014903 0.067640 -0.010580 0.000000 0.011607 0.000000
# 3 -0.002804 -0.010580 0.017827 0.000000 0.000986 0.000000
# 4 0.000000 0.000000 0.000000 0.024402 0.000000 0.014344
# 5 -0.017340 0.011607 0.000986 0.000000 0.083500 0.000000
# 6 0.000000 0.000000 0.000000 0.014344 0.000000 0.041213
#
#
# Mechanical properties :
#
#
# Convention : Reuss Voigt Hill
#
# Bulk Modulus (GPa) = 21.86153 38.02359 29.94256
# Shear Modulus (GPa) = 15.46760 27.89770 21.68265
#
# Velocity S-wave (km/s) = 2.82721 3.79691 3.34736
# Velocity P-wave (km/s) = 4.68559 6.23468 5.51480
#
# Compressibility (1/GPa) = 0.04574244
#
# Stress axis : x y z
#
# Youngs Moduli (GPa) = 59.34451 14.78417 56.09472
#
# Poissons Ratio (x) = 0.22034 0.15730
# Poissons Ratio (y) = 0.88444 0.59348
# Poissons Ratio (z) = 0.16642 0.15641
#
# Static dielectric constant tensor:
#      x y z
#    x 1.670780 0.000000 0.007750 
#    y 0.000000 1.646730 0.000000 
#    z 0.007750 0.000000 1.678490 
# 
# From -- ./inp_files/70297.got.cif
#   From: 2010.05.17/outbox.cif.g08.bks.cpg/sg10_36_cif.got.tgz:70297.got - 2010.06.03 11:33:40.
