data_PCOD9149463
_publ_section_title
;
Structure prediction by ZEFSAII (Michael W. Deem and Ramdas Pophale) SiO2 
 PCOD9149463
Probable space group: P 2/M
;
_chemical_formula_sum "Si O2"
_cell_formula_units_Z 29
_cell_length_a 12.175425
_cell_length_b 9.535243
_cell_length_c 14.887373
_cell_angle_alpha 90.000000
_cell_angle_beta 125.871370
_cell_angle_gamma 90.000000
_cell_volume 1400.549029
_symmetry_space_group_name_H-M "P 2/M"
_symmetry_group_IT_number 10
_symmetry_cell_setting 'monoclinic'
loop_
_space_group_symop_operation_xyz
x,y,z
-x,y,-z
-x,-y,-z
x,-y,z
loop_
_atom_site_type_symbol
_atom_site_label
_atom_site_fract_x
_atom_site_fract_y
_atom_site_fract_z
Si Si1 0.580796 0.153781 0.854473
Si Si2 0.259178 0.717616 0.921235
Si Si3 0.557255 0.331438 0.675283
Si Si4 0.779971 0.165740 0.678738
Si Si5 0.013723 0.343722 0.111866
Si Si6 0.500000 0.500000 0.000000
Si Si7 0.257564 0.838601 0.732550
Si Si8 0.274018 0.167782 0.544626
O O1 0.612778 0.276452 0.798718
O O2 0.422903 0.169625 0.807026
O O3 0.593815 0.000000 0.816989
O O4 0.678743 0.160450 0.986638
O O5 0.133527 0.656010 0.914384
O O6 0.387443 0.618448 0.971780
O O7 0.213060 0.756940 0.798957
O O8 0.554284 0.500000 0.668164
O O9 0.649675 0.257554 0.644770
O O10 0.408827 0.261289 0.599787
O O11 0.808573 0.185771 0.586429
O O12 0.898800 0.226649 0.796634
O O13 0.756301 0.000000 0.681988
O O14 0.076291 0.500000 0.152665
O O15 0.000000 0.315331 0.000000
O O16 0.210079 0.793598 0.610390
O O17 0.219377 0.000000 0.726516
O O18 0.307991 0.000000 0.567124
#
# Coordination Sequence:
#
# PCOD9149463 Si02
#       8
#     4   4   4   4   4   1   4   4
#     4  10  20  34  56  89 125 162 207 262 320 378
#     4  12  22  37  63  90 130 164 209 259 320 379
#     4  11  22  34  59  91 127 167 211 266 327 378
#     4  11  23  41  63  87 120 165 217 264 311 375
#     4  11  26  45  64  88 125 170 208 252 311 380
#     4  12  24  36  60 100 130 166 204 266 324 392
#     4   9  18  35  58  87 118 153 201 259 316 371
#     4   9  20  39  62  89 123 162 210 269 322 369
#
# _framework density 20.706166
#
# number of rings (size 3 to 8) (size 9 to 14) (size 15 to 20)
#    0.000    1.517    2.069    4.138    0.966    6.345 
#    0.000    0.690    0.000    3.310    0.000    0.000 
#    0.000    0.000    0.000    0.000    0.000    0.000 
#
# Total GULP energy -161620.564615 kJ/mol
# GULP energy per Si atom -5573.122918 kJ/mol
# Density = 2.065904 g / cm^3
# Si number density = 20.706166 Si / 1000 Ang^3
#
#
#
# Elastic Constant Matrix: (Units=GPa)
#
#
# Indices 1 2 3 4 5 6 
#
# 1 80.8494 24.8486 37.6860 0.0000 -29.9462 0.0000
# 2 24.8486 110.5560 51.1364 0.0000 -16.4679 0.0000
# 3 37.6860 51.1364 106.9352 0.0000 -38.0652 0.0000
# 4 0.0000 0.0000 0.0000 21.2146 0.0000 -19.6099
# 5 -29.9462 -16.4679 -38.0652 0.0000 33.0187 0.0000
# 6 0.0000 0.0000 0.0000 -19.6099 0.0000 50.1369
#
#
#
# Elastic Compliance Matrix: (Units=1/GPa)
#
#
# Indices 1 2 3 4 5 6 
#
# 1 0.018965 -0.001831 -0.000017 0.000000 0.016266 0.000000
# 2 -0.001831 0.011812 -0.005931 0.000000 -0.002608 0.000000
# 3 -0.000017 -0.005931 0.018885 0.000000 0.018798 0.000000
# 4 0.000000 0.000000 0.000000 0.073830 0.000000 0.028877
# 5 0.016266 -0.002608 0.018798 0.000000 0.065409 0.000000
# 6 0.000000 0.000000 0.000000 0.028877 0.000000 0.031240
#
#
# Mechanical properties :
#
#
# Convention : Reuss Voigt Hill
#
# Bulk Modulus (GPa) = 29.32427 58.40916 43.86672
# Shear Modulus (GPa) = 20.23736 33.18534 26.71135
#
# Velocity S-wave (km/s) = 3.12967 4.00769 3.59558
# Velocity P-wave (km/s) = 5.22040 7.04878 6.20233
#
# Compressibility (1/GPa) = 0.03410144
#
# Stress axis : x y z
#
# Youngs Moduli (GPa) = 52.72967 84.66099 52.95157
#
# Poissons Ratio (x) = 0.15505 0.00092
# Poissons Ratio (y) = 0.09657 0.31407
# Poissons Ratio (z) = 0.00092 0.50214
#
# Static dielectric constant tensor:
#      x y z
#    x 1.729800 0.000000 -0.014070 
#    y 0.000000 1.717400 0.000000 
#    z -0.014070 0.000000 1.793820 
# 
# From -- ./inp_files/63960.got.cif
#   From: 2010.05.17/outbox.cif.g08.bks.cpg/sg10_32_cif.got.tgz:63960.got - 2010.06.03 11:33:40.
