data_PCOD9149707
_publ_section_title
;
Structure prediction by ZEFSAII (Michael W. Deem and Ramdas Pophale) SiO2 
 PCOD9149707
Probable space group: P 2/M
;
_chemical_formula_sum "Si O2"
_cell_formula_units_Z 32
_cell_length_a 8.632659
_cell_length_b 14.621750
_cell_length_c 12.381421
_cell_angle_alpha 90.000000
_cell_angle_beta 87.044114
_cell_angle_gamma 90.000000
_cell_volume 1560.760382
_symmetry_space_group_name_H-M "P 2/M"
_symmetry_group_IT_number 10
_symmetry_cell_setting 'monoclinic'
loop_
_space_group_symop_operation_xyz
x,y,z
-x,y,-z
-x,-y,-z
x,-y,z
loop_
_atom_site_type_symbol
_atom_site_label
_atom_site_fract_x
_atom_site_fract_y
_atom_site_fract_z
Si Si1 0.429365 0.104918 0.394845
Si Si2 0.583538 0.273794 0.881938
Si Si3 0.078404 0.892365 0.888589
Si Si4 0.235403 0.108875 0.214315
Si Si5 0.670389 0.195837 0.247830
Si Si6 0.923700 0.718851 0.394409
Si Si7 0.334885 0.603805 0.481469
Si Si8 0.813434 0.606803 0.742488
O O1 0.500000 0.147800 0.500000
O O2 0.282106 0.141336 0.333680
O O3 0.566440 0.116228 0.303479
O O4 0.392116 0.000000 0.421744
O O5 0.666446 0.173909 0.868428
O O6 0.449754 0.270651 0.793519
O O7 0.717945 0.345471 0.842996
O O8 0.500000 0.288180 0.000000
O O9 0.233406 0.840689 0.856092
O O10 0.945882 0.881774 0.802573
O O11 0.110438 0.000000 0.899988
O O12 0.000000 0.857879 0.000000
O O13 0.272026 0.000000 0.201682
O O14 0.799093 0.224055 0.330297
O O15 0.813614 0.644138 0.454633
O O16 0.000000 0.763972 0.500000
O O17 0.044442 0.669414 0.307888
O O18 0.500000 0.649175 0.500000
O O19 0.345106 0.500000 0.519645
O O20 0.302034 0.605686 0.355790
O O21 0.856970 0.500000 0.762356
#
# Coordination Sequence:
#
# PCOD9149707 Si02
#       8
#     4   4   4   4   4   4   4   4
#     4   9  19  35  53  75 108 149 186 221 266 323
#     4  11  23  38  58  82 109 146 192 239 282 324
#     4  10  20  35  55  78 107 144 184 229 281 331
#     4   9  19  36  57  81 111 145 182 226 277 333
#     4  11  22  34  54  82 110 140 182 232 278 330
#     4  10  21  35  55  83 113 143 176 218 279 342
#     4   9  17  32  56  84 110 137 174 221 274 332
#     4  10  21  38  58  79 110 149 187 231 281 335
#
# _framework density 20.502827
#
# number of rings (size 3 to 8) (size 9 to 14) (size 15 to 20)
#    0.000    2.125    0.000    3.000    0.000    8.000 
#    0.000    0.625    0.000    4.500    0.000    0.000 
#    0.000    0.000    0.000    0.000    0.000    0.000 
#
# Total GULP energy -178328.830692 kJ/mol
# GULP energy per Si atom -5572.775959 kJ/mol
# Density = 2.045616 g / cm^3
# Si number density = 20.502827 Si / 1000 Ang^3
#
#
#
# Elastic Constant Matrix: (Units=GPa)
#
#
# Indices 1 2 3 4 5 6 
#
# 1 71.6530 11.5838 10.8713 0.0000 -6.2082 0.0000
# 2 11.5838 57.3572 8.1267 0.0000 -9.6359 0.0000
# 3 10.8713 8.1267 61.0323 0.0000 -13.1195 0.0000
# 4 0.0000 0.0000 0.0000 15.9942 0.0000 -5.9493
# 5 -6.2082 -9.6359 -13.1195 0.0000 45.2504 0.0000
# 6 0.0000 0.0000 0.0000 -5.9493 0.0000 18.3374
#
#
#
# Elastic Compliance Matrix: (Units=1/GPa)
#
#
# Indices 1 2 3 4 5 6 
#
# 1 0.014761 -0.002536 -0.002103 0.000000 0.000875 0.000000
# 2 -0.002536 0.018681 -0.001339 0.000000 0.003242 0.000000
# 3 -0.002103 -0.001339 0.017932 0.000000 0.004625 0.000000
# 4 0.000000 0.000000 0.000000 0.071103 0.000000 0.023068
# 5 0.000875 0.003242 0.004625 0.000000 0.024251 0.000000
# 6 0.000000 0.000000 0.000000 0.023068 0.000000 0.062017
#
#
# Mechanical properties :
#
#
# Convention : Reuss Voigt Hill
#
# Bulk Modulus (GPa) = 25.36944 27.91177 26.64060
# Shear Modulus (GPa) = 21.38203 26.54713 23.96458
#
# Velocity S-wave (km/s) = 3.23287 3.60224 3.42254
# Velocity P-wave (km/s) = 5.13184 5.56280 5.35166
#
# Compressibility (1/GPa) = 0.03941751
#
# Stress axis : x y z
#
# Youngs Moduli (GPa) = 67.74551 53.52994 55.76626
#
# Poissons Ratio (x) = 0.13575 0.11730
# Poissons Ratio (y) = 0.17181 0.07466
# Poissons Ratio (z) = 0.14250 0.07167
#
# Static dielectric constant tensor:
#      x y z
#    x 1.749280 0.000000 0.036720 
#    y 0.000000 1.746430 0.000000 
#    z 0.036720 0.000000 1.779220 
# 
# From -- ./inp_files/25308.got.cif
#   From: 2010.05.17/outbox.cif.g08.bks.cpg/sg10_13_cif.got.tgz:25308.got - 2010.06.03 11:33:40.
