data_PCOD9149647
_publ_section_title
;
Structure prediction by ZEFSAII (Michael W. Deem and Ramdas Pophale) SiO2 
 PCOD9149647
Probable space group: P 2/M
;
_chemical_formula_sum "Si O2"
_cell_formula_units_Z 32
_cell_length_a 23.041420
_cell_length_b 9.156710
_cell_length_c 12.940080
_cell_angle_alpha 90.000000
_cell_angle_beta 38.349281
_cell_angle_gamma 90.000000
_cell_volume 1693.928641
_symmetry_space_group_name_H-M "P 2/M"
_symmetry_group_IT_number 10
_symmetry_cell_setting 'monoclinic'
loop_
_space_group_symop_operation_xyz
x,y,z
-x,y,-z
-x,-y,-z
x,-y,z
loop_
_atom_site_type_symbol
_atom_site_label
_atom_site_fract_x
_atom_site_fract_y
_atom_site_fract_z
Si Si1 0.887144 0.834764 0.146177
Si Si2 0.128801 0.674080 0.619846
Si Si3 0.395095 0.325215 0.608571
Si Si4 0.382470 0.824694 0.981756
Si Si5 0.088092 0.325432 0.097644
Si Si6 0.589630 0.175978 0.626487
Si Si7 0.741269 0.325703 0.010315
Si Si8 0.693683 0.175298 0.692881
O O1 0.855050 0.740524 0.288420
O O2 0.849564 0.000000 0.202787
O O3 0.871918 0.757301 0.058312
O O4 0.000000 0.842497 0.000000
O O5 0.138109 0.500000 0.609100
O O6 0.206474 0.746666 0.439674
O O7 0.021677 0.709789 0.738494
O O8 0.500000 0.286552 0.500000
O O9 0.391728 0.500000 0.597671
O O10 0.374717 0.246739 0.528919
O O11 0.323371 0.288367 0.800220
O O12 0.482091 0.777353 0.796335
O O13 0.299813 0.756097 0.030305
O O14 0.379133 0.000000 0.978726
O O15 0.369926 0.787285 0.119733
O O16 0.095155 0.500000 0.068885
O O17 0.152772 0.290330 0.104926
O O18 0.645980 0.216643 0.651041
O O19 0.592088 0.000000 0.613993
O O20 0.733988 0.500000 0.004533
O O21 0.706261 0.000000 0.674545
#
# Coordination Sequence:
#
# PCOD9149647 Si02
#       8
#     4   4   4   4   4   4   4   4
#     4   9  17  30  50  76 107 142 178 222 274 324
#     4  10  20  35  54  78 109 145 189 232 273 323
#     4  10  20  35  55  83 117 147 176 222 278 328
#     4  10  21  39  60  81 109 145 185 230 278 333
#     4   9  19  35  54  78 110 150 188 225 271 326
#     4  10  21  37  59  84 111 144 182 225 277 337
#     4  10  21  37  57  81 114 151 185 224 273 329
#     4  10  22  39  58  82 111 144 185 233 283 328
#
# _framework density 18.890996000000001
#
# number of rings (size 3 to 8) (size 9 to 14) (size 15 to 20)
#    0.000    2.250    1.250    1.125    1.750    5.750 
#    0.000    0.625    0.000    6.000    0.000    0.000 
#    0.000    0.000    0.000    0.000    0.000    0.000 
#
# Total GULP energy -178648.228053 kJ/mol
# GULP energy per Si atom -5582.757127 kJ/mol
# Density = 1.884800 g / cm^3
# Si number density = 18.890996 Si / 1000 Ang^3
#
#
#
# Elastic Constant Matrix: (Units=GPa)
#
#
# Indices 1 2 3 4 5 6 
#
# 1 99.0422 23.2842 11.7466 0.0000 5.7062 0.0000
# 2 23.2842 15.7180 11.8295 0.0000 2.7477 0.0000
# 3 11.7466 11.8295 40.4910 0.0000 7.8004 0.0000
# 4 0.0000 0.0000 0.0000 150.8058 0.0000 251.0667
# 5 5.7062 2.7477 7.8004 0.0000 27.5258 0.0000
# 6 0.0000 0.0000 0.0000 251.0667 0.0000 522.7084
#
#
#
# Elastic Compliance Matrix: (Units=1/GPa)
#
#
# Indices 1 2 3 4 5 6 
#
# 1 0.015819 -0.025549 0.003189 0.000000 -0.001633 0.000000
# 2 -0.025549 0.122871 -0.028710 0.000000 0.001167 0.000000
# 3 0.003189 -0.028710 0.033567 0.000000 -0.007308 0.000000
# 4 0.000000 0.000000 0.000000 0.033098 0.000000 -0.015897
# 5 -0.001633 0.001167 -0.007308 0.000000 0.038622 0.000000
# 6 0.000000 0.000000 0.000000 -0.015897 0.000000 0.009549
#
#
# Mechanical properties :
#
#
# Convention : Reuss Voigt Hill
#
# Bulk Modulus (GPa) = 14.26143 27.66354 20.96249
# Shear Modulus (GPa) = 13.19131 147.43407 80.31269
#
# Velocity S-wave (km/s) = 2.64538 8.84387 6.52733
# Velocity P-wave (km/s) = 4.11052 10.90692 8.24189
#
# Compressibility (1/GPa) = 0.07011918
#
# Stress axis : x y z
#
# Youngs Moduli (GPa) = 63.21591 8.13859 29.79118
#
# Poissons Ratio (x) = 0.20793 -0.09502
# Poissons Ratio (y) = 1.61507 0.85530
# Poissons Ratio (z) = -0.20162 0.23366
#
# Static dielectric constant tensor:
#      x y z
#    x 1.656070 0.000000 -0.030320 
#    y 0.000000 1.632640 0.000000 
#    z -0.030320 0.000000 1.654820 
# 
# From -- ./inp_files/55261.got.cif
#   From: 2010.05.17/outbox.cif.g08.bks.cpg/sg10_28_cif.got.tgz:55261.got - 2010.06.03 11:33:40.
