data_PCOD9149253
_publ_section_title
;
Structure prediction by ZEFSAII (Michael W. Deem and Ramdas Pophale) SiO2 
 PCOD9149253
Probable space group: P 2/M
;
_chemical_formula_sum "Si O2"
_cell_formula_units_Z 32
_cell_length_a 33.892774
_cell_length_b 9.122165
_cell_length_c 11.757908
_cell_angle_alpha 90.000000
_cell_angle_beta 150.589443
_cell_angle_gamma 90.000000
_cell_volume 1785.144733
_symmetry_space_group_name_H-M "P 2/M"
_symmetry_group_IT_number 10
_symmetry_cell_setting 'monoclinic'
loop_
_space_group_symop_operation_xyz
x,y,z
-x,y,-z
-x,-y,-z
x,-y,z
loop_
_atom_site_type_symbol
_atom_site_label
_atom_site_fract_x
_atom_site_fract_y
_atom_site_fract_z
Si Si1 0.685476 0.674348 0.529035
Si Si2 0.027513 0.671948 0.754458
Si Si3 0.085419 0.328387 0.155278
Si Si4 0.771898 0.825423 0.355676
Si Si5 0.143488 0.173647 0.666030
Si Si6 0.368580 0.325571 0.866848
Si Si7 0.166168 0.173431 0.980327
Si Si8 0.472550 0.168472 0.798593
O O1 0.688116 0.500000 0.552038
O O2 0.669157 0.701387 0.354008
O O3 0.766984 0.747363 0.776374
O O4 0.611024 0.744823 0.410425
O O5 0.024530 0.500000 0.718678
O O6 0.938635 0.735460 0.546191
O O7 0.072631 0.688227 0.988860
O O8 0.079562 0.760196 0.793996
O O9 0.104206 0.500000 0.226057
O O10 0.155340 0.229407 0.381548
O O11 0.000000 0.295135 0.000000
O O12 0.799199 0.790447 0.295618
O O13 0.691904 0.743775 0.194685
O O14 0.761776 0.000000 0.341070
O O15 0.123664 0.000000 0.607949
O O16 0.181659 0.198330 0.885562
O O17 0.375970 0.500000 0.899029
O O18 0.455704 0.249738 0.086386
O O19 0.166604 0.000000 0.003414
O O20 0.462715 0.000000 0.737289
O O21 0.500000 0.166950 0.000000
#
# Coordination Sequence:
#
# PCOD9149253 Si02
#       8
#     4   4   4   4   4   4   4   4
#     4  10  20  35  55  82 113 142 174 213 261 315
#     4  11  22  36  56  79 103 134 177 224 269 319
#     4  10  20  35  52  74 105 138 169 211 268 319
#     4  11  22  35  54  78 105 139 182 222 261 315
#     4  10  23  40  54  72 102 141 181 224 270 313
#     4  10  20  34  54  82 115 144 171 210 263 316
#     4  11  23  38  55  75 104 140 179 223 269 313
#     4   9  17  31  54  83 113 143 174 209 255 312
#
# _framework density 17.925716999999999
#
# number of rings (size 3 to 8) (size 9 to 14) (size 15 to 20)
#    0.000    1.750    1.250    3.375    0.000   10.250 
#    0.000    0.000    0.000    0.750    0.000    5.250 
#    0.000    0.000    0.000    0.000    0.000    0.000 
#
# Total GULP energy -178775.936296 kJ/mol
# GULP energy per Si atom -5586.748009 kJ/mol
# Density = 1.788492 g / cm^3
# Si number density = 17.925717 Si / 1000 Ang^3
#
#
#
# Elastic Constant Matrix: (Units=GPa)
#
#
# Indices 1 2 3 4 5 6 
#
# 1 96.5654 62.8390 40.1997 0.0000 27.3410 0.0000
# 2 62.8390 89.4243 41.2951 0.0000 15.9015 0.0000
# 3 40.1997 41.2951 49.1457 0.0000 22.5077 0.0000
# 4 0.0000 0.0000 0.0000 27.3120 0.0000 13.7564
# 5 27.3410 15.9015 22.5077 0.0000 27.1053 0.0000
# 6 0.0000 0.0000 0.0000 13.7564 0.0000 41.0282
#
#
#
# Elastic Compliance Matrix: (Units=1/GPa)
#
#
# Indices 1 2 3 4 5 6 
#
# 1 0.024047 -0.013607 -0.001264 0.000000 -0.015224 0.000000
# 2 -0.013607 0.026155 -0.016307 0.000000 0.011922 0.000000
# 3 -0.001264 -0.016307 0.048601 0.000000 -0.029516 0.000000
# 4 0.000000 0.000000 0.000000 0.044054 0.000000 -0.014771
# 5 -0.015224 0.011922 -0.029516 0.000000 0.069764 0.000000
# 6 0.000000 0.000000 0.000000 -0.014771 0.000000 0.029326
#
#
# Mechanical properties :
#
#
# Convention : Reuss Voigt Hill
#
# Bulk Modulus (GPa) = 27.43712 58.20033 42.81873
# Shear Modulus (GPa) = 15.80024 25.14253 20.47139
#
# Velocity S-wave (km/s) = 2.97211 3.74919 3.38303
# Velocity P-wave (km/s) = 5.20741 7.16100 6.26087
#
# Compressibility (1/GPa) = 0.03644697
#
# Stress axis : x y z
#
# Youngs Moduli (GPa) = 41.58525 38.23415 20.57573
#
# Poissons Ratio (x) = 0.52026 0.02601
# Poissons Ratio (y) = 0.56586 0.33552
# Poissons Ratio (z) = 0.05257 0.62347
#
# Static dielectric constant tensor:
#      x y z
#    x 1.619690 0.000000 -0.002120 
#    y 0.000000 1.597640 0.000000 
#    z -0.002120 0.000000 1.585530 
# 
# From -- ./inp_files/55352.got.cif
#   From: 2010.05.17/outbox.cif.g08.bks.cpg/sg10_28_cif.got.tgz:55352.got - 2010.06.03 11:33:40.
