data_PCOD9149377
_publ_section_title
;
Structure prediction by ZEFSAII (Michael W. Deem and Ramdas Pophale) SiO2 
 PCOD9149377
Probable space group: P 2/M
;
_chemical_formula_sum "Si O2"
_cell_formula_units_Z 24
_cell_length_a 13.522217
_cell_length_b 14.423787
_cell_length_c 10.939488
_cell_angle_alpha 90.000000
_cell_angle_beta 31.855054
_cell_angle_gamma 90.000000
_cell_volume 1126.083775
_symmetry_space_group_name_H-M "P 2/M"
_symmetry_group_IT_number 10
_symmetry_cell_setting 'monoclinic'
loop_
_space_group_symop_operation_xyz
x,y,z
-x,y,-z
-x,-y,-z
x,-y,z
loop_
_atom_site_type_symbol
_atom_site_label
_atom_site_fract_x
_atom_site_fract_y
_atom_site_fract_z
Si Si1 0.192211 0.317992 0.356635
Si Si2 0.298337 0.000000 0.109168
Si Si3 0.642296 0.709126 0.465401
Si Si4 0.384725 0.500000 0.241847
Si Si5 0.940588 0.192705 0.282508
Si Si6 0.348559 0.794695 0.962079
Si Si7 0.872550 0.000000 0.452052
Si Si8 0.387425 0.500000 0.495045
O O1 0.274135 0.404463 0.343752
O O2 0.136583 0.240778 0.512683
O O3 0.306723 0.269156 0.125905
O O4 0.000000 0.353306 0.500000
O O5 0.377975 0.098547 0.976015
O O6 0.275505 0.000000 0.280694
O O7 0.081133 0.000000 0.292278
O O8 0.500000 0.719262 0.500000
O O9 0.836555 0.764045 0.275478
O O10 0.704543 0.601131 0.408006
O O11 0.515120 0.747594 0.711303
O O12 0.496771 0.500000 0.250997
O O13 0.500000 0.500000 0.000000
O O14 0.869313 0.088873 0.370859
O O15 0.164119 0.202520 0.067426
O O16 0.500000 0.500000 0.500000
#
# Coordination Sequence:
#
# PCOD9149377 Si02
#       8
#     4   2   4   2   4   4   2   2
#     4  10  20  34  55  87 119 148 185 240 300 355
#     4   9  16  33  59  88 121 153 188 232 286 357
#     4  11  24  42  61  81 114 157 204 245 285 348
#     4  12  21  33  58  87 116 154 193 247 302 355
#     4  10  20  37  61  87 119 152 190 241 294 344
#     4  10  21  37  60  90 120 152 191 239 295 352
#     4   9  16  33  59  88 121 153 188 232 290 353
#     4  10  22  41  60  81 114 158 203 248 293 351
#
# _framework density 21.312802000000001
#
# number of rings (size 3 to 8) (size 9 to 14) (size 15 to 20)
#    0.000    1.833    3.333    1.250    0.000    1.333 
#    0.000    4.167    0.000    6.000    0.000    0.000 
#    0.000    0.000    0.000    0.000    0.000    0.000 
#
# Total GULP energy -133783.253748 kJ/mol
# GULP energy per Si atom -5574.302239 kJ/mol
# Density = 2.126429 g / cm^3
# Si number density = 21.312802 Si / 1000 Ang^3
#
#
#
# Elastic Constant Matrix: (Units=GPa)
#
#
# Indices 1 2 3 4 5 6 
#
# 1 128.5478 34.6291 15.1960 0.0000 -13.0236 0.0000
# 2 34.6291 170.2403 21.9697 0.0000 -10.5600 0.0000
# 3 15.1960 21.9697 55.1232 0.0000 -4.4631 0.0000
# 4 0.0000 0.0000 0.0000 8.9414 0.0000 2.1965
# 5 -13.0236 -10.5600 -4.4631 0.0000 23.9582 0.0000
# 6 0.0000 0.0000 0.0000 2.1965 0.0000 84.1768
#
#
#
# Elastic Compliance Matrix: (Units=1/GPa)
#
#
# Indices 1 2 3 4 5 6 
#
# 1 0.008713 -0.001332 -0.001559 0.000000 0.003859 0.000000
# 2 -0.001332 0.006524 -0.002090 0.000000 0.001762 0.000000
# 3 -0.001559 -0.002090 0.019556 0.000000 0.001874 0.000000
# 4 0.000000 0.000000 0.000000 0.112561 0.000000 -0.002937
# 5 0.003859 0.001762 0.001874 0.000000 0.044963 0.000000
# 6 0.000000 0.000000 0.000000 -0.002937 0.000000 0.011956
#
#
# Mechanical properties :
#
#
# Convention : Reuss Voigt Hill
#
# Bulk Modulus (GPa) = 40.27202 55.27787 47.77494
# Shear Modulus (GPa) = 22.47066 42.22305 32.34686
#
# Velocity S-wave (km/s) = 3.25056 4.45580 3.90002
# Velocity P-wave (km/s) = 5.74673 7.24327 6.53796
#
# Compressibility (1/GPa) = 0.02483114
#
# Stress axis : x y z
#
# Youngs Moduli (GPa) = 114.76810 153.27929 51.13587
#
# Poissons Ratio (x) = 0.20414 0.07971
# Poissons Ratio (y) = 0.15285 0.10689
# Poissons Ratio (z) = 0.17889 0.32041
#
# Static dielectric constant tensor:
#      x y z
#    x 1.822230 0.000000 -0.043980 
#    y 0.000000 1.727420 0.000000 
#    z -0.043980 0.000000 1.769060 
# 
# From -- ./inp_files/51578.got.cif
#   From: 2010.05.17/outbox.cif.g08.bks.cpg/sg10_26_cif.got.tgz:51578.got - 2010.06.03 11:33:40.
