data_PCOD9149043
_publ_section_title
;
Structure prediction by ZEFSAII (Michael W. Deem and Ramdas Pophale) SiO2 
 PCOD9149043
Probable space group: P 2/M
;
_chemical_formula_sum "Si O2"
_cell_formula_units_Z 32
_cell_length_a 20.358906
_cell_length_b 7.829213
_cell_length_c 25.469214
_cell_angle_alpha 90.000000
_cell_angle_beta 159.380599
_cell_angle_gamma 90.000000
_cell_volume 1429.638953
_symmetry_space_group_name_H-M "P 2/M"
_symmetry_group_IT_number 10
_symmetry_cell_setting 'monoclinic'
loop_
_space_group_symop_operation_xyz
x,y,z
-x,y,-z
-x,-y,-z
x,-y,z
loop_
_atom_site_type_symbol
_atom_site_label
_atom_site_fract_x
_atom_site_fract_y
_atom_site_fract_z
Si Si1 0.298539 0.189167 0.196627
Si Si2 0.313639 0.708360 0.889685
Si Si3 0.074392 0.310609 0.124009
Si Si4 0.160073 0.197085 0.379531
Si Si5 0.087151 0.306794 0.438254
Si Si6 0.678276 0.793568 0.600735
Si Si7 0.490797 0.293621 0.750334
Si Si8 0.235397 0.707134 0.950987
O O1 0.241136 0.289031 0.206573
O O2 0.437945 0.246394 0.254773
O O3 0.353026 0.000000 0.254872
O O4 0.095585 0.187926 0.016456
O O5 0.305630 0.500000 0.881054
O O6 0.120845 0.771326 0.718116
O O7 0.500000 0.765464 0.000000
O O8 0.316990 0.750220 0.954131
O O9 0.994289 0.500000 0.059481
O O10 0.151698 0.280864 0.239188
O O11 0.132650 0.309318 0.410059
O O12 0.316898 0.256716 0.456352
O O13 0.188673 0.000000 0.416800
O O14 0.968161 0.209937 0.203279
O O15 0.071485 0.500000 0.447479
O O16 0.279811 0.228882 0.604074
O O17 0.500000 0.739047 0.500000
O O18 0.689663 0.000000 0.610396
O O19 0.482497 0.500000 0.745859
O O20 0.636021 0.238706 0.904071
O O21 0.215402 0.500000 0.938637
#
# Coordination Sequence:
#
# PCOD9149043 Si02
#       8
#     4   4   4   4   4   4   4   4
#     4  11  22  36  55  74  99 137 175 218 272 323
#     4   8  14  29  54  81 109 145 182 212 251 311
#     4  11  22  37  54  75 100 131 177 224 272 327
#     4  10  20  34  53  75 101 137 181 223 266 321
#     4   9  19  34  53  78 110 142 175 220 269 317
#     4  10  22  37  51  71 102 136 175 225 274 320
#     4  10  20  34  52  78 109 139 175 221 272 320
#     4   9  18  33  54  78 106 140 175 218 265 312
#
# _framework density 22.383275000000001
#
# number of rings (size 3 to 8) (size 9 to 14) (size 15 to 20)
#    0.000    2.250    0.000    4.875    1.750    4.250 
#    0.000    0.625    0.000    9.750    0.000    0.000 
#    0.000    9.000    0.000    0.000    0.000    0.000 
#
# Total GULP energy -178613.422505 kJ/mol
# GULP energy per Si atom -5581.669453 kJ/mol
# Density = 2.233233 g / cm^3
# Si number density = 22.383275 Si / 1000 Ang^3
#
#
#
# Elastic Constant Matrix: (Units=GPa)
#
#
# Indices 1 2 3 4 5 6 
#
# 1 56.3154 2.4771 4.5422 0.0000 19.2278 0.0000
# 2 2.4771 44.3728 0.4494 0.0000 1.4354 0.0000
# 3 4.5422 0.4494 94.0380 0.0000 10.1431 0.0000
# 4 0.0000 0.0000 0.0000 13.8336 0.0000 -0.7615
# 5 19.2278 1.4354 10.1431 0.0000 42.8859 0.0000
# 6 0.0000 0.0000 0.0000 -0.7615 0.0000 -368.0314
#
#
#
# Elastic Compliance Matrix: (Units=1/GPa)
#
#
# Indices 1 2 3 4 5 6 
#
# 1 0.021000 -0.000869 0.000002 0.000000 -0.009387 0.000000
# 2 -0.000869 0.022597 -0.000027 0.000000 -0.000360 0.000000
# 3 0.000002 -0.000027 0.010912 0.000000 -0.002581 0.000000
# 4 0.000000 0.000000 0.000000 0.072279 0.000000 -0.000150
# 5 -0.009387 -0.000360 -0.002581 0.000000 0.028149 0.000000
# 6 0.000000 0.000000 0.000000 -0.000150 0.000000 -0.002717
#
#
# Mechanical properties :
#
#
# Convention : Reuss Voigt Hill
#
# Bulk Modulus (GPa) = 18.96737 23.29598 21.13167
# Shear Modulus (GPa) = 29.14061 -49.77854 -10.31896
#
# Velocity S-wave (km/s) = 3.61209 -4.72096 -2.14945
# Velocity P-wave (km/s) = 5.08808 4.39161 1.81691
#
# Compressibility (1/GPa) = 0.05272212
#
# Stress axis : x y z
#
# Youngs Moduli (GPa) = 47.61878 44.25412 91.63874
#
# Poissons Ratio (x) = 0.03844 -0.00021
# Poissons Ratio (y) = 0.04137 0.00249
# Poissons Ratio (z) = -0.00011 0.00120
#
# Static dielectric constant tensor:
#      x y z
#    x 1.800520 0.000000 0.016930 
#    y 0.000000 1.810100 0.000000 
#    z 0.016930 0.000000 1.896020 
# 
# From -- ./inp_files/93738.got.cif
#   From: 2010.05.17/outbox.cif.g08.bks.cpg/sg10_47_cif.got.tgz:93738.got - 2010.06.03 11:33:40.
