data_PCOD9149536
_publ_section_title
;
Structure prediction by ZEFSAII (Michael W. Deem and Ramdas Pophale) SiO2 
 PCOD9149536
Probable space group: P 2/M
;
_chemical_formula_sum "Si O2"
_cell_formula_units_Z 24
_cell_length_a 25.453976
_cell_length_b 7.543952
_cell_length_c 11.991989
_cell_angle_alpha 90.000000
_cell_angle_beta 151.106432
_cell_angle_gamma 90.000000
_cell_volume 1112.649568
_symmetry_space_group_name_H-M "P 2/M"
_symmetry_group_IT_number 10
_symmetry_cell_setting 'monoclinic'
loop_
_space_group_symop_operation_xyz
x,y,z
-x,y,-z
-x,-y,-z
x,-y,z
loop_
_atom_site_type_symbol
_atom_site_label
_atom_site_fract_x
_atom_site_fract_y
_atom_site_fract_z
Si Si1 0.442898 0.000000 0.270577
Si Si2 0.850087 0.714917 0.002492
Si Si3 0.262720 0.700564 0.659204
Si Si4 0.085338 0.286149 0.507134
Si Si5 0.440767 0.000000 0.011854
Si Si6 0.726304 0.712605 0.977410
Si Si7 0.122028 0.793575 0.201406
O O1 0.500000 0.000000 0.500000
O O2 0.366499 0.825822 0.137122
O O3 0.492806 0.000000 0.235756
O O4 0.852415 0.500000 0.007475
O O5 0.963893 0.780661 0.266936
O O6 0.747775 0.764248 0.888916
O O7 0.850906 0.775927 0.877668
O O8 0.288849 0.500000 0.742522
O O9 0.159869 0.764149 0.541036
O O10 0.215373 0.702832 0.446955
O O11 0.362904 0.828758 0.862206
O O12 0.076212 0.500000 0.491408
O O13 0.159479 0.242755 0.750099
O O14 0.500000 0.000000 0.000000
O O15 0.708479 0.500000 0.953004
O O16 0.122068 0.000000 0.233647
O O17 0.000000 0.723058 0.000000
#
# Coordination Sequence:
#
# PCOD9149536 Si02
#       7
#     2   4   4   4   2   4   4
#     4  12  28  48  72  97 124 168 220 281 349 394
#     4  10  20  34  58  95 136 176 216 257 310 381
#     4  11  22  41  69  95 126 173 218 260 322 390
#     4   9  17  34  63  93 128 169 210 251 302 380
#     4  12  28  50  72  98 128 162 220 292 345 398
#     4  10  22  42  66  95 130 170 215 264 321 393
#     4  11  22  34  54  91 139 182 220 262 311 377
#
# _framework density 21.570135000000001
#
# number of rings (size 3 to 8) (size 9 to 14) (size 15 to 20)
#    0.000    1.500    4.167    1.000    1.167    4.667 
#    1.500    0.833    0.000    0.000    0.000    0.000 
#    0.000    0.000    0.000    0.000    0.000    0.000 
#
# Total GULP energy -133948.286568 kJ/mol
# GULP energy per Si atom -5581.178607 kJ/mol
# Density = 2.152104 g / cm^3
# Si number density = 21.570135 Si / 1000 Ang^3
#
#
#
# Elastic Constant Matrix: (Units=GPa)
#
#
# Indices 1 2 3 4 5 6 
#
# 1 136.3229 17.7622 32.6086 0.0000 -22.1027 0.0000
# 2 17.7622 87.0012 10.5978 0.0000 7.7036 0.0000
# 3 32.6086 10.5978 48.3161 0.0000 -21.9532 0.0000
# 4 0.0000 0.0000 0.0000 24.3858 0.0000 -7.2333
# 5 -22.1027 7.7036 -21.9532 0.0000 28.4346 0.0000
# 6 0.0000 0.0000 0.0000 -7.2333 0.0000 24.7297
#
#
#
# Elastic Compliance Matrix: (Units=1/GPa)
#
#
# Indices 1 2 3 4 5 6 
#
# 1 0.009237 -0.001885 -0.003583 0.000000 0.004924 0.000000
# 2 -0.001885 0.013510 -0.006192 0.000000 -0.009907 0.000000
# 3 -0.003583 -0.006192 0.036922 0.000000 0.027399 0.000000
# 4 0.000000 0.000000 0.000000 0.044903 0.000000 0.013134
# 5 0.004924 -0.009907 0.027399 0.000000 0.062834 0.000000
# 6 0.000000 0.000000 0.000000 0.013134 0.000000 0.044279
#
#
# Mechanical properties :
#
#
# Convention : Reuss Voigt Hill
#
# Bulk Modulus (GPa) = 27.51117 43.73081 35.62099
# Shear Modulus (GPa) = 20.23290 29.55480 24.89385
#
# Velocity S-wave (km/s) = 3.06601 3.70560 3.40087
# Velocity P-wave (km/s) = 5.03149 6.21502 5.65430
#
# Compressibility (1/GPa) = 0.03634888
#
# Stress axis : x y z
#
# Youngs Moduli (GPa) = 108.26491 74.01658 27.08382
#
# Poissons Ratio (x) = 0.13955 0.09703
# Poissons Ratio (y) = 0.20412 0.16771
# Poissons Ratio (z) = 0.38788 0.45833
#
# Static dielectric constant tensor:
#      x y z
#    x 1.838890 0.000000 -0.044560 
#    y 0.000000 1.806880 0.000000 
#    z -0.044560 0.000000 1.781530 
# 
# From -- ./inp_files/56721.got.cif
#   From: 2010.05.17/outbox.cif.g08.bks.cpg/sg10_29_cif.got.tgz:56721.got - 2010.06.03 11:33:40.
