data_PCOD9149454
_publ_section_title
;
Structure prediction by ZEFSAII (Michael W. Deem and Ramdas Pophale) SiO2 
 PCOD9149454
Probable space group: P 2/M
;
_chemical_formula_sum "Si O2"
_cell_formula_units_Z 32
_cell_length_a 17.571574
_cell_length_b 14.025061
_cell_length_c 13.668090
_cell_angle_alpha 90.000000
_cell_angle_beta 29.292155
_cell_angle_gamma 90.000000
_cell_volume 1648.032098
_symmetry_space_group_name_H-M "P 2/M"
_symmetry_group_IT_number 10
_symmetry_cell_setting 'monoclinic'
loop_
_space_group_symop_operation_xyz
x,y,z
-x,y,-z
-x,-y,-z
x,-y,z
loop_
_atom_site_type_symbol
_atom_site_label
_atom_site_fract_x
_atom_site_fract_y
_atom_site_fract_z
Si Si1 0.847182 0.109342 0.920752
Si Si2 0.106703 0.729533 0.282401
Si Si3 0.654642 0.392676 0.878771
Si Si4 0.673930 0.706970 0.495573
Si Si5 0.859644 0.392774 0.456223
Si Si6 0.619923 0.245806 0.274002
Si Si7 0.114941 0.109703 0.778671
Si Si8 0.829804 0.390025 0.148955
O O1 0.710761 0.151431 0.141782
O O2 0.818015 0.000000 0.930852
O O3 0.861517 0.172277 0.807846
O O4 0.006063 0.116638 0.805175
O O5 0.264213 0.676563 0.136512
O O6 0.000000 0.740773 0.500000
O O7 0.016632 0.662925 0.305239
O O8 0.622525 0.500000 0.953686
O O9 0.776902 0.402071 0.653500
O O10 0.500000 0.355742 0.000000
O O11 0.748591 0.669108 0.511363
O O12 0.490420 0.721794 0.691372
O O13 0.758473 0.806306 0.369632
O O14 0.718345 0.626573 0.366470
O O15 0.884608 0.500000 0.388586
O O16 0.500000 0.235101 0.500000
O O17 0.753510 0.321668 0.153739
O O18 0.175536 0.000000 0.717431
O O19 0.000000 0.124064 0.000000
O O20 0.835575 0.500000 0.112126
O O21 0.000000 0.362245 0.000000
#
# Coordination Sequence:
#
# PCOD9149454 Si02
#       8
#     4   4   4   4   4   4   4   4
#     4  11  23  40  62  88 117 154 206 252 296 355
#     4  10  21  39  62  86 119 156 191 245 296 353
#     4   9  19  36  59  87 117 151 191 237 291 352
#     4  11  20  34  56  82 119 150 190 240 294 354
#     4  10  20  34  56  87 117 151 189 233 288 351
#     4  10  23  38  57  84 120 161 193 245 296 354
#     4  10  20  36  60  84 112 152 200 251 294 343
#     4  10  21  37  56  80 115 159 200 239 285 352
#
# _framework density 19.417097999999999
#
# number of rings (size 3 to 8) (size 9 to 14) (size 15 to 20)
#    0.000    1.875    1.250    3.375    1.750    5.250 
#    0.000    0.625    0.000    0.375    0.000    0.000 
#    0.000    0.000    0.000    0.000    0.000    0.000 
#
# Total GULP energy -178613.591822 kJ/mol
# GULP energy per Si atom -5581.674744 kJ/mol
# Density = 1.937290 g / cm^3
# Si number density = 19.417098 Si / 1000 Ang^3
#
#
#
# Elastic Constant Matrix: (Units=GPa)
#
#
# Indices 1 2 3 4 5 6 
#
# 1 121.0839 75.6101 28.0703 0.0000 -27.6410 0.0000
# 2 75.6101 150.4658 43.0158 0.0000 -21.4855 0.0000
# 3 28.0703 43.0158 59.3824 0.0000 -15.2512 0.0000
# 4 0.0000 0.0000 0.0000 17.5869 0.0000 8.4991
# 5 -27.6410 -21.4855 -15.2512 0.0000 39.1138 0.0000
# 6 0.0000 0.0000 0.0000 8.4991 0.0000 21.1312
#
#
#
# Elastic Compliance Matrix: (Units=1/GPa)
#
#
# Indices 1 2 3 4 5 6 
#
# 1 0.013314 -0.005639 -0.000653 0.000000 0.006056 0.000000
# 2 -0.005639 0.010993 -0.005301 0.000000 -0.000013 0.000000
# 3 -0.000653 -0.005301 0.022362 0.000000 0.005346 0.000000
# 4 0.000000 0.000000 0.000000 0.070579 0.000000 -0.028387
# 5 0.006056 -0.000013 0.005346 0.000000 0.031923 0.000000
# 6 0.000000 0.000000 0.000000 -0.028387 0.000000 0.058741
#
#
# Mechanical properties :
#
#
# Convention : Reuss Voigt Hill
#
# Bulk Modulus (GPa) = 42.58546 69.36940 55.97743
# Shear Modulus (GPa) = 20.92693 27.84878 24.38786
#
# Velocity S-wave (km/s) = 3.28648 3.79124 3.54785
# Velocity P-wave (km/s) = 6.03165 7.41405 6.75829
#
# Compressibility (1/GPa) = 0.02348219
#
# Stress axis : x y z
#
# Youngs Moduli (GPa) = 75.11005 90.96581 44.71884
#
# Poissons Ratio (x) = 0.51292 0.02922
# Poissons Ratio (y) = 0.42352 0.23707
# Poissons Ratio (z) = 0.04908 0.48223
#
# Static dielectric constant tensor:
#      x y z
#    x 1.710610 0.000000 -0.013970 
#    y 0.000000 1.669350 0.000000 
#    z -0.013970 0.000000 1.730090 
# 
# From -- ./inp_files/69150.got.cif
#   From: 2010.05.17/outbox.cif.g08.bks.cpg/sg10_35_cif.got.tgz:69150.got - 2010.06.03 11:33:40.
