data_PCOD9149900
_publ_section_title
;
Structure prediction by ZEFSAII (Michael W. Deem and Ramdas Pophale) SiO2 
 PCOD9149900
Probable space group: P 2/M
;
_chemical_formula_sum "Si O2"
_cell_formula_units_Z 28
_cell_length_a 9.175421
_cell_length_b 7.802697
_cell_length_c 27.398722
_cell_angle_alpha 90.000000
_cell_angle_beta 132.404004
_cell_angle_gamma 90.000000
_cell_volume 1448.430193
_symmetry_space_group_name_H-M "P 2/M"
_symmetry_group_IT_number 10
_symmetry_cell_setting 'monoclinic'
loop_
_space_group_symop_operation_xyz
x,y,z
-x,y,-z
-x,-y,-z
x,-y,z
loop_
_atom_site_type_symbol
_atom_site_label
_atom_site_fract_x
_atom_site_fract_y
_atom_site_fract_z
Si Si1 0.829052 0.198349 0.700050
Si Si2 0.757494 0.308348 0.167416
Si Si3 0.715793 0.790232 0.566385
Si Si4 0.568076 0.000000 0.070873
Si Si5 0.050223 0.792673 0.565947
Si Si6 0.421882 0.298228 0.172220
Si Si7 0.491984 0.702453 0.696543
Si Si8 0.782346 0.000000 0.929317
O O1 0.767864 0.265296 0.632929
O O2 0.642480 0.208739 0.693603
O O3 0.016447 0.291560 0.765444
O O4 0.889253 0.000000 0.707783
O O5 0.718144 0.500000 0.140271
O O6 0.695678 0.165948 0.114516
O O7 0.619291 0.280503 0.183863
O O8 0.500000 0.733919 0.500000
O O9 0.884285 0.734903 0.566718
O O10 0.712454 0.000000 0.566004
O O11 0.376268 0.000000 0.062521
O O12 0.500000 0.000000 0.000000
O O13 0.267172 0.738894 0.631422
O O14 0.000000 0.732841 0.500000
O O15 0.045898 0.000000 0.564447
O O16 0.364650 0.500000 0.157648
O O17 0.467726 0.248824 0.238253
O O18 0.264413 0.168788 0.113377
O O19 0.527885 0.500000 0.700654
O O20 0.000000 0.000000 0.000000
#
# Coordination Sequence:
#
# PCOD9149900 Si02
#       8
#     4   4   4   2   4   4   4   2
#     4  11  21  34  56  85 115 151 195 243 293 348
#     4  10  20  39  62  86 118 155 195 241 291 342
#     4   9  18  33  54  81 112 146 191 243 294 351
#     4  10  22  40  60  90 123 152 197 234 280 350
#     4  10  20  35  57  82 109 147 193 242 296 350
#     4   9  21  39  60  86 118 154 195 241 287 343
#     4  11  23  37  54  82 115 151 192 239 295 346
#     4  10  22  38  62  90 117 156 193 232 286 344
#
# _framework density 19.331275000000002
#
# number of rings (size 3 to 8) (size 9 to 14) (size 15 to 20)
#    0.000    2.000    0.714    2.571    2.000    4.286 
#    0.000    0.714    0.000    3.000    0.000    0.000 
#    0.000    0.000    0.000    0.000    0.000    0.000 
#
# Total GULP energy -156441.753489 kJ/mol
# GULP energy per Si atom -5587.205482 kJ/mol
# Density = 1.928728 g / cm^3
# Si number density = 19.331275 Si / 1000 Ang^3
#
#
#
# Elastic Constant Matrix: (Units=GPa)
#
#
# Indices 1 2 3 4 5 6 
#
# 1 93.2481 36.6211 78.8820 0.0000 -7.2357 0.0000
# 2 36.6211 67.6046 53.4294 0.0000 -8.7475 0.0000
# 3 78.8820 53.4294 182.1888 0.0000 -7.4931 0.0000
# 4 0.0000 0.0000 0.0000 -5.3853 0.0000 -10.6121
# 5 -7.2357 -8.7475 -7.4931 0.0000 43.8624 0.0000
# 6 0.0000 0.0000 0.0000 -10.6121 0.0000 4.5522
#
#
#
# Elastic Compliance Matrix: (Units=1/GPa)
#
#
# Indices 1 2 3 4 5 6 
#
# 1 0.018028 -0.004560 -0.006429 0.000000 0.000966 0.000000
# 2 -0.004560 0.020780 -0.004008 0.000000 0.002707 0.000000
# 3 -0.006429 -0.004008 0.009437 0.000000 -0.000248 0.000000
# 4 0.000000 0.000000 0.000000 -0.033196 0.000000 -0.077387
# 5 0.000966 0.002707 -0.000248 0.000000 0.023456 0.000000
# 6 0.000000 0.000000 0.000000 -0.077387 0.000000 0.039271
#
#
# Mechanical properties :
#
#
# Convention : Reuss Voigt Hill
#
# Bulk Modulus (GPa) = 54.78901 75.65630 65.22265
# Shear Modulus (GPa) = 43.91581 20.21314 32.06448
#
# Velocity S-wave (km/s) = 4.77146 3.23711 4.07711
# Velocity P-wave (km/s) = 7.66547 7.29339 7.48174
#
# Compressibility (1/GPa) = 0.01825184
#
# Stress axis : x y z
#
# Youngs Moduli (GPa) = 55.46908 48.12254 105.96030
#
# Poissons Ratio (x) = 0.21944 0.68117
# Poissons Ratio (y) = 0.25294 0.42473
# Poissons Ratio (z) = 0.35658 0.19289
#
# Static dielectric constant tensor:
#      x y z
#    x 1.652560 0.000000 -0.008550 
#    y 0.000000 1.710730 0.000000 
#    z -0.008550 0.000000 1.620230 
# 
# From -- ./inp_files/92127.got.cif
#   From: 2010.05.17/outbox.cif.g08.bks.cpg/sg10_47_cif.got.tgz:92127.got - 2010.06.03 11:33:40.
