data_PCOD9149879
_publ_section_title
;
Structure prediction by ZEFSAII (Michael W. Deem and Ramdas Pophale) SiO2 
 PCOD9149879
Probable space group: P 2/M
;
_chemical_formula_sum "Si O2"
_cell_formula_units_Z 24
_cell_length_a 17.335733
_cell_length_b 13.626409
_cell_length_c 13.319539
_cell_angle_alpha 90.000000
_cell_angle_beta 25.626988
_cell_angle_gamma 90.000000
_cell_volume 1360.847530
_symmetry_space_group_name_H-M "P 2/M"
_symmetry_group_IT_number 10
_symmetry_cell_setting 'monoclinic'
loop_
_space_group_symop_operation_xyz
x,y,z
-x,y,-z
-x,-y,-z
x,-y,z
loop_
_atom_site_type_symbol
_atom_site_label
_atom_site_fract_x
_atom_site_fract_y
_atom_site_fract_z
Si Si1 0.484981 0.888203 0.136669
Si Si2 0.288239 0.249430 0.518779
Si Si3 0.904743 0.750567 0.902273
Si Si4 0.706221 0.113900 0.293779
Si Si5 0.106630 0.111796 0.271721
Si Si6 0.436885 0.616235 0.689346
O O1 0.367000 0.808059 0.330917
O O2 0.416428 0.000000 0.232253
O O3 0.500000 0.872044 0.000000
O O4 0.682908 0.884092 0.951275
O O5 0.276071 0.169349 0.621949
O O6 0.421623 0.331986 0.403323
O O7 0.091902 0.287969 0.724292
O O8 0.935083 0.808058 0.762833
O O9 0.825907 0.830651 0.072109
O O10 0.753430 0.668014 0.071512
O O11 0.500000 0.119958 0.500000
O O12 0.754021 0.000000 0.245974
O O13 0.000000 0.127953 0.500000
O O14 0.065114 0.000000 0.286199
O O15 0.500000 0.634031 0.500000
O O16 0.428297 0.500000 0.715121
#
# Coordination Sequence:
#
# PCOD9149879 Si02
#       6
#     4   4   4   4   4   4
#     4  10  20  35  56  87 125 162 198 235 280 344
#     4  12  22  37  60  87 117 155 197 237 297 355
#     4  12  22  37  60  87 117 155 197 237 297 355
#     4  11  21  35  55  83 123 160 191 232 284 350
#     4  10  20  35  56  87 125 162 198 235 280 344
#     4  11  24  44  64  86 116 148 198 259 308 353
#
# _framework density 17.636068000000002
#
# number of rings (size 3 to 8) (size 9 to 14) (size 15 to 20)
#    0.000    1.000    5.000    2.500    0.000    8.000 
#    0.000    1.667    0.000    1.000    0.000    0.000 
#    0.000    0.000    0.000    0.000    0.000    0.000 
#
# Total GULP energy -134174.870901 kJ/mol
# GULP energy per Si atom -5590.619621 kJ/mol
# Density = 1.759593 g / cm^3
# Si number density = 17.636068 Si / 1000 Ang^3
#
#
#
# Elastic Constant Matrix: (Units=GPa)
#
#
# Indices 1 2 3 4 5 6 
#
# 1 96.6435 56.6049 42.1990 0.0000 -16.0529 0.0000
# 2 56.6049 126.8735 57.3765 0.0000 -4.9205 0.0000
# 3 42.1990 57.3765 101.9599 0.0000 -17.7689 0.0000
# 4 0.0000 0.0000 0.0000 6.9414 0.0000 7.4300
# 5 -16.0529 -4.9205 -17.7689 0.0000 39.3849 0.0000
# 6 0.0000 0.0000 0.0000 7.4300 0.0000 8.1106
#
#
#
# Elastic Compliance Matrix: (Units=1/GPa)
#
#
# Indices 1 2 3 4 5 6 
#
# 1 0.015450 -0.005608 -0.002456 0.000000 0.004488 0.000000
# 2 -0.005608 0.012688 -0.005363 0.000000 -0.003120 0.000000
# 3 -0.002456 -0.005363 0.014707 0.000000 0.004964 0.000000
# 4 0.000000 0.000000 0.000000 7.412928 0.000000 -6.790858
# 5 0.004488 -0.003120 0.004964 0.000000 0.029070 0.000000
# 6 0.000000 0.000000 0.000000 -6.790858 0.000000 6.344285
#
#
# Mechanical properties :
#
#
# Convention : Reuss Voigt Hill
#
# Bulk Modulus (GPa) = 62.53466 70.87086 66.70276
# Shear Modulus (GPa) = 0.36072 22.17382 11.26727
#
# Velocity S-wave (km/s) = 0.45274 3.54969 2.53034
# Velocity P-wave (km/s) = 5.98403 7.55466 6.81474
#
# Compressibility (1/GPa) = 0.01599113
#
# Stress axis : x y z
#
# Youngs Moduli (GPa) = 64.72413 78.81342 67.99333
#
# Poissons Ratio (x) = 0.44200 0.16701
# Poissons Ratio (y) = 0.36299 0.36463
# Poissons Ratio (z) = 0.15898 0.42266
#
# Static dielectric constant tensor:
#      x y z
#    x 1.603730 0.000000 -0.019650 
#    y 0.000000 1.566360 0.000000 
#    z -0.019650 0.000000 1.606820 
# 
# From -- ./inp_files/51489.got.cif
#   From: 2010.05.17/outbox.cif.g08.bks.cpg/sg10_26_cif.got.tgz:51489.got - 2010.06.03 11:33:40.
