data_PCOD9149983
_publ_section_title
;
Structure prediction by ZEFSAII (Michael W. Deem and Ramdas Pophale) SiO2 
 PCOD9149983
Probable space group: P 2/M
;
_chemical_formula_sum "Si O2"
_cell_formula_units_Z 28
_cell_length_a 12.783193
_cell_length_b 7.621848
_cell_length_c 14.997467
_cell_angle_alpha 90.000000
_cell_angle_beta 121.975131
_cell_angle_gamma 90.000000
_cell_volume 1239.526344
_symmetry_space_group_name_H-M "P 2/M"
_symmetry_group_IT_number 10
_symmetry_cell_setting 'monoclinic'
loop_
_space_group_symop_operation_xyz
x,y,z
-x,y,-z
-x,-y,-z
x,-y,z
loop_
_atom_site_type_symbol
_atom_site_label
_atom_site_fract_x
_atom_site_fract_y
_atom_site_fract_z
Si Si1 0.507756 0.710948 0.104502
Si Si2 0.356033 0.789860 0.199912
Si Si3 0.236464 0.296955 0.707444
Si Si4 0.031801 0.200490 0.745639
Si Si5 0.082456 0.214887 0.121691
Si Si6 0.440081 0.787361 0.567871
Si Si7 0.836943 0.298001 0.513284
O O1 0.520628 0.500000 0.105343
O O2 0.391251 0.749975 0.114086
O O3 0.630776 0.781443 0.208941
O O4 0.500000 0.777043 0.000000
O O5 0.222697 0.724461 0.170569
O O6 0.466788 0.725504 0.312990
O O7 0.353531 0.000000 0.208710
O O8 0.257664 0.500000 0.692431
O O9 0.149198 0.289631 0.753589
O O10 0.168290 0.221938 0.589511
O O11 0.978186 0.275354 0.813246
O O12 0.923888 0.204957 0.623315
O O13 0.068562 0.000000 0.779440
O O14 0.085614 0.000000 0.126613
O O15 0.000000 0.264549 0.000000
O O16 0.500000 0.744363 0.500000
O O17 0.304287 0.711223 0.518168
O O18 0.428524 0.000000 0.567629
O O19 0.881293 0.500000 0.530724
#
# Coordination Sequence:
#
# PCOD9149983 Si02
#       7
#     4   4   4   4   4   4   4
#     4  10  22  40  61  85 118 158 193 237 294 348
#     4  10  20  36  61  88 116 149 191 243 289 340
#     4  10  22  40  59  84 120 157 195 239 292 348
#     4  11  23  38  61  89 118 153 197 244 291 347
#     4   9  20  39  60  85 118 154 190 236 294 345
#     4  10  20  35  57  86 119 154 193 240 292 343
#     4  11  22  38  59  84 118 158 194 236 292 352
#
# _framework density 22.589272999999999
#
# number of rings (size 3 to 8) (size 9 to 14) (size 15 to 20)
#    0.000    1.857    1.429    2.143    2.000    6.286 
#    0.000    2.857    0.000    2.143    0.000    0.000 
#    0.000    0.000    0.000    0.000    0.000    0.000 
#
# Total GULP energy -156554.709151 kJ/mol
# GULP energy per Si atom -5591.239613 kJ/mol
# Density = 2.253786 g / cm^3
# Si number density = 22.589273 Si / 1000 Ang^3
#
#
#
# Elastic Constant Matrix: (Units=GPa)
#
#
# Indices 1 2 3 4 5 6 
#
# 1 134.2146 -9.3393 28.5525 0.0000 -24.2175 0.0000
# 2 -9.3393 47.1874 0.1562 0.0000 -1.6324 0.0000
# 3 28.5525 0.1562 73.0296 0.0000 -23.4659 0.0000
# 4 0.0000 0.0000 0.0000 4.4620 0.0000 -10.3388
# 5 -24.2175 -1.6324 -23.4659 0.0000 42.5149 0.0000
# 6 0.0000 0.0000 0.0000 -10.3388 0.0000 6.3770
#
#
#
# Elastic Compliance Matrix: (Units=1/GPa)
#
#
# Indices 1 2 3 4 5 6 
#
# 1 0.008739 0.001870 -0.002186 0.000000 0.003843 0.000000
# 2 0.001870 0.021625 -0.000205 0.000000 0.001783 0.000000
# 3 -0.002186 -0.000205 0.017195 0.000000 0.008238 0.000000
# 4 0.000000 0.000000 0.000000 -0.081302 0.000000 -0.131812
# 5 0.003843 0.001783 0.008238 0.000000 0.030326 0.000000
# 6 0.000000 0.000000 0.000000 -0.131812 0.000000 -0.056887
#
#
# Mechanical properties :
#
#
# Convention : Reuss Voigt Hill
#
# Bulk Modulus (GPa) = 21.49708 32.57448 27.03578
# Shear Modulus (GPa) = -114.26598 26.34160 -43.96219
#
# Velocity S-wave (km/s) = -7.11997 3.41854 -4.41631
# Velocity P-wave (km/s) = 7.61937 5.48029 3.74308
#
# Compressibility (1/GPa) = 0.04651795
#
# Stress axis : x y z
#
# Youngs Moduli (GPa) = 114.42430 46.24378 58.15616
#
# Poissons Ratio (x) = -0.08647 0.12712
# Poissons Ratio (y) = -0.21396 0.01190
# Poissons Ratio (z) = 0.25012 0.00946
#
# Static dielectric constant tensor:
#      x y z
#    x 1.797860 0.000000 -0.007510 
#    y 0.000000 1.848580 0.000000 
#    z -0.007510 0.000000 1.826980 
# 
# From -- ./inp_files/49583.got.cif
#   From: 2010.05.17/outbox.cif.g08.bks.cpg/sg10_25_cif.got.tgz:49583.got - 2010.06.03 11:33:40.
