data_PCOD9149913
_publ_section_title
;
Structure prediction by ZEFSAII (Michael W. Deem and Ramdas Pophale) SiO2 
 PCOD9149913
Probable space group: P 2/M
;
_chemical_formula_sum "Si O2"
_cell_formula_units_Z 16
_cell_length_a 20.845068
_cell_length_b 7.842000
_cell_length_c 9.182644
_cell_angle_alpha 90.000000
_cell_angle_beta 151.064158
_cell_angle_gamma 90.000000
_cell_volume 726.257526
_symmetry_space_group_name_H-M "P 2/M"
_symmetry_group_IT_number 10
_symmetry_cell_setting 'monoclinic'
loop_
_space_group_symop_operation_xyz
x,y,z
-x,y,-z
-x,-y,-z
x,-y,z
loop_
_atom_site_type_symbol
_atom_site_label
_atom_site_fract_x
_atom_site_fract_y
_atom_site_fract_z
Si Si1 0.127839 0.186399 0.150945
Si Si2 0.004615 0.500000 0.830795
Si Si3 0.846095 0.500000 0.247857
Si Si4 0.626798 0.206836 0.166619
Si Si5 0.356126 0.203622 0.140184
O O1 0.243900 0.253358 0.484904
O O2 0.163345 0.000000 0.160533
O O3 0.085256 0.329461 0.953873
O O4 0.000000 0.163526 0.000000
O O5 0.871143 0.500000 0.473950
O O6 0.000000 0.500000 0.000000
O O7 0.000000 0.500000 0.500000
O O8 0.758457 0.333013 0.035093
O O9 0.623920 0.000000 0.166585
O O10 0.500000 0.274237 0.000000
O O11 0.627753 0.246120 0.999019
O O12 0.500000 0.230478 0.500000
O O13 0.323530 0.000000 0.090392
#
# Coordination Sequence:
#
# PCOD9149913 Si02
#       5
#     4   2   2   4   4
#     4   9  17  31  53  81 114 148 184 234 292 348
#     4  10  20  35  57  83 110 147 192 234 288 356
#     4  12  27  43  61  91 129 163 206 264 312 362
#     4   9  18  34  59  91 121 151 196 253 305 357
#     4  10  22  43  67  89 122 168 210 252 309 373
#
# _framework density 22.030752
#
# number of rings (size 3 to 8) (size 9 to 14) (size 15 to 20)
#    0.000    2.250    0.000    3.375    0.000    5.500 
#    0.000    5.000    0.000    0.000    0.000    0.000 
#    0.000    0.000    0.000    0.000    0.000    0.000 
#
# Total GULP energy -89205.435314 kJ/mol
# GULP energy per Si atom -5575.339707 kJ/mol
# Density = 2.198061 g / cm^3
# Si number density = 22.030752 Si / 1000 Ang^3
#
#
#
# Elastic Constant Matrix: (Units=GPa)
#
#
# Indices 1 2 3 4 5 6 
#
# 1 76.1375 33.8952 34.3617 0.0000 28.0812 0.0000
# 2 33.8952 148.2077 74.2100 0.0000 4.9762 0.0000
# 3 34.3617 74.2100 182.5805 0.0000 23.5033 0.0000
# 4 0.0000 0.0000 0.0000 41.1322 0.0000 0.3007
# 5 28.0812 4.9762 23.5033 0.0000 32.9624 0.0000
# 6 0.0000 0.0000 0.0000 0.3007 0.0000 2.4446
#
#
#
# Elastic Compliance Matrix: (Units=1/GPa)
#
#
# Indices 1 2 3 4 5 6 
#
# 1 0.021622 -0.004338 -0.000021 0.000000 -0.017750 0.000000
# 2 -0.004338 0.009392 -0.003627 0.000000 0.004864 0.000000
# 3 -0.000021 -0.003627 0.007578 0.000000 -0.004838 0.000000
# 4 0.000000 0.000000 0.000000 0.024334 0.000000 -0.002993
# 5 -0.017750 0.004864 -0.004838 0.000000 0.048174 0.000000
# 6 0.000000 0.000000 0.000000 -0.002993 0.000000 0.409437
#
#
# Mechanical properties :
#
#
# Convention : Reuss Voigt Hill
#
# Bulk Modulus (GPa) = 44.21094 76.87328 60.54211
# Shear Modulus (GPa) = 9.19034 32.93842 21.06438
#
# Velocity S-wave (km/s) = 2.04466 3.87086 3.09550
# Velocity P-wave (km/s) = 5.06810 7.41266 6.34953
#
# Compressibility (1/GPa) = 0.02261884
#
# Stress axis : x y z
#
# Youngs Moduli (GPa) = 46.25019 106.46927 131.96002
#
# Poissons Ratio (x) = 0.46191 0.00276
# Poissons Ratio (y) = 0.20065 0.47865
# Poissons Ratio (z) = 0.00097 0.38619
#
# Static dielectric constant tensor:
#      x y z
#    x 1.854330 0.000000 0.008220 
#    y 0.000000 1.973700 0.000000 
#    z 0.008220 0.000000 1.766540 
# 
# From -- ./inp_files/22011.got.cif
#   From: 2010.05.17/outbox.cif.g08.bks.cpg/sg10_12_cif.got.tgz:22011.got - 2010.06.03 11:33:40.
