data_PCOD9149245
_publ_section_title
;
Structure prediction by ZEFSAII (Michael W. Deem and Ramdas Pophale) SiO2 
 PCOD9149245
Probable space group: P 2/M
;
_chemical_formula_sum "Si O2"
_cell_formula_units_Z 32
_cell_length_a 10.545750
_cell_length_b 13.799677
_cell_length_c 13.377485
_cell_angle_alpha 90.000000
_cell_angle_beta 118.083265
_cell_angle_gamma 90.000000
_cell_volume 1717.590471
_symmetry_space_group_name_H-M "P 2/M"
_symmetry_group_IT_number 10
_symmetry_cell_setting 'monoclinic'
loop_
_space_group_symop_operation_xyz
x,y,z
-x,y,-z
-x,-y,-z
x,-y,z
loop_
_atom_site_type_symbol
_atom_site_label
_atom_site_fract_x
_atom_site_fract_y
_atom_site_fract_z
Si Si1 0.770340 0.307732 0.601270
Si Si2 0.291181 0.888026 0.325347
Si Si3 0.947545 0.612497 0.365438
Si Si4 0.832173 0.786135 0.917900
Si Si5 0.398067 0.889180 0.048038
Si Si6 0.333001 0.683576 0.654287
Si Si7 0.657256 0.385752 0.767656
Si Si8 0.582925 0.105874 0.320574
O O1 0.742874 0.193181 0.605550
O O2 0.706712 0.347016 0.473681
O O3 0.694154 0.359946 0.666060
O O4 0.940915 0.328353 0.660731
O O5 0.207757 0.852406 0.194012
O O6 0.460137 0.882465 0.359510
O O7 0.258288 0.000000 0.336523
O O8 0.961434 0.500000 0.344264
O O9 0.781309 0.642304 0.309723
O O10 0.000000 0.625149 0.500000
O O11 0.743252 0.830161 0.977235
O O12 0.768451 0.680293 0.870376
O O13 0.000000 0.785392 0.000000
O O14 0.492341 0.893610 0.183904
O O15 0.360130 0.000000 0.005959
O O16 0.500000 0.847611 0.000000
O O17 0.496749 0.652078 0.732900
O O18 0.320565 0.799862 0.648415
O O19 0.668133 0.500000 0.788536
O O20 0.651530 0.000000 0.357608
#
# Coordination Sequence:
#
# PCOD9149245 Si02
#       8
#     4   4   4   4   4   4   4   4
#     4  10  20  34  54  82 112 142 182 221 267 321
#     4   9  18  34  54  81 113 142 178 220 266 323
#     4   9  19  34  51  72 103 142 179 222 274 314
#     4  10  20  37  56  77 108 144 173 222 281 329
#     4   9  17  33  57  82 105 134 176 221 263 316
#     4  11  19  34  56  80 108 147 185 219 265 324
#     4  11  22  36  56  81 106 136 186 238 270 317
#     4   9  17  32  52  79 113 142 172 216 269 319
#
# _framework density 18.630751
#
# number of rings (size 3 to 8) (size 9 to 14) (size 15 to 20)
#    0.000    2.250    3.750    2.250    0.000    3.750 
#    4.500    1.875    0.000    2.625    0.000    0.000 
#    0.000    0.000    0.000    0.000    0.000    0.000 
#
# Total GULP energy -178468.495004 kJ/mol
# GULP energy per Si atom -5577.140469 kJ/mol
# Density = 1.858835 g / cm^3
# Si number density = 18.630751 Si / 1000 Ang^3
#
#
#
# Elastic Constant Matrix: (Units=GPa)
#
#
# Indices 1 2 3 4 5 6 
#
# 1 89.6422 24.8648 14.3837 0.0000 2.4491 0.0000
# 2 24.8648 96.1645 -7.7709 0.0000 -5.4202 0.0000
# 3 14.3837 -7.7709 24.5360 0.0000 8.3389 0.0000
# 4 0.0000 0.0000 0.0000 9.9004 0.0000 -0.0789
# 5 2.4491 -5.4202 8.3389 0.0000 14.0638 0.0000
# 6 0.0000 0.0000 0.0000 -0.0789 0.0000 24.0374
#
#
#
# Elastic Compliance Matrix: (Units=1/GPa)
#
#
# Indices 1 2 3 4 5 6 
#
# 1 0.013937 -0.004318 -0.010203 0.000000 0.001959 0.000000
# 2 -0.004318 0.012089 0.005662 0.000000 0.002054 0.000000
# 3 -0.010203 0.005662 0.059094 0.000000 -0.031080 0.000000
# 4 0.000000 0.000000 0.000000 0.101008 0.000000 0.000332
# 5 0.001959 0.002054 -0.031080 0.000000 0.089984 0.000000
# 6 0.000000 0.000000 0.000000 0.000332 0.000000 0.041603
#
#
# Mechanical properties :
#
#
# Convention : Reuss Voigt Hill
#
# Bulk Modulus (GPa) = 14.83662 30.36642 22.60152
# Shear Modulus (GPa) = 13.97038 21.52465 17.74751
#
# Velocity S-wave (km/s) = 2.74132 3.40270 3.08976
# Velocity P-wave (km/s) = 4.24271 5.63669 4.98863
#
# Compressibility (1/GPa) = 0.06740081
#
# Stress axis : x y z
#
# Youngs Moduli (GPa) = 71.75262 82.72308 16.92215
#
# Poissons Ratio (x) = 0.35717 0.17266
# Poissons Ratio (y) = 0.30980 -0.09581
# Poissons Ratio (z) = 0.73212 -0.46835
#
# Static dielectric constant tensor:
#      x y z
#    x 1.638680 0.000000 -0.009860 
#    y 0.000000 1.658780 0.000000 
#    z -0.009860 0.000000 1.660760 
# 
# From -- ./inp_files/61858.got.cif
#   From: 2010.05.17/outbox.cif.g08.bks.cpg/sg10_31_cif.got.tgz:61858.got - 2010.06.03 11:33:40.
