data_PCOD9149960
_publ_section_title
;
Structure prediction by ZEFSAII (Michael W. Deem and Ramdas Pophale) SiO2 
 PCOD9149960
Probable space group: P 2/M
;
_chemical_formula_sum "Si O2"
_cell_formula_units_Z 24
_cell_length_a 14.429153
_cell_length_b 8.787286
_cell_length_c 17.669841
_cell_angle_alpha 90.000000
_cell_angle_beta 144.466896
_cell_angle_gamma 90.000000
_cell_volume 1302.068540
_symmetry_space_group_name_H-M "P 2/M"
_symmetry_group_IT_number 10
_symmetry_cell_setting 'monoclinic'
loop_
_space_group_symop_operation_xyz
x,y,z
-x,y,-z
-x,-y,-z
x,-y,z
loop_
_atom_site_type_symbol
_atom_site_label
_atom_site_fract_x
_atom_site_fract_y
_atom_site_fract_z
Si Si1 0.943581 0.822881 0.875986
Si Si2 0.537048 0.317012 0.286786
Si Si3 0.422517 0.183821 0.367887
Si Si4 0.235098 0.317245 0.983167
Si Si5 0.814772 0.818364 0.371160
Si Si6 0.309317 0.321241 0.865664
O O1 0.762301 0.767154 0.752466
O O2 0.071028 0.732724 0.911747
O O3 0.945443 0.000000 0.853358
O O4 0.000000 0.815590 0.000000
O O5 0.538739 0.500000 0.288332
O O6 0.507826 0.256008 0.351883
O O7 0.698863 0.257094 0.356153
O O8 0.386662 0.265322 0.134290
O O9 0.500000 0.221938 0.500000
O O10 0.426282 0.000000 0.361396
O O11 0.245788 0.500000 0.987893
O O12 0.243804 0.263597 0.902399
O O13 0.750477 0.769663 0.246283
O O14 0.000000 0.771386 0.500000
O O15 0.806364 0.000000 0.374451
O O16 0.267218 0.500000 0.827365
O O17 0.500000 0.313784 0.000000
#
# Coordination Sequence:
#
# PCOD9149960 Si02
#       6
#     4   4   4   4   4   4
#     4  10  20  35  57  85 114 150 196 239 284 346
#     4  11  22  39  63  88 117 156 199 245 301 359
#     4  10  22  40  60  85 121 158 193 243 300 351
#     4  10  21  36  59  89 119 153 193 247 299 345
#     4  11  25  42  61  89 124 160 201 247 298 359
#     4  10  20  39  62  88 121 154 198 249 299 354
#
# _framework density 18.432207999999999
#
# number of rings (size 3 to 8) (size 9 to 14) (size 15 to 20)
#    0.000    1.667    3.333    1.000    0.000    5.667 
#    0.000    5.000    0.000    0.000    0.000    0.000 
#    0.000    0.000    0.000    0.000    0.000    0.000 
#
# Total GULP energy -134034.186902 kJ/mol
# GULP energy per Si atom -5584.757788 kJ/mol
# Density = 1.839026 g / cm^3
# Si number density = 18.432208 Si / 1000 Ang^3
#
#
#
# Elastic Constant Matrix: (Units=GPa)
#
#
# Indices 1 2 3 4 5 6 
#
# 1 175.7617 40.7120 72.6127 0.0000 6.8800 0.0000
# 2 40.7120 26.7980 33.3878 0.0000 0.5806 0.0000
# 3 72.6127 33.3878 124.5033 0.0000 8.9837 0.0000
# 4 0.0000 0.0000 0.0000 29.9795 0.0000 -6.8752
# 5 6.8800 0.5806 8.9837 0.0000 27.4587 0.0000
# 6 0.0000 0.0000 0.0000 -6.8752 0.0000 46.4684
#
#
#
# Elastic Compliance Matrix: (Units=1/GPa)
#
#
# Indices 1 2 3 4 5 6 
#
# 1 0.009295 -0.011200 -0.002321 0.000000 -0.001333 0.000000
# 2 -0.011200 0.069930 -0.012614 0.000000 0.005455 0.000000
# 3 -0.002321 -0.012614 0.013015 0.000000 -0.003410 0.000000
# 4 0.000000 0.000000 0.000000 0.034528 0.000000 0.005109
# 5 -0.001333 0.005455 -0.003410 0.000000 0.037752 0.000000
# 6 0.000000 0.000000 0.000000 0.005109 0.000000 0.022276
#
#
# Mechanical properties :
#
#
# Convention : Reuss Voigt Hill
#
# Bulk Modulus (GPa) = 25.02027 68.94310 46.98169
# Shear Modulus (GPa) = 19.81067 32.80469 26.30768
#
# Velocity S-wave (km/s) = 3.28195 4.22328 3.78202
# Velocity P-wave (km/s) = 5.28822 7.82728 6.67950
#
# Compressibility (1/GPa) = 0.03996760
#
# Stress axis : x y z
#
# Youngs Moduli (GPa) = 107.58481 14.30010 76.83683
#
# Poissons Ratio (x) = 0.16016 0.17837
# Poissons Ratio (y) = 1.20495 0.96925
# Poissons Ratio (z) = 0.24974 0.18039
#
# Static dielectric constant tensor:
#      x y z
#    x 1.629150 0.000000 0.006760 
#    y 0.000000 1.631480 0.000000 
#    z 0.006760 0.000000 1.622090 
# 
# From -- ./inp_files/77852.got.cif
#   From: 2010.05.17/outbox.cif.g08.bks.cpg/sg10_39_cif.got.tgz:77852.got - 2010.06.03 11:33:40.
