data_PCOD9149677
_publ_section_title
;
Structure prediction by ZEFSAII (Michael W. Deem and Ramdas Pophale) SiO2 
 PCOD9149677
Probable space group: P 2/M
;
_chemical_formula_sum "Si O2"
_cell_formula_units_Z 28
_cell_length_a 26.004769
_cell_length_b 7.576783
_cell_length_c 9.738691
_cell_angle_alpha 90.000000
_cell_angle_beta 40.309824
_cell_angle_gamma 90.000000
_cell_volume 1241.336069
_symmetry_space_group_name_H-M "P 2/M"
_symmetry_group_IT_number 10
_symmetry_cell_setting 'monoclinic'
loop_
_space_group_symop_operation_xyz
x,y,z
-x,y,-z
-x,-y,-z
x,-y,z
loop_
_atom_site_type_symbol
_atom_site_label
_atom_site_fract_x
_atom_site_fract_y
_atom_site_fract_z
Si Si1 0.171340 0.287312 0.843907
Si Si2 0.505154 0.204255 0.334841
Si Si3 0.422032 0.702622 0.088534
Si Si4 0.914610 0.205598 0.717560
Si Si5 0.670204 0.286107 0.314210
Si Si6 0.757263 0.704063 0.877305
Si Si7 0.754036 0.717240 0.576338
O O1 0.166494 0.500000 0.856860
O O2 0.255076 0.236353 0.744550
O O3 0.180150 0.228913 0.668806
O O4 0.103021 0.221357 0.084339
O O5 0.500000 0.279283 0.500000
O O6 0.414500 0.217547 0.466747
O O7 0.528980 0.000000 0.295191
O O8 0.560967 0.294669 0.109485
O O9 0.418455 0.500000 0.146067
O O10 0.334244 0.775914 0.289717
O O11 0.500000 0.785515 0.000000
O O12 0.840772 0.290566 0.787895
O O13 0.000000 0.278497 0.500000
O O14 0.912608 0.000000 0.683722
O O15 0.666444 0.500000 0.321780
O O16 0.692439 0.220719 0.115318
O O17 0.734644 0.500000 0.905126
O O18 0.765678 0.779459 0.708324
O O19 0.753931 0.500000 0.575736
#
# Coordination Sequence:
#
# PCOD9149677 Si02
#       7
#     4   4   4   4   4   4   4
#     4   9  18  34  57  81 103 129 165 208 252 303
#     4  11  23  34  45  68 102 137 174 217 262 305
#     4  10  20  35  55  75  99 136 178 219 263 307
#     4  10  21  37  56  79 107 137 169 204 245 300
#     4   9  17  31  51  73  97 131 175 216 254 300
#     4   9  18  33  55  80 104 133 170 212 257 305
#     4   9  17  32  54  80 106 131 168 217 262 305
#
# _framework density 22.556342000000001
#
# number of rings (size 3 to 8) (size 9 to 14) (size 15 to 20)
#    0.000    2.429    0.000    3.429    0.000    8.286 
#    0.000    2.857    0.000    4.286    0.000    0.000 
#    0.000    0.000    0.000    0.000    0.000    0.000 
#
# Total GULP energy -156370.975339 kJ/mol
# GULP energy per Si atom -5584.677691 kJ/mol
# Density = 2.250500 g / cm^3
# Si number density = 22.556342 Si / 1000 Ang^3
#
#
#
# Elastic Constant Matrix: (Units=GPa)
#
#
# Indices 1 2 3 4 5 6 
#
# 1 33.0039 -2.8866 31.3925 0.0000 14.1082 0.0000
# 2 -2.8866 52.8025 -4.0690 0.0000 3.2314 0.0000
# 3 31.3925 -4.0690 161.3926 0.0000 6.8153 0.0000
# 4 0.0000 0.0000 0.0000 9.7457 0.0000 -14.3995
# 5 14.1082 3.2314 6.8153 0.0000 38.7435 0.0000
# 6 0.0000 0.0000 0.0000 -14.3995 0.0000 -5.8804
#
#
#
# Elastic Compliance Matrix: (Units=1/GPa)
#
#
# Indices 1 2 3 4 5 6 
#
# 1 0.044543 0.002743 -0.007959 0.000000 -0.015049 0.000000
# 2 0.002743 0.019253 0.000062 0.000000 -0.002616 0.000000
# 3 -0.007959 0.000062 0.007681 0.000000 0.001542 0.000000
# 4 0.000000 0.000000 0.000000 0.022219 0.000000 -0.054409
# 5 -0.015049 -0.002616 0.001542 0.000000 0.031238 0.000000
# 6 0.000000 0.000000 0.000000 -0.054409 0.000000 -0.036824
#
#
# Mechanical properties :
#
#
# Convention : Reuss Voigt Hill
#
# Bulk Modulus (GPa) = 16.34835 32.89697 24.62266
# Shear Modulus (GPa) = 42.08486 23.37257 32.72871
#
# Velocity S-wave (km/s) = 4.32414 3.22248 3.81330
# Velocity P-wave (km/s) = 5.67401 5.33496 5.50710
#
# Compressibility (1/GPa) = 0.06116826
#
# Stress axis : x y z
#
# Youngs Moduli (GPa) = 22.45020 51.93910 130.19614
#
# Poissons Ratio (x) = -0.14245 1.03629
# Poissons Ratio (y) = -0.06157 -0.00812
# Poissons Ratio (z) = 0.17869 -0.00324
#
# Static dielectric constant tensor:
#      x y z
#    x 1.859820 0.000000 0.042670 
#    y 0.000000 1.855530 0.000000 
#    z 0.042670 0.000000 1.844740 
# 
# From -- ./inp_files/36922.got.cif
#   From: 2010.05.17/outbox.cif.g08.bks.cpg/sg10_19_cif.got.tgz:36922.got - 2010.06.03 11:33:40.
