data_PCOD9149346
_publ_section_title
;
Structure prediction by ZEFSAII (Michael W. Deem and Ramdas Pophale) SiO2 
 PCOD9149346
Probable space group: P 2/M
;
_chemical_formula_sum "Si O2"
_cell_formula_units_Z 32
_cell_length_a 15.250030
_cell_length_b 7.571460
_cell_length_c 24.629404
_cell_angle_alpha 90.000000
_cell_angle_beta 28.576229
_cell_angle_gamma 90.000000
_cell_volume 1360.284141
_symmetry_space_group_name_H-M "P 2/M"
_symmetry_group_IT_number 10
_symmetry_cell_setting 'monoclinic'
loop_
_space_group_symop_operation_xyz
x,y,z
-x,y,-z
-x,-y,-z
x,-y,z
loop_
_atom_site_type_symbol
_atom_site_label
_atom_site_fract_x
_atom_site_fract_y
_atom_site_fract_z
Si Si1 0.695687 0.714250 0.010421
Si Si2 0.923705 0.700502 0.403406
Si Si3 0.021013 0.704637 0.232231
Si Si4 0.936174 0.700722 0.978119
Si Si5 0.671179 0.211791 0.250532
Si Si6 0.712459 0.209496 0.733870
Si Si7 0.650043 0.787304 0.377855
Si Si8 0.358394 0.792364 0.348448
O O1 0.712598 0.500000 0.001959
O O2 0.483374 0.762155 0.130891
O O3 0.807328 0.777143 0.896411
O O4 0.795444 0.779841 0.011690
O O5 0.859126 0.500000 0.430447
O O6 0.786667 0.777588 0.523566
O O7 0.956072 0.782580 0.325715
O O8 0.123042 0.703884 0.322954
O O9 0.067690 0.500000 0.218701
O O10 0.846999 0.713707 0.287101
O O11 0.876542 0.500000 0.022754
O O12 0.135466 0.699796 0.843140
O O13 0.000000 0.789358 0.000000
O O14 0.569537 0.244665 0.362022
O O15 0.552929 0.278828 0.264546
O O16 0.696730 0.000000 0.231489
O O17 0.701415 0.278405 0.677557
O O18 0.752363 0.000000 0.710528
O O19 0.500000 0.718060 0.500000
O O20 0.668774 0.000000 0.372965
O O21 0.388894 0.000000 0.322783
#
# Coordination Sequence:
#
# PCOD9149346 Si02
#       8
#     4   4   4   4   4   4   4   4
#     4  10  21  39  60  84 121 160 197 246 297 350
#     4  11  24  41  63  89 116 153 202 251 302 358
#     4  10  22  40  60  85 119 160 200 242 296 352
#     4  10  20  34  55  83 115 153 194 236 283 338
#     4  10  20  34  55  84 116 152 189 228 282 341
#     4  11  24  41  63  89 117 154 199 249 306 361
#     4  10  20  34  55  84 117 154 194 236 284 341
#     4  10  22  41  62  88 123 157 194 244 302 361
#
# _framework density 23.524495000000002
#
# number of rings (size 3 to 8) (size 9 to 14) (size 15 to 20)
#    0.000    1.750    1.250    2.625    0.000    7.000 
#    0.000    2.500    0.000    0.000    0.000    0.000 
#    0.000    0.000    0.000    0.000    0.000    0.000 
#
# Total GULP energy -178615.429079 kJ/mol
# GULP energy per Si atom -5581.732159 kJ/mol
# Density = 2.347095 g / cm^3
# Si number density = 23.524495 Si / 1000 Ang^3
#
#
#
# Elastic Constant Matrix: (Units=GPa)
#
#
# Indices 1 2 3 4 5 6 
#
# 1 100.6074 1.6117 21.3737 0.0000 9.7952 0.0000
# 2 1.6117 59.6676 -10.5351 0.0000 8.0945 0.0000
# 3 21.3737 -10.5351 85.9597 0.0000 9.1025 0.0000
# 4 0.0000 0.0000 0.0000 20.2167 0.0000 -0.2595
# 5 9.7952 8.0945 9.1025 0.0000 48.1631 0.0000
# 6 0.0000 0.0000 0.0000 -0.2595 0.0000 3.0527
#
#
#
# Elastic Compliance Matrix: (Units=1/GPa)
#
#
# Indices 1 2 3 4 5 6 
#
# 1 0.010643 -0.000519 -0.002541 0.000000 -0.001597 0.000000
# 2 -0.000519 0.017700 0.002655 0.000000 -0.003371 0.000000
# 3 -0.002541 0.002655 0.012840 0.000000 -0.002356 0.000000
# 4 0.000000 0.000000 0.000000 0.049518 0.000000 0.004209
# 5 -0.001597 -0.003371 -0.002356 0.000000 0.022099 0.000000
# 6 0.000000 0.000000 0.000000 0.004209 0.000000 0.327938
#
#
# Mechanical properties :
#
#
# Convention : Reuss Voigt Hill
#
# Bulk Modulus (GPa) = 24.76911 30.12614 27.44763
# Shear Modulus (GPa) = 10.98887 29.87212 20.43049
#
# Velocity S-wave (km/s) = 2.16365 3.56733 2.95019
# Velocity P-wave (km/s) = 4.09802 5.45911 4.82678
#
# Compressibility (1/GPa) = 0.04037286
#
# Stress axis : x y z
#
# Youngs Moduli (GPa) = 93.95614 56.49822 77.88098
#
# Poissons Ratio (x) = 0.02935 0.19789
# Poissons Ratio (y) = 0.04881 -0.20680
# Poissons Ratio (z) = 0.23874 -0.15002
#
# Static dielectric constant tensor:
#      x y z
#    x 1.904080 0.000000 0.081030 
#    y 0.000000 1.869820 0.000000 
#    z 0.081030 0.000000 2.032400 
# 
# From -- ./inp_files/89498.got.cif
#   From: 2010.05.17/outbox.cif.g08.bks.cpg/sg10_45_cif.got.tgz:89498.got - 2010.06.03 11:33:40.
