data_PCOD9149580
_publ_section_title
;
Structure prediction by ZEFSAII (Michael W. Deem and Ramdas Pophale) SiO2 
 PCOD9149580
Probable space group: P 2/M
;
_chemical_formula_sum "Si O2"
_cell_formula_units_Z 28
_cell_length_a 17.557252
_cell_length_b 14.761584
_cell_length_c 9.494418
_cell_angle_alpha 90.000000
_cell_angle_beta 43.249093
_cell_angle_gamma 90.000000
_cell_volume 1685.998242
_symmetry_space_group_name_H-M "P 2/M"
_symmetry_group_IT_number 10
_symmetry_cell_setting 'monoclinic'
loop_
_space_group_symop_operation_xyz
x,y,z
-x,y,-z
-x,-y,-z
x,-y,z
loop_
_atom_site_type_symbol
_atom_site_label
_atom_site_fract_x
_atom_site_fract_y
_atom_site_fract_z
Si Si1 0.551125 0.105043 0.277176
Si Si2 0.020825 0.891283 0.137324
Si Si3 0.118180 0.400709 0.519536
Si Si4 0.213925 0.795421 0.049343
Si Si5 0.141353 0.599258 0.148408
Si Si6 0.396173 0.896769 0.245118
Si Si7 0.819725 0.797114 0.572893
O O1 0.500000 0.103436 0.500000
O O2 0.452371 0.139984 0.310600
O O3 0.575743 0.000000 0.200818
O O4 0.663430 0.162250 0.117994
O O5 0.919845 0.850612 0.364501
O O6 0.132720 0.848444 0.052296
O O7 0.025123 0.000000 0.145080
O O8 0.000000 0.869980 0.000000
O O9 0.154887 0.500000 0.523813
O O10 0.132713 0.403362 0.330322
O O11 0.175853 0.307421 0.483548
O O12 0.986745 0.390877 0.727672
O O13 0.209035 0.688694 0.018285
O O14 0.170236 0.802161 0.270364
O O15 0.182856 0.500000 0.046176
O O16 0.296052 0.840563 0.317065
O O17 0.356843 0.000000 0.322885
O O18 0.500000 0.899234 0.000000
#
# Coordination Sequence:
#
# PCOD9149580 Si02
#       7
#     4   4   4   4   4   4   4
#     4  10  22  37  54  75 102 142 185 220 258 313
#     4  11  25  37  48  76 114 146 170 211 274 325
#     4   8  14  27  49  79 109 134 167 213 264 316
#     4  11  20  35  58  81 104 136 183 223 259 315
#     4   8  14  27  50  79 107 132 168 216 264 315
#     4  10  20  35  52  75 103 135 180 227 263 300
#     4  11  20  34  58  81 105 138 179 223 264 312
#
# _framework density 16.607372999999999
#
# number of rings (size 3 to 8) (size 9 to 14) (size 15 to 20)
#    0.000    2.143    2.857    2.143    2.000    2.286 
#    0.000    0.000    0.000    3.429    0.000    0.000 
#    0.000    0.000    0.000    0.000    0.000    0.000 
#
# Total GULP energy -156002.787401 kJ/mol
# GULP energy per Si atom -5571.528121 kJ/mol
# Density = 1.656957 g / cm^3
# Si number density = 16.607373 Si / 1000 Ang^3
#
#
#
# Elastic Constant Matrix: (Units=GPa)
#
#
# Indices 1 2 3 4 5 6 
#
# 1 99.8116 55.1209 14.5909 0.0000 -1.3039 0.0000
# 2 55.1209 135.5433 29.6458 0.0000 -15.1259 0.0000
# 3 14.5909 29.6458 34.2970 0.0000 3.0930 0.0000
# 4 0.0000 0.0000 0.0000 17.3464 0.0000 -5.7254
# 5 -1.3039 -15.1259 3.0930 0.0000 23.2439 0.0000
# 6 0.0000 0.0000 0.0000 -5.7254 0.0000 10.1821
#
#
#
# Elastic Compliance Matrix: (Units=1/GPa)
#
#
# Indices 1 2 3 4 5 6 
#
# 1 0.013113 -0.005522 -0.000554 0.000000 -0.002784 0.000000
# 2 -0.005522 0.012729 -0.009486 0.000000 0.009236 0.000000
# 3 -0.000554 -0.009486 0.038616 0.000000 -0.011343 0.000000
# 4 0.000000 0.000000 0.000000 0.070787 0.000000 0.039804
# 5 -0.002784 0.009236 -0.011343 0.000000 0.050385 0.000000
# 6 0.000000 0.000000 0.000000 0.039804 0.000000 0.120593
#
#
# Mechanical properties :
#
#
# Convention : Reuss Voigt Hill
#
# Bulk Modulus (GPa) = 30.00111 52.04078 41.02094
# Shear Modulus (GPa) = 14.34887 21.50743 17.92815
#
# Velocity S-wave (km/s) = 2.94259 3.60259 3.28918
# Velocity P-wave (km/s) = 5.44511 6.97917 6.25932
#
# Compressibility (1/GPa) = 0.03333210
#
# Stress axis : x y z
#
# Youngs Moduli (GPa) = 76.25945 78.56152 25.89623
#
# Poissons Ratio (x) = 0.43383 0.01436
# Poissons Ratio (y) = 0.42111 0.24566
# Poissons Ratio (z) = 0.04228 0.74526
#
# Static dielectric constant tensor:
#      x y z
#    x 1.649630 0.000000 0.104840 
#    y 0.000000 1.586880 0.000000 
#    z 0.104840 0.000000 1.614740 
# 
# From -- ./inp_files/24953.got.cif
#   From: 2010.05.17/outbox.cif.g08.bks.cpg/sg10_13_cif.got.tgz:24953.got - 2010.06.03 11:33:40.
