data_PCOD9149191
_publ_section_title
;
Structure prediction by ZEFSAII (Michael W. Deem and Ramdas Pophale) SiO2 
 PCOD9149191
Probable space group: P 2/M
;
_chemical_formula_sum "Si O2"
_cell_formula_units_Z 32
_cell_length_a 12.325767
_cell_length_b 9.040144
_cell_length_c 31.407845
_cell_angle_alpha 90.000000
_cell_angle_beta 29.654294
_cell_angle_gamma 90.000000
_cell_volume 1731.517660
_symmetry_space_group_name_H-M "P 2/M"
_symmetry_group_IT_number 10
_symmetry_cell_setting 'monoclinic'
loop_
_space_group_symop_operation_xyz
x,y,z
-x,y,-z
-x,-y,-z
x,-y,z
loop_
_atom_site_type_symbol
_atom_site_label
_atom_site_fract_x
_atom_site_fract_y
_atom_site_fract_z
Si Si1 0.986679 0.171824 0.054777
Si Si2 0.642958 0.673051 0.019368
Si Si3 0.841072 0.322730 0.367108
Si Si4 0.335952 0.175095 0.764576
Si Si5 0.589630 0.677768 0.539231
Si Si6 0.034476 0.325018 0.165456
Si Si7 0.755634 0.178092 0.570313
Si Si8 0.810432 0.825161 0.804214
O O1 0.750698 0.197098 0.157679
O O2 0.046745 0.000000 0.044286
O O3 0.158632 0.281381 0.017530
O O4 0.000000 0.189003 0.000000
O O5 0.589394 0.500000 0.040356
O O6 0.433010 0.765680 0.104375
O O7 0.746293 0.700597 0.937471
O O8 0.864453 0.500000 0.355988
O O9 0.648179 0.279837 0.399282
O O10 0.755810 0.288636 0.443625
O O11 0.066281 0.244732 0.278083
O O12 0.582355 0.212651 0.667116
O O13 0.170799 0.268636 0.791706
O O14 0.306226 0.000000 0.765291
O O15 0.586020 0.500000 0.546482
O O16 0.662654 0.753212 0.558175
O O17 0.017112 0.500000 0.179946
O O18 0.054296 0.233310 0.201394
O O19 0.000000 0.228064 0.500000
O O20 0.762410 0.000000 0.562778
O O21 0.810930 0.000000 0.801454
#
# Coordination Sequence:
#
# PCOD9149191 Si02
#       8
#     4   4   4   4   4   4   4   4
#     4   9  18  35  57  79 105 140 182 229 273 319
#     4  10  21  36  53  75 107 143 179 222 269 320
#     4   9  19  37  58  80 109 143 179 223 278 333
#     4   9  18  34  55  78 105 141 183 223 269 324
#     4   9  19  37  60  81 105 141 183 228 276 329
#     4  10  20  34  54  78 106 141 179 222 270 318
#     4  10  21  36  53  78 113 149 183 228 281 327
#     4  12  23  33  50  80 112 143 178 216 265 325
#
# _framework density 18.480896999999999
#
# number of rings (size 3 to 8) (size 9 to 14) (size 15 to 20)
#    0.000    2.250    0.000    3.750    0.000    7.000 
#    2.250    1.250    0.000    0.000    0.000    0.000 
#    0.000    0.000    0.000    0.000    0.000    0.000 
#
# Total GULP energy -178529.555221 kJ/mol
# GULP energy per Si atom -5579.048601 kJ/mol
# Density = 1.843883 g / cm^3
# Si number density = 18.480897 Si / 1000 Ang^3
#
#
#
# Elastic Constant Matrix: (Units=GPa)
#
#
# Indices 1 2 3 4 5 6 
#
# 1 45.5356 10.9281 37.1933 0.0000 9.8977 0.0000
# 2 10.9281 43.7897 54.1544 0.0000 8.0447 0.0000
# 3 37.1933 54.1544 151.7610 0.0000 3.5229 0.0000
# 4 0.0000 0.0000 0.0000 23.4666 0.0000 1.5605
# 5 9.8977 8.0447 3.5229 0.0000 20.0840 0.0000
# 6 0.0000 0.0000 0.0000 1.5605 0.0000 28.5273
#
#
#
# Elastic Compliance Matrix: (Units=1/GPa)
#
#
# Indices 1 2 3 4 5 6 
#
# 1 0.032238 0.007869 -0.010309 0.000000 -0.017231 0.000000
# 2 0.007869 0.047043 -0.018262 0.000000 -0.019518 0.000000
# 3 -0.010309 -0.018262 0.015408 0.000000 0.009693 0.000000
# 4 0.000000 0.000000 0.000000 0.042769 0.000000 -0.002340
# 5 -0.017231 -0.019518 0.009693 0.000000 0.064400 0.000000
# 6 0.000000 0.000000 0.000000 -0.002340 0.000000 0.035182
#
#
# Mechanical properties :
#
#
# Convention : Reuss Voigt Hill
#
# Bulk Modulus (GPa) = 18.76711 49.51531 34.14121
# Shear Modulus (GPa) = 16.88013 23.66962 20.27488
#
# Velocity S-wave (km/s) = 3.02550 3.58266 3.31580
# Velocity P-wave (km/s) = 4.73094 6.63059 5.75962
#
# Compressibility (1/GPa) = 0.05328470
#
# Stress axis : x y z
#
# Youngs Moduli (GPa) = 31.01937 21.25700 64.90325
#
# Poissons Ratio (x) = -0.16728 0.66908
# Poissons Ratio (y) = -0.24410 1.18529
# Poissons Ratio (z) = 0.31978 0.38820
#
# Static dielectric constant tensor:
#      x y z
#    x 1.620380 0.000000 0.011600 
#    y 0.000000 1.614410 0.000000 
#    z 0.011600 0.000000 1.676560 
# 
# From -- ./inp_files/94929.got.cif
#   From: 2010.05.17/outbox.cif.g08.bks.cpg/sg10_48_cif.got.tgz:94929.got - 2010.06.03 11:33:40.
