data_PCOD9149596
_publ_section_title
;
Structure prediction by ZEFSAII (Michael W. Deem and Ramdas Pophale) SiO2 
 PCOD9149596
Probable space group: P 2/M
;
_chemical_formula_sum "Si O2"
_cell_formula_units_Z 30
_cell_length_a 17.320257
_cell_length_b 9.197724
_cell_length_c 17.489414
_cell_angle_alpha 90.000000
_cell_angle_beta 144.388340
_cell_angle_gamma 90.000000
_cell_volume 1622.363336
_symmetry_space_group_name_H-M "P 2/M"
_symmetry_group_IT_number 10
_symmetry_cell_setting 'monoclinic'
loop_
_space_group_symop_operation_xyz
x,y,z
-x,y,-z
-x,-y,-z
x,-y,z
loop_
_atom_site_type_symbol
_atom_site_label
_atom_site_fract_x
_atom_site_fract_y
_atom_site_fract_z
Si Si1 0.485334 0.328422 0.176220
Si Si2 0.940435 0.664509 0.283991
Si Si3 0.855073 0.830456 0.843438
Si Si4 0.330968 0.169247 0.921231
Si Si5 0.295568 0.160889 0.715161
Si Si6 0.000000 0.255670 0.500000
Si Si7 0.983211 0.824261 0.794654
Si Si8 0.269895 0.175574 0.105278
O O1 0.478523 0.500000 0.179122
O O2 0.636350 0.274342 0.286816
O O3 0.396301 0.249821 0.168578
O O4 0.417615 0.273902 0.043030
O O5 0.903945 0.500000 0.231637
O O6 0.817734 0.775722 0.184752
O O7 0.985167 0.660790 0.408063
O O8 0.037233 0.736119 0.299754
O O9 0.881925 0.774382 0.779880
O O10 0.757096 0.771173 0.829469
O O11 0.819795 0.000000 0.805748
O O12 0.000000 0.827218 0.000000
O O13 0.350273 0.179393 0.845801
O O14 0.347165 0.000000 0.956639
O O15 0.137515 0.170882 0.597840
O O16 0.332909 0.000000 0.718843
O O17 0.972991 0.000000 0.776416
O O18 0.133461 0.795679 0.947642
O O19 0.284826 0.000000 0.117449
#
# Coordination Sequence:
#
# PCOD9149596 Si02
#       8
#     4   4   4   4   4   2   4   4
#     4  12  23  32  48  77 110 139 168 204 256 316
#     4  11  21  33  52  76 105 139 173 213 262 311
#     4   7  12  24  44  71 100 135 174 208 246 295
#     4  10  20  35  53  73  99 133 174 217 256 300
#     4  10  22  39  58  75  94 127 174 221 261 304
#     4  10  24  42  58  74  98 132 176 222 262 304
#     4   9  16  28  49  75 103 137 176 213 252 300
#     4   9  16  29  49  72 105 142 174 208 247 299
#
# _framework density 18.491543
#
# number of rings (size 3 to 8) (size 9 to 14) (size 15 to 20)
#    0.000    2.267    1.333    4.400    0.000    6.400 
#    0.000    0.667    0.000    2.400    0.000    0.933 
#    0.000    6.400    0.000    0.000    0.000    0.000 
#
# Total GULP energy -167068.546794 kJ/mol
# GULP energy per Si atom -5568.951560 kJ/mol
# Density = 1.844946 g / cm^3
# Si number density = 18.491543 Si / 1000 Ang^3
#
#
#
# Elastic Constant Matrix: (Units=GPa)
#
#
# Indices 1 2 3 4 5 6 
#
# 1 150.2304 60.2902 32.3671 0.0000 -3.9118 0.0000
# 2 60.2902 75.6923 9.0412 0.0000 -2.8943 0.0000
# 3 32.3671 9.0412 31.2179 0.0000 0.7840 0.0000
# 4 0.0000 0.0000 0.0000 60.1375 0.0000 -100.1460
# 5 -3.9118 -2.8943 0.7840 0.0000 22.8171 0.0000
# 6 0.0000 0.0000 0.0000 -100.1460 0.0000 170.4589
#
#
#
# Elastic Compliance Matrix: (Units=1/GPa)
#
#
# Indices 1 2 3 4 5 6 
#
# 1 0.012360 -0.008553 -0.010373 0.000000 0.001391 0.000000
# 2 -0.008553 0.019683 0.003144 0.000000 0.000923 0.000000
# 3 -0.010373 0.003144 0.041948 0.000000 -0.002821 0.000000
# 4 0.000000 0.000000 0.000000 0.768658 0.000000 0.451593
# 5 0.001391 0.000923 -0.002821 0.000000 0.044279 0.000000
# 6 0.000000 0.000000 0.000000 0.451593 0.000000 0.271181
#
#
# Mechanical properties :
#
#
# Convention : Reuss Voigt Hill
#
# Bulk Modulus (GPa) = 23.56945 51.17083 37.37014
# Shear Modulus (GPa) = 4.15346 61.04551 32.59949
#
# Velocity S-wave (km/s) = 1.50034 5.75190 4.20329
# Velocity P-wave (km/s) = 3.97179 8.47615 6.61892
#
# Compressibility (1/GPa) = 0.04242780
#
# Stress axis : x y z
#
# Youngs Moduli (GPa) = 80.90771 50.80413 23.83908
#
# Poissons Ratio (x) = 0.43451 0.24728
# Poissons Ratio (y) = 0.69197 -0.07494
# Poissons Ratio (z) = 0.83923 -0.15971
#
# Static dielectric constant tensor:
#      x y z
#    x 1.702290 0.000000 0.002220 
#    y 0.000000 1.620830 0.000000 
#    z 0.002220 0.000000 1.671010 
# 
# From -- ./inp_files/78653.got.cif
#   From: 2010.05.17/outbox.cif.g08.bks.cpg/sg10_40_cif.got.tgz:78653.got - 2010.06.03 11:33:40.
