data_PCOD9149110
_publ_section_title
;
Structure prediction by ZEFSAII (Michael W. Deem and Ramdas Pophale) SiO2 
 PCOD9149110
Probable space group: P 2/M
;
_chemical_formula_sum "Si O2"
_cell_formula_units_Z 24
_cell_length_a 12.601466
_cell_length_b 8.807512
_cell_length_c 24.287853
_cell_angle_alpha 90.000000
_cell_angle_beta 26.214116
_cell_angle_gamma 90.000000
_cell_volume 1190.740941
_symmetry_space_group_name_H-M "P 2/M"
_symmetry_group_IT_number 10
_symmetry_cell_setting 'monoclinic'
loop_
_space_group_symop_operation_xyz
x,y,z
-x,y,-z
-x,-y,-z
x,-y,z
loop_
_atom_site_type_symbol
_atom_site_label
_atom_site_fract_x
_atom_site_fract_y
_atom_site_fract_z
Si Si1 0.730846 0.672385 0.851790
Si Si2 0.359891 0.816666 0.301505
Si Si3 0.472978 0.318997 0.449483
Si Si4 0.161687 0.817437 0.506576
Si Si5 0.034945 0.818546 0.803758
Si Si6 0.596801 0.183513 0.085306
O O1 0.812234 0.500000 0.803145
O O2 0.926584 0.763215 0.795776
O O3 0.624754 0.752630 0.847421
O O4 0.500000 0.665684 0.000000
O O5 0.336210 0.763850 0.375299
O O6 0.563952 0.766182 0.163808
O O7 0.105770 0.783072 0.390092
O O8 0.375566 0.000000 0.297913
O O9 0.500000 0.266873 0.500000
O O10 0.473066 0.500000 0.448864
O O11 0.239984 0.257648 0.526729
O O12 0.706500 0.255285 0.309622
O O13 0.179092 0.000000 0.503861
O O14 0.053893 0.000000 0.795340
O O15 0.842445 0.771965 0.940265
O O16 0.584131 0.000000 0.089227
#
# Coordination Sequence:
#
# PCOD9149110 Si02
#       6
#     4   4   4   4   4   4
#     4   9  17  29  46  72 109 146 176 214 264 314
#     4   8  16  33  59  87 112 137 173 226 272 313
#     4  11  25  41  55  75 109 146 182 225 274 327
#     4   9  18  36  60  84 109 141 182 221 265 320
#     4  10  20  34  53  77 106 142 185 225 265 321
#     4   9  17  31  53  82 110 139 179 224 269 317
#
# _framework density 20.155518000000001
#
# number of rings (size 3 to 8) (size 9 to 14) (size 15 to 20)
#    0.000    2.667    0.000    2.500    2.333    4.000 
#    0.000    3.333    0.000    5.000    0.000    0.000 
#    0.000    0.000    0.000    0.000    0.000    0.000 
#
# Total GULP energy -133898.046874 kJ/mol
# GULP energy per Si atom -5579.085286 kJ/mol
# Density = 2.010964 g / cm^3
# Si number density = 20.155518 Si / 1000 Ang^3
#
#
#
# Elastic Constant Matrix: (Units=GPa)
#
#
# Indices 1 2 3 4 5 6 
#
# 1 76.0591 18.3714 17.5974 0.0000 13.1558 0.0000
# 2 18.3714 25.4631 15.5367 0.0000 0.4590 0.0000
# 3 17.5974 15.5367 66.3021 0.0000 18.4980 0.0000
# 4 0.0000 0.0000 0.0000 -256.8215 0.0000 200.2330
# 5 13.1558 0.4590 18.4980 0.0000 32.8410 0.0000
# 6 0.0000 0.0000 0.0000 200.2330 0.0000 -137.5681
#
#
#
# Elastic Compliance Matrix: (Units=1/GPa)
#
#
# Indices 1 2 3 4 5 6 
#
# 1 0.017306 -0.012526 0.000270 0.000000 -0.006909 0.000000
# 2 -0.012526 0.056060 -0.013043 0.000000 0.011581 0.000000
# 3 0.000270 -0.013043 0.021411 0.000000 -0.011986 0.000000
# 4 0.000000 0.000000 0.000000 0.028884 0.000000 0.042041
# 5 -0.006909 0.011581 -0.011986 0.000000 0.039807 0.000000
# 6 0.000000 0.000000 0.000000 0.042041 0.000000 0.053922
#
#
# Mechanical properties :
#
#
# Convention : Reuss Voigt Hill
#
# Bulk Modulus (GPa) = 22.63561 30.09280 26.36420
# Shear Modulus (GPa) = 17.68569 -64.55514 -23.43472
#
# Velocity S-wave (km/s) = 2.96541 -5.66551 -3.41353
# Velocity P-wave (km/s) = 4.79372 5.27586 1.55803
#
# Compressibility (1/GPa) = 0.04417818
#
# Stress axis : x y z
#
# Youngs Moduli (GPa) = 57.78360 17.83814 46.70441
#
# Poissons Ratio (x) = 0.22344 -0.01260
# Poissons Ratio (y) = 0.72381 0.60916
# Poissons Ratio (z) = -0.01559 0.23266
#
# Static dielectric constant tensor:
#      x y z
#    x 1.704230 0.000000 0.030700 
#    y 0.000000 1.676460 0.000000 
#    z 0.030700 0.000000 1.773540 
# 
# From -- ./inp_files/56516.got.cif
#   From: 2010.05.17/outbox.cif.g08.bks.cpg/sg10_29_cif.got.tgz:56516.got - 2010.06.03 11:33:40.
