data_PCOD9149737
_publ_section_title
;
Structure prediction by ZEFSAII (Michael W. Deem and Ramdas Pophale) SiO2 
 PCOD9149737
Probable space group: P 2/M
;
_chemical_formula_sum "Si O2"
_cell_formula_units_Z 28
_cell_length_a 14.289397
_cell_length_b 8.962036
_cell_length_c 13.819225
_cell_angle_alpha 90.000000
_cell_angle_beta 57.022674
_cell_angle_gamma 90.000000
_cell_volume 1484.592422
_symmetry_space_group_name_H-M "P 2/M"
_symmetry_group_IT_number 10
_symmetry_cell_setting 'monoclinic'
loop_
_space_group_symop_operation_xyz
x,y,z
-x,y,-z
-x,-y,-z
x,-y,z
loop_
_atom_site_type_symbol
_atom_site_label
_atom_site_fract_x
_atom_site_fract_y
_atom_site_fract_z
Si Si1 0.410396 0.321308 0.272009
Si Si2 0.132306 0.668729 0.948190
Si Si3 0.598240 0.332088 0.023712
Si Si4 0.062441 0.679112 0.197228
Si Si5 0.396013 0.178990 0.490032
Si Si6 0.829650 0.177193 0.267565
Si Si7 0.753372 0.824206 0.792056
O O1 0.398253 0.500000 0.273360
O O2 0.532716 0.287132 0.157282
O O3 0.402218 0.262010 0.384704
O O4 0.315000 0.247356 0.258495
O O5 0.176248 0.500000 0.914764
O O6 0.183910 0.770164 0.836058
O O7 0.131479 0.717736 0.059884
O O8 0.000000 0.663067 0.000000
O O9 0.648056 0.500000 0.004878
O O10 0.500000 0.346156 0.000000
O O11 0.679437 0.215066 0.928396
O O12 0.057950 0.500000 0.205293
O O13 0.128230 0.747908 0.250637
O O14 0.938612 0.742966 0.250830
O O15 0.500000 0.218615 0.500000
O O16 0.280728 0.213324 0.609840
O O17 0.399896 0.000000 0.471276
O O18 0.847952 0.000000 0.259084
O O19 0.764737 0.000000 0.772322
#
# Coordination Sequence:
#
# PCOD9149737 Si02
#       7
#     4   4   4   4   4   4   4
#     4  10  21  38  59  82 111 148 189 232 275 324
#     4   8  16  31  51  75 105 143 180 217 267 321
#     4   8  16  32  52  77 110 144 179 221 267 316
#     4  10  20  35  55  81 116 152 185 225 274 330
#     4  10  23  42  60  80 109 144 183 231 283 330
#     4  10  20  35  56  82 112 145 185 233 279 327
#     4  11  21  33  55  86 117 149 184 224 275 334
#
# _framework density 18.860395
#
# number of rings (size 3 to 8) (size 9 to 14) (size 15 to 20)
#    0.000    2.429    0.000    4.286    0.000    8.857 
#    0.000    3.571    0.000    4.286    0.000    0.000 
#    0.000    0.000    0.000    0.000    0.000    0.000 
#
# Total GULP energy -156187.192756 kJ/mol
# GULP energy per Si atom -5578.114027 kJ/mol
# Density = 1.881747 g / cm^3
# Si number density = 18.860395 Si / 1000 Ang^3
#
#
#
# Elastic Constant Matrix: (Units=GPa)
#
#
# Indices 1 2 3 4 5 6 
#
# 1 122.0205 58.5734 51.2867 0.0000 11.0186 0.0000
# 2 58.5734 79.4526 60.0172 0.0000 2.4840 0.0000
# 3 51.2867 60.0172 115.5743 0.0000 9.2017 0.0000
# 4 0.0000 0.0000 0.0000 25.5835 0.0000 37.9988
# 5 11.0186 2.4840 9.2017 0.0000 20.7645 0.0000
# 6 0.0000 0.0000 0.0000 37.9988 0.0000 -319.8798
#
#
#
# Elastic Compliance Matrix: (Units=1/GPa)
#
#
# Indices 1 2 3 4 5 6 
#
# 1 0.013414 -0.009144 -0.000751 0.000000 -0.005691 0.000000
# 2 -0.009144 0.027056 -0.010491 0.000000 0.006265 0.000000
# 3 -0.000751 -0.010491 0.014825 0.000000 -0.004916 0.000000
# 4 0.000000 0.000000 0.000000 0.033225 0.000000 0.003947
# 5 -0.005691 0.006265 -0.004916 0.000000 0.052608 0.000000
# 6 0.000000 0.000000 0.000000 0.003947 0.000000 -0.002657
#
#
# Mechanical properties :
#
#
# Convention : Reuss Voigt Hill
#
# Bulk Modulus (GPa) = 68.85563 72.97801 70.91682
# Shear Modulus (GPa) = 27.16127 -44.89501 -8.86687
#
# Velocity S-wave (km/s) = 3.79901 -4.88421 -2.17060
# Velocity P-wave (km/s) = 7.47199 2.64015 5.60362
#
# Compressibility (1/GPa) = 0.01452314
#
# Stress axis : x y z
#
# Youngs Moduli (GPa) = 74.54719 36.96022 67.45242
#
# Poissons Ratio (x) = 0.33796 0.05067
# Poissons Ratio (y) = 0.68165 0.70766
# Poissons Ratio (z) = 0.05600 0.38776
#
# Static dielectric constant tensor:
#      x y z
#    x 1.684940 0.000000 -0.010280 
#    y 0.000000 1.632510 0.000000 
#    z -0.010280 0.000000 1.649380 
# 
# From -- ./inp_files/66412.got.cif
#   From: 2010.05.17/outbox.cif.g08.bks.cpg/sg10_34_cif.got.tgz:66412.got - 2010.06.03 11:33:40.
