data_PCOD9149688
_publ_section_title
;
Structure prediction by ZEFSAII (Michael W. Deem and Ramdas Pophale) SiO2 
 PCOD9149688
Probable space group: P 2/M
;
_chemical_formula_sum "Si O2"
_cell_formula_units_Z 24
_cell_length_a 13.875962
_cell_length_b 7.634058
_cell_length_c 15.828520
_cell_angle_alpha 90.000000
_cell_angle_beta 139.223336
_cell_angle_gamma 90.000000
_cell_volume 1095.082112
_symmetry_space_group_name_H-M "P 2/M"
_symmetry_group_IT_number 10
_symmetry_cell_setting 'monoclinic'
loop_
_space_group_symop_operation_xyz
x,y,z
-x,y,-z
-x,-y,-z
x,-y,z
loop_
_atom_site_type_symbol
_atom_site_label
_atom_site_fract_x
_atom_site_fract_y
_atom_site_fract_z
Si Si1 0.966054 0.203508 0.568796
Si Si2 0.369774 0.706391 0.652504
Si Si3 0.882908 0.211114 0.161747
Si Si4 0.577649 0.285710 0.638318
Si Si5 0.451891 0.211888 0.061863
Si Si6 0.087350 0.289964 0.138885
O O1 0.790632 0.210177 0.464849
O O2 0.000000 0.284766 0.500000
O O3 0.053274 0.278766 0.706717
O O4 0.013666 0.000000 0.595756
O O5 0.348497 0.500000 0.624366
O O6 0.485381 0.771500 0.658877
O O7 0.438489 0.732335 0.790902
O O8 0.995639 0.254957 0.162277
O O9 0.876261 0.000000 0.162166
O O10 0.716152 0.272543 0.033498
O O11 0.500000 0.232462 0.500000
O O12 0.579173 0.500000 0.640800
O O13 0.745784 0.223393 0.749498
O O14 0.453323 0.000000 0.062759
O O15 0.500000 0.269260 0.000000
O O16 0.097316 0.500000 0.136824
O O17 0.000000 0.220332 0.000000
#
# Coordination Sequence:
#
# PCOD9149688 Si02
#       6
#     4   4   4   4   4   4
#     4  10  21  39  60  81 111 151 188 222 271 336
#     4  11  22  36  58  87 114 142 183 234 278 319
#     4  10  21  36  57  84 110 142 188 235 273 317
#     4   9  18  33  52  75 106 144 180 215 266 330
#     4  10  21  39  60  80 109 151 189 222 273 337
#     4  10  20  35  55  77 106 146 184 220 273 335
#
# _framework density 21.916164999999999
#
# number of rings (size 3 to 8) (size 9 to 14) (size 15 to 20)
#    0.000    2.000    0.000    3.500    0.000    7.667 
#    0.000    3.333    0.000    4.500    0.000    0.000 
#    0.000    0.000    0.000    0.000    0.000    0.000 
#
# Total GULP energy -134173.610896 kJ/mol
# GULP energy per Si atom -5590.567121 kJ/mol
# Density = 2.186628 g / cm^3
# Si number density = 21.916165 Si / 1000 Ang^3
#
#
#
# Elastic Constant Matrix: (Units=GPa)
#
#
# Indices 1 2 3 4 5 6 
#
# 1 60.5236 -7.3923 -21.7406 0.0000 -2.3718 0.0000
# 2 -7.3923 42.2301 -4.0625 0.0000 -2.2120 0.0000
# 3 -21.7406 -4.0625 85.9323 0.0000 -2.4465 0.0000
# 4 0.0000 0.0000 0.0000 16.0508 0.0000 8.4054
# 5 -2.3718 -2.2120 -2.4465 0.0000 44.8938 0.0000
# 6 0.0000 0.0000 0.0000 8.4054 0.0000 28.3296
#
#
#
# Elastic Compliance Matrix: (Units=1/GPa)
#
#
# Indices 1 2 3 4 5 6 
#
# 1 0.018843 0.003855 0.004991 0.000000 0.001457 0.000000
# 2 0.003855 0.024645 0.002184 0.000000 0.001537 0.000000
# 3 0.004991 0.002184 0.013034 0.000000 0.001082 0.000000
# 4 0.000000 0.000000 0.000000 0.073763 0.000000 -0.021886
# 5 0.001457 0.001537 0.001082 0.000000 0.022486 0.000000
# 6 0.000000 0.000000 0.000000 -0.021886 0.000000 0.041792
#
#
# Mechanical properties :
#
#
# Convention : Reuss Voigt Hill
#
# Bulk Modulus (GPa) = 12.72549 13.58838 13.15693
# Shear Modulus (GPa) = 25.16379 32.64693 28.90536
#
# Velocity S-wave (km/s) = 3.39216 3.86376 3.63561
# Velocity P-wave (km/s) = 4.60015 5.11062 4.86209
#
# Compressibility (1/GPa) = 0.07858242
#
# Stress axis : x y z
#
# Youngs Moduli (GPa) = 53.06946 40.57582 76.72344
#
# Poissons Ratio (x) = -0.15642 -0.38293
# Poissons Ratio (y) = -0.20458 -0.16758
# Poissons Ratio (z) = -0.26487 -0.08862
#
# Static dielectric constant tensor:
#      x y z
#    x 1.757130 0.000000 0.004420 
#    y 0.000000 1.829490 0.000000 
#    z 0.004420 0.000000 1.707690 
# 
# From -- ./inp_files/56524.got.cif
#   From: 2010.05.17/outbox.cif.g08.bks.cpg/sg10_29_cif.got.tgz:56524.got - 2010.06.03 11:33:40.
