data_PCOD9149007
_publ_section_title
;
Structure prediction by ZEFSAII (Michael W. Deem and Ramdas Pophale) SiO2 
 PCOD9149007
Probable space group: P 2/M
;
_chemical_formula_sum "Si O2"
_cell_formula_units_Z 32
_cell_length_a 20.177086
_cell_length_b 8.813666
_cell_length_c 16.543558
_cell_angle_alpha 90.000000
_cell_angle_beta 32.825768
_cell_angle_gamma 90.000000
_cell_volume 1594.822282
_symmetry_space_group_name_H-M "P 2/M"
_symmetry_group_IT_number 10
_symmetry_cell_setting 'monoclinic'
loop_
_space_group_symop_operation_xyz
x,y,z
-x,y,-z
-x,-y,-z
x,-y,z
loop_
_atom_site_type_symbol
_atom_site_label
_atom_site_fract_x
_atom_site_fract_y
_atom_site_fract_z
Si Si1 0.002572 0.179741 0.403328
Si Si2 0.340804 0.180373 0.491717
Si Si3 0.796624 0.679769 0.226216
Si Si4 0.509176 0.680548 0.792472
Si Si5 0.255344 0.679694 0.142249
Si Si6 0.368966 0.172231 0.179732
Si Si7 0.047284 0.679448 0.074221
Si Si8 0.116980 0.317409 0.619008
O O1 0.136159 0.231100 0.237228
O O2 0.901899 0.262125 0.452239
O O3 0.000000 0.223407 0.500000
O O4 0.987385 0.000000 0.412511
O O5 0.307823 0.238130 0.615420
O O6 0.460011 0.247667 0.325661
O O7 0.231086 0.244176 0.547785
O O8 0.342505 0.000000 0.488040
O O9 0.768714 0.500000 0.250183
O O10 0.839706 0.740947 0.094307
O O11 0.922349 0.692948 0.149658
O O12 0.527136 0.500000 0.770962
O O13 0.600069 0.749993 0.767074
O O14 0.372927 0.710697 0.965327
O O15 0.232355 0.500000 0.164871
O O16 0.288498 0.733695 0.199062
O O17 0.322202 0.000000 0.237958
O O18 0.500000 0.162911 0.000000
O O19 0.072174 0.500000 0.056221
O O20 0.003663 0.733749 0.206243
O O21 0.127196 0.500000 0.612932
#
# Coordination Sequence:
#
# PCOD9149007 Si02
#       8
#     4   4   4   4   4   4   4   4
#     4  11  25  41  55  73 102 136 172 214 260 304
#     4  11  21  31  47  76 112 141 169 206 256 308
#     4   8  13  26  46  70 101 135 168 201 246 301
#     4  10  20  34  52  74  99 131 170 211 253 302
#     4  10  21  37  56  75  95 126 173 217 253 300
#     4   9  17  30  49  72  97 124 156 201 255 302
#     4   7  12  25  48  72  96 130 169 208 247 295
#     4  10  20  36  55  75 101 136 178 216 253 300
#
# _framework density 20.06493
#
# number of rings (size 3 to 8) (size 9 to 14) (size 15 to 20)
#    0.000    2.500    0.000    4.500    1.750    4.000 
#    0.000    5.625    0.000    0.000    0.000    0.875 
#    0.000    7.000    0.000    0.000    0.000    0.000 
#
# Total GULP energy -178501.668170 kJ/mol
# GULP energy per Si atom -5578.177130 kJ/mol
# Density = 2.001926 g / cm^3
# Si number density = 20.064930 Si / 1000 Ang^3
#
#
#
# Elastic Constant Matrix: (Units=GPa)
#
#
# Indices 1 2 3 4 5 6 
#
# 1 13.8324 2.6983 6.7797 0.0000 2.9462 0.0000
# 2 2.6983 65.0186 41.9866 0.0000 10.8100 0.0000
# 3 6.7797 41.9866 114.7320 0.0000 21.7519 0.0000
# 4 0.0000 0.0000 0.0000 15.8594 0.0000 -12.3460
# 5 2.9462 10.8100 21.7519 0.0000 23.5821 0.0000
# 6 0.0000 0.0000 0.0000 -12.3460 0.0000 -5.9178
#
#
#
# Elastic Compliance Matrix: (Units=1/GPa)
#
#
# Indices 1 2 3 4 5 6 
#
# 1 0.075245 0.000040 -0.003242 0.000000 -0.006428 0.000000
# 2 0.000040 0.020310 -0.006870 0.000000 -0.002978 0.000000
# 3 -0.003242 -0.006870 0.013026 0.000000 -0.008460 0.000000
# 4 0.000000 0.000000 0.000000 0.024029 0.000000 -0.050131
# 5 -0.006428 -0.002978 -0.008460 0.000000 0.052377 0.000000
# 6 0.000000 0.000000 0.000000 -0.050131 0.000000 -0.064397
#
#
# Mechanical properties :
#
#
# Convention : Reuss Voigt Hill
#
# Bulk Modulus (GPa) = 11.30771 32.94579 22.12675
# Shear Modulus (GPa) = 29.37483 16.17931 22.77707
#
# Velocity S-wave (km/s) = 3.83036 2.84271 3.37288
# Velocity P-wave (km/s) = 5.02096 5.21823 5.12054
#
# Compressibility (1/GPa) = 0.08843526
#
# Stress axis : x y z
#
# Youngs Moduli (GPa) = 13.28998 49.23606 76.77084
#
# Poissons Ratio (x) = -0.00196 0.24890
# Poissons Ratio (y) = -0.00053 0.52744
# Poissons Ratio (z) = 0.04309 0.33827
#
# Static dielectric constant tensor:
#      x y z
#    x 1.702990 0.000000 0.012320 
#    y 0.000000 1.667020 0.000000 
#    z 0.012320 0.000000 1.809050 
# 
# From -- ./inp_files/79918.got.cif
#   From: 2010.05.17/outbox.cif.g08.bks.cpg/sg10_40_cif.got.tgz:79918.got - 2010.06.03 11:33:40.
