data_PCOD9149297
_publ_section_title
;
Structure prediction by ZEFSAII (Michael W. Deem and Ramdas Pophale) SiO2 
 PCOD9149297
Probable space group: P 2/M
;
_chemical_formula_sum "Si O2"
_cell_formula_units_Z 24
_cell_length_a 24.425606
_cell_length_b 7.576407
_cell_length_c 18.048710
_cell_angle_alpha 90.000000
_cell_angle_beta 20.129469
_cell_angle_gamma 90.000000
_cell_volume 1149.458550
_symmetry_space_group_name_H-M "P 2/M"
_symmetry_group_IT_number 10
_symmetry_cell_setting 'monoclinic'
loop_
_space_group_symop_operation_xyz
x,y,z
-x,y,-z
-x,-y,-z
x,-y,z
loop_
_atom_site_type_symbol
_atom_site_label
_atom_site_fract_x
_atom_site_fract_y
_atom_site_fract_z
Si Si1 0.796095 0.213388 0.552360
Si Si2 0.505707 0.215617 0.158011
Si Si3 0.667342 0.702300 0.312998
Si Si4 0.682750 0.204393 0.460710
Si Si5 0.990260 0.707586 0.162327
Si Si6 0.837073 0.783908 0.668888
O O1 0.625523 0.269754 0.736077
O O2 0.927308 0.269239 0.325743
O O3 0.825008 0.273988 0.598946
O O4 0.795401 0.000000 0.554024
O O5 0.439759 0.274096 0.321548
O O6 0.504104 0.000000 0.161470
O O7 0.680721 0.272490 0.912516
O O8 0.500000 0.783513 0.500000
O O9 0.666005 0.500000 0.286401
O O10 0.676466 0.702391 0.390205
O O11 0.833255 0.782235 0.073618
O O12 0.856129 0.213468 0.278745
O O13 0.644917 0.000000 0.494619
O O14 0.994234 0.500000 0.139184
O O15 0.000000 0.726929 0.500000
O O16 0.836157 0.000000 0.669721
#
# Coordination Sequence:
#
# PCOD9149297 Si02
#       6
#     4   4   4   4   4   4
#     4   9  17  30  50  73  97 127 164 207 248 289
#     4   8  15  28  45  68  97 127 158 195 245 296
#     4  10  22  38  53  72 102 139 172 202 247 307
#     4  10  20  34  55  80 103 129 166 214 257 294
#     4  10  20  35  55  75  99 134 171 208 252 302
#     4   9  16  26  44  71 100 129 161 199 245 296
#
# _framework density 20.879396
#
# number of rings (size 3 to 8) (size 9 to 14) (size 15 to 20)
#    0.000    2.667    0.000    3.000    0.000    7.000 
#    0.000    1.667    0.000    9.500    0.000    0.000 
#    0.000    0.000    0.000    0.000    0.000    0.000 
#
# Total GULP energy -133981.948908 kJ/mol
# GULP energy per Si atom -5582.581205 kJ/mol
# Density = 2.083187 g / cm^3
# Si number density = 20.879396 Si / 1000 Ang^3
#
#
#
# Elastic Constant Matrix: (Units=GPa)
#
#
# Indices 1 2 3 4 5 6 
#
# 1 33.9906 -0.7475 123.0437 0.0000 -5.3637 0.0000
# 2 -0.7475 48.5370 -5.5774 0.0000 -0.6734 0.0000
# 3 123.0437 -5.5774 216.6494 0.0000 -6.5688 0.0000
# 4 0.0000 0.0000 0.0000 10.9710 0.0000 2.6426
# 5 -5.3637 -0.6734 -6.5688 0.0000 12.2615 0.0000
# 6 0.0000 0.0000 0.0000 2.6426 0.0000 13.7478
#
#
#
# Elastic Compliance Matrix: (Units=1/GPa)
#
#
# Indices 1 2 3 4 5 6 
#
# 1 -0.027608 0.001317 0.015603 0.000000 -0.003646 0.000000
# 2 0.001317 0.020626 -0.000168 0.000000 0.001619 0.000000
# 3 0.015603 -0.000168 -0.004110 0.000000 0.004614 0.000000
# 4 0.000000 0.000000 0.000000 0.095575 0.000000 -0.018372
# 5 -0.003646 0.001619 0.004614 0.000000 0.082522 0.000000
# 6 0.000000 0.000000 0.000000 -0.018372 0.000000 0.076271
#
#
# Mechanical properties :
#
#
# Convention : Reuss Voigt Hill
#
# Bulk Modulus (GPa) = 44.61785 59.17942 51.89863
# Shear Modulus (GPa) = 23.01567 19.55992 21.28779
#
# Velocity S-wave (km/s) = 3.32371 3.06405 3.19652
# Velocity P-wave (km/s) = 6.01208 6.39710 6.20758
#
# Compressibility (1/GPa) = 0.02241256
#
# Stress axis : x y z
#
# Youngs Moduli (GPa) = -36.22186 48.48185 -243.30124
#
# Poissons Ratio (x) = -0.06386 3.79619
# Poissons Ratio (y) = 0.04771 -0.04087
# Poissons Ratio (z) = 0.56516 0.00814
#
# Static dielectric constant tensor:
#      x y z
#    x 1.696330 0.000000 -0.004350 
#    y 0.000000 1.776920 0.000000 
#    z -0.004350 0.000000 1.746250 
# 
# From -- ./inp_files/38087.got.cif
#   From: 2010.05.17/outbox.cif.g08.bks.cpg/sg10_20_cif.got.tgz:38087.got - 2010.06.03 11:33:40.
