data_PCOD9149445
_publ_section_title
;
Structure prediction by ZEFSAII (Michael W. Deem and Ramdas Pophale) SiO2 
 PCOD9149445
Probable space group: P 2/M
;
_chemical_formula_sum "Si O2"
_cell_formula_units_Z 16
_cell_length_a 8.833738
_cell_length_b 11.074453
_cell_length_c 9.361289
_cell_angle_alpha 90.000000
_cell_angle_beta 128.221604
_cell_angle_gamma 90.000000
_cell_volume 719.477150
_symmetry_space_group_name_H-M "P 2/M"
_symmetry_group_IT_number 10
_symmetry_cell_setting 'monoclinic'
loop_
_space_group_symop_operation_xyz
x,y,z
-x,y,-z
-x,-y,-z
x,-y,z
loop_
_atom_site_type_symbol
_atom_site_label
_atom_site_fract_x
_atom_site_fract_y
_atom_site_fract_z
Si Si1 0.049461 0.632318 0.196023
Si Si2 0.198869 0.130339 0.206574
Si Si3 0.793338 0.632779 0.302636
Si Si4 0.443308 0.132595 0.799727
O O1 0.130206 0.500000 0.284641
O O2 0.182233 0.749873 0.292329
O O3 0.854001 0.648757 0.172274
O O4 0.000000 0.626721 0.000000
O O5 0.372298 0.139519 0.195831
O O6 0.216704 0.000000 0.292497
O O7 0.000000 0.126419 0.000000
O O8 0.700943 0.500000 0.266135
O O9 0.679300 0.747088 0.291065
O O10 0.000000 0.630240 0.500000
O O11 0.350360 0.000000 0.719984
O O12 0.500000 0.133368 0.000000
#
# Coordination Sequence:
#
# PCOD9149445 Si02
#       4
#     4   4   4   4
#     4   9  17  31  53  78 102 135 181 225 267 320
#     4   9  17  30  50  77 107 137 173 222 274 321
#     4  10  22  39  57  81 115 151 186 229 283 337
#     4  10  20  34  56  86 114 145 189 234 278 332
#
# _framework density 22.23837
#
# number of rings (size 3 to 8) (size 9 to 14) (size 15 to 20)
#    0.000    2.500    0.000    3.000    0.000    5.000 
#    0.000    1.250    0.000    7.500    0.000    0.000 
#    0.000    0.000    0.000    0.000    0.000    0.000 
#
# Total GULP energy -89251.572247 kJ/mol
# GULP energy per Si atom -5578.223265 kJ/mol
# Density = 2.218775 g / cm^3
# Si number density = 22.238370 Si / 1000 Ang^3
#
#
#
# Elastic Constant Matrix: (Units=GPa)
#
#
# Indices 1 2 3 4 5 6 
#
# 1 85.8473 94.4320 10.9939 0.0000 -1.0113 0.0000
# 2 94.4320 308.4825 12.2851 0.0000 9.3335 0.0000
# 3 10.9939 12.2851 44.8268 0.0000 -11.2862 0.0000
# 4 0.0000 0.0000 0.0000 13.7580 0.0000 5.2757
# 5 -1.0113 9.3335 -11.2862 0.0000 15.1255 0.0000
# 6 0.0000 0.0000 0.0000 5.2757 0.0000 40.8497
#
#
#
# Elastic Compliance Matrix: (Units=1/GPa)
#
#
# Indices 1 2 3 4 5 6 
#
# 1 0.018040 -0.005528 -0.002151 0.000000 0.003012 0.000000
# 2 -0.005528 0.005112 -0.001148 0.000000 -0.004381 0.000000
# 3 -0.002151 -0.001148 0.028681 0.000000 0.021966 0.000000
# 4 0.000000 0.000000 0.000000 0.076472 0.000000 -0.009876
# 5 0.003012 -0.004381 0.021966 0.000000 0.085408 0.000000
# 6 0.000000 0.000000 0.000000 -0.009876 0.000000 0.025755
#
#
# Mechanical properties :
#
#
# Convention : Reuss Voigt Hill
#
# Bulk Modulus (GPa) = 29.25810 74.95320 52.10565
# Shear Modulus (GPa) = 18.62081 35.37633 26.99857
#
# Velocity S-wave (km/s) = 2.89680 3.99278 3.48811
# Velocity P-wave (km/s) = 4.93698 7.41849 6.30110
#
# Compressibility (1/GPa) = 0.03417857
#
# Stress axis : x y z
#
# Youngs Moduli (GPa) = 55.43157 195.61224 34.86662
#
# Poissons Ratio (x) = 1.08133 0.07500
# Poissons Ratio (y) = 0.30642 0.04004
# Poissons Ratio (z) = 0.11924 0.22462
#
# Static dielectric constant tensor:
#      x y z
#    x 1.775340 0.000000 -0.021220 
#    y 0.000000 1.946330 0.000000 
#    z -0.021220 0.000000 1.857180 
# 
# From -- ./inp_files/16857.got.cif
#   From: 2010.05.17/outbox.cif.g08.bks.cpg/sg10_9_cif.got.tgz:16857.got - 2010.06.03 11:33:40.
