data_PCOD9149566
_publ_section_title
;
Structure prediction by ZEFSAII (Michael W. Deem and Ramdas Pophale) SiO2 
 PCOD9149566
Probable space group: P 2/M
;
_chemical_formula_sum "Si O2"
_cell_formula_units_Z 24
_cell_length_a 16.286322
_cell_length_b 7.847604
_cell_length_c 13.872984
_cell_angle_alpha 90.000000
_cell_angle_beta 49.680237
_cell_angle_gamma 90.000000
_cell_volume 1351.881453
_symmetry_space_group_name_H-M "P 2/M"
_symmetry_group_IT_number 10
_symmetry_cell_setting 'monoclinic'
loop_
_space_group_symop_operation_xyz
x,y,z
-x,y,-z
-x,-y,-z
x,-y,z
loop_
_atom_site_type_symbol
_atom_site_label
_atom_site_fract_x
_atom_site_fract_y
_atom_site_fract_z
Si Si1 0.658743 0.193698 0.745349
Si Si2 0.222270 0.693925 0.162075
Si Si3 0.327208 0.500000 0.580069
Si Si4 0.221975 0.795510 0.544958
Si Si5 0.422127 0.305367 0.896626
Si Si6 0.561882 0.500000 0.302690
Si Si7 0.992562 0.198856 0.397450
O O1 0.719402 0.303823 0.778420
O O2 0.699858 0.230291 0.606732
O O3 0.530557 0.213444 0.845557
O O4 0.690054 0.000000 0.744116
O O5 0.199579 0.500000 0.149263
O O6 0.108256 0.784064 0.260364
O O7 0.311603 0.768727 0.021596
O O8 0.263597 0.669645 0.595918
O O9 0.441368 0.500000 0.436125
O O10 0.357286 0.500000 0.669607
O O11 0.104769 0.737973 0.594930
O O12 0.222207 0.000000 0.568068
O O13 0.429808 0.500000 0.931213
O O14 0.422141 0.339714 0.781873
O O15 0.000000 0.275297 0.500000
O O16 0.965063 0.000000 0.431897
#
# Coordination Sequence:
#
# PCOD9149566 Si02
#       7
#     4   4   2   4   4   2   4
#     4  11  20  32  50  78 114 150 179 212 266 329
#     4  11  22  31  51  77 109 151 183 215 260 328
#     4  11  20  38  65  81 106 147 182 227 296 339
#     4  10  21  35  55  84 116 143 180 230 273 323
#     4   9  19  37  51  73 111 137 180 226 269 317
#     4   9  20  38  59  82 104 136 180 235 285 329
#     4  10  20  35  51  74 112 148 182 225 260 309
#
# _framework density 17.753036000000002
#
# number of rings (size 3 to 8) (size 9 to 14) (size 15 to 20)
#    0.500    1.333    3.333    1.500    2.333    3.667 
#    0.000    2.500    0.000    2.000    0.000    2.333 
#    0.000    0.000    0.000    0.000    0.000    0.000 
#
# Total GULP energy -133758.933635 kJ/mol
# GULP energy per Si atom -5573.288901 kJ/mol
# Density = 1.771263 g / cm^3
# Si number density = 17.753036 Si / 1000 Ang^3
#
#
#
# Elastic Constant Matrix: (Units=GPa)
#
#
# Indices 1 2 3 4 5 6 
#
# 1 110.3502 28.4736 27.3450 0.0000 -16.3255 0.0000
# 2 28.4736 39.9302 0.7966 0.0000 -0.3002 0.0000
# 3 27.3450 0.7966 70.3543 0.0000 -23.1555 0.0000
# 4 0.0000 0.0000 0.0000 18.3159 0.0000 -8.9860
# 5 -16.3255 -0.3002 -23.1555 0.0000 23.8865 0.0000
# 6 0.0000 0.0000 0.0000 -8.9860 0.0000 17.8523
#
#
#
# Elastic Compliance Matrix: (Units=1/GPa)
#
#
# Indices 1 2 3 4 5 6 
#
# 1 0.013059 -0.009207 -0.003043 0.000000 0.005860 0.000000
# 2 -0.009207 0.031541 0.001881 0.000000 -0.004073 0.000000
# 3 -0.003043 0.001881 0.021585 0.000000 0.018869 0.000000
# 4 0.000000 0.000000 0.000000 0.072502 0.000000 0.036494
# 5 0.005860 -0.004073 0.018869 0.000000 0.064110 0.000000
# 6 0.000000 0.000000 0.000000 0.036494 0.000000 0.074385
#
#
# Mechanical properties :
#
#
# Convention : Reuss Voigt Hill
#
# Bulk Modulus (GPa) = 22.00360 37.09614 29.54987
# Shear Modulus (GPa) = 15.97095 22.94558 19.45826
#
# Velocity S-wave (km/s) = 3.00262 3.59902 3.31426
# Velocity P-wave (km/s) = 4.94390 6.18155 5.59704
#
# Compressibility (1/GPa) = 0.04544710
#
# Stress axis : x y z
#
# Youngs Moduli (GPa) = 76.57741 31.70472 46.32773
#
# Poissons Ratio (x) = 0.29191 0.14096
# Poissons Ratio (y) = 0.70506 -0.08714
# Poissons Ratio (z) = 0.23301 -0.05963
#
# Static dielectric constant tensor:
#      x y z
#    x 1.582130 0.000000 -0.004810 
#    y 0.000000 1.639500 0.000000 
#    z -0.004810 0.000000 1.627090 
# 
# From -- ./inp_files/63121.got.cif
#   From: 2010.05.17/outbox.cif.g08.bks.cpg/sg10_32_cif.got.tgz:63121.got - 2010.06.03 11:33:40.
