data_PCOD9149508
_publ_section_title
;
Structure prediction by ZEFSAII (Michael W. Deem and Ramdas Pophale) SiO2 
 PCOD9149508
Probable space group: P 2/M
;
_chemical_formula_sum "Si O2"
_cell_formula_units_Z 20
_cell_length_a 8.049680
_cell_length_b 10.761188
_cell_length_c 16.279501
_cell_angle_alpha 90.000000
_cell_angle_beta 135.225047
_cell_angle_gamma 90.000000
_cell_volume 993.235838
_symmetry_space_group_name_H-M "P 2/M"
_symmetry_group_IT_number 10
_symmetry_cell_setting 'monoclinic'
loop_
_space_group_symop_operation_xyz
x,y,z
-x,y,-z
-x,-y,-z
x,-y,z
loop_
_atom_site_type_symbol
_atom_site_label
_atom_site_fract_x
_atom_site_fract_y
_atom_site_fract_z
Si Si1 0.527092 0.500000 0.795058
Si Si2 0.000000 0.285350 0.500000
Si Si3 0.858818 0.500000 0.756350
Si Si4 0.272853 0.859781 0.733255
Si Si5 0.057021 0.500000 0.403299
Si Si6 0.249451 0.292645 0.893578
Si Si7 0.267805 0.236161 0.071403
O O1 0.637034 0.500000 0.740612
O O2 0.237811 0.500000 0.702666
O O3 0.631841 0.375476 0.873720
O O4 0.159493 0.201147 0.613596
O O5 0.874394 0.379402 0.519726
O O6 0.830727 0.500000 0.647449
O O7 0.028139 0.381470 0.831298
O O8 0.228373 0.773023 0.798066
O O9 0.553562 0.853139 0.819918
O O10 0.191376 0.000000 0.718003
O O11 0.500000 0.361018 0.000000
O O12 0.268440 0.198359 0.975808
O O13 0.000000 0.233541 0.000000
#
# Coordination Sequence:
#
# PCOD9149508 Si02
#       7
#     2   2   2   4   2   4   4
#     4  12  21  38  65 101 136 160 205 252 332 402
#     4  11  21  42  66  86 125 159 218 276 316 367
#     4  12  19  36  64  94 133 167 193 258 334 384
#     4  11  24  41  64  86 116 176 223 258 312 365
#     4  11  22  39  65  99 127 163 206 270 320 385
#     4  10  20  34  57  90 126 157 206 257 306 384
#     4  11  21  37  60  94 132 157 199 258 316 387
#
# _framework density 20.136203999999999
#
# number of rings (size 3 to 8) (size 9 to 14) (size 15 to 20)
#    0.000    1.000    6.000    2.700    0.000    4.000 
#    0.000    2.000    4.400    0.000    0.000    5.600 
#    0.000    0.000    0.000    0.000    0.000    0.000 
#
# Total GULP energy -111444.370728 kJ/mol
# GULP energy per Si atom -5572.218536 kJ/mol
# Density = 2.009037 g / cm^3
# Si number density = 20.136204 Si / 1000 Ang^3
#
#
#
# Elastic Constant Matrix: (Units=GPa)
#
#
# Indices 1 2 3 4 5 6 
#
# 1 111.9072 26.4072 51.4013 0.0000 -20.4864 0.0000
# 2 26.4072 84.2391 47.0098 0.0000 -4.5858 0.0000
# 3 51.4013 47.0098 142.7827 0.0000 -28.2254 0.0000
# 4 0.0000 0.0000 0.0000 -69.2561 0.0000 7.2276
# 5 -20.4864 -4.5858 -28.2254 0.0000 35.8554 0.0000
# 6 0.0000 0.0000 0.0000 7.2276 0.0000 -1.4161
#
#
#
# Elastic Compliance Matrix: (Units=1/GPa)
#
#
# Indices 1 2 3 4 5 6 
#
# 1 0.011354 -0.001851 -0.002656 0.000000 0.004160 0.000000
# 2 -0.001851 0.015001 -0.004859 0.000000 -0.002964 0.000000
# 3 -0.002656 -0.004859 0.010820 0.000000 0.006379 0.000000
# 4 0.000000 0.000000 0.000000 -0.030895 0.000000 -0.157686
# 5 0.004160 -0.002964 0.006379 0.000000 0.034909 0.000000
# 6 0.000000 0.000000 0.000000 -0.157686 0.000000 -1.510968
#
#
# Mechanical properties :
#
#
# Convention : Reuss Voigt Hill
#
# Bulk Modulus (GPa) = 54.21382 65.39619 59.80501
# Shear Modulus (GPa) = -3.46045 7.31068 1.92512
#
# Velocity S-wave (km/s) = -1.31235 1.90748 0.97884
# Velocity P-wave (km/s) = 4.96847 6.11545 5.57155
#
# Compressibility (1/GPa) = 0.01844548
#
# Stress axis : x y z
#
# Youngs Moduli (GPa) = 88.07385 66.66165 92.41857
#
# Poissons Ratio (x) = 0.12338 0.24544
# Poissons Ratio (y) = 0.16301 0.44902
# Poissons Ratio (z) = 0.23390 0.32388
#
# Static dielectric constant tensor:
#      x y z
#    x 1.804130 0.000000 -0.001940 
#    y 0.000000 1.730130 0.000000 
#    z -0.001940 0.000000 1.739800 
# 
# From -- ./inp_files/74917.got.cif
#   From: 2010.05.17/outbox.cif.g08.bks.cpg/sg10_38_cif.got.tgz:74917.got - 2010.06.03 11:33:40.
