data_PCOD9149045
_publ_section_title
;
Structure prediction by ZEFSAII (Michael W. Deem and Ramdas Pophale) SiO2 
 PCOD9149045
Probable space group: P 2/M
;
_chemical_formula_sum "Si O2"
_cell_formula_units_Z 24
_cell_length_a 16.838234
_cell_length_b 13.898987
_cell_length_c 9.965930
_cell_angle_alpha 90.000000
_cell_angle_beta 151.870850
_cell_angle_gamma 90.000000
_cell_volume 1099.620783
_symmetry_space_group_name_H-M "P 2/M"
_symmetry_group_IT_number 10
_symmetry_cell_setting 'monoclinic'
loop_
_space_group_symop_operation_xyz
x,y,z
-x,y,-z
-x,-y,-z
x,-y,z
loop_
_atom_site_type_symbol
_atom_site_label
_atom_site_fract_x
_atom_site_fract_y
_atom_site_fract_z
Si Si1 0.733657 0.891669 0.823176
Si Si2 0.888576 0.105325 0.518020
Si Si3 0.665931 0.316123 0.817830
Si Si4 0.394009 0.890688 0.672263
Si Si5 0.970389 0.611685 0.618463
Si Si6 0.690116 0.262475 0.134878
O O1 0.661651 0.799799 0.792744
O O2 0.684339 0.882215 0.593209
O O3 0.683286 0.000000 0.792929
O O4 0.932231 0.884438 0.145508
O O5 0.752097 0.114549 0.434270
O O6 0.834921 0.182110 0.327765
O O7 0.876954 0.000000 0.440671
O O8 0.500000 0.356813 0.500000
O O9 0.650799 0.332139 0.953409
O O10 0.852914 0.350872 0.055258
O O11 0.467476 0.000000 0.791194
O O12 0.524995 0.805048 0.897300
O O13 0.948839 0.500000 0.617760
O O14 0.799934 0.671113 0.400506
O O15 0.000000 0.620153 0.500000
#
# Coordination Sequence:
#
# PCOD9149045 Si02
#       6
#     4   4   4   4   4   4
#     4  10  20  34  52  78 113 150 181 215 260 310
#     4  10  20  34  53  78 109 149 191 219 250 303
#     4  11  21  36  55  80 109 138 177 219 272 327
#     4  10  20  34  53  79 113 150 186 218 248 302
#     4   9  20  38  58  80 105 134 172 225 279 325
#     4  11  20  33  56  79 110 139 175 221 271 319
#
# _framework density 21.825706
#
# number of rings (size 3 to 8) (size 9 to 14) (size 15 to 20)
#    0.000    1.833    3.333    1.500    0.000    5.333 
#    0.000    1.667    0.000    2.000    0.000    1.167 
#    0.000    0.000    0.000    0.000    0.000    0.000 
#
# Total GULP energy -133744.911125 kJ/mol
# GULP energy per Si atom -5572.704630 kJ/mol
# Density = 2.177603 g / cm^3
# Si number density = 21.825706 Si / 1000 Ang^3
#
#
#
# Elastic Constant Matrix: (Units=GPa)
#
#
# Indices 1 2 3 4 5 6 
#
# 1 36.9642 -7.8425 21.1444 0.0000 5.3964 0.0000
# 2 -7.8425 100.2969 44.2065 0.0000 13.8392 0.0000
# 3 21.1444 44.2065 196.5785 0.0000 11.1900 0.0000
# 4 0.0000 0.0000 0.0000 5.5946 0.0000 16.4732
# 5 5.3964 13.8392 11.1900 0.0000 37.9434 0.0000
# 6 0.0000 0.0000 0.0000 16.4732 0.0000 6.5616
#
#
#
# Elastic Compliance Matrix: (Units=1/GPa)
#
#
# Indices 1 2 3 4 5 6 
#
# 1 0.031245 0.004986 -0.004196 0.000000 -0.005025 0.000000
# 2 0.004986 0.012301 -0.003058 0.000000 -0.004294 0.000000
# 3 -0.004196 -0.003058 0.006233 0.000000 -0.000126 0.000000
# 4 0.000000 0.000000 0.000000 -0.027962 0.000000 0.070201
# 5 -0.005025 -0.004294 -0.000126 0.000000 0.028673 0.000000
# 6 0.000000 0.000000 0.000000 0.070201 0.000000 -0.023842
#
#
# Mechanical properties :
#
#
# Convention : Reuss Voigt Hill
#
# Bulk Modulus (GPa) = 22.10326 49.87294 35.98810
# Shear Modulus (GPa) = 108.07474 28.44200 68.25837
#
# Velocity S-wave (km/s) = 7.04448 3.61382 5.59841
# Velocity P-wave (km/s) = 8.73587 6.34926 7.63638
#
# Compressibility (1/GPa) = 0.04524219
#
# Stress axis : x y z
#
# Youngs Moduli (GPa) = 32.00543 81.29730 160.43086
#
# Poissons Ratio (x) = -0.40533 0.67316
# Poissons Ratio (y) = -0.15957 0.49060
# Poissons Ratio (z) = 0.13429 0.24861
#
# Static dielectric constant tensor:
#      x y z
#    x 1.874580 0.000000 -0.001680 
#    y 0.000000 1.817090 0.000000 
#    z -0.001680 0.000000 1.847470 
# 
# From -- ./inp_files/24691.got.cif
#   From: 2010.05.17/outbox.cif.g08.bks.cpg/sg10_13_cif.got.tgz:24691.got - 2010.06.03 11:33:40.
