data_PCOD9149365
_publ_section_title
;
Structure prediction by ZEFSAII (Michael W. Deem and Ramdas Pophale) SiO2 
 PCOD9149365
Probable space group: P 2/M
;
_chemical_formula_sum "Si O2"
_cell_formula_units_Z 20
_cell_length_a 19.567031
_cell_length_b 7.540665
_cell_length_c 7.910582
_cell_angle_alpha 90.000000
_cell_angle_beta 49.912187
_cell_angle_gamma 90.000000
_cell_volume 892.971503
_symmetry_space_group_name_H-M "P 2/M"
_symmetry_group_IT_number 10
_symmetry_cell_setting 'monoclinic'
loop_
_space_group_symop_operation_xyz
x,y,z
-x,y,-z
-x,-y,-z
x,-y,z
loop_
_atom_site_type_symbol
_atom_site_label
_atom_site_fract_x
_atom_site_fract_y
_atom_site_fract_z
Si Si1 0.904749 0.206098 0.100273
Si Si2 0.595642 0.715092 0.777694
Si Si3 0.212782 0.211606 0.019632
Si Si4 0.783665 0.288446 0.610015
Si Si5 0.403041 0.794181 0.614370
O O1 0.852497 0.283202 0.021938
O O2 0.840810 0.213746 0.364659
O O3 0.922310 0.000000 0.028647
O O4 0.000000 0.286719 0.000000
O O5 0.594214 0.500000 0.773951
O O6 0.680560 0.770763 0.753594
O O7 0.609657 0.783267 0.566193
O O8 0.500000 0.774785 0.000000
O O9 0.313706 0.285056 0.838597
O O10 0.219891 0.000000 0.978950
O O11 0.181554 0.240723 0.260085
O O12 0.785474 0.500000 0.589965
O O13 0.500000 0.712917 0.500000
O O14 0.407828 0.000000 0.662021
#
# Coordination Sequence:
#
# PCOD9149365 Si02
#       5
#     4   4   4   4   4
#     4  10  22  42  66  88 114 154 201 247 296 350
#     4  10  21  36  54  81 118 159 198 234 284 350
#     4  10  21  38  60  86 118 154 194 243 295 350
#     4  11  23  38  60  89 121 157 196 243 296 350
#     4  10  20  34  55  85 116 150 195 244 292 340
#
# _framework density 22.397131999999999
#
# number of rings (size 3 to 8) (size 9 to 14) (size 15 to 20)
#    0.000    1.800    2.000    1.800    0.000    4.400 
#    0.000    4.000    0.000    0.000    0.000    0.000 
#    0.000    0.000    0.000    0.000    0.000    0.000 
#
# Total GULP energy -111768.918365 kJ/mol
# GULP energy per Si atom -5588.445918 kJ/mol
# Density = 2.234616 g / cm^3
# Si number density = 22.397132 Si / 1000 Ang^3
#
#
#
# Elastic Constant Matrix: (Units=GPa)
#
#
# Indices 1 2 3 4 5 6 
#
# 1 182.1840 0.6737 55.9273 0.0000 -0.7100 0.0000
# 2 0.6737 57.5375 -18.4531 0.0000 -14.4532 0.0000
# 3 55.9273 -18.4531 60.2029 0.0000 3.0337 0.0000
# 4 0.0000 0.0000 0.0000 22.5437 0.0000 1.8945
# 5 -0.7100 -14.4532 3.0337 0.0000 43.8762 0.0000
# 6 0.0000 0.0000 0.0000 1.8945 0.0000 -25.6168
#
#
#
# Elastic Compliance Matrix: (Units=1/GPa)
#
#
# Indices 1 2 3 4 5 6 
#
# 1 0.008059 -0.002826 -0.008342 0.000000 -0.000224 0.000000
# 2 -0.002826 0.021956 0.009024 0.000000 0.006563 0.000000
# 3 -0.008342 0.009024 0.027077 0.000000 0.000965 0.000000
# 4 0.000000 0.000000 0.000000 0.044084 0.000000 0.003260
# 5 -0.000224 0.006563 0.000965 0.000000 0.024883 0.000000
# 6 0.000000 0.000000 0.000000 0.003260 0.000000 -0.038796
#
#
# Mechanical properties :
#
#
# Convention : Reuss Voigt Hill
#
# Bulk Modulus (GPa) = 18.93741 41.80225 30.36983
# Shear Modulus (GPa) = 45.80736 25.61239 35.70988
#
# Velocity S-wave (km/s) = 4.52733 3.38532 3.99732
# Velocity P-wave (km/s) = 5.98353 5.82968 5.90710
#
# Compressibility (1/GPa) = 0.05280554
#
# Stress axis : x y z
#
# Youngs Moduli (GPa) = 124.07940 45.54603 36.93114
#
# Poissons Ratio (x) = 0.12871 0.30808
# Poissons Ratio (y) = 0.35064 -0.33328
# Poissons Ratio (z) = 1.03506 -0.41102
#
# Static dielectric constant tensor:
#      x y z
#    x 1.845250 0.000000 -0.038500 
#    y 0.000000 1.863050 0.000000 
#    z -0.038500 0.000000 1.786380 
# 
# From -- ./inp_files/8972.got.cif
#   From: 2010.05.17/outbox.cif.g08.bks.cpg/sg10_5_cif.got.tgz:8972.got - 2010.06.03 11:33:40.
