data_PCOD9149104
_publ_section_title
;
Structure prediction by ZEFSAII (Michael W. Deem and Ramdas Pophale) SiO2 
 PCOD9149104
Probable space group: P 2/M
;
_chemical_formula_sum "Si O2"
_cell_formula_units_Z 32
_cell_length_a 9.174447
_cell_length_b 25.521727
_cell_length_c 14.568290
_cell_angle_alpha 90.000000
_cell_angle_beta 154.296435
_cell_angle_gamma 90.000000
_cell_volume 1479.459651
_symmetry_space_group_name_H-M "P 2/M"
_symmetry_group_IT_number 10
_symmetry_cell_setting 'monoclinic'
loop_
_space_group_symop_operation_xyz
x,y,z
-x,y,-z
-x,-y,-z
x,-y,z
loop_
_atom_site_type_symbol
_atom_site_label
_atom_site_fract_x
_atom_site_fract_y
_atom_site_fract_z
Si Si1 0.820191 0.837855 0.495355
Si Si2 0.109152 0.242201 0.804761
Si Si3 0.216655 0.058855 0.758692
Si Si4 0.181048 0.559915 0.505707
Si Si5 0.787756 0.161019 0.741398
Si Si6 0.151082 0.942752 0.984569
Si Si7 0.113372 0.638636 0.808116
Si Si8 0.794072 0.557778 0.747012
O O1 0.415861 0.837947 0.277968
O O2 0.000000 0.831392 0.500000
O O3 0.936433 0.789493 0.624324
O O4 0.962838 0.893072 0.615393
O O5 0.987698 0.301899 0.744386
O O6 0.023595 0.209567 0.848218
O O7 0.500000 0.241669 0.000000
O O8 0.071332 0.000000 0.679937
O O9 0.500000 0.063557 0.000000
O O10 0.446980 0.062484 0.797277
O O11 0.098130 0.500000 0.427139
O O12 0.585140 0.563347 0.722865
O O13 0.000000 0.565638 0.500000
O O14 0.049321 0.605581 0.366125
O O15 0.500000 0.160889 0.500000
O O16 0.988202 0.107348 0.846165
O O17 0.069938 0.000000 0.896604
O O18 0.000000 0.943881 0.000000
O O19 0.035564 0.604604 0.854689
O O20 0.500000 0.641013 0.000000
O O21 0.500000 0.557801 0.500000
O O22 0.953791 0.500000 0.834937
#
# Coordination Sequence:
#
# PCOD9149104 Si02
#       8
#     4   4   4   4   4   4   4   4
#     4  11  22  35  54  80 105 130 169 220 266 305
#     4  10  22  40  56  72 101 140 179 217 262 316
#     4  10  20  35  55  76 103 140 170 198 252 321
#     4   9  18  33  54  81 113 146 174 206 257 313
#     4  10  21  35  54  77 101 133 173 215 260 305
#     4  10  20  34  53  77 104 135 169 205 255 318
#     4  10  20  34  55  79 102 136 181 224 259 298
#     4   8  15  29  51  78 107 141 175 207 251 307
#
# _framework density 21.629518999999998
#
# number of rings (size 3 to 8) (size 9 to 14) (size 15 to 20)
#    0.000    2.250    0.000    4.500    0.000    7.000 
#    0.000    0.625    0.000    5.250    0.000    0.000 
#    0.000    0.000    0.000    0.000    0.000    0.000 
#
# Total GULP energy -178551.046344 kJ/mol
# GULP energy per Si atom -5579.720198 kJ/mol
# Density = 2.158029 g / cm^3
# Si number density = 21.629519 Si / 1000 Ang^3
#
#
#
# Elastic Constant Matrix: (Units=GPa)
#
#
# Indices 1 2 3 4 5 6 
#
# 1 162.9824 74.1027 10.6800 0.0000 24.6967 0.0000
# 2 74.1027 216.4785 42.1837 0.0000 19.7084 0.0000
# 3 10.6800 42.1837 21.2191 0.0000 12.6791 0.0000
# 4 0.0000 0.0000 0.0000 58.1636 0.0000 69.3391
# 5 24.6967 19.7084 12.6791 0.0000 27.8602 0.0000
# 6 0.0000 0.0000 0.0000 69.3391 0.0000 125.0455
#
#
#
# Elastic Compliance Matrix: (Units=1/GPa)
#
#
# Indices 1 2 3 4 5 6 
#
# 1 0.008653 -0.003817 0.008519 0.000000 -0.008848 0.000000
# 2 -0.003817 0.009310 -0.020153 0.000000 0.005969 0.000000
# 3 0.008519 -0.020153 0.108367 0.000000 -0.042612 0.000000
# 4 0.000000 0.000000 0.000000 0.050725 0.000000 -0.028127
# 5 -0.008848 0.005969 -0.042612 0.000000 0.058907 0.000000
# 6 0.000000 0.000000 0.000000 -0.028127 0.000000 0.023594
#
#
# Mechanical properties :
#
#
# Convention : Reuss Voigt Hill
#
# Bulk Modulus (GPa) = 10.47916 72.73475 41.60695
# Shear Modulus (GPa) = 15.51513 60.46144 37.98828
#
# Velocity S-wave (km/s) = 2.68117 5.29281 4.19539
# Velocity P-wave (km/s) = 3.80004 8.42926 6.53807
#
# Compressibility (1/GPa) = 0.09542752
#
# Stress axis : x y z
#
# Youngs Moduli (GPa) = 115.56124 107.41650 9.22794
#
# Poissons Ratio (x) = 0.40997 -0.07861
# Poissons Ratio (y) = 0.44106 0.18597
# Poissons Ratio (z) = -0.98446 2.16480
#
# Static dielectric constant tensor:
#      x y z
#    x 1.912430 0.000000 -0.009420 
#    y 0.000000 1.761650 0.000000 
#    z -0.009420 0.000000 1.843390 
# 
# From -- ./inp_files/62706.got.cif
#   From: 2010.05.17/outbox.cif.g08.bks.cpg/sg10_32_cif.got.tgz:62706.got - 2010.06.03 11:33:40.
