data_PCOD9149054
_publ_section_title
;
Structure prediction by ZEFSAII (Michael W. Deem and Ramdas Pophale) SiO2 
 PCOD9149054
Probable space group: P 2/M
;
_chemical_formula_sum "Si O2"
_cell_formula_units_Z 28
_cell_length_a 8.521410
_cell_length_b 16.253693
_cell_length_c 11.765399
_cell_angle_alpha 90.000000
_cell_angle_beta 117.071710
_cell_angle_gamma 90.000000
_cell_volume 1451.020926
_symmetry_space_group_name_H-M "P 2/M"
_symmetry_group_IT_number 10
_symmetry_cell_setting 'monoclinic'
loop_
_space_group_symop_operation_xyz
x,y,z
-x,y,-z
-x,-y,-z
x,-y,z
loop_
_atom_site_type_symbol
_atom_site_label
_atom_site_fract_x
_atom_site_fract_y
_atom_site_fract_z
Si Si1 0.116956 0.165864 0.139869
Si Si2 0.532566 0.409497 0.295357
Si Si3 0.203784 0.594399 0.832783
Si Si4 0.293255 0.244778 0.587272
Si Si5 0.204868 0.343078 0.072214
Si Si6 0.465437 0.908915 0.352878
Si Si7 0.996349 0.258564 0.311377
O O1 0.204275 0.248518 0.113581
O O2 0.266841 0.110221 0.246282
O O3 0.993296 0.201716 0.199462
O O4 0.000000 0.128014 0.000000
O O5 0.558935 0.500000 0.355570
O O6 0.651172 0.406852 0.219116
O O7 0.600205 0.329962 0.384131
O O8 0.330677 0.394910 0.194775
O O9 0.163439 0.500000 0.848035
O O10 0.034936 0.646896 0.735707
O O11 0.271617 0.641860 0.966324
O O12 0.417500 0.167386 0.647814
O O13 0.178682 0.240496 0.434998
O O14 0.156770 0.245040 0.647166
O O15 0.000000 0.368791 0.000000
O O16 0.500000 0.909669 0.500000
O O17 0.516522 0.000000 0.327636
#
# Coordination Sequence:
#
# PCOD9149054 Si02
#       7
#     4   4   4   4   4   4   4
#     4  11  21  39  62  90 122 157 199 249 306 367
#     4  10  21  35  54  82 117 162 204 247 300 353
#     4  10  20  34  52  81 119 160 210 248 291 357
#     4  10  21  38  64  85 120 160 200 256 289 372
#     4  11  20  33  53  81 112 157 195 253 292 348
#     4  11  23  42  69  95 121 156 198 248 309 371
#     4  10  20  38  58  88 118 161 203 241 311 348
#
# _framework density 19.296756999999999
#
# number of rings (size 3 to 8) (size 9 to 14) (size 15 to 20)
#    0.000    1.571    5.714    0.857    0.000    3.143 
#    0.000    5.714    0.000    2.143    0.000    0.000 
#    0.000    0.000    0.000    0.000    0.000    0.000 
#
# Total GULP energy -156146.617810 kJ/mol
# GULP energy per Si atom -5576.664922 kJ/mol
# Density = 1.925284 g / cm^3
# Si number density = 19.296757 Si / 1000 Ang^3
#
#
#
# Elastic Constant Matrix: (Units=GPa)
#
#
# Indices 1 2 3 4 5 6 
#
# 1 33.5213 23.3154 25.4870 0.0000 19.5434 0.0000
# 2 23.3154 99.2449 27.9784 0.0000 15.5247 0.0000
# 3 25.4870 27.9784 101.7432 0.0000 14.1446 0.0000
# 4 0.0000 0.0000 0.0000 11.9116 0.0000 3.7459
# 5 19.5434 15.5247 14.1446 0.0000 32.6482 0.0000
# 6 0.0000 0.0000 0.0000 3.7459 0.0000 -7.9551
#
#
#
# Elastic Compliance Matrix: (Units=1/GPa)
#
#
# Indices 1 2 3 4 5 6 
#
# 1 0.056851 -0.006680 -0.008635 0.000000 -0.027114 0.000000
# 2 -0.006680 0.012261 -0.001536 0.000000 -0.001166 0.000000
# 3 -0.008635 -0.001536 0.012337 0.000000 0.000554 0.000000
# 4 0.000000 0.000000 0.000000 0.073123 0.000000 0.034433
# 5 -0.027114 -0.001166 0.000554 0.000000 0.047174 0.000000
# 6 0.000000 0.000000 0.000000 0.034433 0.000000 -0.109492
#
#
# Mechanical properties :
#
#
# Convention : Reuss Voigt Hill
#
# Bulk Modulus (GPa) = 20.94392 43.11901 32.03147
# Shear Modulus (GPa) = 35.24278 17.83619 26.53948
#
# Velocity S-wave (km/s) = 4.27823 3.04355 3.71257
# Velocity P-wave (km/s) = 5.93982 5.89446 5.91718
#
# Compressibility (1/GPa) = 0.04774655
#
# Stress axis : x y z
#
# Youngs Moduli (GPa) = 17.58973 81.56009 81.05635
#
# Poissons Ratio (x) = 0.54485 0.69992
# Poissons Ratio (y) = 0.11750 0.12451
# Poissons Ratio (z) = 0.15189 0.12529
#
# Static dielectric constant tensor:
#      x y z
#    x 1.689450 0.000000 -0.013190 
#    y 0.000000 1.675540 0.000000 
#    z -0.013190 0.000000 1.703770 
# 
# From -- ./inp_files/43054.got.cif
#   From: 2010.05.17/outbox.cif.g08.bks.cpg/sg10_22_cif.got.tgz:43054.got - 2010.06.03 11:33:40.
