data_PCOD9149764
_publ_section_title
;
Structure prediction by ZEFSAII (Michael W. Deem and Ramdas Pophale) SiO2 
 PCOD9149764
Probable space group: P 2/M
;
_chemical_formula_sum "Si O2"
_cell_formula_units_Z 28
_cell_length_a 14.146300
_cell_length_b 7.579890
_cell_length_c 19.190454
_cell_angle_alpha 90.000000
_cell_angle_beta 142.490772
_cell_angle_gamma 90.000000
_cell_volume 1252.937148
_symmetry_space_group_name_H-M "P 2/M"
_symmetry_group_IT_number 10
_symmetry_cell_setting 'monoclinic'
loop_
_space_group_symop_operation_xyz
x,y,z
-x,y,-z
-x,-y,-z
x,-y,z
loop_
_atom_site_type_symbol
_atom_site_label
_atom_site_fract_x
_atom_site_fract_y
_atom_site_fract_z
Si Si1 0.469113 0.212730 0.699759
Si Si2 0.578929 0.290088 0.615969
Si Si3 0.338325 0.215520 0.936822
Si Si4 0.919610 0.296302 0.813857
Si Si5 0.130514 0.784239 0.521725
Si Si6 0.001455 0.213394 0.703180
Si Si7 0.740077 0.791729 0.954482
O O1 0.474132 0.263025 0.621978
O O2 0.307475 0.270813 0.640017
O O3 0.625034 0.280557 0.828519
O O4 0.469626 0.000000 0.702170
O O5 0.500000 0.217675 0.500000
O O6 0.599190 0.500000 0.616843
O O7 0.751348 0.215644 0.731295
O O8 0.310602 0.278269 0.999443
O O9 0.342854 0.000000 0.940553
O O10 0.500000 0.277127 0.000000
O O11 0.183135 0.262981 0.804148
O O12 0.915936 0.500000 0.831363
O O13 0.941536 0.279739 0.742865
O O14 0.074536 0.226459 0.941483
O O15 0.000000 0.725016 0.500000
O O16 0.087173 0.729092 0.417747
O O17 0.127341 0.000000 0.520873
O O18 0.992578 0.000000 0.701836
O O19 0.710915 0.000000 0.939463
#
# Coordination Sequence:
#
# PCOD9149764 Si02
#       7
#     4   4   4   4   4   4   4
#     4  10  21  35  54  82 112 141 174 220 269 313
#     4  10  22  39  58  79 104 139 181 221 265 320
#     4   8  14  24  44  71  97 132 174 210 245 296
#     4  10  20  35  56  78 102 137 179 222 266 313
#     4   9  18  31  51  81 112 139 173 218 264 313
#     4   9  17  30  50  77 106 137 172 215 264 311
#     4   9  19  34  51  77 111 141 175 216 264 318
#
# _framework density 22.347490000000001
#
# number of rings (size 3 to 8) (size 9 to 14) (size 15 to 20)
#    0.000    2.714    0.000    2.143    2.000    2.571 
#    0.000    2.857    0.000    8.571    0.000    0.000 
#    0.000    0.000    0.000    0.000    0.000    0.000 
#
# Total GULP energy -156283.726002 kJ/mol
# GULP energy per Si atom -5581.561643 kJ/mol
# Density = 2.229663 g / cm^3
# Si number density = 22.347490 Si / 1000 Ang^3
#
#
#
# Elastic Constant Matrix: (Units=GPa)
#
#
# Indices 1 2 3 4 5 6 
#
# 1 76.5853 -12.0839 49.3414 0.0000 23.6422 0.0000
# 2 -12.0839 38.6131 1.4619 0.0000 -2.8796 0.0000
# 3 49.3414 1.4619 137.0028 0.0000 4.0254 0.0000
# 4 0.0000 0.0000 0.0000 7.9319 0.0000 8.8093
# 5 23.6422 -2.8796 4.0254 0.0000 36.3711 0.0000
# 6 0.0000 0.0000 0.0000 8.8093 0.0000 10.1978
#
#
#
# Elastic Compliance Matrix: (Units=1/GPa)
#
#
# Indices 1 2 3 4 5 6 
#
# 1 0.023709 0.006688 -0.008200 0.000000 -0.013975 0.000000
# 2 0.006688 0.027954 -0.002653 0.000000 -0.001841 0.000000
# 3 -0.008200 -0.002653 0.010163 0.000000 0.003995 0.000000
# 4 0.000000 0.000000 0.000000 3.104413 0.000000 -2.681713
# 5 -0.013975 -0.001841 0.003995 0.000000 0.035990 0.000000
# 6 0.000000 0.000000 0.000000 -2.681713 0.000000 2.414629
#
#
# Mechanical properties :
#
#
# Convention : Reuss Voigt Hill
#
# Bulk Modulus (GPa) = 18.69238 36.62665 27.65952
# Shear Modulus (GPa) = 0.88605 25.13228 13.00917
#
# Velocity S-wave (km/s) = 0.63036 3.35716 2.41536
# Velocity P-wave (km/s) = 2.98536 5.60826 4.49249
#
# Compressibility (1/GPa) = 0.05349773
#
# Stress axis : x y z
#
# Youngs Moduli (GPa) = 42.17727 35.77286 98.39471
#
# Poissons Ratio (x) = -0.23925 0.80681
# Poissons Ratio (y) = -0.28208 0.26103
# Poissons Ratio (z) = 0.34584 0.09490
#
# Static dielectric constant tensor:
#      x y z
#    x 1.780900 0.000000 0.018950 
#    y 0.000000 1.847800 0.000000 
#    z 0.018950 0.000000 1.854290 
# 
# From -- ./inp_files/70304.got.cif
#   From: 2010.05.17/outbox.cif.g08.bks.cpg/sg10_36_cif.got.tgz:70304.got - 2010.06.03 11:33:40.
