data_PCOD9149225
_publ_section_title
;
Structure prediction by ZEFSAII (Michael W. Deem and Ramdas Pophale) SiO2 
 PCOD9149225
Probable space group: P 2/M
;
_chemical_formula_sum "Si O2"
_cell_formula_units_Z 28
_cell_length_a 7.968519
_cell_length_b 20.109907
_cell_length_c 14.525585
_cell_angle_alpha 90.000000
_cell_angle_beta 34.626098
_cell_angle_gamma 90.000000
_cell_volume 1322.625127
_symmetry_space_group_name_H-M "P 2/M"
_symmetry_group_IT_number 10
_symmetry_cell_setting 'monoclinic'
loop_
_space_group_symop_operation_xyz
x,y,z
-x,y,-z
-x,-y,-z
x,-y,z
loop_
_atom_site_type_symbol
_atom_site_label
_atom_site_fract_x
_atom_site_fract_y
_atom_site_fract_z
Si Si1 0.473991 0.713067 0.819077
Si Si2 0.068779 0.286933 0.819077
Si Si3 0.294323 0.077247 1.000000
Si Si4 0.264269 0.427561 0.688786
Si Si5 0.182178 0.848563 0.677434
Si Si6 0.669373 0.572439 0.688786
Si Si7 0.214480 0.848563 0.322566
O O1 0.270980 0.711051 0.819347
O O2 0.603730 0.639396 0.773736
O O3 0.707232 0.771133 0.698805
O O4 0.261088 0.730750 0.000000
O O5 0.075061 0.360604 0.773737
O O6 0.196354 0.228867 0.698805
O O7 0.985977 0.112937 0.164619
O O8 0.247884 0.000000 1.000000
O O9 0.500000 0.080503 0.000000
O O10 0.479833 0.112937 0.835381
O O11 0.500000 0.423636 0.500000
O O12 0.112611 0.500000 0.750356
O O13 0.447005 0.427534 0.701997
O O14 0.500000 0.873043 0.500000
O O15 0.971931 0.854345 0.685379
O O16 0.636322 0.500000 0.750356
O O17 0.000000 0.576363 0.500000
O O18 0.000000 0.873043 0.500000
#
# Coordination Sequence:
#
# PCOD9149225 Si02
#       7
#     4   4   4   4   4   4   4
#     4  10  20  34  54  80 111 146 188 239 286 334
#     4  10  20  34  54  80 111 146 188 239 286 334
#     4   9  20  40  63  87 118 153 188 228 279 339
#     4   9  18  32  49  71 101 140 185 232 282 334
#     4  11  22  38  61  88 117 153 192 233 282 337
#     4   9  18  32  49  71 101 140 185 232 282 334
#     4  11  22  38  61  88 117 153 192 233 282 337
#
# _framework density 21.170020999999998
#
# number of rings (size 3 to 8) (size 9 to 14) (size 15 to 20)
#    0.000    2.143    1.429    1.714    0.000    4.571 
#    0.000    2.857    0.000    6.000    0.000    6.000 
#    0.000    0.000    0.000    0.000    0.000    0.000 
#
# Total GULP energy -156293.426670 kJ/mol
# GULP energy per Si atom -5581.908095 kJ/mol
# Density = 2.112184 g / cm^3
# Si number density = 21.170021 Si / 1000 Ang^3
#
#
#
# Elastic Constant Matrix: (Units=GPa)
#
#
# Indices 1 2 3 4 5 6 
#
# 1 20.1731 8.0208 11.4334 0.0000 -1.0403 0.0000
# 2 8.0208 128.4975 69.0966 0.0000 -1.8519 0.0000
# 3 11.4334 69.0966 142.7020 0.0000 -2.6753 0.0000
# 4 0.0000 0.0000 0.0000 20.6364 0.0000 -0.4995
# 5 -1.0403 -1.8519 -2.6753 0.0000 21.5721 0.0000
# 6 0.0000 0.0000 0.0000 -0.4995 0.0000 4.1728
#
#
#
# Elastic Compliance Matrix: (Units=1/GPa)
#
#
# Indices 1 2 3 4 5 6 
#
# 1 0.052188 -0.001353 -0.003489 0.000000 0.001968 0.000000
# 2 -0.001353 0.010558 -0.005000 0.000000 0.000221 0.000000
# 3 -0.003489 -0.005000 0.009720 0.000000 0.000608 0.000000
# 4 0.000000 0.000000 0.000000 0.048599 0.000000 0.005817
# 5 0.001968 0.000221 0.000608 0.000000 0.046545 0.000000
# 6 0.000000 0.000000 0.000000 0.005817 0.000000 0.240341
#
#
# Mechanical properties :
#
#
# Convention : Reuss Voigt Hill
#
# Bulk Modulus (GPa) = 18.94598 52.05269 35.49933
# Shear Modulus (GPa) = 11.23017 22.79771 17.01394
#
# Velocity S-wave (km/s) = 2.30570 3.28516 2.83800
# Velocity P-wave (km/s) = 4.00715 6.24748 5.24825
#
# Compressibility (1/GPa) = 0.05278165
#
# Stress axis : x y z
#
# Youngs Moduli (GPa) = 19.16151 94.71080 102.88564
#
# Poissons Ratio (x) = 0.12813 0.35900
# Poissons Ratio (y) = 0.02592 0.51442
# Poissons Ratio (z) = 0.06686 0.47354
#
# Static dielectric constant tensor:
#      x y z
#    x 1.752840 0.000000 -0.002340 
#    y 0.000000 1.766500 0.000000 
#    z -0.002340 0.000000 1.829900 
# 
# From -- ./inp_files/30360.got.cif
#   From: 2010.05.17/outbox.cif.g08.bks.cpg/sg10_16_cif.got.tgz:30360.got - 2010.06.03 11:33:40.
