data_PCOD9149227
_publ_section_title
;
Structure prediction by ZEFSAII (Michael W. Deem and Ramdas Pophale) SiO2 
 PCOD9149227
Probable space group: P 2/M
;
_chemical_formula_sum "Si O2"
_cell_formula_units_Z 24
_cell_length_a 14.483734
_cell_length_b 7.612668
_cell_length_c 10.259768
_cell_angle_alpha 90.000000
_cell_angle_beta 91.908681
_cell_angle_gamma 90.000000
_cell_volume 1130.612933
_symmetry_space_group_name_H-M "P 2/M"
_symmetry_group_IT_number 10
_symmetry_cell_setting 'monoclinic'
loop_
_space_group_symop_operation_xyz
x,y,z
-x,y,-z
-x,-y,-z
x,-y,z
loop_
_atom_site_type_symbol
_atom_site_label
_atom_site_fract_x
_atom_site_fract_y
_atom_site_fract_z
Si Si1 0.398052 0.787298 0.042336
Si Si2 0.094866 0.289671 0.849728
Si Si3 0.294485 0.295109 0.296497
Si Si4 0.890618 0.285187 0.849967
Si Si5 0.594893 0.797807 0.451429
Si Si6 0.708862 0.789840 0.214330
O O1 0.367152 0.720908 0.181400
O O2 0.396126 0.000000 0.049240
O O3 0.500000 0.735910 0.000000
O O4 0.326921 0.725336 0.927589
O O5 0.090113 0.500000 0.856527
O O6 0.182594 0.244778 0.766666
O O7 0.992189 0.230427 0.805382
O O8 0.114162 0.227351 0.999022
O O9 0.283012 0.500000 0.328444
O O10 0.197212 0.224926 0.236418
O O11 0.333850 0.203922 0.425909
O O12 0.886762 0.500000 0.850113
O O13 0.500000 0.715180 0.500000
O O14 0.644719 0.719465 0.327284
O O15 0.571559 0.000000 0.414837
O O16 0.698037 0.000000 0.212324
#
# Coordination Sequence:
#
# PCOD9149227 Si02
#       6
#     4   4   4   4   4   4
#     4  10  20  35  55  78 106 142 181 220 269 329
#     4   9  16  32  56  78 107 145 178 213 268 327
#     4  11  21  35  56  84 111 136 178 231 273 312
#     4   8  16  31  53  80 109 143 176 212 266 330
#     4  10  22  41  59  74 105 153 189 216 265 330
#     4  10  20  34  54  81 107 136 183 231 267 312
#
# _framework density 21.227425
#
# number of rings (size 3 to 8) (size 9 to 14) (size 15 to 20)
#    0.000    2.333    1.667    2.500    0.000    4.000 
#    0.000    5.833    0.000    5.000    0.000    0.000 
#    0.000    0.000    0.000    0.000    0.000    0.000 
#
# Total GULP energy -133983.009550 kJ/mol
# GULP energy per Si atom -5582.625398 kJ/mol
# Density = 2.117911 g / cm^3
# Si number density = 21.227425 Si / 1000 Ang^3
#
#
#
# Elastic Constant Matrix: (Units=GPa)
#
#
# Indices 1 2 3 4 5 6 
#
# 1 94.0328 -4.2912 -13.8433 0.0000 -7.9196 0.0000
# 2 -4.2912 44.4120 -8.1037 0.0000 -0.9378 0.0000
# 3 -13.8433 -8.1037 33.7145 0.0000 -10.1394 0.0000
# 4 0.0000 0.0000 0.0000 -8.7826 0.0000 -5.8820
# 5 -7.9196 -0.9378 -10.1394 0.0000 35.6923 0.0000
# 6 0.0000 0.0000 0.0000 -5.8820 0.0000 18.0000
#
#
#
# Elastic Compliance Matrix: (Units=1/GPa)
#
#
# Indices 1 2 3 4 5 6 
#
# 1 0.012194 0.002568 0.007061 0.000000 0.004779 0.000000
# 2 0.002568 0.024285 0.007932 0.000000 0.003461 0.000000
# 3 0.007061 0.007932 0.038270 0.000000 0.012647 0.000000
# 4 0.000000 0.000000 0.000000 -0.093417 0.000000 -0.030527
# 5 0.004779 0.003461 0.012647 0.000000 0.032761 0.000000
# 6 0.000000 0.000000 0.000000 -0.030527 0.000000 0.045580
#
#
# Mechanical properties :
#
#
# Convention : Reuss Voigt Hill
#
# Bulk Modulus (GPa) = 9.10156 13.29811 11.19984
# Shear Modulus (GPa) = 81.73273 22.20844 51.97059
#
# Velocity S-wave (km/s) = 6.21184 3.23803 4.95337
# Velocity P-wave (km/s) = 7.46634 4.50089 6.16459
#
# Compressibility (1/GPa) = 0.10987124
#
# Stress axis : x y z
#
# Youngs Moduli (GPa) = 82.00891 41.17774 26.12992
#
# Poissons Ratio (x) = -0.10572 -0.18451
# Poissons Ratio (y) = -0.21056 -0.20727
# Poissons Ratio (z) = -0.57908 -0.32664
#
# Static dielectric constant tensor:
#      x y z
#    x 1.798220 0.000000 0.004330 
#    y 0.000000 1.805810 0.000000 
#    z 0.004330 0.000000 1.729820 
# 
# From -- ./inp_files/27330.got.cif
#   From: 2010.05.17/outbox.cif.g08.bks.cpg/sg10_14_cif.got.tgz:27330.got - 2010.06.03 11:33:40.
