data_PCOD9149539
_publ_section_title
;
Structure prediction by ZEFSAII (Michael W. Deem and Ramdas Pophale) SiO2 
 PCOD9149539
Probable space group: P 2/M
;
_chemical_formula_sum "Si O2"
_cell_formula_units_Z 28
_cell_length_a 15.192268
_cell_length_b 7.681309
_cell_length_c 21.986701
_cell_angle_alpha 90.000000
_cell_angle_beta 28.395180
_cell_angle_gamma 90.000000
_cell_volume 1220.153007
_symmetry_space_group_name_H-M "P 2/M"
_symmetry_group_IT_number 10
_symmetry_cell_setting 'monoclinic'
loop_
_space_group_symop_operation_xyz
x,y,z
-x,y,-z
-x,-y,-z
x,-y,z
loop_
_atom_site_type_symbol
_atom_site_label
_atom_site_fract_x
_atom_site_fract_y
_atom_site_fract_z
Si Si1 0.238363 0.198380 0.822375
Si Si2 0.965116 0.800320 0.890087
Si Si3 0.544396 0.289040 0.543035
Si Si4 0.305481 0.286825 0.148382
Si Si5 0.949223 0.700522 0.294429
Si Si6 0.197267 0.287875 0.352561
Si Si7 0.585458 0.302158 0.161870
O O1 0.390841 0.202679 0.677217
O O2 0.333999 0.297460 0.819354
O O3 0.206232 0.000000 0.863419
O O4 0.944354 0.266119 0.101755
O O5 0.036018 0.704575 0.787476
O O6 0.865799 0.775595 0.788928
O O7 0.024647 0.000000 0.849042
O O8 0.535746 0.500000 0.556531
O O9 0.750682 0.224975 0.432835
O O10 0.312495 0.500000 0.143674
O O11 0.254174 0.236476 0.248984
O O12 0.500000 0.229501 0.000000
O O13 0.256092 0.208251 0.972925
O O14 0.500000 0.745717 0.500000
O O15 0.944254 0.500000 0.317589
O O16 0.185473 0.500000 0.359910
O O17 0.376334 0.235861 0.283853
O O18 0.000000 0.226532 0.500000
O O19 0.583105 0.500000 0.140261
#
# Coordination Sequence:
#
# PCOD9149539 Si02
#       7
#     4   4   4   4   4   4   4
#     4  11  24  39  57  82 117 159 198 234 285 354
#     4  11  23  39  58  83 119 157 192 233 289 353
#     4  10  20  35  56  85 117 148 190 245 291 335
#     4   9  17  31  54  85 117 147 185 238 294 346
#     4  10  20  34  59  88 115 148 192 240 289 340
#     4   9  19  35  57  87 119 149 189 244 300 350
#     4  11  23  38  62  88 113 148 195 245 292 340
#
# _framework density 22.947944
#
# number of rings (size 3 to 8) (size 9 to 14) (size 15 to 20)
#    0.000    1.857    1.429    2.571    2.000    6.571 
#    0.000    0.000    0.000    6.429    0.000    0.000 
#    0.000    0.000    0.000    0.000    0.000    0.000 
#
# Total GULP energy -156390.019724 kJ/mol
# GULP energy per Si atom -5585.357847 kJ/mol
# Density = 2.289571 g / cm^3
# Si number density = 22.947944 Si / 1000 Ang^3
#
#
#
# Elastic Constant Matrix: (Units=GPa)
#
#
# Indices 1 2 3 4 5 6 
#
# 1 117.0677 5.3733 61.6418 0.0000 -31.8614 0.0000
# 2 5.3733 34.7419 10.2112 0.0000 -6.1355 0.0000
# 3 61.6418 10.2112 180.3434 0.0000 -35.5945 0.0000
# 4 0.0000 0.0000 0.0000 43.7308 0.0000 43.4745
# 5 -31.8614 -6.1355 -35.5945 0.0000 47.6830 0.0000
# 6 0.0000 0.0000 0.0000 43.4745 0.0000 91.9719
#
#
#
# Elastic Compliance Matrix: (Units=1/GPa)
#
#
# Indices 1 2 3 4 5 6 
#
# 1 0.011566 0.000039 -0.002849 0.000000 0.005607 0.000000
# 2 0.000039 0.029633 -0.001095 0.000000 0.003022 0.000000
# 3 -0.002849 -0.001095 0.007245 0.000000 0.003363 0.000000
# 4 0.000000 0.000000 0.000000 0.043139 0.000000 -0.020392
# 5 0.005607 0.003022 0.003363 0.000000 0.027618 0.000000
# 6 0.000000 0.000000 0.000000 -0.020392 0.000000 0.020512
#
#
# Mechanical properties :
#
#
# Convention : Reuss Voigt Hill
#
# Bulk Modulus (GPa) = 24.60991 54.06731 39.33861
# Shear Modulus (GPa) = 31.04280 53.67224 42.35752
#
# Velocity S-wave (km/s) = 3.68196 4.84143 4.30095
# Velocity P-wave (km/s) = 5.36874 7.40707 6.46869
#
# Compressibility (1/GPa) = 0.04063404
#
# Stress axis : x y z
#
# Youngs Moduli (GPa) = 86.45747 33.74602 138.03402
#
# Poissons Ratio (x) = -0.00130 0.39326
# Poissons Ratio (y) = -0.00334 0.15110
# Poissons Ratio (z) = 0.24632 0.03694
#
# Static dielectric constant tensor:
#      x y z
#    x 1.867550 0.000000 -0.019800 
#    y 0.000000 1.836000 0.000000 
#    z -0.019800 0.000000 1.843480 
# 
# From -- ./inp_files/84894.got.cif
#   From: 2010.05.17/outbox.cif.g08.bks.cpg/sg10_43_cif.got.tgz:84894.got - 2010.06.03 11:33:40.
