data_PCOD9149721
_publ_section_title
;
Structure prediction by ZEFSAII (Michael W. Deem and Ramdas Pophale) SiO2 
 PCOD9149721
Probable space group: P 2/M
;
_chemical_formula_sum "Si O2"
_cell_formula_units_Z 28
_cell_length_a 18.171383
_cell_length_b 8.608278
_cell_length_c 15.898060
_cell_angle_alpha 90.000000
_cell_angle_beta 143.886771
_cell_angle_gamma 90.000000
_cell_volume 1465.702834
_symmetry_space_group_name_H-M "P 2/M"
_symmetry_group_IT_number 10
_symmetry_cell_setting 'monoclinic'
loop_
_space_group_symop_operation_xyz
x,y,z
-x,y,-z
-x,-y,-z
x,-y,z
loop_
_atom_site_type_symbol
_atom_site_label
_atom_site_fract_x
_atom_site_fract_y
_atom_site_fract_z
Si Si1 0.684003 0.317764 0.681031
Si Si2 0.506528 0.680419 0.650876
Si Si3 0.954817 0.186323 0.694497
Si Si4 0.363193 0.314001 0.840396
Si Si5 0.936201 0.318614 0.850678
Si Si6 0.676327 0.185431 0.382555
Si Si7 0.897888 0.188015 0.334334
O O1 0.712899 0.500000 0.726179
O O2 0.585438 0.319879 0.514451
O O3 0.631057 0.254696 0.720347
O O4 0.803532 0.241359 0.749688
O O5 0.525147 0.500000 0.693507
O O6 0.436450 0.769968 0.659409
O O7 0.995415 0.240275 0.824263
O O8 0.811328 0.238426 0.543884
O O9 0.044808 0.239004 0.702182
O O10 0.953451 0.000000 0.691048
O O11 0.360920 0.500000 0.843820
O O12 0.346414 0.261432 0.728656
O O13 0.240773 0.250071 0.775558
O O14 0.500000 0.260894 0.000000
O O15 0.920554 0.500000 0.812769
O O16 0.000000 0.313262 0.000000
O O17 0.682329 0.000000 0.378138
O O18 0.000000 0.233837 0.500000
O O19 0.891846 0.000000 0.330595
#
# Coordination Sequence:
#
# PCOD9149721 Si02
#       7
#     4   4   4   4   4   4   4
#     4   8  15  29  50  75 104 140 181 227 282 331
#     4   9  16  30  53  77 104 141 184 233 282 332
#     4  10  21  37  59  86 116 152 194 244 296 350
#     4  11  25  43  62  89 122 155 195 246 301 356
#     4  10  20  35  55  79 110 151 196 243 294 347
#     4  11  21  36  59  86 115 150 193 240 294 356
#     4  10  20  40  66  92 123 158 198 246 300 363
#
# _framework density 19.103463000000001
#
# number of rings (size 3 to 8) (size 9 to 14) (size 15 to 20)
#    0.000    2.143    2.857    1.714    0.000    2.857 
#    2.571    2.143    0.000    0.000    0.000    0.000 
#    0.000    0.000    0.000    0.000    0.000    0.000 
#
# Total GULP energy -155975.849783 kJ/mol
# GULP energy per Si atom -5570.566064 kJ/mol
# Density = 1.905998 g / cm^3
# Si number density = 19.103463 Si / 1000 Ang^3
#
#
#
# Elastic Constant Matrix: (Units=GPa)
#
#
# Indices 1 2 3 4 5 6 
#
# 1 186.8200 27.8268 45.9263 0.0000 -11.5470 0.0000
# 2 27.8268 22.3481 17.9748 0.0000 -0.2385 0.0000
# 3 45.9263 17.9748 52.5175 0.0000 -1.1637 0.0000
# 4 0.0000 0.0000 0.0000 10.5733 0.0000 12.7472
# 5 -11.5470 -0.2385 -1.1637 0.0000 20.0913 0.0000
# 6 0.0000 0.0000 0.0000 12.7472 0.0000 11.6820
#
#
#
# Elastic Compliance Matrix: (Units=1/GPa)
#
#
# Indices 1 2 3 4 5 6 
#
# 1 0.007578 -0.005705 -0.004585 0.000000 0.004022 0.000000
# 2 -0.005705 0.066043 -0.017693 0.000000 -0.003520 0.000000
# 3 -0.004585 -0.017693 0.029081 0.000000 -0.001161 0.000000
# 4 0.000000 0.000000 0.000000 -0.299729 0.000000 0.327061
# 5 0.004022 -0.003520 -0.001161 0.000000 0.051975 0.000000
# 6 0.000000 0.000000 0.000000 0.327061 0.000000 -0.271284
#
#
# Mechanical properties :
#
#
# Convention : Reuss Voigt Hill
#
# Bulk Modulus (GPa) = 21.39695 49.46016 35.42855
# Shear Modulus (GPa) = -14.50163 19.79982 2.64909
#
# Velocity S-wave (km/s) = -2.75818 3.22289 1.17886
# Velocity P-wave (km/s) = 1.03992 6.30843 4.52093
#
# Compressibility (1/GPa) = 0.04673564
#
# Stress axis : x y z
#
# Youngs Moduli (GPa) = 131.95408 15.14156 34.38649
#
# Poissons Ratio (x) = 0.08639 0.15768
# Poissons Ratio (y) = 0.75282 0.60840
# Poissons Ratio (z) = 0.60507 0.26790
#
# Static dielectric constant tensor:
#      x y z
#    x 1.705910 0.000000 0.042830 
#    y 0.000000 1.657600 0.000000 
#    z 0.042830 0.000000 1.741400 
# 
# From -- ./inp_files/68715.got.cif
#   From: 2010.05.17/outbox.cif.g08.bks.cpg/sg10_35_cif.got.tgz:68715.got - 2010.06.03 11:33:40.
