data_PCOD9149643
_publ_section_title
;
Structure prediction by ZEFSAII (Michael W. Deem and Ramdas Pophale) SiO2 
 PCOD9149643
Probable space group: P 2/M
;
_chemical_formula_sum "Si O2"
_cell_formula_units_Z 32
_cell_length_a 9.961919
_cell_length_b 20.170693
_cell_length_c 11.043838
_cell_angle_alpha 90.000000
_cell_angle_beta 135.985615
_cell_angle_gamma 90.000000
_cell_volume 1541.941895
_symmetry_space_group_name_H-M "P 2/M"
_symmetry_group_IT_number 10
_symmetry_cell_setting 'monoclinic'
loop_
_space_group_symop_operation_xyz
x,y,z
-x,y,-z
-x,-y,-z
x,-y,z
loop_
_atom_site_type_symbol
_atom_site_label
_atom_site_fract_x
_atom_site_fract_y
_atom_site_fract_z
Si Si1 0.789254 0.578906 0.599973
Si Si2 0.329659 0.925727 0.214379
Si Si3 0.176817 0.191757 0.794754
Si Si4 0.888620 0.660937 0.299126
Si Si5 0.474307 0.808660 0.782501
Si Si6 0.769785 0.576656 0.860901
Si Si7 0.017521 0.925923 0.211576
Si Si8 0.544423 0.656555 0.242056
O O1 0.790879 0.500000 0.586291
O O2 0.714650 0.593158 0.686409
O O3 0.657660 0.613465 0.414615
O O4 0.003561 0.607595 0.713505
O O5 0.475591 0.866953 0.277735
O O6 0.214420 0.916306 0.264540
O O7 0.415454 0.000000 0.268129
O O8 0.158884 0.925215 0.001415
O O9 0.090054 0.265313 0.739648
O O10 0.280595 0.179643 0.733794
O O11 0.028005 0.134085 0.729346
O O12 0.348599 0.191503 0.005871
O O13 0.666759 0.651483 0.197185
O O14 0.000000 0.660206 0.500000
O O15 0.461606 0.733781 0.725999
O O16 0.717541 0.500000 0.853566
O O17 0.668304 0.625625 0.889108
O O18 0.000000 0.580539 0.000000
O O19 0.017939 0.000000 0.265748
#
# Coordination Sequence:
#
# PCOD9149643 Si02
#       8
#     4   4   4   4   4   4   4   4
#     4  10  21  38  59  80 103 138 181 217 263 319
#     4   8  14  26  42  66 102 134 169 212 254 303
#     4   9  17  30  46  68 105 133 166 218 261 307
#     4   9  20  35  54  78 102 137 178 221 265 315
#     4   9  18  29  45  73 102 137 171 208 264 312
#     4  10  22  38  55  79 108 137 173 220 265 313
#     4   8  14  25  43  67  96 135 172 208 256 306
#     4  10  20  35  54  78 108 140 174 218 262 318
#
# _framework density 20.753052
#
# number of rings (size 3 to 8) (size 9 to 14) (size 15 to 20)
#    0.000    2.875    0.000    1.500    1.750    5.250 
#    2.250    2.500    0.000    2.625    0.000    2.625 
#    0.000   20.000    0.000    0.000    0.000    0.125 
#
# Total GULP energy -178592.980920 kJ/mol
# GULP energy per Si atom -5581.030654 kJ/mol
# Density = 2.070582 g / cm^3
# Si number density = 20.753052 Si / 1000 Ang^3
#
#
#
# Elastic Constant Matrix: (Units=GPa)
#
#
# Indices 1 2 3 4 5 6 
#
# 1 101.4881 101.3293 4.5383 0.0000 11.3130 0.0000
# 2 101.3293 147.5534 5.1073 0.0000 3.5205 0.0000
# 3 4.5383 5.1073 36.4749 0.0000 2.1332 0.0000
# 4 0.0000 0.0000 0.0000 18.1230 0.0000 2.8353
# 5 11.3130 3.5205 2.1332 0.0000 13.0053 0.0000
# 6 0.0000 0.0000 0.0000 2.8353 0.0000 23.8011
#
#
#
# Elastic Compliance Matrix: (Units=1/GPa)
#
#
# Indices 1 2 3 4 5 6 
#
# 1 0.038797 -0.026018 0.000381 0.000000 -0.026768 0.000000
# 2 -0.026018 0.024296 -0.001114 0.000000 0.016238 0.000000
# 3 0.000381 -0.001114 0.027793 0.000000 -0.004589 0.000000
# 4 0.000000 0.000000 0.000000 0.056226 0.000000 -0.006698
# 5 -0.026768 0.016238 -0.004589 0.000000 0.096534 0.000000
# 6 0.000000 0.000000 0.000000 -0.006698 0.000000 0.042813
#
#
# Mechanical properties :
#
#
# Convention : Reuss Voigt Hill
#
# Bulk Modulus (GPa) = 26.74924 56.38515 41.56720
# Shear Modulus (GPa) = 14.18755 22.62199 18.40477
#
# Velocity S-wave (km/s) = 2.61748 3.30518 2.98123
# Velocity P-wave (km/s) = 4.69598 6.46484 5.65006
#
# Compressibility (1/GPa) = 0.03738424
#
# Stress axis : x y z
#
# Youngs Moduli (GPa) = 25.77502 41.15986 35.98012
#
# Poissons Ratio (x) = 1.07089 -0.01372
# Poissons Ratio (y) = 0.67061 0.04010
# Poissons Ratio (z) = -0.00983 0.04587
#
# Static dielectric constant tensor:
#      x y z
#    x 1.740970 0.000000 0.045260 
#    y 0.000000 1.695950 0.000000 
#    z 0.045260 0.000000 1.871120 
# 
# From -- ./inp_files/43627.got.cif
#   From: 2010.05.17/outbox.cif.g08.bks.cpg/sg10_22_cif.got.tgz:43627.got - 2010.06.03 11:33:40.
