data_PCOD9149661
_publ_section_title
;
Structure prediction by ZEFSAII (Michael W. Deem and Ramdas Pophale) SiO2 
 PCOD9149661
Probable space group: P 2/M
;
_chemical_formula_sum "Si O2"
_cell_formula_units_Z 32
_cell_length_a 28.911220
_cell_length_b 8.892684
_cell_length_c 22.724309
_cell_angle_alpha 90.000000
_cell_angle_beta 161.460626
_cell_angle_gamma 90.000000
_cell_volume 1857.622082
_symmetry_space_group_name_H-M "P 2/M"
_symmetry_group_IT_number 10
_symmetry_cell_setting 'monoclinic'
loop_
_space_group_symop_operation_xyz
x,y,z
-x,y,-z
-x,-y,-z
x,-y,z
loop_
_atom_site_type_symbol
_atom_site_label
_atom_site_fract_x
_atom_site_fract_y
_atom_site_fract_z
Si Si1 0.700781 0.818928 0.794149
Si Si2 0.476177 0.818904 0.903627
Si Si3 0.152043 0.819667 0.473839
Si Si4 0.379665 0.819541 0.437586
Si Si5 0.013975 0.318916 0.420607
Si Si6 0.991430 0.680352 0.813224
Si Si7 0.763778 0.319549 0.205860
Si Si8 0.121335 0.318907 0.193891
O O1 0.549632 0.776461 0.643603
O O2 0.678860 0.781051 0.698550
O O3 0.716464 0.000000 0.816991
O O4 0.843252 0.738955 0.989877
O O5 0.317184 0.773516 0.689246
O O6 0.482972 0.000000 0.911284
O O7 0.500000 0.768521 0.000000
O O8 0.607593 0.755035 0.023549
O O9 0.049881 0.760954 0.403230
O O10 0.100090 0.750001 0.350097
O O11 0.146417 0.000000 0.464395
O O12 0.275727 0.744999 0.359771
O O13 0.372526 0.000000 0.434171
O O14 0.015334 0.500000 0.414817
O O15 0.139481 0.281038 0.619784
O O16 0.861638 0.276437 0.267678
O O17 0.989379 0.500000 0.807340
O O18 0.926823 0.726488 0.798870
O O19 0.749210 0.500000 0.187582
O O20 0.126382 0.500000 0.198072
O O21 0.000000 0.268537 0.000000
#
# Coordination Sequence:
#
# PCOD9149661 Si02
#       8
#     4   4   4   4   4   4   4   4
#     4   9  18  34  54  81 112 141 178 222 269 325
#     4  10  20  35  54  81 113 143 183 231 275 324
#     4  11  23  38  56  79 110 148 185 226 276 331
#     4   9  18  32  55  84 111 139 177 225 271 319
#     4   9  18  34  54  81 112 141 178 222 269 325
#     4  11  23  38  56  79 110 148 185 226 276 331
#     4   9  18  32  55  84 111 139 177 225 271 319
#     4  10  20  35  54  81 113 143 183 231 275 324
#
# _framework density 17.226324000000002
#
# number of rings (size 3 to 8) (size 9 to 14) (size 15 to 20)
#    0.000    2.250    2.500    2.250    0.000    3.500 
#    0.000    3.750    0.000    3.000    0.000    0.000 
#    0.000    0.000    0.000    0.000    0.000    0.000 
#
# Total GULP energy -178552.715241 kJ/mol
# GULP energy per Si atom -5579.772351 kJ/mol
# Density = 1.718712 g / cm^3
# Si number density = 17.226324 Si / 1000 Ang^3
#
#
#
# Elastic Constant Matrix: (Units=GPa)
#
#
# Indices 1 2 3 4 5 6 
#
# 1 140.6182 41.1158 90.7867 0.0000 8.4703 0.0000
# 2 41.1158 23.6845 41.2442 0.0000 -0.8872 0.0000
# 3 90.7867 41.2442 137.9348 0.0000 7.7669 0.0000
# 4 0.0000 0.0000 0.0000 51.5149 0.0000 17.6613
# 5 8.4703 -0.8872 7.7669 0.0000 29.0141 0.0000
# 6 0.0000 0.0000 0.0000 17.6613 0.0000 54.2899
#
#
#
# Elastic Compliance Matrix: (Units=1/GPa)
#
#
# Indices 1 2 3 4 5 6 
#
# 1 0.016196 -0.021140 -0.004098 0.000000 -0.004278 0.000000
# 2 -0.021140 0.118572 -0.022430 0.000000 0.015802 0.000000
# 3 -0.004098 -0.022430 0.016880 0.000000 -0.004008 0.000000
# 4 0.000000 0.000000 0.000000 0.021849 0.000000 -0.007108
# 5 -0.004278 0.015802 -0.004008 0.000000 0.037271 0.000000
# 6 0.000000 0.000000 0.000000 -0.007108 0.000000 0.020732
#
#
# Mechanical properties :
#
#
# Convention : Reuss Voigt Hill
#
# Bulk Modulus (GPa) = 17.75842 72.05898 44.90870
# Shear Modulus (GPa) = 14.46734 35.56982 25.01858
#
# Velocity S-wave (km/s) = 2.90114 4.54899 3.81510
# Velocity P-wave (km/s) = 4.64257 8.33743 6.74782
#
# Compressibility (1/GPa) = 0.05631132
#
# Stress axis : x y z
#
# Youngs Moduli (GPa) = 61.74326 8.43370 59.24260
#
# Poissons Ratio (x) = 0.17829 0.24278
# Poissons Ratio (y) = 1.30524 1.32883
# Poissons Ratio (z) = 0.25303 0.18917
#
# Static dielectric constant tensor:
#      x y z
#    x 1.572280 0.000000 0.004510 
#    y 0.000000 1.574130 0.000000 
#    z 0.004510 0.000000 1.571530 
# 
# From -- ./inp_files/86979.got.cif
#   From: 2010.05.17/outbox.cif.g08.bks.cpg/sg10_44_cif.got.tgz:86979.got - 2010.06.03 11:33:40.
