data_PCOD9149905
_publ_section_title
;
Structure prediction by ZEFSAII (Michael W. Deem and Ramdas Pophale) SiO2 
 PCOD9149905
Probable space group: P 2/M
;
_chemical_formula_sum "Si O2"
_cell_formula_units_Z 32
_cell_length_a 5.220641
_cell_length_b 13.319813
_cell_length_c 23.801311
_cell_angle_alpha 90.000000
_cell_angle_beta 99.501529
_cell_angle_gamma 90.000000
_cell_volume 1632.388739
_symmetry_space_group_name_H-M "P 2/M"
_symmetry_group_IT_number 10
_symmetry_cell_setting 'monoclinic'
loop_
_space_group_symop_operation_xyz
x,y,z
-x,y,-z
-x,-y,-z
x,-y,z
loop_
_atom_site_type_symbol
_atom_site_label
_atom_site_fract_x
_atom_site_fract_y
_atom_site_fract_z
Si Si1 0.641896 0.884601 0.620494
Si Si2 0.724651 0.882872 0.961723
Si Si3 0.124919 0.198532 0.565312
Si Si4 0.160866 0.385262 0.640898
Si Si5 0.501871 0.615391 0.768328
Si Si6 0.014971 0.114656 0.782433
Si Si7 0.536007 0.193251 0.840392
Si Si8 0.172733 0.728182 0.297435
O O1 0.383448 0.868581 0.574658
O O2 0.617743 0.808948 0.672754
O O3 0.902508 0.850462 0.597091
O O4 0.662180 0.000000 0.637966
O O5 0.657111 0.814052 0.906321
O O6 0.736182 0.000000 0.942720
O O7 0.500000 0.875530 0.000000
O O8 0.000000 0.859177 0.000000
O O9 0.214876 0.305611 0.594316
O O10 0.000000 0.210318 0.500000
O O11 0.168158 0.500000 0.623062
O O12 0.327143 0.376811 0.704982
O O13 0.883562 0.347040 0.653849
O O14 0.500043 0.500000 0.785996
O O15 0.455494 0.695971 0.815497
O O16 0.772704 0.654711 0.752286
O O17 0.754555 0.147400 0.806308
O O18 0.041984 0.192172 0.731500
O O19 0.272108 0.128933 0.828732
O O20 0.994359 0.000000 0.763757
#
# Coordination Sequence:
#
# PCOD9149905 Si02
#       8
#     4   4   4   4   4   4   4   4
#     4  11  23  39  61  84 114 152 190 232 285 344
#     4  10  20  35  57  82 114 156 196 231 276 333
#     4  11  24  41  60  86 114 148 197 242 283 345
#     4  10  20  38  60  82 113 149 189 241 296 346
#     4  10  20  37  60  84 114 152 193 239 293 347
#     4  11  21  33  54  83 121 154 182 229 287 342
#     4  11  22  37  56  88 119 151 195 240 281 336
#     4  10  20  36  55  86 116 149 187 235 280 357
#
# _framework density 19.603173000000002
#
# number of rings (size 3 to 8) (size 9 to 14) (size 15 to 20)
#    0.000    1.500    2.500    3.375    0.000    2.750 
#    0.000    3.750    0.000    3.000    0.000    0.000 
#    0.000    0.000    0.000    0.000    0.000    0.000 
#
# Total GULP energy -178373.864920 kJ/mol
# GULP energy per Si atom -5574.183279 kJ/mol
# Density = 1.955855 g / cm^3
# Si number density = 19.603173 Si / 1000 Ang^3
#
#
#
# Elastic Constant Matrix: (Units=GPa)
#
#
# Indices 1 2 3 4 5 6 
#
# 1 74.9249 31.1688 15.2047 0.0000 18.4637 0.0000
# 2 31.1688 150.6126 44.1376 0.0000 10.0907 0.0000
# 3 15.2047 44.1376 96.5670 0.0000 22.2166 0.0000
# 4 0.0000 0.0000 0.0000 20.6038 0.0000 4.1780
# 5 18.4637 10.0907 22.2166 0.0000 30.0680 0.0000
# 6 0.0000 0.0000 0.0000 4.1780 0.0000 13.4955
#
#
#
# Elastic Compliance Matrix: (Units=1/GPa)
#
#
# Indices 1 2 3 4 5 6 
#
# 1 0.016936 -0.003150 0.001111 0.000000 -0.010164 0.000000
# 2 -0.003150 0.008252 -0.003715 0.000000 0.001910 0.000000
# 3 0.001111 -0.003715 0.014155 0.000000 -0.009894 0.000000
# 4 0.000000 0.000000 0.000000 0.051786 0.000000 -0.016032
# 5 -0.010164 0.001910 -0.009894 0.000000 0.046169 0.000000
# 6 0.000000 0.000000 0.000000 -0.016032 0.000000 0.079062
#
#
# Mechanical properties :
#
#
# Convention : Reuss Voigt Hill
#
# Bulk Modulus (GPa) = 35.92445 55.90297 45.91371
# Shear Modulus (GPa) = 21.08406 28.27302 24.67854
#
# Velocity S-wave (km/s) = 3.28311 3.80184 3.55196
# Velocity P-wave (km/s) = 5.72165 6.91746 6.34778
#
# Compressibility (1/GPa) = 0.02783619
#
# Stress axis : x y z
#
# Youngs Moduli (GPa) = 59.04543 121.18029 70.64653
#
# Poissons Ratio (x) = 0.38167 -0.07851
# Poissons Ratio (y) = 0.18597 0.26247
# Poissons Ratio (z) = -0.06562 0.45022
#
# Static dielectric constant tensor:
#      x y z
#    x 1.817990 0.000000 0.009030 
#    y 0.000000 1.662890 0.000000 
#    z 0.009030 0.000000 1.720820 
# 
# From -- ./inp_files/13172.got.cif
#   From: 2010.05.17/outbox.cif.g08.bks.cpg/sg10_7_cif.got.tgz:13172.got - 2010.06.03 11:33:40.
