data_PCOD9149258
_publ_section_title
;
Structure prediction by ZEFSAII (Michael W. Deem and Ramdas Pophale) SiO2 
 PCOD9149258
Probable space group: P 2/M
;
_chemical_formula_sum "Si O2"
_cell_formula_units_Z 28
_cell_length_a 9.167870
_cell_length_b 12.602575
_cell_length_c 18.497442
_cell_angle_alpha 90.000000
_cell_angle_beta 40.342246
_cell_angle_gamma 90.000000
_cell_volume 1383.502242
_symmetry_space_group_name_H-M "P 2/M"
_symmetry_group_IT_number 10
_symmetry_cell_setting 'monoclinic'
loop_
_space_group_symop_operation_xyz
x,y,z
-x,y,-z
-x,-y,-z
x,-y,z
loop_
_atom_site_type_symbol
_atom_site_label
_atom_site_fract_x
_atom_site_fract_y
_atom_site_fract_z
Si Si1 0.751734 0.619128 0.035638
Si Si2 0.031569 0.321746 0.408243
Si Si3 0.683425 0.119926 0.651733
Si Si4 0.447070 0.749698 0.439811
Si Si5 0.204995 0.173527 0.880526
Si Si6 0.257533 0.380783 0.181398
Si Si7 0.083468 0.701350 0.796466
O O1 0.738434 0.500000 0.071132
O O2 0.760774 0.712768 0.091109
O O3 0.523323 0.638289 0.076554
O O4 0.962019 0.626498 0.901451
O O5 0.143053 0.205312 0.380571
O O6 0.194899 0.376557 0.289785
O O7 0.000000 0.369286 0.500000
O O8 0.782656 0.316906 0.468935
O O9 0.614289 0.163447 0.598257
O O10 0.449850 0.123457 0.784576
O O11 0.766468 0.000000 0.618965
O O12 0.500000 0.791532 0.500000
O O13 0.664501 0.683674 0.329018
O O14 0.117795 0.193530 0.831939
O O15 0.000000 0.120291 0.000000
O O16 0.209394 0.500000 0.172691
O O17 0.094858 0.299861 0.201257
#
# Coordination Sequence:
#
# PCOD9149258 Si02
#       7
#     4   4   4   4   4   4   4
#     4  10  20  35  57  85 116 153 198 235 274 336
#     4  10  21  38  60  78 114 152 193 237 282 339
#     4  10  21  38  61  88 111 145 194 240 290 350
#     4  10  20  37  59  81 113 151 187 235 291 344
#     4   9  19  35  58  86 119 151 184 231 293 340
#     4  11  21  35  57  84 113 153 197 233 277 336
#     4  10  20  34  54  82 116 148 186 233 283 329
#
# _framework density 20.238492999999998
#
# number of rings (size 3 to 8) (size 9 to 14) (size 15 to 20)
#    0.000    2.000    2.857    0.857    0.000    7.714 
#    0.000    2.143    0.000    0.000    0.000    2.000 
#    0.000    0.000    0.000    0.000    0.000    0.000 
#
# Total GULP energy -155949.292153 kJ/mol
# GULP energy per Si atom -5569.617577 kJ/mol
# Density = 2.019243 g / cm^3
# Si number density = 20.238493 Si / 1000 Ang^3
#
#
#
# Elastic Constant Matrix: (Units=GPa)
#
#
# Indices 1 2 3 4 5 6 
#
# 1 108.5855 22.8768 34.0184 0.0000 -11.9230 0.0000
# 2 22.8768 70.5796 19.0551 0.0000 -6.6635 0.0000
# 3 34.0184 19.0551 128.4982 0.0000 -27.2422 0.0000
# 4 0.0000 0.0000 0.0000 -6.5041 0.0000 14.9519
# 5 -11.9230 -6.6635 -27.2422 0.0000 41.6123 0.0000
# 6 0.0000 0.0000 0.0000 14.9519 0.0000 -8.1635
#
#
#
# Elastic Compliance Matrix: (Units=1/GPa)
#
#
# Indices 1 2 3 4 5 6 
#
# 1 0.010589 -0.002741 -0.002144 0.000000 0.001191 0.000000
# 2 -0.002741 0.015511 -0.001410 0.000000 0.000775 0.000000
# 3 -0.002144 -0.001410 0.009732 0.000000 0.005531 0.000000
# 4 0.000000 0.000000 0.000000 0.047890 0.000000 0.087713
# 5 0.001191 0.000775 0.005531 0.000000 0.028118 0.000000
# 6 0.000000 0.000000 0.000000 0.087713 0.000000 0.038155
#
#
# Mechanical properties :
#
#
# Convention : Reuss Voigt Hill
#
# Bulk Modulus (GPa) = 43.02772 51.06267 47.04520
# Shear Modulus (GPa) = 29.35452 20.83649 25.09550
#
# Velocity S-wave (km/s) = 3.81258 3.21214 3.52517
# Velocity P-wave (km/s) = 6.37868 6.24839 6.31387
#
# Compressibility (1/GPa) = 0.02324083
#
# Stress axis : x y z
#
# Youngs Moduli (GPa) = 94.43390 64.47165 102.75858
#
# Poissons Ratio (x) = 0.17671 0.22036
# Poissons Ratio (y) = 0.25883 0.14490
# Poissons Ratio (z) = 0.20250 0.09091
#
# Static dielectric constant tensor:
#      x y z
#    x 1.749870 0.000000 0.010550 
#    y 0.000000 1.697650 0.000000 
#    z 0.010550 0.000000 1.771530 
# 
# From -- ./inp_files/42666.got.cif
#   From: 2010.05.17/outbox.cif.g08.bks.cpg/sg10_22_cif.got.tgz:42666.got - 2010.06.03 11:33:40.
