data_PCOD9149679
_publ_section_title
;
Structure prediction by ZEFSAII (Michael W. Deem and Ramdas Pophale) SiO2 
 PCOD9149679
Probable space group: P 2/M
;
_chemical_formula_sum "Si O2"
_cell_formula_units_Z 24
_cell_length_a 17.214673
_cell_length_b 7.607426
_cell_length_c 25.908508
_cell_angle_alpha 90.000000
_cell_angle_beta 161.803880
_cell_angle_gamma 90.000000
_cell_volume 1059.522045
_symmetry_space_group_name_H-M "P 2/M"
_symmetry_group_IT_number 10
_symmetry_cell_setting 'monoclinic'
loop_
_space_group_symop_operation_xyz
x,y,z
-x,y,-z
-x,-y,-z
x,-y,z
loop_
_atom_site_type_symbol
_atom_site_label
_atom_site_fract_x
_atom_site_fract_y
_atom_site_fract_z
Si Si1 0.858704 0.712019 0.064788
Si Si2 0.912063 0.697313 0.497925
Si Si3 0.088987 0.710369 0.790481
Si Si4 0.585014 0.801813 0.150383
Si Si5 0.313993 0.283672 0.544465
Si Si6 0.861842 0.714794 0.860657
O O1 0.844665 0.500000 0.053662
O O2 0.000496 0.758951 0.207812
O O3 0.993133 0.776243 0.098634
O O4 0.579335 0.776095 0.901062
O O5 0.822981 0.500000 0.428224
O O6 0.170320 0.686826 0.693076
O O7 0.000000 0.784273 0.500000
O O8 0.720229 0.775295 0.417845
O O9 0.084554 0.500000 0.784283
O O10 0.912748 0.778764 0.634583
O O11 0.377891 0.763678 0.976293
O O12 0.670359 0.000000 0.199821
O O13 0.308603 0.500000 0.542865
O O14 0.575137 0.232120 0.684461
O O15 0.865186 0.500000 0.861080
O O16 0.000000 0.768405 0.000000
#
# Coordination Sequence:
#
# PCOD9149679 Si02
#       6
#     4   4   4   4   4   4
#     4   8  16  31  53  78 103 135 169 209 263 312
#     4  10  21  35  55  79 107 139 173 213 259 313
#     4   8  16  32  53  78 106 135 171 214 261 312
#     4  10  20  35  55  76 103 140 180 216 258 306
#     4   9  18  31  50  81 110 134 169 216 265 310
#     4   9  17  28  50  82 111 133 166 218 263 308
#
# _framework density 22.651724000000002
#
# number of rings (size 3 to 8) (size 9 to 14) (size 15 to 20)
#    1.000    2.000    0.000    1.000    2.333    1.667 
#    0.000    7.500    0.000    3.500    0.000    0.000 
#    0.000    0.000    0.000    0.000    0.000    0.000 
#
# Total GULP energy -133728.955968 kJ/mol
# GULP energy per Si atom -5572.039832 kJ/mol
# Density = 2.260017 g / cm^3
# Si number density = 22.651724 Si / 1000 Ang^3
#
#
#
# Elastic Constant Matrix: (Units=GPa)
#
#
# Indices 1 2 3 4 5 6 
#
# 1 148.5720 11.0062 10.0368 0.0000 14.5953 0.0000
# 2 11.0062 48.4456 -2.5757 0.0000 -5.3808 0.0000
# 3 10.0368 -2.5757 53.0619 0.0000 1.5266 0.0000
# 4 0.0000 0.0000 0.0000 -206.0556 0.0000 -74.6796
# 5 14.5953 -5.3808 1.5266 0.0000 31.4681 0.0000
# 6 0.0000 0.0000 0.0000 -74.6796 0.0000 -34.0603
#
#
#
# Elastic Compliance Matrix: (Units=1/GPa)
#
#
# Indices 1 2 3 4 5 6 
#
# 1 0.007349 -0.002155 -0.001388 0.000000 -0.003710 0.000000
# 2 -0.002155 0.021718 0.001328 0.000000 0.004649 0.000000
# 3 -0.001388 0.001328 0.019175 0.000000 -0.000059 0.000000
# 4 0.000000 0.000000 0.000000 -0.023632 0.000000 0.051815
# 5 -0.003710 0.004649 -0.000059 0.000000 0.034297 0.000000
# 6 0.000000 0.000000 0.000000 0.051815 0.000000 -0.142968
#
#
# Mechanical properties :
#
#
# Convention : Reuss Voigt Hill
#
# Bulk Modulus (GPa) = 22.82509 31.89046 27.35778
# Shear Modulus (GPa) = -76.89016 -26.28876 -51.58946
#
# Velocity S-wave (km/s) = -5.83251 -3.41040 -4.77750
# Velocity P-wave (km/s) = 5.93794 1.18263 4.28123
#
# Compressibility (1/GPa) = 0.04381143
#
# Stress axis : x y z
#
# Youngs Moduli (GPa) = 136.08057 46.04403 52.15226
#
# Poissons Ratio (x) = 0.09924 0.07238
# Poissons Ratio (y) = 0.29330 -0.06927
# Poissons Ratio (z) = 0.18887 -0.06115
#
# Static dielectric constant tensor:
#      x y z
#    x 1.881310 0.000000 -0.032430 
#    y 0.000000 1.883040 0.000000 
#    z -0.032430 0.000000 1.820830 
# 
# From -- ./inp_files/93386.got.cif
#   From: 2010.05.17/outbox.cif.g08.bks.cpg/sg10_47_cif.got.tgz:93386.got - 2010.06.03 11:33:40.
