data_PCOD9149106
_publ_section_title
;
Structure prediction by ZEFSAII (Michael W. Deem and Ramdas Pophale) SiO2 
 PCOD9149106
Probable space group: P 2/M
;
_chemical_formula_sum "Si O2"
_cell_formula_units_Z 32
_cell_length_a 9.422127
_cell_length_b 14.049093
_cell_length_c 14.001028
_cell_angle_alpha 90.000000
_cell_angle_beta 58.961948
_cell_angle_gamma 90.000000
_cell_volume 1587.995708
_symmetry_space_group_name_H-M "P 2/M"
_symmetry_group_IT_number 10
_symmetry_cell_setting 'monoclinic'
loop_
_space_group_symop_operation_xyz
x,y,z
-x,y,-z
-x,-y,-z
x,-y,z
loop_
_atom_site_type_symbol
_atom_site_label
_atom_site_fract_x
_atom_site_fract_y
_atom_site_fract_z
Si Si1 0.635499 0.731028 0.577456
Si Si2 0.365208 0.887473 0.716128
Si Si3 0.177895 0.115732 0.971687
Si Si4 0.660298 0.386853 0.239672
Si Si5 0.841040 0.255293 0.317150
Si Si6 0.483973 0.386300 0.112749
Si Si7 0.322645 0.890695 0.113124
Si Si8 0.199802 0.735261 0.287706
O O1 0.522967 0.825673 0.629829
O O2 0.509700 0.646081 0.648855
O O3 0.710235 0.723023 0.447036
O O4 0.782184 0.734673 0.604643
O O5 0.315313 0.865908 0.843390
O O6 0.211360 0.847492 0.707018
O O7 0.387734 0.000000 0.697408
O O8 0.173190 0.000000 0.980368
O O9 0.210149 0.150192 0.066930
O O10 0.000000 0.150184 0.000000
O O11 0.684350 0.500000 0.236852
O O12 0.804067 0.328970 0.243771
O O13 0.624018 0.358137 0.141756
O O14 0.019644 0.261341 0.303571
O O15 0.490970 0.500000 0.106131
O O16 0.307010 0.353557 0.213493
O O17 0.500000 0.346990 0.000000
O O18 0.301341 0.825786 0.211879
O O19 0.281110 0.000000 0.150849
O O20 0.500000 0.891635 0.000000
#
# Coordination Sequence:
#
# PCOD9149106 Si02
#       8
#     4   4   4   4   4   4   4   4
#     4  10  22  38  55  78 107 145 191 233 275 323
#     4  10  20  36  56  77 106 146 189 230 276 333
#     4   9  17  30  49  74 103 132 167 218 273 318
#     4   9  19  38  62  84 107 140 182 224 268 321
#     4  11  23  36  54  82 112 142 184 236 280 322
#     4   9  19  38  62  86 114 147 180 215 262 329
#     4  10  20  34  53  77 104 138 181 222 262 318
#     4  11  22  36  55  80 113 147 179 225 284 334
#
# _framework density 20.151188000000001
#
# number of rings (size 3 to 8) (size 9 to 14) (size 15 to 20)
#    0.000    2.125    0.000    3.750    0.000    7.500 
#    0.000    1.875    0.000    8.250    0.000    0.000 
#    0.000    0.000    0.000    0.000    0.000    0.000 
#
# Total GULP energy -178593.263096 kJ/mol
# GULP energy per Si atom -5581.039472 kJ/mol
# Density = 2.010532 g / cm^3
# Si number density = 20.151188 Si / 1000 Ang^3
#
#
#
# Elastic Constant Matrix: (Units=GPa)
#
#
# Indices 1 2 3 4 5 6 
#
# 1 122.4142 27.6161 17.6177 0.0000 6.8756 0.0000
# 2 27.6161 71.8875 5.5056 0.0000 9.8068 0.0000
# 3 17.6177 5.5056 60.1675 0.0000 23.4734 0.0000
# 4 0.0000 0.0000 0.0000 -93.8922 0.0000 -10.0323
# 5 6.8756 9.8068 23.4734 0.0000 31.8837 0.0000
# 6 0.0000 0.0000 0.0000 -10.0323 0.0000 18.2510
#
#
#
# Elastic Compliance Matrix: (Units=1/GPa)
#
#
# Indices 1 2 3 4 5 6 
#
# 1 0.009309 -0.003518 -0.002866 0.000000 0.001185 0.000000
# 2 -0.003518 0.015864 0.001664 0.000000 -0.005346 0.000000
# 3 -0.002866 0.001664 0.024223 0.000000 -0.017728 0.000000
# 4 0.000000 0.000000 0.000000 -0.010060 0.000000 -0.005530
# 5 0.001185 -0.005346 -0.017728 0.000000 0.045804 0.000000
# 6 0.000000 0.000000 0.000000 -0.005530 0.000000 0.051752
#
#
# Mechanical properties :
#
#
# Convention : Reuss Voigt Hill
#
# Bulk Modulus (GPa) = 25.02744 39.54978 32.28861
# Shear Modulus (GPa) = 31.31839 4.83049 18.07444
#
# Velocity S-wave (km/s) = 3.94657 1.54994 2.99815
# Velocity P-wave (km/s) = 5.76316 4.78249 5.29558
#
# Compressibility (1/GPa) = 0.03995615
#
# Stress axis : x y z
#
# Youngs Moduli (GPa) = 107.42782 63.03596 41.28256
#
# Poissons Ratio (x) = 0.22177 0.11831
# Poissons Ratio (y) = 0.37794 -0.06870
# Poissons Ratio (z) = 0.30788 -0.10490
#
# Static dielectric constant tensor:
#      x y z
#    x 1.792860 0.000000 0.011930 
#    y 0.000000 1.701180 0.000000 
#    z 0.011930 0.000000 1.705800 
# 
# From -- ./inp_files/61854.got.cif
#   From: 2010.05.17/outbox.cif.g08.bks.cpg/sg10_31_cif.got.tgz:61854.got - 2010.06.03 11:33:40.
