data_PCOD9149986
_publ_section_title
;
Structure prediction by ZEFSAII (Michael W. Deem and Ramdas Pophale) SiO2 
 PCOD9149986
Probable space group: P 2/M
;
_chemical_formula_sum "Si O2"
_cell_formula_units_Z 22
_cell_length_a 10.795663
_cell_length_b 8.009537
_cell_length_c 14.017371
_cell_angle_alpha 90.000000
_cell_angle_beta 99.795518
_cell_angle_gamma 90.000000
_cell_volume 1194.387377
_symmetry_space_group_name_H-M "P 2/M"
_symmetry_group_IT_number 10
_symmetry_cell_setting 'monoclinic'
loop_
_space_group_symop_operation_xyz
x,y,z
-x,y,-z
-x,-y,-z
x,-y,z
loop_
_atom_site_type_symbol
_atom_site_label
_atom_site_fract_x
_atom_site_fract_y
_atom_site_fract_z
Si Si1 0.983100 0.500000 0.386264
Si Si2 0.774581 0.194278 0.149529
Si Si3 0.297781 0.500000 0.730170
Si Si4 0.469303 0.500000 0.384046
Si Si5 0.383260 0.198402 0.048112
Si Si6 0.044653 0.816271 0.273879
Si Si7 0.708892 0.683811 0.765870
O O1 0.836261 0.500000 0.340512
O O2 0.000000 0.500000 0.500000
O O3 0.042607 0.665651 0.348239
O O4 0.704744 0.332706 0.204948
O O5 0.922790 0.208787 0.190666
O O6 0.737669 0.000000 0.165941
O O7 0.737730 0.225195 0.035119
O O8 0.408270 0.500000 0.667327
O O9 0.500000 0.500000 0.500000
O O10 0.383792 0.656522 0.336492
O O11 0.368385 0.276595 0.149447
O O12 0.399973 0.000000 0.063595
O O13 0.500000 0.260523 0.000000
O O14 0.176545 0.806610 0.236565
O O15 0.030456 0.000000 0.316288
O O16 0.767628 0.500000 0.787663
#
# Coordination Sequence:
#
# PCOD9149986 Si02
#       7
#     2   4   2   2   4   4   4
#     4  10  21  36  61  90 113 145 199 248 299 355
#     4   9  20  36  58  91 122 151 194 234 289 358
#     4  10  20  35  63  81 112 158 184 244 300 338
#     4  10  23  39  60  82 112 157 198 244 305 346
#     4  10  20  35  57  86 121 158 195 241 288 344
#     4  10  20  39  60  85 123 158 193 241 296 349
#     4  10  22  36  58  84 117 151 202 242 283 352
#
# _framework density 18.419484000000001
#
# number of rings (size 3 to 8) (size 9 to 14) (size 15 to 20)
#    0.545    1.636    0.909    1.636    3.818    1.455 
#    0.000    4.545    0.000    2.727    0.000    0.000 
#    0.000    0.000    0.000    0.000    0.000    0.000 
#
# Total GULP energy -122576.602487 kJ/mol
# GULP energy per Si atom -5571.663749 kJ/mol
# Density = 1.837756 g / cm^3
# Si number density = 18.419484 Si / 1000 Ang^3
#
#
#
# Elastic Constant Matrix: (Units=GPa)
#
#
# Indices 1 2 3 4 5 6 
#
# 1 88.0078 28.7499 39.1364 0.0000 -9.0114 0.0000
# 2 28.7499 87.6459 46.8501 0.0000 3.4376 0.0000
# 3 39.1364 46.8501 135.9461 0.0000 4.8138 0.0000
# 4 0.0000 0.0000 0.0000 -7.8903 0.0000 3.8640
# 5 -9.0114 3.4376 4.8138 0.0000 10.7027 0.0000
# 6 0.0000 0.0000 0.0000 3.8640 0.0000 15.7432
#
#
#
# Elastic Compliance Matrix: (Units=1/GPa)
#
#
# Indices 1 2 3 4 5 6 
#
# 1 0.016023 -0.003830 -0.003876 0.000000 0.016465 0.000000
# 2 -0.003830 0.014960 -0.003830 0.000000 -0.006307 0.000000
# 3 -0.003876 -0.003830 0.010023 0.000000 -0.006541 0.000000
# 4 0.000000 0.000000 0.000000 -0.113140 0.000000 0.027769
# 5 0.016465 -0.006307 -0.006541 0.000000 0.112265 0.000000
# 6 0.000000 0.000000 0.000000 0.027769 0.000000 0.056704
#
#
# Mechanical properties :
#
#
# Convention : Reuss Voigt Hill
#
# Bulk Modulus (GPa) = 55.75540 60.11917 57.93728
# Shear Modulus (GPa) = 39.71856 16.83535 28.27695
#
# Velocity S-wave (km/s) = 4.64867 3.02652 3.92237
# Velocity P-wave (km/s) = 7.69084 6.70245 7.21359
#
# Compressibility (1/GPa) = 0.01793548
#
# Stress axis : x y z
#
# Youngs Moduli (GPa) = 62.40933 66.84304 99.76934
#
# Poissons Ratio (x) = 0.25601 0.38670
# Poissons Ratio (y) = 0.23903 0.38209
# Poissons Ratio (z) = 0.24189 0.25599
#
# Static dielectric constant tensor:
#      x y z
#    x 1.660430 0.000000 0.020190 
#    y 0.000000 1.671690 0.000000 
#    z 0.020190 0.000000 1.597800 
# 
# From -- ./inp_files/60385.got.cif
#   From: 2010.05.17/outbox.cif.g08.bks.cpg/sg10_31_cif.got.tgz:60385.got - 2010.06.03 11:33:40.
