data_PCOD9149044
_publ_section_title
;
Structure prediction by ZEFSAII (Michael W. Deem and Ramdas Pophale) SiO2 
 PCOD9149044
Probable space group: P 2/M
;
_chemical_formula_sum "Si O2"
_cell_formula_units_Z 32
_cell_length_a 22.516789
_cell_length_b 14.290568
_cell_length_c 8.741835
_cell_angle_alpha 90.000000
_cell_angle_beta 31.706525
_cell_angle_gamma 90.000000
_cell_volume 1478.386252
_symmetry_space_group_name_H-M "P 2/M"
_symmetry_group_IT_number 10
_symmetry_cell_setting 'monoclinic'
loop_
_space_group_symop_operation_xyz
x,y,z
-x,y,-z
-x,-y,-z
x,-y,z
loop_
_atom_site_type_symbol
_atom_site_label
_atom_site_fract_x
_atom_site_fract_y
_atom_site_fract_z
Si Si1 0.828373 0.890372 0.594529
Si Si2 0.247538 0.598626 0.003532
Si Si3 0.757935 0.727731 0.559180
Si Si4 0.733998 0.888742 0.139535
Si Si5 0.562726 0.677416 0.218238
Si Si6 0.653135 0.278489 0.456524
Si Si7 0.954605 0.784872 0.767559
Si Si8 0.942249 0.609160 0.323192
O O1 0.801411 0.831367 0.501827
O O2 0.754047 0.870100 0.913082
O O3 0.952057 0.854440 0.368015
O O4 0.822423 0.000000 0.581830
O O5 0.240303 0.500000 0.936426
O O6 0.361848 0.601685 0.855445
O O7 0.257559 0.680192 0.860655
O O8 0.141124 0.607814 0.346889
O O9 0.701406 0.715871 0.519326
O O10 0.857082 0.652920 0.382136
O O11 0.659434 0.720433 0.902174
O O12 0.843127 0.847093 0.989509
O O13 0.723360 0.000000 0.180759
O O14 0.635671 0.827960 0.435988
O O15 0.500000 0.726848 0.500000
O O16 0.459412 0.660976 0.328380
O O17 0.963970 0.688212 0.844233
O O18 0.000000 0.760248 0.500000
O O19 0.975533 0.500000 0.224270
#
# Coordination Sequence:
#
# PCOD9149044 Si02
#       8
#     4   4   4   4   4   4   4   4
#     4   9  17  32  54  76 100 134 176 221 266 315
#     4   9  18  34  57  82 108 141 181 223 265 312
#     4  10  20  34  52  78 110 142 175 215 269 323
#     4  10  20  35  55  79 106 139 180 225 270 317
#     4   9  18  34  56  77 103 138 179 221 263 308
#     4  11  21  33  52  77 111 144 177 221 266 318
#     4   9  16  30  54  81 105 130 175 227 269 308
#     4   9  18  34  55  78 107 142 180 221 265 315
#
# _framework density 21.645222
#
# number of rings (size 3 to 8) (size 9 to 14) (size 15 to 20)
#    0.000    2.500    0.000    4.500    0.000    5.000 
#    0.000    3.750    0.000   17.250    0.000    0.000 
#    0.000    0.000    0.000    0.000    0.000    0.000 
#
# Total GULP energy -178249.832814 kJ/mol
# GULP energy per Si atom -5570.307275 kJ/mol
# Density = 2.159596 g / cm^3
# Si number density = 21.645222 Si / 1000 Ang^3
#
#
#
# Elastic Constant Matrix: (Units=GPa)
#
#
# Indices 1 2 3 4 5 6 
#
# 1 115.7412 32.2508 -2.8525 0.0000 8.2252 0.0000
# 2 32.2508 96.8560 -4.5933 0.0000 20.4809 0.0000
# 3 -2.8525 -4.5933 25.8546 0.0000 8.7725 0.0000
# 4 0.0000 0.0000 0.0000 11.1301 0.0000 0.9918
# 5 8.2252 20.4809 8.7725 0.0000 22.8761 0.0000
# 6 0.0000 0.0000 0.0000 0.9918 0.0000 0.4518
#
#
#
# Elastic Compliance Matrix: (Units=1/GPa)
#
#
# Indices 1 2 3 4 5 6 
#
# 1 0.009552 -0.002875 0.000960 0.000000 -0.001228 0.000000
# 2 -0.002875 0.014826 0.007437 0.000000 -0.015092 0.000000
# 3 0.000960 0.007437 0.048836 0.000000 -0.025731 0.000000
# 4 0.000000 0.000000 0.000000 0.111700 0.000000 -0.245237
# 5 -0.001228 -0.015092 -0.025731 0.000000 0.067535 0.000000
# 6 0.000000 0.000000 0.000000 -0.245237 0.000000 2.751983
#
#
# Mechanical properties :
#
#
# Convention : Reuss Voigt Hill
#
# Bulk Modulus (GPa) = 11.86835 32.00687 21.93761
# Shear Modulus (GPa) = 1.65482 21.13471 11.39477
#
# Velocity S-wave (km/s) = 0.87532 3.12815 2.29690
# Velocity P-wave (km/s) = 2.55276 5.27885 4.14626
#
# Compressibility (1/GPa) = 0.08425769
#
# Stress axis : x y z
#
# Youngs Moduli (GPa) = 104.68876 67.44864 20.47680
#
# Poissons Ratio (x) = 0.19394 -0.01965
# Poissons Ratio (y) = 0.30102 -0.15230
# Poissons Ratio (z) = -0.10048 -0.50165
#
# Static dielectric constant tensor:
#      x y z
#    x 1.815390 0.000000 -0.029420 
#    y 0.000000 1.774770 0.000000 
#    z -0.029420 0.000000 1.861710 
# 
# From -- ./inp_files/35123.got.cif
#   From: 2010.05.17/outbox.cif.g08.bks.cpg/sg10_18_cif.got.tgz:35123.got - 2010.06.03 11:33:40.
