data_PCOD9149840
_publ_section_title
;
Structure prediction by ZEFSAII (Michael W. Deem and Ramdas Pophale) SiO2 
 PCOD9149840
Probable space group: P 2/M
;
_chemical_formula_sum "Si O2"
_cell_formula_units_Z 28
_cell_length_a 12.352190
_cell_length_b 7.831909
_cell_length_c 14.052935
_cell_angle_alpha 90.000000
_cell_angle_beta 123.402524
_cell_angle_gamma 90.000000
_cell_volume 1134.941190
_symmetry_space_group_name_H-M "P 2/M"
_symmetry_group_IT_number 10
_symmetry_cell_setting 'monoclinic'
loop_
_space_group_symop_operation_xyz
x,y,z
-x,y,-z
-x,-y,-z
x,-y,z
loop_
_atom_site_type_symbol
_atom_site_label
_atom_site_fract_x
_atom_site_fract_y
_atom_site_fract_z
Si Si1 0.191816 0.697220 0.110690
Si Si2 0.299260 0.805505 0.472023
Si Si3 0.141401 0.804451 0.591620
Si Si4 0.782449 0.703186 0.088944
Si Si5 0.375500 0.306529 0.820245
Si Si6 0.527982 0.201532 0.707952
Si Si7 0.931487 0.801110 0.762788
O O1 0.153231 0.500000 0.081646
O O2 0.334605 0.709459 0.224496
O O3 0.093338 0.781049 0.136833
O O4 0.209690 0.774241 0.014178
O O5 0.216271 0.817681 0.528559
O O6 0.433278 0.731362 0.578268
O O7 0.196558 0.724069 0.349800
O O8 0.327902 0.000000 0.451821
O O9 0.232551 0.695507 0.703131
O O10 0.000000 0.736395 0.500000
O O11 0.129159 0.000000 0.623883
O O12 0.758735 0.500000 0.071990
O O13 0.663756 0.771081 0.096263
O O14 0.929004 0.728300 0.197907
O O15 0.423849 0.500000 0.854753
O O16 0.463181 0.221916 0.781459
O O17 0.545256 0.000000 0.700862
O O18 0.934210 0.000000 0.738285
#
# Coordination Sequence:
#
# PCOD9149840 Si02
#       7
#     4   4   4   4   4   4   4
#     4  11  24  42  60  80 114 156 194 236 287 339
#     4   8  17  33  54  81 114 148 179 224 285 340
#     4   9  16  29  50  77 111 150 186 224 279 340
#     4  10  23  41  59  82 117 157 190 229 288 346
#     4  10  20  35  56  83 114 149 189 232 282 339
#     4  10  21  40  62  86 116 150 191 233 282 342
#     4  11  22  38  62  89 114 146 193 241 283 333
#
# _framework density 24.670884000000001
#
# number of rings (size 3 to 8) (size 9 to 14) (size 15 to 20)
#    0.000    2.143    0.000    3.857    0.000    6.571 
#    0.000   14.286    0.000    0.000    0.000    0.000 
#    0.000    0.000    0.000    0.000    0.000    0.000 
#
# Total GULP energy -156400.654785 kJ/mol
# GULP energy per Si atom -5585.737671 kJ/mol
# Density = 2.461473 g / cm^3
# Si number density = 24.670884 Si / 1000 Ang^3
#
#
#
# Elastic Constant Matrix: (Units=GPa)
#
#
# Indices 1 2 3 4 5 6 
#
# 1 135.1701 3.2946 29.1953 0.0000 -11.4127 0.0000
# 2 3.2946 41.7864 0.4329 0.0000 -3.6802 0.0000
# 3 29.1953 0.4329 76.7257 0.0000 -0.3470 0.0000
# 4 0.0000 0.0000 0.0000 45.6592 0.0000 -12.2744
# 5 -11.4127 -3.6802 -0.3470 0.0000 49.8980 0.0000
# 6 0.0000 0.0000 0.0000 -12.2744 0.0000 40.0624
#
#
#
# Elastic Compliance Matrix: (Units=1/GPa)
#
#
# Indices 1 2 3 4 5 6 
#
# 1 0.008238 -0.000456 -0.003124 0.000000 0.001829 0.000000
# 2 -0.000456 0.024114 0.000045 0.000000 0.001675 0.000000
# 3 -0.003124 0.000045 0.014219 0.000000 -0.000612 0.000000
# 4 0.000000 0.000000 0.000000 0.023867 0.000000 0.007312
# 5 0.001829 0.001675 -0.000612 0.000000 0.020578 0.000000
# 6 0.000000 0.000000 0.000000 0.007312 0.000000 0.027201
#
#
# Mechanical properties :
#
#
# Convention : Reuss Voigt Hill
#
# Bulk Modulus (GPa) = 25.31538 35.50308 30.40923
# Shear Modulus (GPa) = 36.11255 41.84122 38.97689
#
# Velocity S-wave (km/s) = 3.83008 4.12269 3.97908
# Velocity P-wave (km/s) = 5.46286 6.08967 5.78476
#
# Compressibility (1/GPa) = 0.03950168
#
# Stress axis : x y z
#
# Youngs Moduli (GPa) = 121.38328 41.46935 70.32770
#
# Poissons Ratio (x) = 0.01891 0.21970
# Poissons Ratio (y) = 0.05536 -0.00317
# Poissons Ratio (z) = 0.37920 -0.00187
#
# Static dielectric constant tensor:
#      x y z
#    x 1.945070 0.000000 -0.002660 
#    y 0.000000 1.889270 0.000000 
#    z -0.002660 0.000000 2.064260 
# 
# From -- ./inp_files/63911.got.cif
#   From: 2010.05.17/outbox.cif.g08.bks.cpg/sg10_32_cif.got.tgz:63911.got - 2010.06.03 11:33:40.
