data_PCOD9149053
_publ_section_title
;
Structure prediction by ZEFSAII (Michael W. Deem and Ramdas Pophale) SiO2 
 PCOD9149053
Probable space group: P 2/M
;
_chemical_formula_sum "Si O2"
_cell_formula_units_Z 30
_cell_length_a 5.745934
_cell_length_b 17.653923
_cell_length_c 13.791486
_cell_angle_alpha 90.000000
_cell_angle_beta 114.509144
_cell_angle_gamma 90.000000
_cell_volume 1272.929172
_symmetry_space_group_name_H-M "P 2/M"
_symmetry_group_IT_number 10
_symmetry_cell_setting 'monoclinic'
loop_
_space_group_symop_operation_xyz
x,y,z
-x,y,-z
-x,-y,-z
x,-y,z
loop_
_atom_site_type_symbol
_atom_site_label
_atom_site_fract_x
_atom_site_fract_y
_atom_site_fract_z
Si Si1 0.500000 0.800989 0.500000
Si Si2 0.053064 0.084543 0.395299
Si Si3 0.418029 0.714511 0.848559
Si Si4 0.383137 0.885465 0.828721
Si Si5 0.903912 0.304271 0.818008
Si Si6 0.069180 0.131861 0.121024
Si Si7 0.391852 0.414171 0.371829
Si Si8 0.757605 0.306878 0.390265
O O1 0.726031 0.854225 0.577001
O O2 0.418336 0.748328 0.575381
O O3 0.000000 0.082364 0.500000
O O4 0.795661 0.107714 0.296356
O O5 0.130867 0.000000 0.376422
O O6 0.456269 0.801864 0.880366
O O7 0.688463 0.678799 0.863377
O O8 0.253435 0.722568 0.719854
O O9 0.206790 0.679015 0.883693
O O10 0.663200 0.913027 0.843098
O O11 0.175320 0.910891 0.874176
O O12 0.891465 0.211585 0.813146
O O13 0.806550 0.354210 0.708729
O O14 0.000000 0.153752 0.000000
O O15 0.500000 0.403691 0.500000
O O16 0.305835 0.500000 0.345879
O O17 0.649158 0.391788 0.359380
O O18 0.000000 0.310009 0.500000
#
# Coordination Sequence:
#
# PCOD9149053 Si02
#       8
#     2   4   4   4   4   4   4   4
#     4  12  23  36  59  86 120 168 216 270 297 366
#     4  11  26  43  61  92 134 177 217 254 314 393
#     4   9  18  30  52  79 108 145 188 248 299 359
#     4  10  21  37  64  94 126 165 205 264 323 385
#     4   9  19  34  53  82 115 153 201 255 316 369
#     4  10  21  39  66  97 125 157 213 284 340 383
#     4  10  20  34  52  80 123 171 215 257 313 387
#     4  11  21  31  52  78 113 158 217 260 308 350
#
# _framework density 23.567689000000001
#
# number of rings (size 3 to 8) (size 9 to 14) (size 15 to 20)
#    0.000    1.867    0.667    3.400   13.067    0.267 
#    0.000    4.000    0.000    2.800    0.000    0.000 
#    0.000   12.800    0.000    0.000    0.000    2.000 
#
# Total GULP energy -167078.873109 kJ/mol
# GULP energy per Si atom -5569.295770 kJ/mol
# Density = 2.351405 g / cm^3
# Si number density = 23.567689 Si / 1000 Ang^3
#
#
#
# Elastic Constant Matrix: (Units=GPa)
#
#
# Indices 1 2 3 4 5 6 
#
# 1 196.1348 26.0479 12.6671 0.0000 7.3965 0.0000
# 2 26.0479 100.9325 19.5452 0.0000 2.2095 0.0000
# 3 12.6671 19.5452 87.1895 0.0000 -12.1955 0.0000
# 4 0.0000 0.0000 0.0000 63.0867 0.0000 -8.9533
# 5 7.3965 2.2095 -12.1955 0.0000 30.5422 0.0000
# 6 0.0000 0.0000 0.0000 -8.9533 0.0000 31.5553
#
#
#
# Elastic Compliance Matrix: (Units=1/GPa)
#
#
# Indices 1 2 3 4 5 6 
#
# 1 0.005362 -0.001212 -0.000717 0.000000 -0.001497 0.000000
# 2 -0.001212 0.010723 -0.002431 0.000000 -0.001453 0.000000
# 3 -0.000717 -0.002431 0.012887 0.000000 0.005495 0.000000
# 4 0.000000 0.000000 0.000000 0.016516 0.000000 0.004686
# 5 -0.001497 -0.001453 0.005495 0.000000 0.035403 0.000000
# 6 0.000000 0.000000 0.000000 0.004686 0.000000 0.033020
#
#
# Mechanical properties :
#
#
# Convention : Reuss Voigt Hill
#
# Bulk Modulus (GPa) = 49.37647 55.64192 52.50919
# Shear Modulus (GPa) = 38.64508 46.76993 42.70751
#
# Velocity S-wave (km/s) = 4.05377 4.45960 4.26152
# Velocity P-wave (km/s) = 6.55036 7.08364 6.82221
#
# Compressibility (1/GPa) = 0.02025256
#
# Stress axis : x y z
#
# Youngs Moduli (GPa) = 186.48785 93.25749 77.59788
#
# Poissons Ratio (x) = 0.11306 0.05561
# Poissons Ratio (y) = 0.22608 0.18863
# Poissons Ratio (z) = 0.13365 0.22669
#
# Static dielectric constant tensor:
#      x y z
#    x 2.066270 0.000000 -0.013780 
#    y 0.000000 1.889350 0.000000 
#    z -0.013780 0.000000 1.935620 
# 
# From -- ./inp_files/59446.got.cif
#   From: 2010.05.17/outbox.cif.g08.bks.cpg/sg10_30_cif.got.tgz:59446.got - 2010.06.03 11:33:40.
