data_PCOD9149957
_publ_section_title
;
Structure prediction by ZEFSAII (Michael W. Deem and Ramdas Pophale) SiO2 
 PCOD9149957
Probable space group: P 2/M
;
_chemical_formula_sum "Si O2"
_cell_formula_units_Z 28
_cell_length_a 9.533793
_cell_length_b 7.446142
_cell_length_c 28.288947
_cell_angle_alpha 90.000000
_cell_angle_beta 143.786797
_cell_angle_gamma 90.000000
_cell_volume 1186.446418
_symmetry_space_group_name_H-M "P 2/M"
_symmetry_group_IT_number 10
_symmetry_cell_setting 'monoclinic'
loop_
_space_group_symop_operation_xyz
x,y,z
-x,y,-z
-x,-y,-z
x,-y,z
loop_
_atom_site_type_symbol
_atom_site_label
_atom_site_fract_x
_atom_site_fract_y
_atom_site_fract_z
Si Si1 0.787002 0.219272 0.477255
Si Si2 0.090860 0.794122 0.385790
Si Si3 0.666479 0.708687 0.006625
Si Si4 0.726878 0.719125 0.922026
Si Si5 0.455787 0.715854 0.755102
Si Si6 0.755725 0.219410 0.676187
Si Si7 0.106564 0.790973 0.187008
O O1 0.519604 0.268295 0.390154
O O2 0.000000 0.278259 0.500000
O O3 0.814873 0.283686 0.539143
O O4 0.799772 0.000000 0.481392
O O5 0.808012 0.790239 0.315611
O O6 0.159758 0.718626 0.352881
O O7 0.177951 0.000000 0.408221
O O8 0.599499 0.500000 0.983576
O O9 0.932297 0.710531 0.100003
O O10 0.500000 0.794657 0.000000
O O11 0.624871 0.785004 0.943746
O O12 0.724713 0.500000 0.919992
O O13 0.590963 0.779572 0.838980
O O14 0.000000 0.772923 0.000000
O O15 0.439333 0.500000 0.751031
O O16 0.623674 0.770067 0.757532
O O17 0.906388 0.280899 0.762890
O O18 0.768780 0.000000 0.679933
O O19 0.046758 0.000000 0.171748
#
# Coordination Sequence:
#
# PCOD9149957 Si02
#       7
#     4   4   4   4   4   4   4
#     4   9  16  30  56  85 111 145 185 222 266 326
#     4  10  20  35  57  85 114 143 181 228 276 325
#     4  10  21  37  58  80 107 145 189 229 273 330
#     4   9  17  34  56  77 102 138 184 229 267 319
#     4  11  22  37  58  81 110 146 187 229 276 332
#     4   9  19  34  54  83 117 148 180 224 275 328
#     4  11  22  37  56  81 114 147 184 231 279 325
#
# _framework density 23.599888
#
# number of rings (size 3 to 8) (size 9 to 14) (size 15 to 20)
#    0.000    2.143    1.429    2.143    2.000    4.286 
#    0.000    2.857    0.000    6.429    0.000    0.000 
#    0.000    0.000    0.000    0.000    0.000    0.000 
#
# Total GULP energy -156400.345684 kJ/mol
# GULP energy per Si atom -5585.726632 kJ/mol
# Density = 2.354617 g / cm^3
# Si number density = 23.599888 Si / 1000 Ang^3
#
#
#
# Elastic Constant Matrix: (Units=GPa)
#
#
# Indices 1 2 3 4 5 6 
#
# 1 111.6292 -7.0148 6.9951 0.0000 -26.7763 0.0000
# 2 -7.0148 78.2364 -11.2576 0.0000 -7.1981 0.0000
# 3 6.9951 -11.2576 78.9788 0.0000 -26.0488 0.0000
# 4 0.0000 0.0000 0.0000 3.4940 0.0000 6.8221
# 5 -26.7763 -7.1981 -26.0488 0.0000 51.0556 0.0000
# 6 0.0000 0.0000 0.0000 6.8221 0.0000 -6.4116
#
#
#
# Elastic Compliance Matrix: (Units=1/GPa)
#
#
# Indices 1 2 3 4 5 6 
#
# 1 0.010542 0.001757 0.001469 0.000000 0.006526 0.000000
# 2 0.001757 0.013838 0.003323 0.000000 0.004568 0.000000
# 3 0.001469 0.003323 0.016128 0.000000 0.009468 0.000000
# 4 0.000000 0.000000 0.000000 0.092999 0.000000 0.098952
# 5 0.006526 0.004568 0.009468 0.000000 0.028484 0.000000
# 6 0.000000 0.000000 0.000000 0.098952 0.000000 -0.050680
#
#
# Mechanical properties :
#
#
# Convention : Reuss Voigt Hill
#
# Bulk Modulus (GPa) = 18.65427 27.36552 23.00989
# Shear Modulus (GPa) = 43.07386 28.30239 35.68813
#
# Velocity S-wave (km/s) = 4.27684 3.46679 3.89294
# Velocity P-wave (km/s) = 5.68419 5.25791 5.47520
#
# Compressibility (1/GPa) = 0.05360704
#
# Stress axis : x y z
#
# Youngs Moduli (GPa) = 94.85888 72.26568 62.00467
#
# Poissons Ratio (x) = -0.12697 -0.09110
# Poissons Ratio (y) = -0.16667 -0.20607
# Poissons Ratio (z) = -0.13937 -0.24017
#
# Static dielectric constant tensor:
#      x y z
#    x 1.957320 0.000000 -0.046920 
#    y 0.000000 1.898370 0.000000 
#    z -0.046920 0.000000 1.886870 
# 
# From -- ./inp_files/36947.got.cif
#   From: 2010.05.17/outbox.cif.g08.bks.cpg/sg10_19_cif.got.tgz:36947.got - 2010.06.03 11:33:40.
