data_PCOD9149478
_publ_section_title
;
Structure prediction by ZEFSAII (Michael W. Deem and Ramdas Pophale) SiO2 
 PCOD9149478
Probable space group: P 2/M
;
_chemical_formula_sum "Si O2"
_cell_formula_units_Z 28
_cell_length_a 30.345285
_cell_length_b 7.973251
_cell_length_c 9.094571
_cell_angle_alpha 90.000000
_cell_angle_beta 41.697427
_cell_angle_gamma 90.000000
_cell_volume 1463.723488
_symmetry_space_group_name_H-M "P 2/M"
_symmetry_group_IT_number 10
_symmetry_cell_setting 'monoclinic'
loop_
_space_group_symop_operation_xyz
x,y,z
-x,y,-z
-x,-y,-z
x,-y,z
loop_
_atom_site_type_symbol
_atom_site_label
_atom_site_fract_x
_atom_site_fract_y
_atom_site_fract_z
Si Si1 0.574240 0.000000 0.632271
Si Si2 0.198821 0.796568 0.086387
Si Si3 0.797666 0.803220 0.582058
Si Si4 0.666995 0.686801 0.751974
Si Si5 0.932214 0.698591 0.094827
Si Si6 0.934336 0.796639 0.750829
Si Si7 0.334280 0.310402 0.597746
Si Si8 0.577410 0.000000 0.982669
O O1 0.614070 0.833892 0.486063
O O2 0.574518 0.000000 0.810773
O O3 0.497925 0.000000 0.775108
O O4 0.195536 0.749384 0.265667
O O5 0.132240 0.744103 0.167900
O O6 0.202777 0.000000 0.067735
O O7 0.264142 0.722851 0.849095
O O8 0.738247 0.708958 0.649139
O O9 0.867090 0.779230 0.327052
O O10 0.780489 0.000000 0.622621
O O11 0.640904 0.500000 0.846972
O O12 0.675094 0.703584 0.555392
O O13 0.617995 0.834032 0.924748
O O14 0.927920 0.500000 0.133343
O O15 0.934527 0.731295 0.915769
O O16 0.000000 0.762589 0.000000
O O17 0.000000 0.742648 0.500000
O O18 0.934712 0.000000 0.755140
O O19 0.357086 0.500000 0.572637
#
# Coordination Sequence:
#
# PCOD9149478 Si02
#       8
#     2   4   4   4   4   4   4   2
#     4   9  18  34  57  85 122 149 190 235 279 347
#     4  10  21  36  56  82 113 148 191 242 290 342
#     4  11  22  37  59  83 110 150 195 239 290 341
#     4  10  20  35  57  87 118 150 194 237 284 347
#     4  11  24  39  55  80 115 152 190 238 292 344
#     4  10  21  38  60  84 111 147 192 240 289 344
#     4  10  20  34  57  85 115 153 191 236 290 340
#     4   9  18  34  57  87 118 157 184 231 293 333
#
# _framework density 19.129296
#
# number of rings (size 3 to 8) (size 9 to 14) (size 15 to 20)
#    0.000    1.857    1.429    2.571    0.000    7.143 
#    0.000    2.857    0.000    1.714    0.000    2.000 
#    0.000    0.000    0.000    0.000    0.000    0.000 
#
# Total GULP energy -156434.189371 kJ/mol
# GULP energy per Si atom -5586.935335 kJ/mol
# Density = 1.908576 g / cm^3
# Si number density = 19.129296 Si / 1000 Ang^3
#
#
#
# Elastic Constant Matrix: (Units=GPa)
#
#
# Indices 1 2 3 4 5 6 
#
# 1 87.1080 46.0363 54.9318 0.0000 -16.9085 0.0000
# 2 46.0363 91.9245 53.8177 0.0000 -11.6403 0.0000
# 3 54.9318 53.8177 119.4317 0.0000 -24.6363 0.0000
# 4 0.0000 0.0000 0.0000 0.0028 0.0000 -2.0518
# 5 -16.9085 -11.6403 -24.6363 0.0000 30.5371 0.0000
# 6 0.0000 0.0000 0.0000 -2.0518 0.0000 11.8925
#
#
#
# Elastic Compliance Matrix: (Units=1/GPa)
#
#
# Indices 1 2 3 4 5 6 
#
# 1 0.018519 -0.005793 -0.005096 0.000000 0.003935 0.000000
# 2 -0.005793 0.016591 -0.005001 0.000000 -0.000918 0.000000
# 3 -0.005096 -0.005001 0.014390 0.000000 0.006881 0.000000
# 4 0.000000 0.000000 0.000000 -2.847687 0.000000 -0.491303
# 5 0.003935 -0.000918 0.006881 0.000000 0.040127 0.000000
# 6 0.000000 0.000000 0.000000 -0.491303 0.000000 -0.000676
#
#
# Mechanical properties :
#
#
# Convention : Reuss Voigt Hill
#
# Bulk Modulus (GPa) = 56.43187 67.55954 61.99570
# Shear Modulus (GPa) = -1.83753 18.06505 8.11376
#
# Velocity S-wave (km/s) = -0.98116 3.07639 2.06173
# Velocity P-wave (km/s) = 5.31796 6.92913 6.17631
#
# Compressibility (1/GPa) = 0.01772048
#
# Stress axis : x y z
#
# Youngs Moduli (GPa) = 53.99994 60.27240 69.49371
#
# Poissons Ratio (x) = 0.34914 0.35411
# Poissons Ratio (y) = 0.31281 0.34756
# Poissons Ratio (z) = 0.27516 0.30144
#
# Static dielectric constant tensor:
#      x y z
#    x 1.639940 0.000000 0.002690 
#    y 0.000000 1.686110 0.000000 
#    z 0.002690 0.000000 1.619100 
# 
# From -- ./inp_files/37135.got.cif
#   From: 2010.05.17/outbox.cif.g08.bks.cpg/sg10_19_cif.got.tgz:37135.got - 2010.06.03 11:33:40.
