data_PCOD9149558
_publ_section_title
;
Structure prediction by ZEFSAII (Michael W. Deem and Ramdas Pophale) SiO2 
 PCOD9149558
Probable space group: P 2/M
;
_chemical_formula_sum "Si O2"
_cell_formula_units_Z 32
_cell_length_a 22.079575
_cell_length_b 16.368763
_cell_length_c 21.615122
_cell_angle_alpha 90.000000
_cell_angle_beta 13.414351
_cell_angle_gamma 90.000000
_cell_volume 1812.326443
_symmetry_space_group_name_H-M "P 2/M"
_symmetry_group_IT_number 10
_symmetry_cell_setting 'monoclinic'
loop_
_space_group_symop_operation_xyz
x,y,z
-x,y,-z
-x,-y,-z
x,-y,z
loop_
_atom_site_type_symbol
_atom_site_label
_atom_site_fract_x
_atom_site_fract_y
_atom_site_fract_z
Si Si1 0.849914 0.096255 0.044638
Si Si2 0.750975 0.627252 0.286642
Si Si3 0.371945 0.198332 0.546928
Si Si4 0.260977 0.904993 0.419764
Si Si5 0.256353 0.099435 0.282563
Si Si6 0.230540 0.147112 0.017888
Si Si7 0.558396 0.305423 0.243680
Si Si8 0.086232 0.593516 0.736615
O O1 0.785943 0.110349 0.035189
O O2 0.128090 0.138866 0.779001
O O3 0.854615 0.000000 0.053221
O O4 0.627897 0.143391 0.304779
O O5 0.500000 0.596079 0.500000
O O6 0.722353 0.726175 0.317569
O O7 0.791199 0.596602 0.316113
O O8 0.000000 0.604831 0.000000
O O9 0.455862 0.248273 0.401663
O O10 0.258498 0.874205 0.351706
O O11 0.051886 0.859576 0.670418
O O12 0.179839 0.000000 0.500257
O O13 0.549606 0.898834 0.161156
O O14 0.000000 0.123262 0.500000
O O15 0.265494 0.000000 0.275400
O O16 0.500000 0.127495 0.000000
O O17 0.329982 0.240227 0.915401
O O18 0.307173 0.360026 0.476831
O O19 0.808869 0.359757 0.014121
O O20 0.049154 0.500000 0.754682
#
# Coordination Sequence:
#
# PCOD9149558 Si02
#       8
#     4   4   4   4   4   4   4   4
#     4  11  20  32  51  71  93 121 158 204 246 281
#     4  11  21  35  55  74  95 122 151 187 233 277
#     4  10  20  35  51  69  93 125 157 185 230 296
#     4  11  20  29  44  69  98 128 172 221 250 268
#     4   9  17  29  42  57  85 129 175 213 247 282
#     4  11  20  31  47  70  98 125 158 201 249 287
#     4  10  20  36  52  71  99 130 155 180 228 295
#     4  11  22  37  56  78 100 121 152 185 218 278
#
# _framework density 17.656863000000001
#
# number of rings (size 3 to 8) (size 9 to 14) (size 15 to 20)
#    0.000    1.500    0.000   10.125    0.000    2.500 
#    0.000    0.000    0.000    7.500    0.000    0.000 
#    0.000    0.000    0.000    0.000    0.000  157.500 
#
# Total GULP energy -178688.804423 kJ/mol
# GULP energy per Si atom -5584.025138 kJ/mol
# Density = 1.761668 g / cm^3
# Si number density = 17.656863 Si / 1000 Ang^3
#
#
#
# Elastic Constant Matrix: (Units=GPa)
#
#
# Indices 1 2 3 4 5 6 
#
# 1 32.7993 -5.4686 4.4922 0.0000 -0.4431 0.0000
# 2 -5.4686 98.6679 28.9758 0.0000 1.2244 0.0000
# 3 4.4922 28.9758 118.0081 0.0000 -10.8535 0.0000
# 4 0.0000 0.0000 0.0000 8.9024 0.0000 -0.7967
# 5 -0.4431 1.2244 -10.8535 0.0000 19.1824 0.0000
# 6 0.0000 0.0000 0.0000 -0.7967 0.0000 5.4259
#
#
#
# Elastic Compliance Matrix: (Units=1/GPa)
#
#
# Indices 1 2 3 4 5 6 
#
# 1 0.031101 0.002251 -0.001776 0.000000 -0.000430 0.000000
# 2 0.002251 0.011186 -0.003052 0.000000 -0.002389 0.000000
# 3 -0.001776 -0.003052 0.009816 0.000000 0.005708 0.000000
# 4 0.000000 0.000000 0.000000 0.113825 0.000000 0.016714
# 5 -0.000430 -0.002389 0.005708 0.000000 0.055503 0.000000
# 6 0.000000 0.000000 0.000000 0.016714 0.000000 0.186756
#
#
# Mechanical properties :
#
#
# Convention : Reuss Voigt Hill
#
# Bulk Modulus (GPa) = 21.30015 33.94156 27.62085
# Shear Modulus (GPa) = 11.65526 21.46719 16.56123
#
# Velocity S-wave (km/s) = 2.57202 3.49061 3.06592
# Velocity P-wave (km/s) = 4.57274 5.95906 5.31133
#
# Compressibility (1/GPa) = 0.04694803
#
# Stress axis : x y z
#
# Youngs Moduli (GPa) = 32.15319 89.40026 101.87518
#
# Poissons Ratio (x) = -0.20121 0.18094
# Poissons Ratio (y) = -0.07237 0.31091
# Poissons Ratio (z) = 0.05711 0.27284
#
# Static dielectric constant tensor:
#      x y z
#    x 1.587440 0.000000 -0.005770 
#    y 0.000000 1.627490 0.000000 
#    z -0.005770 0.000000 1.609630 
# 
# From -- ./inp_files/91130.got.cif
#   From: 2010.05.17/outbox.cif.g08.bks.cpg/sg10_46_cif.got.tgz:91130.got - 2010.06.03 11:33:40.
