data_PCOD9149967
_publ_section_title
;
Structure prediction by ZEFSAII (Michael W. Deem and Ramdas Pophale) SiO2 
 PCOD9149967
Probable space group: P 2/M
;
_chemical_formula_sum "Si O2"
_cell_formula_units_Z 26
_cell_length_a 21.546436
_cell_length_b 9.943484
_cell_length_c 7.884682
_cell_angle_alpha 90.000000
_cell_angle_beta 49.002476
_cell_angle_gamma 90.000000
_cell_volume 1274.953607
_symmetry_space_group_name_H-M "P 2/M"
_symmetry_group_IT_number 10
_symmetry_cell_setting 'monoclinic'
loop_
_space_group_symop_operation_xyz
x,y,z
-x,y,-z
-x,-y,-z
x,-y,z
loop_
_atom_site_type_symbol
_atom_site_label
_atom_site_fract_x
_atom_site_fract_y
_atom_site_fract_z
Si Si1 0.033890 0.661381 0.253654
Si Si2 0.668183 0.853455 0.300039
Si Si3 0.203039 0.651140 0.821903
Si Si4 0.500000 0.734784 0.500000
Si Si5 0.428779 0.347455 0.987114
Si Si6 0.720624 0.845179 0.814181
Si Si7 0.861693 0.346994 0.442646
O O1 0.044416 0.500000 0.216343
O O2 0.957060 0.696596 0.272278
O O3 0.000000 0.691537 0.500000
O O4 0.125095 0.715430 0.059720
O O5 0.715910 0.738881 0.313376
O O6 0.572578 0.823174 0.449318
O O7 0.682221 0.000000 0.350579
O O8 0.703119 0.850300 0.046252
O O9 0.220876 0.500000 0.853448
O O10 0.171000 0.643387 0.688550
O O11 0.536458 0.658558 0.269432
O O12 0.397289 0.500000 0.073073
O O13 0.500000 0.322864 0.000000
O O14 0.355842 0.238380 0.127993
O O15 0.802860 0.758962 0.638729
O O16 0.725779 0.000000 0.744023
O O17 0.857977 0.500000 0.524665
#
# Coordination Sequence:
#
# PCOD9149967 Si02
#       7
#     4   4   4   2   4   4   4
#     4   9  17  32  56  84 114 151 192 234 285 343
#     4  10  22  40  60  82 114 153 197 243 292 351
#     4  10  21  35  56  87 118 150 190 238 293 349
#     4  10  22  40  62  88 118 158 198 250 302 356
#     4  10  22  39  61  88 118 151 196 248 298 355
#     4  10  22  39  57  82 114 153 194 236 290 348
#     4  10  20  35  57  85 119 153 190 239 288 342
#
# _framework density 20.392897999999999
#
# number of rings (size 3 to 8) (size 9 to 14) (size 15 to 20)
#    0.000    2.154    0.000    2.308    2.154    8.308 
#    0.000    0.769    0.000    4.615    0.000    0.000 
#    0.000    0.000    0.000    0.000    0.000    0.000 
#
# Total GULP energy -145074.574528 kJ/mol
# GULP energy per Si atom -5579.791328 kJ/mol
# Density = 2.034648 g / cm^3
# Si number density = 20.392898 Si / 1000 Ang^3
#
#
#
# Elastic Constant Matrix: (Units=GPa)
#
#
# Indices 1 2 3 4 5 6 
#
# 1 104.0628 39.8051 4.3485 0.0000 -17.6983 0.0000
# 2 39.8051 104.5835 22.6058 0.0000 -20.1371 0.0000
# 3 4.3485 22.6058 53.4980 0.0000 -18.5867 0.0000
# 4 0.0000 0.0000 0.0000 -8.5697 0.0000 -0.3077
# 5 -17.6983 -20.1371 -18.5867 0.0000 22.2413 0.0000
# 6 0.0000 0.0000 0.0000 -0.3077 0.0000 19.3027
#
#
#
# Elastic Compliance Matrix: (Units=1/GPa)
#
#
# Indices 1 2 3 4 5 6 
#
# 1 0.012566 -0.003730 0.004024 0.000000 0.009985 0.000000
# 2 -0.003730 0.012807 -0.002975 0.000000 0.006141 0.000000
# 3 0.004024 -0.002975 0.027899 0.000000 0.023823 0.000000
# 4 0.000000 0.000000 0.000000 -0.116624 0.000000 -0.001859
# 5 0.009985 0.006141 0.023823 0.000000 0.078376 0.000000
# 6 0.000000 0.000000 0.000000 -0.001859 0.000000 0.051777
#
#
# Mechanical properties :
#
#
# Convention : Reuss Voigt Hill
#
# Bulk Modulus (GPa) = 20.87234 43.96257 32.41745
# Shear Modulus (GPa) = 56.73240 19.62053 38.17646
#
# Velocity S-wave (km/s) = 5.28016 3.10518 4.33141
# Velocity P-wave (km/s) = 6.88700 5.87033 6.39889
#
# Compressibility (1/GPa) = 0.04791029
#
# Stress axis : x y z
#
# Youngs Moduli (GPa) = 79.57734 78.08323 35.84338
#
# Poissons Ratio (x) = 0.29125 -0.14423
# Poissons Ratio (y) = 0.29682 0.10663
# Poissons Ratio (z) = -0.32020 0.23228
#
# Static dielectric constant tensor:
#      x y z
#    x 1.725200 0.000000 0.014610 
#    y 0.000000 1.721490 0.000000 
#    z 0.014610 0.000000 1.763170 
# 
# From -- ./inp_files/34200.got.cif
#   From: 2010.05.17/outbox.cif.g08.bks.cpg/sg10_18_cif.got.tgz:34200.got - 2010.06.03 11:33:40.
