data_PCOD9149571
_publ_section_title
;
Structure prediction by ZEFSAII (Michael W. Deem and Ramdas Pophale) SiO2 
 PCOD9149571
Probable space group: P 2/M
;
_chemical_formula_sum "Si O2"
_cell_formula_units_Z 24
_cell_length_a 15.467493
_cell_length_b 7.832843
_cell_length_c 12.800790
_cell_angle_alpha 90.000000
_cell_angle_beta 109.797990
_cell_angle_gamma 90.000000
_cell_volume 1459.204632
_symmetry_space_group_name_H-M "P 2/M"
_symmetry_group_IT_number 10
_symmetry_cell_setting 'monoclinic'
loop_
_space_group_symop_operation_xyz
x,y,z
-x,y,-z
-x,-y,-z
x,-y,z
loop_
_atom_site_type_symbol
_atom_site_label
_atom_site_fract_x
_atom_site_fract_y
_atom_site_fract_z
Si Si1 0.147178 0.500000 0.007229
Si Si2 0.486187 0.205174 0.113817
Si Si3 0.283997 0.804320 0.011276
Si Si4 0.041646 0.794364 0.348852
Si Si5 0.320043 0.306396 0.796102
Si Si6 0.143896 0.796054 0.603909
Si Si7 0.047976 0.500000 0.186332
O O1 0.206819 0.668312 0.007530
O O2 0.113545 0.500000 0.112861
O O3 0.056456 0.500000 0.898610
O O4 0.382406 0.251580 0.101106
O O5 0.578755 0.266222 0.207291
O O6 0.487900 0.000000 0.113871
O O7 0.500000 0.266500 0.000000
O O8 0.263074 0.000000 0.033354
O O9 0.299914 0.803099 0.891952
O O10 0.109352 0.753915 0.473554
O O11 0.061573 0.669844 0.261382
O O12 0.939338 0.754170 0.350902
O O13 0.046057 0.000000 0.329875
O O14 0.319510 0.500000 0.833482
O O15 0.238825 0.282042 0.680657
O O16 0.153883 0.000000 0.611411
#
# Coordination Sequence:
#
# PCOD9149571 Si02
#       7
#     2   4   4   4   4   4   2
#     4  11  24  38  51  77  95 127 178 210 253 290
#     4   8  16  29  45  68 100 139 167 193 242 296
#     4  10  20  35  52  70 103 140 169 205 245 292
#     4   9  20  36  54  74 101 137 167 201 250 295
#     4  11  19  25  46  81 110 136 163 197 245 299
#     4   9  18  32  50  76 106 135 167 197 238 305
#     4  11  24  37  54  73 101 128 166 220 249 293
#
# _framework density 16.447317000000002
#
# number of rings (size 3 to 8) (size 9 to 14) (size 15 to 20)
#    0.000    2.333    0.833    4.500    3.500    4.333 
#    0.000    1.667    0.000    0.000    0.000    2.333 
#    0.000    5.333    0.000    0.000    0.000    0.000 
#
# Total GULP energy -133758.618174 kJ/mol
# GULP energy per Si atom -5573.275757 kJ/mol
# Density = 1.640988 g / cm^3
# Si number density = 16.447317 Si / 1000 Ang^3
#
#
#
# Elastic Constant Matrix: (Units=GPa)
#
#
# Indices 1 2 3 4 5 6 
#
# 1 88.6199 40.4142 35.7672 0.0000 17.8509 0.0000
# 2 40.4142 70.0908 28.6092 0.0000 -1.7738 0.0000
# 3 35.7672 28.6092 61.7276 0.0000 7.7540 0.0000
# 4 0.0000 0.0000 0.0000 17.6245 0.0000 10.1176
# 5 17.8509 -1.7738 7.7540 0.0000 28.4239 0.0000
# 6 0.0000 0.0000 0.0000 10.1176 0.0000 15.4428
#
#
#
# Elastic Compliance Matrix: (Units=1/GPa)
#
#
# Indices 1 2 3 4 5 6 
#
# 1 0.020469 -0.009706 -0.005873 0.000000 -0.011859 0.000000
# 2 -0.009706 0.022529 -0.005965 0.000000 0.009128 0.000000
# 3 -0.005873 -0.005965 0.022730 0.000000 -0.002885 0.000000
# 4 0.000000 0.000000 0.000000 0.090944 0.000000 -0.059584
# 5 -0.011859 0.009128 -0.002885 0.000000 0.043986 0.000000
# 6 0.000000 0.000000 0.000000 -0.059584 0.000000 0.103792
#
#
# Mechanical properties :
#
#
# Convention : Reuss Voigt Hill
#
# Bulk Modulus (GPa) = 44.16471 47.77994 45.97233
# Shear Modulus (GPa) = 14.08121 20.00808 17.04465
#
# Velocity S-wave (km/s) = 2.92916 3.49161 3.22268
# Velocity P-wave (km/s) = 6.19278 6.73562 6.46989
#
# Compressibility (1/GPa) = 0.02264251
#
# Stress axis : x y z
#
# Youngs Moduli (GPa) = 48.85388 44.38725 43.99502
#
# Poissons Ratio (x) = 0.43080 0.25837
# Poissons Ratio (y) = 0.47415 0.26241
# Poissons Ratio (z) = 0.28690 0.26475
#
# Static dielectric constant tensor:
#      x y z
#    x 1.566990 0.000000 0.040860 
#    y 0.000000 1.562990 0.000000 
#    z 0.040860 0.000000 1.549700 
# 
# From -- ./inp_files/48903.got.cif
#   From: 2010.05.17/outbox.cif.g08.bks.cpg/sg10_25_cif.got.tgz:48903.got - 2010.06.03 11:33:40.
