data_PCOD9149933
_publ_section_title
;
Structure prediction by ZEFSAII (Michael W. Deem and Ramdas Pophale) SiO2 
 PCOD9149933
Probable space group: P 2/M
;
_chemical_formula_sum "Si O2"
_cell_formula_units_Z 28
_cell_length_a 9.266376
_cell_length_b 7.706121
_cell_length_c 29.377174
_cell_angle_alpha 90.000000
_cell_angle_beta 38.589943
_cell_angle_gamma 90.000000
_cell_volume 1308.461748
_symmetry_space_group_name_H-M "P 2/M"
_symmetry_group_IT_number 10
_symmetry_cell_setting 'monoclinic'
loop_
_space_group_symop_operation_xyz
x,y,z
-x,y,-z
-x,-y,-z
x,-y,z
loop_
_atom_site_type_symbol
_atom_site_label
_atom_site_fract_x
_atom_site_fract_y
_atom_site_fract_z
Si Si1 0.335882 0.212381 0.499259
Si Si2 0.812918 0.796816 0.637770
Si Si3 0.926436 0.703473 0.795129
Si Si4 0.108963 0.789429 0.924755
Si Si5 0.541844 0.789113 0.350911
Si Si6 0.242779 0.797786 0.064858
Si Si7 0.641913 0.296553 0.778822
O O1 0.500000 0.270106 0.500000
O O2 0.439846 0.262339 0.424928
O O3 0.072460 0.274916 0.569908
O O4 0.333647 0.000000 0.501147
O O5 0.627549 0.725592 0.647476
O O6 0.718914 0.783216 0.712040
O O7 0.833963 0.000000 0.620853
O O8 0.870382 0.500000 0.813363
O O9 0.853871 0.788004 0.860457
O O10 0.784085 0.774244 0.787003
O O11 0.198212 0.725075 0.719793
O O12 0.369835 0.726224 0.854157
O O13 0.941863 0.725283 0.925503
O O14 0.120102 0.000000 0.920675
O O15 0.000000 0.738768 0.000000
O O16 0.551595 0.000000 0.347118
O O17 0.267808 0.000000 0.045357
O O18 0.500000 0.719534 0.000000
O O19 0.696408 0.500000 0.761838
#
# Coordination Sequence:
#
# PCOD9149933 Si02
#       7
#     4   4   4   4   4   4   4
#     4   9  17  31  54  83 112 143 180 224 274 325
#     4  10  20  35  57  84 112 143 182 228 276 326
#     4  11  24  39  55  79 112 149 187 226 271 324
#     4  10  21  38  61  87 112 141 180 225 273 325
#     4  10  20  35  57  84 112 143 182 228 276 326
#     4  10  21  38  61  87 112 141 180 225 273 325
#     4  11  24  39  55  79 112 149 187 226 271 324
#
# _framework density 21.399173999999999
#
# number of rings (size 3 to 8) (size 9 to 14) (size 15 to 20)
#    0.000    1.857    0.000    3.857    0.000   11.429 
#    0.000    0.714    0.000    4.286    0.000    0.000 
#    0.000    0.000    0.000    0.000    0.000    0.000 
#
# Total GULP energy -156533.832506 kJ/mol
# GULP energy per Si atom -5590.494018 kJ/mol
# Density = 2.135047 g / cm^3
# Si number density = 21.399174 Si / 1000 Ang^3
#
#
#
# Elastic Constant Matrix: (Units=GPa)
#
#
# Indices 1 2 3 4 5 6 
#
# 1 226.6117 -8.8453 87.1420 0.0000 -7.0414 0.0000
# 2 -8.8453 32.0770 -25.5205 0.0000 -1.3418 0.0000
# 3 87.1420 -25.5205 141.4671 0.0000 -13.0159 0.0000
# 4 0.0000 0.0000 0.0000 434.9903 0.0000 23.2937
# 5 -7.0414 -1.3418 -13.0159 0.0000 43.0365 0.0000
# 6 0.0000 0.0000 0.0000 23.2937 0.0000 10.1494
#
#
#
# Elastic Compliance Matrix: (Units=1/GPa)
#
#
# Indices 1 2 3 4 5 6 
#
# 1 0.005844 -0.001498 -0.003895 0.000000 -0.000268 0.000000
# 2 -0.001498 0.037220 0.007943 0.000000 0.003317 0.000000
# 3 -0.003895 0.007943 0.011176 0.000000 0.002990 0.000000
# 4 0.000000 0.000000 0.000000 0.002621 0.000000 -0.006015
# 5 -0.000268 0.003317 0.002990 0.000000 0.024200 0.000000
# 6 0.000000 0.000000 0.000000 -0.006015 0.000000 0.112334
#
#
# Mechanical properties :
#
#
# Convention : Reuss Voigt Hill
#
# Bulk Modulus (GPa) = 16.85251 56.18982 36.52116
# Shear Modulus (GPa) = 24.02982 120.79387 72.41184
#
# Velocity S-wave (km/s) = 3.35465 7.52133 5.82341
# Velocity P-wave (km/s) = 4.78512 10.08673 7.89429
#
# Compressibility (1/GPa) = 0.05933835
#
# Stress axis : x y z
#
# Youngs Moduli (GPa) = 171.12561 26.86745 89.47902
#
# Poissons Ratio (x) = 0.04026 0.34849
# Poissons Ratio (y) = 0.25642 -0.71070
# Poissons Ratio (z) = 0.66647 -0.21340
#
# Static dielectric constant tensor:
#      x y z
#    x 1.764230 0.000000 -0.007620 
#    y 0.000000 1.794370 0.000000 
#    z -0.007620 0.000000 1.696820 
# 
# From -- ./inp_files/36917.got.cif
#   From: 2010.05.17/outbox.cif.g08.bks.cpg/sg10_19_cif.got.tgz:36917.got - 2010.06.03 11:33:40.
