data_PCOD9149302
_publ_section_title
;
Structure prediction by ZEFSAII (Michael W. Deem and Ramdas Pophale) SiO2 
 PCOD9149302
Probable space group: P 2/M
;
_chemical_formula_sum "Si O2"
_cell_formula_units_Z 24
_cell_length_a 24.207337
_cell_length_b 8.099417
_cell_length_c 12.065531
_cell_angle_alpha 90.000000
_cell_angle_beta 24.225332
_cell_angle_gamma 90.000000
_cell_volume 970.681011
_symmetry_space_group_name_H-M "P 2/M"
_symmetry_group_IT_number 10
_symmetry_cell_setting 'monoclinic'
loop_
_space_group_symop_operation_xyz
x,y,z
-x,y,-z
-x,-y,-z
x,-y,z
loop_
_atom_site_type_symbol
_atom_site_label
_atom_site_fract_x
_atom_site_fract_y
_atom_site_fract_z
Si Si1 0.451077 0.240507 0.973888
Si Si2 0.758609 0.699645 0.086330
Si Si3 0.664245 0.306423 0.031834
Si Si4 0.154886 0.689270 0.602072
Si Si5 0.259078 0.313829 0.635391
Si Si6 0.942822 0.809167 0.442952
O O1 0.590056 0.327802 0.687819
O O2 0.500000 0.157997 0.000000
O O3 0.406247 0.190951 0.931006
O O4 0.308412 0.316127 0.273119
O O5 0.749804 0.500000 0.102448
O O6 0.661161 0.750812 0.164567
O O7 0.911496 0.753397 0.784251
O O8 0.731450 0.763119 0.260409
O O9 0.617870 0.500000 0.106542
O O10 0.822525 0.299969 0.711651
O O11 0.108636 0.500000 0.692127
O O12 0.170769 0.760881 0.696988
O O13 0.068456 0.785472 0.669822
O O14 0.206936 0.500000 0.746118
O O15 0.919275 0.000000 0.513708
#
# Coordination Sequence:
#
# PCOD9149302 Si02
#       6
#     4   4   4   4   4   4
#     4   9  16  29  53  83 109 133 168 213 257 303
#     4  10  21  35  51  76 109 141 174 212 256 308
#     4  10  20  34  55  80 105 136 173 215 260 306
#     4   9  17  32  56  82 106 135 172 214 259 304
#     4   9  17  30  52  81 110 139 170 208 256 310
#     4  11  22  36  55  76 101 136 179 223 263 305
#
# _framework density 24.724907999999999
#
# number of rings (size 3 to 8) (size 9 to 14) (size 15 to 20)
#    0.000    2.333    0.000    4.500    0.000    7.667 
#    0.000    6.667    0.000   36.000    0.000    5.833 
#    0.000    0.000    0.000    0.000    0.000    0.000 
#
# Total GULP energy -133626.088632 kJ/mol
# GULP energy per Si atom -5567.753693 kJ/mol
# Density = 2.466863 g / cm^3
# Si number density = 24.724908 Si / 1000 Ang^3
#
#
#
# Elastic Constant Matrix: (Units=GPa)
#
#
# Indices 1 2 3 4 5 6 
#
# 1 264.0418 30.9087 21.6370 0.0000 9.0096 0.0000
# 2 30.9087 49.5574 2.1246 0.0000 0.6604 0.0000
# 3 21.6370 2.1246 60.4251 0.0000 -8.5976 0.0000
# 4 0.0000 0.0000 0.0000 27.0965 0.0000 -179.8882
# 5 9.0096 0.6604 -8.5976 0.0000 31.9412 0.0000
# 6 0.0000 0.0000 0.0000 -179.8882 0.0000 610.9576
#
#
#
# Elastic Compliance Matrix: (Units=1/GPa)
#
#
# Indices 1 2 3 4 5 6 
#
# 1 0.004281 -0.002577 -0.001670 0.000000 -0.001604 0.000000
# 2 -0.002577 0.021773 0.000204 0.000000 0.000332 0.000000
# 3 -0.001670 0.000204 0.017892 0.000000 0.005283 0.000000
# 4 0.000000 0.000000 0.000000 -0.038656 0.000000 -0.011382
# 5 -0.001604 0.000332 0.005283 0.000000 0.033175 0.000000
# 6 0.000000 0.000000 0.000000 -0.011382 0.000000 -0.001714
#
#
# Mechanical properties :
#
#
# Convention : Reuss Voigt Hill
#
# Bulk Modulus (GPa) = 27.88656 53.70721 40.79689
# Shear Modulus (GPa) = 88.04611 155.28932 121.66772
#
# Velocity S-wave (km/s) = 5.97391 7.93367 7.02249
# Velocity P-wave (km/s) = 7.67377 10.28072 9.07138
#
# Compressibility (1/GPa) = 0.03585957
#
# Stress axis : x y z
#
# Youngs Moduli (GPa) = 233.61673 45.92936 55.89077
#
# Poissons Ratio (x) = 0.11835 0.09336
# Poissons Ratio (y) = 0.60197 -0.01142
# Poissons Ratio (z) = 0.39022 -0.00939
#
# Static dielectric constant tensor:
#      x y z
#    x 2.043350 0.000000 0.068630 
#    y 0.000000 1.864690 0.000000 
#    z 0.068630 0.000000 1.972220 
# 
# From -- ./inp_files/56518.got.cif
#   From: 2010.05.17/outbox.cif.g08.bks.cpg/sg10_29_cif.got.tgz:56518.got - 2010.06.03 11:33:40.
