data_PCOD9149440
_publ_section_title
;
Structure prediction by ZEFSAII (Michael W. Deem and Ramdas Pophale) SiO2 
 PCOD9149440
Probable space group: P 2/M
;
_chemical_formula_sum "Si O2"
_cell_formula_units_Z 20
_cell_length_a 23.843446
_cell_length_b 7.795081
_cell_length_c 9.325426
_cell_angle_alpha 90.000000
_cell_angle_beta 141.464398
_cell_angle_gamma 90.000000
_cell_volume 1079.809004
_symmetry_space_group_name_H-M "P 2/M"
_symmetry_group_IT_number 10
_symmetry_cell_setting 'monoclinic'
loop_
_space_group_symop_operation_xyz
x,y,z
-x,y,-z
-x,-y,-z
x,-y,z
loop_
_atom_site_type_symbol
_atom_site_label
_atom_site_fract_x
_atom_site_fract_y
_atom_site_fract_z
Si Si1 0.089675 0.708088 0.263255
Si Si2 0.269954 0.804832 0.459289
Si Si3 0.404854 0.500000 0.731865
Si Si4 0.269954 0.804832 0.120525
Si Si5 0.404854 0.500000 0.387550
Si Si6 0.910325 0.708088 0.404553
O O1 0.093133 0.500000 0.264548
O O2 0.179088 0.775839 0.366037
O O3 0.085613 0.759634 0.421226
O O4 0.000000 0.763131 0.000000
O O5 0.345145 0.666360 0.650688
O O6 0.249882 0.778487 0.249764
O O7 0.301530 0.000000 0.541555
O O8 0.417823 0.500000 0.585646
O O9 0.500000 0.500000 0.000000
O O10 0.345145 0.666360 0.229892
O O11 0.301530 0.000000 0.164565
O O12 0.179088 0.775839 0.850315
O O13 0.500000 0.500000 0.500000
O O14 0.906866 0.500000 0.392013
O O15 0.000000 0.763130 0.500000
#
# Coordination Sequence:
#
# PCOD9149440 Si02
#       6
#     4   4   2   4   2   4
#     4  10  20  34  56  85 117 154 193 232 278 332
#     4  10  21  38  60  85 114 150 190 232 281 335
#     4  10  22  40  61  84 113 146 185 234 286 340
#     4  10  21  38  60  85 114 150 190 232 281 335
#     4  10  22  40  61  84 113 146 185 234 286 340
#     4  10  20  34  56  85 117 154 193 232 278 332
#
# _framework density 18.521795999999998
#
# number of rings (size 3 to 8) (size 9 to 14) (size 15 to 20)
#    0.000    2.000    2.000    1.200    0.000    5.600 
#    0.000    0.000    0.000    0.000    0.000    0.000 
#    0.000    0.000    0.000    0.000    0.000    0.000 
#
# Total GULP energy -111736.046350 kJ/mol
# GULP energy per Si atom -5586.802317 kJ/mol
# Density = 1.847964 g / cm^3
# Si number density = 18.521796 Si / 1000 Ang^3
#
#
#
# Elastic Constant Matrix: (Units=GPa)
#
#
# Indices 1 2 3 4 5 6 
#
# 1 136.8577 72.6719 68.2080 0.0000 28.2353 0.0000
# 2 72.6719 106.1257 78.4142 0.0000 8.9086 0.0000
# 3 68.2080 78.4142 165.6969 0.0000 16.5058 0.0000
# 4 0.0000 0.0000 0.0000 2.7793 0.0000 -10.0992
# 5 28.2353 8.9086 16.5058 0.0000 25.2277 0.0000
# 6 0.0000 0.0000 0.0000 -10.0992 0.0000 9.2892
#
#
#
# Elastic Compliance Matrix: (Units=1/GPa)
#
#
# Indices 1 2 3 4 5 6 
#
# 1 0.014974 -0.008553 -0.000800 0.000000 -0.013215 0.000000
# 2 -0.008553 0.019386 -0.006338 0.000000 0.006874 0.000000
# 3 -0.000800 -0.006338 0.009683 0.000000 -0.003202 0.000000
# 4 0.000000 0.000000 0.000000 -0.121945 0.000000 -0.132578
# 5 -0.013215 0.006874 -0.003202 0.000000 0.054097 0.000000
# 6 0.000000 0.000000 0.000000 -0.132578 0.000000 -0.036486
#
#
# Mechanical properties :
#
#
# Convention : Reuss Voigt Hill
#
# Bulk Modulus (GPa) = 78.98749 94.14096 86.56423
# Shear Modulus (GPa) = -202.50984 20.08500 -91.21242
#
# Velocity S-wave (km/s) = -10.46773 3.29659 -7.02516
# Velocity P-wave (km/s) = 10.16659 8.08873 4.35500
#
# Compressibility (1/GPa) = 0.01266023
#
# Stress axis : x y z
#
# Youngs Moduli (GPa) = 66.78361 51.58391 103.27819
#
# Poissons Ratio (x) = 0.44122 0.08258
# Poissons Ratio (y) = 0.57123 0.65457
# Poissons Ratio (z) = 0.05340 0.32694
#
# Static dielectric constant tensor:
#      x y z
#    x 1.605760 0.000000 -0.022490 
#    y 0.000000 1.668950 0.000000 
#    z -0.022490 0.000000 1.591270 
# 
# From -- ./inp_files/33666.got.cif
#   From: 2010.05.17/outbox.cif.g08.bks.cpg/sg10_17_cif.got.tgz:33666.got - 2010.06.03 11:33:40.
