data_PCOD9149407
_publ_section_title
;
Structure prediction by ZEFSAII (Michael W. Deem and Ramdas Pophale) SiO2 
 PCOD9149407
Probable space group: P 2/M
;
_chemical_formula_sum "Si O2"
_cell_formula_units_Z 32
_cell_length_a 20.278865
_cell_length_b 7.644672
_cell_length_c 10.878568
_cell_angle_alpha 90.000000
_cell_angle_beta 125.314732
_cell_angle_gamma 90.000000
_cell_volume 1376.127034
_symmetry_space_group_name_H-M "P 2/M"
_symmetry_group_IT_number 10
_symmetry_cell_setting 'monoclinic'
loop_
_space_group_symop_operation_xyz
x,y,z
-x,y,-z
-x,-y,-z
x,-y,z
loop_
_atom_site_type_symbol
_atom_site_label
_atom_site_fract_x
_atom_site_fract_y
_atom_site_fract_z
Si Si1 0.457368 0.709801 0.828919
Si Si2 0.895409 0.701404 0.965818
Si Si3 0.723718 0.705323 0.389677
Si Si4 0.976221 0.801781 0.301686
Si Si5 0.267682 0.211781 0.106322
Si Si6 0.548310 0.788981 0.672614
Si Si7 0.124587 0.294820 0.316697
Si Si8 0.184414 0.787987 0.759143
O O1 0.451107 0.500000 0.837119
O O2 0.366110 0.780475 0.714904
O O3 0.506851 0.743273 0.757643
O O4 0.500000 0.776610 0.000000
O O5 0.923732 0.500000 0.009442
O O6 0.798428 0.709543 0.873732
O O7 0.913304 0.775210 0.850348
O O8 0.929280 0.799855 0.120232
O O9 0.715035 0.500000 0.410794
O O10 0.788990 0.783425 0.554515
O O11 0.768826 0.719557 0.307995
O O12 0.908306 0.725989 0.319762
O O13 0.061685 0.719182 0.360436
O O14 0.993367 0.000000 0.355887
O O15 0.358776 0.271125 0.227138
O O16 0.264585 0.000000 0.112975
O O17 0.236541 0.258318 0.936062
O O18 0.500000 0.725496 0.500000
O O19 0.549839 0.000000 0.667964
O O20 0.135701 0.500000 0.303529
O O21 0.180795 0.000000 0.748391
#
# Coordination Sequence:
#
# PCOD9149407 Si02
#       8
#     4   4   4   4   4   4   4   4
#     4  10  22  40  62  88 118 155 202 250 296 354
#     4  10  20  34  56  82 110 146 188 228 273 337
#     4  10  22  38  56  80 113 147 184 234 285 335
#     4  10  21  37  57  82 111 144 184 231 279 330
#     4   9  19  36  56  80 113 147 183 232 282 334
#     4  10  22  38  58  88 122 155 195 245 299 356
#     4  10  22  37  52  77 113 148 183 228 280 334
#     4   9  19  36  56  79 106 140 185 230 276 333
#
# _framework density 23.253665999999999
#
# number of rings (size 3 to 8) (size 9 to 14) (size 15 to 20)
#    0.000    2.250    0.000    2.625    1.750    7.500 
#    0.000    2.500    0.000    0.000    0.000    0.000 
#    0.000    0.000    0.000    0.000    0.000    0.000 
#
# Total GULP energy -178807.521402 kJ/mol
# GULP energy per Si atom -5587.735044 kJ/mol
# Density = 2.320074 g / cm^3
# Si number density = 23.253666 Si / 1000 Ang^3
#
#
#
# Elastic Constant Matrix: (Units=GPa)
#
#
# Indices 1 2 3 4 5 6 
#
# 1 123.6425 -7.8820 46.2273 0.0000 11.8983 0.0000
# 2 -7.8820 47.5397 5.6118 0.0000 -0.6158 0.0000
# 3 46.2273 5.6118 121.9597 0.0000 1.3596 0.0000
# 4 0.0000 0.0000 0.0000 -23.9592 0.0000 27.2776
# 5 11.8983 -0.6158 1.3596 0.0000 43.0602 0.0000
# 6 0.0000 0.0000 0.0000 27.2776 0.0000 3.5603
#
#
#
# Elastic Compliance Matrix: (Units=1/GPa)
#
#
# Indices 1 2 3 4 5 6 
#
# 1 0.009894 0.002058 -0.003816 0.000000 -0.002584 0.000000
# 2 0.002058 0.021583 -0.001771 0.000000 -0.000204 0.000000
# 3 -0.003816 -0.001771 0.009719 0.000000 0.000722 0.000000
# 4 0.000000 0.000000 0.000000 -0.004293 0.000000 0.032890
# 5 -0.002584 -0.000204 0.000722 0.000000 0.023912 0.000000
# 6 0.000000 0.000000 0.000000 0.032890 0.000000 0.028889
#
#
# Mechanical properties :
#
#
# Convention : Reuss Voigt Hill
#
# Bulk Modulus (GPa) = 29.29328 42.33958 35.81643
# Shear Modulus (GPa) = 46.23559 21.14458 33.69008
#
# Velocity S-wave (km/s) = 4.46389 3.01873 3.81045
# Velocity P-wave (km/s) = 6.26043 5.51340 5.89875
#
# Compressibility (1/GPa) = 0.03413753
#
# Stress axis : x y z
#
# Youngs Moduli (GPa) = 101.06644 46.33373 102.88748
#
# Poissons Ratio (x) = -0.09533 0.39264
# Poissons Ratio (y) = -0.20795 0.18218
# Poissons Ratio (z) = 0.38569 0.08204
#
# Static dielectric constant tensor:
#      x y z
#    x 1.848810 0.000000 0.014610 
#    y 0.000000 1.850420 0.000000 
#    z 0.014610 0.000000 1.916800 
# 
# From -- ./inp_files/55355.got.cif
#   From: 2010.05.17/outbox.cif.g08.bks.cpg/sg10_28_cif.got.tgz:55355.got - 2010.06.03 11:33:40.
