data_PCOD9149265
_publ_section_title
;
Structure prediction by ZEFSAII (Michael W. Deem and Ramdas Pophale) SiO2 
 PCOD9149265
Probable space group: P 2/M
;
_chemical_formula_sum "Si O2"
_cell_formula_units_Z 28
_cell_length_a 15.093064
_cell_length_b 9.086946
_cell_length_c 11.897840
_cell_angle_alpha 90.000000
_cell_angle_beta 118.840554
_cell_angle_gamma 90.000000
_cell_volume 1429.389128
_symmetry_space_group_name_H-M "P 2/M"
_symmetry_group_IT_number 10
_symmetry_cell_setting 'monoclinic'
loop_
_space_group_symop_operation_xyz
x,y,z
-x,y,-z
-x,-y,-z
x,-y,z
loop_
_atom_site_type_symbol
_atom_site_label
_atom_site_fract_x
_atom_site_fract_y
_atom_site_fract_z
Si Si1 0.799072 0.667075 0.735625
Si Si2 0.799182 0.171090 0.143683
Si Si3 0.991374 0.161729 0.860728
Si Si4 0.272500 0.172406 0.510864
Si Si5 0.499712 0.176556 0.367400
Si Si6 0.322126 0.672214 0.117697
Si Si7 0.118616 0.676492 0.582668
O O1 0.776040 0.500000 0.687368
O O2 0.736352 0.782834 0.624839
O O3 0.769592 0.682118 0.847753
O O4 0.914987 0.708599 0.784756
O O5 0.900726 0.176189 0.130425
O O6 0.829194 0.257074 0.274390
O O7 0.776516 0.000000 0.154375
O O8 0.711315 0.243916 0.015187
O O9 0.949191 0.000000 0.801088
O O10 0.000000 0.161123 0.000000
O O11 0.388267 0.205900 0.613337
O O12 0.187060 0.263230 0.523161
O O13 0.254950 0.000000 0.516690
O O14 0.500000 0.220973 0.500000
O O15 0.416390 0.257652 0.241557
O O16 0.482239 0.000000 0.354214
O O17 0.339779 0.500000 0.105882
O O18 0.120987 0.500000 0.586884
O O19 0.000000 0.722062 0.500000
#
# Coordination Sequence:
#
# PCOD9149265 Si02
#       7
#     4   4   4   4   4   4   4
#     4  11  22  34  54  87 125 162 199 248 308 367
#     4  11  23  40  63  88 122 165 210 259 307 366
#     4  10  20  34  54  83 117 156 200 246 301 365
#     4  11  23  40  65  92 121 161 210 258 306 365
#     4  10  21  39  63  92 126 164 206 256 311 369
#     4  11  23  37  58  90 127 164 202 250 310 371
#     4  11  25  45  67  92 126 165 207 257 311 369
#
# _framework density 19.588788000000001
#
# number of rings (size 3 to 8) (size 9 to 14) (size 15 to 20)
#    0.000    1.286    2.857    3.000    0.000    7.429 
#    0.000    0.714    0.000    4.286    0.000    0.000 
#    0.000    0.000    0.000    0.000    0.000    0.000 
#
# Total GULP energy -156380.868393 kJ/mol
# GULP energy per Si atom -5585.031014 kJ/mol
# Density = 1.954420 g / cm^3
# Si number density = 19.588788 Si / 1000 Ang^3
#
#
#
# Elastic Constant Matrix: (Units=GPa)
#
#
# Indices 1 2 3 4 5 6 
#
# 1 61.2699 39.0920 26.0255 0.0000 10.5710 0.0000
# 2 39.0920 88.2115 52.8546 0.0000 14.7854 0.0000
# 3 26.0255 52.8546 117.3511 0.0000 13.8724 0.0000
# 4 0.0000 0.0000 0.0000 35.9093 0.0000 -3.0945
# 5 10.5710 14.7854 13.8724 0.0000 32.3201 0.0000
# 6 0.0000 0.0000 0.0000 -3.0945 0.0000 8.3379
#
#
#
# Elastic Compliance Matrix: (Units=1/GPa)
#
#
# Indices 1 2 3 4 5 6 
#
# 1 0.023062 -0.009401 -0.000524 0.000000 -0.003018 0.000000
# 2 -0.009401 0.019953 -0.006517 0.000000 -0.003256 0.000000
# 3 -0.000524 -0.006517 0.011799 0.000000 -0.001912 0.000000
# 4 0.000000 0.000000 0.000000 0.028768 0.000000 0.010677
# 5 -0.003018 -0.003256 -0.001912 0.000000 0.034238 0.000000
# 6 0.000000 0.000000 0.000000 0.010677 0.000000 0.123897
#
#
# Mechanical properties :
#
#
# Convention : Reuss Voigt Hill
#
# Bulk Modulus (GPa) = 45.59753 55.86409 50.73081
# Shear Modulus (GPa) = 17.73613 25.23748 21.48681
#
# Velocity S-wave (km/s) = 3.01229 3.59327 3.31553
# Velocity P-wave (km/s) = 5.95201 6.76726 6.37268
#
# Compressibility (1/GPa) = 0.02193101
#
# Stress axis : x y z
#
# Youngs Moduli (GPa) = 43.36081 50.11768 84.75389
#
# Poissons Ratio (x) = 0.47114 0.04440
# Poissons Ratio (y) = 0.40762 0.55235
# Poissons Ratio (z) = 0.02272 0.32662
#
# Static dielectric constant tensor:
#      x y z
#    x 1.691310 0.000000 0.003480 
#    y 0.000000 1.673800 0.000000 
#    z 0.003480 0.000000 1.692970 
# 
# From -- ./inp_files/49576.got.cif
#   From: 2010.05.17/outbox.cif.g08.bks.cpg/sg10_25_cif.got.tgz:49576.got - 2010.06.03 11:33:40.
