data_PCOD9149470
_publ_section_title
;
Structure prediction by ZEFSAII (Michael W. Deem and Ramdas Pophale) SiO2 
 PCOD9149470
Probable space group: P 2/M
;
_chemical_formula_sum "Si O2"
_cell_formula_units_Z 28
_cell_length_a 14.550755
_cell_length_b 10.289571
_cell_length_c 20.466365
_cell_angle_alpha 90.000000
_cell_angle_beta 28.958791
_cell_angle_gamma 90.000000
_cell_volume 1483.647579
_symmetry_space_group_name_H-M "P 2/M"
_symmetry_group_IT_number 10
_symmetry_cell_setting 'monoclinic'
loop_
_space_group_symop_operation_xyz
x,y,z
-x,y,-z
-x,-y,-z
x,-y,z
loop_
_atom_site_type_symbol
_atom_site_label
_atom_site_fract_x
_atom_site_fract_y
_atom_site_fract_z
Si Si1 0.823839 0.296712 0.650444
Si Si2 0.443717 0.355846 0.958386
Si Si3 0.384484 0.853890 0.329753
Si Si4 0.028396 0.144405 0.633068
Si Si5 0.884627 0.846609 0.868956
Si Si6 0.688946 0.355698 0.177048
Si Si7 0.937018 0.353216 0.145901
O O1 0.630223 0.361234 0.796513
O O2 0.748656 0.184591 0.648378
O O3 0.916068 0.245690 0.659481
O O4 0.000000 0.358605 0.500000
O O5 0.350876 0.500000 0.012142
O O6 0.500000 0.335251 0.000000
O O7 0.308042 0.239312 0.018523
O O8 0.549718 0.751525 0.236267
O O9 0.248387 0.845031 0.477640
O O10 0.455531 0.000000 0.278015
O O11 0.980223 0.156390 0.738272
O O12 0.967247 0.000000 0.649422
O O13 0.021731 0.765048 0.831319
O O14 0.854398 0.000000 0.905180
O O15 0.601492 0.500000 0.228461
O O16 0.761980 0.331382 0.205288
O O17 0.875960 0.357591 0.016000
O O18 0.917201 0.500000 0.187002
#
# Coordination Sequence:
#
# PCOD9149470 Si02
#       7
#     4   4   4   4   4   4   4
#     4  10  20  36  57  82 113 151 192 232 275 330
#     4  11  23  38  55  80 115 151 187 229 276 326
#     4  10  20  34  57  83 109 144 188 234 281 327
#     4   9  19  36  53  77 114 151 184 226 277 333
#     4  11  22  36  58  84 112 147 187 228 278 331
#     4   9  19  37  58  80 108 143 180 226 283 337
#     4   9  19  37  59  80 108 144 180 224 282 339
#
# _framework density 18.872406000000002
#
# number of rings (size 3 to 8) (size 9 to 14) (size 15 to 20)
#    0.000    2.143    1.429    2.571    0.000    7.429 
#    0.000    5.714    0.000    4.286    0.000    0.000 
#    0.000    0.000    0.000    0.000    0.000    0.000 
#
# Total GULP energy -156020.858244 kJ/mol
# GULP energy per Si atom -5572.173509 kJ/mol
# Density = 1.882945 g / cm^3
# Si number density = 18.872406 Si / 1000 Ang^3
#
#
#
# Elastic Constant Matrix: (Units=GPa)
#
#
# Indices 1 2 3 4 5 6 
#
# 1 71.5266 57.8771 10.5354 0.0000 -0.1011 0.0000
# 2 57.8771 134.1184 14.7792 0.0000 -3.1337 0.0000
# 3 10.5354 14.7792 53.4277 0.0000 15.0320 0.0000
# 4 0.0000 0.0000 0.0000 13.3014 0.0000 6.8031
# 5 -0.1011 -3.1337 15.0320 0.0000 20.5651 0.0000
# 6 0.0000 0.0000 0.0000 6.8031 0.0000 2.6452
#
#
#
# Elastic Compliance Matrix: (Units=1/GPa)
#
#
# Indices 1 2 3 4 5 6 
#
# 1 0.021637 -0.009147 -0.001730 0.000000 -0.000023 0.000000
# 2 -0.009147 0.011755 -0.002441 0.000000 0.003531 0.000000
# 3 -0.001730 -0.002441 0.024977 0.000000 -0.018637 0.000000
# 4 0.000000 0.000000 0.000000 -0.238383 0.000000 0.613080
# 5 -0.000023 0.003531 -0.018637 0.000000 0.062787 0.000000
# 6 0.000000 0.000000 0.000000 0.613080 0.000000 -1.198699
#
#
# Mechanical properties :
#
#
# Convention : Reuss Voigt Hill
#
# Bulk Modulus (GPa) = 31.51347 47.27291 39.39319
# Shear Modulus (GPa) = -3.91019 19.02774 7.55878
#
# Velocity S-wave (km/s) = -1.44097 3.17871 2.00347
# Velocity P-wave (km/s) = 3.73710 6.21090 5.12549
#
# Compressibility (1/GPa) = 0.03173246
#
# Stress axis : x y z
#
# Youngs Moduli (GPa) = 46.21675 85.07036 40.03690
#
# Poissons Ratio (x) = 0.77815 0.06926
# Poissons Ratio (y) = 0.42275 0.09774
# Poissons Ratio (z) = 0.07995 0.20769
#
# Static dielectric constant tensor:
#      x y z
#    x 1.647500 0.000000 0.008630 
#    y 0.000000 1.674470 0.000000 
#    z 0.008630 0.000000 1.669150 
# 
# From -- ./inp_files/84892.got.cif
#   From: 2010.05.17/outbox.cif.g08.bks.cpg/sg10_43_cif.got.tgz:84892.got - 2010.06.03 11:33:40.
