data_PCOD9149293
_publ_section_title
;
Structure prediction by ZEFSAII (Michael W. Deem and Ramdas Pophale) SiO2 
 PCOD9149293
Probable space group: P 2/M
;
_chemical_formula_sum "Si O2"
_cell_formula_units_Z 28
_cell_length_a 25.479000
_cell_length_b 13.368509
_cell_length_c 23.406024
_cell_angle_alpha 90.000000
_cell_angle_beta 11.088575
_cell_angle_gamma 90.000000
_cell_volume 1533.315937
_symmetry_space_group_name_H-M "P 2/M"
_symmetry_group_IT_number 10
_symmetry_cell_setting 'monoclinic'
loop_
_space_group_symop_operation_xyz
x,y,z
-x,y,-z
-x,-y,-z
x,-y,z
loop_
_atom_site_type_symbol
_atom_site_label
_atom_site_fract_x
_atom_site_fract_y
_atom_site_fract_z
Si Si1 0.456545 0.385158 0.666738
Si Si2 0.032052 0.759635 0.162743
Si Si3 0.695461 0.212328 0.345201
Si Si4 0.493236 0.378189 0.073070
Si Si5 0.406359 0.614783 0.344432
Si Si6 0.897378 0.378889 0.738724
Si Si7 0.556700 0.883337 0.610779
O O1 0.416842 0.500000 0.692255
O O2 0.665765 0.323043 0.404780
O O3 0.546030 0.383988 0.637949
O O4 0.181270 0.318556 0.960299
O O5 0.842842 0.687904 0.402908
O O6 0.820042 0.833868 0.358921
O O7 0.280641 0.824017 0.922576
O O8 0.500000 0.205627 0.500000
O O9 0.597435 0.138029 0.499904
O O10 0.000000 0.191831 0.000000
O O11 0.495167 0.500000 0.070685
O O12 0.209402 0.344786 0.405150
O O13 0.500000 0.346125 0.000000
O O14 0.750300 0.348027 0.836693
O O15 0.341163 0.500000 0.397269
O O16 0.682558 0.646648 0.017752
O O17 0.909631 0.500000 0.726554
O O18 0.536084 0.000000 0.644835
#
# Coordination Sequence:
#
# PCOD9149293 Si02
#       7
#     4   4   4   4   4   4   4
#     4  10  22  38  57  78 107 143 172 210 265 313
#     4  11  20  39  57  81 107 131 169 213 261 321
#     4  11  23  39  57  79 107 129 169 217 255 318
#     4   9  16  27  40  58  92 135 178 223 256 278
#     4  10  20  34  55  79 108 140 177 221 261 302
#     4   9  18  27  42  68  93 128 180 221 249 290
#     4  11  24  41  62  80  99 130 169 214 268 323
#
# _framework density 18.261077
#
# number of rings (size 3 to 8) (size 9 to 14) (size 15 to 20)
#    0.000    1.857    2.857    3.000    2.000    2.857 
#    0.000    0.000    0.000    0.000    0.000    0.000 
#    0.000    0.000    0.000    0.000    0.000   50.000 
#
# Total GULP energy -156265.657520 kJ/mol
# GULP energy per Si atom -5580.916340 kJ/mol
# Density = 1.821951 g / cm^3
# Si number density = 18.261077 Si / 1000 Ang^3
#
#
#
# Elastic Constant Matrix: (Units=GPa)
#
#
# Indices 1 2 3 4 5 6 
#
# 1 51.4448 0.7063 11.4445 0.0000 -6.5462 0.0000
# 2 0.7063 93.3121 23.7939 0.0000 -10.0585 0.0000
# 3 11.4445 23.7939 82.9266 0.0000 -7.3471 0.0000
# 4 0.0000 0.0000 0.0000 21.1340 0.0000 -3.1280
# 5 -6.5462 -10.0585 -7.3471 0.0000 29.7973 0.0000
# 6 0.0000 0.0000 0.0000 -3.1280 0.0000 6.8245
#
#
#
# Elastic Compliance Matrix: (Units=1/GPa)
#
#
# Indices 1 2 3 4 5 6 
#
# 1 0.020569 0.000997 -0.002755 0.000000 0.004176 0.000000
# 2 0.000997 0.011908 -0.003250 0.000000 0.003438 0.000000
# 3 -0.002755 -0.003250 0.013516 0.000000 0.001630 0.000000
# 4 0.000000 0.000000 0.000000 0.050761 0.000000 0.023266
# 5 0.004176 0.003438 0.001630 0.000000 0.036040 0.000000
# 6 0.000000 0.000000 0.000000 0.023266 0.000000 0.157195
#
#
# Mechanical properties :
#
#
# Convention : Reuss Voigt Hill
#
# Bulk Modulus (GPa) = 27.79488 33.28587 30.54037
# Shear Modulus (GPa) = 16.02582 24.33375 20.17979
#
# Velocity S-wave (km/s) = 2.96564 3.65437 3.32787
# Velocity P-wave (km/s) = 5.19428 6.00610 5.61488
#
# Compressibility (1/GPa) = 0.03597785
#
# Stress axis : x y z
#
# Youngs Moduli (GPa) = 48.61728 83.97421 73.98667
#
# Poissons Ratio (x) = -0.08371 0.20381
# Poissons Ratio (y) = -0.04847 0.24045
# Poissons Ratio (z) = 0.13393 0.27291
#
# Static dielectric constant tensor:
#      x y z
#    x 1.678520 0.000000 -0.015500 
#    y 0.000000 1.618820 0.000000 
#    z -0.015500 0.000000 1.657260 
# 
# From -- ./inp_files/91265.got.cif
#   From: 2010.05.17/outbox.cif.g08.bks.cpg/sg10_46_cif.got.tgz:91265.got - 2010.06.03 11:33:40.
