data_PCOD9149094
_publ_section_title
;
Structure prediction by ZEFSAII (Michael W. Deem and Ramdas Pophale) SiO2 
 PCOD9149094
Probable space group: P 2/M
;
_chemical_formula_sum "Si O2"
_cell_formula_units_Z 28
_cell_length_a 23.533226
_cell_length_b 9.411129
_cell_length_c 20.786957
_cell_angle_alpha 90.000000
_cell_angle_beta 19.002172
_cell_angle_gamma 90.000000
_cell_volume 1499.007610
_symmetry_space_group_name_H-M "P 2/M"
_symmetry_group_IT_number 10
_symmetry_cell_setting 'monoclinic'
loop_
_space_group_symop_operation_xyz
x,y,z
-x,y,-z
-x,-y,-z
x,-y,z
loop_
_atom_site_type_symbol
_atom_site_label
_atom_site_fract_x
_atom_site_fract_y
_atom_site_fract_z
Si Si1 0.610154 0.831275 0.060351
Si Si2 0.219350 0.168728 0.451154
Si Si3 0.992350 0.837481 0.934991
Si Si4 0.037319 0.172762 0.388044
Si Si5 0.057939 0.664247 0.742957
Si Si6 0.419686 0.162521 0.652973
Si Si7 0.358832 0.664247 0.840272
O O1 0.425885 0.811726 0.222355
O O2 0.607189 0.747435 0.130363
O O3 0.630449 0.000000 0.052505
O O4 0.774675 0.785361 0.841415
O O5 0.109242 0.214629 0.506846
O O6 0.155262 0.252563 0.582290
O O7 0.186610 0.000000 0.496343
O O8 0.083325 0.741300 0.784164
O O9 0.060266 0.000000 0.861294
O O10 0.788489 0.842747 0.134536
O O11 0.000000 0.784393 0.000000
O O12 0.000000 0.224532 0.500000
O O13 0.036037 0.000000 0.391895
O O14 0.110640 0.500000 0.689090
O O15 0.850360 0.669330 0.948923
O O16 0.500000 0.215603 0.500000
O O17 0.450812 0.258699 0.681698
O O18 0.481818 0.000000 0.596623
O O19 0.410366 0.500000 0.789905
#
# Coordination Sequence:
#
# PCOD9149094 Si02
#       7
#     4   4   4   4   4   4   4
#     4  10  20  34  56  84 111 144 185 225 271 329
#     4  10  20  34  56  84 111 144 185 225 271 329
#     4   9  18  32  50  72 101 138 180 227 276 328
#     4   9  18  34  57  85 117 147 177 225 281 327
#     4  10  20  34  53  76 105 144 186 229 277 327
#     4   9  18  32  50  72 101 138 180 227 276 328
#     4  10  20  34  53  76 105 144 186 229 277 327
#
# _framework density 18.679023000000001
#
# number of rings (size 3 to 8) (size 9 to 14) (size 15 to 20)
#    0.000    2.429    1.429    0.857    0.000    4.000 
#    0.000    5.714    0.000    1.714    0.000    2.000 
#    0.000    0.000    0.000    0.000    0.000    0.000 
#
# Total GULP energy -156266.925067 kJ/mol
# GULP energy per Si atom -5580.961610 kJ/mol
# Density = 1.863651 g / cm^3
# Si number density = 18.679023 Si / 1000 Ang^3
#
#
#
# Elastic Constant Matrix: (Units=GPa)
#
#
# Indices 1 2 3 4 5 6 
#
# 1 153.7265 66.6762 80.4259 0.0000 33.2249 0.0000
# 2 66.6762 63.4589 52.8359 0.0000 13.1021 0.0000
# 3 80.4259 52.8359 96.9368 0.0000 20.5345 0.0000
# 4 0.0000 0.0000 0.0000 8.5010 0.0000 -9.3344
# 5 33.2249 13.1021 20.5345 0.0000 31.1140 0.0000
# 6 0.0000 0.0000 0.0000 -9.3344 0.0000 -1.3579
#
#
#
# Elastic Compliance Matrix: (Units=1/GPa)
#
#
# Indices 1 2 3 4 5 6 
#
# 1 0.015726 -0.009878 -0.005798 0.000000 -0.008807 0.000000
# 2 -0.009878 0.035169 -0.011708 0.000000 0.003465 0.000000
# 3 -0.005798 -0.011708 0.022265 0.000000 -0.003573 0.000000
# 4 0.000000 0.000000 0.000000 0.013761 0.000000 -0.094598
# 5 -0.008807 0.003465 -0.003573 0.000000 0.042443 0.000000
# 6 0.000000 0.000000 0.000000 -0.094598 0.000000 -0.086152
#
#
# Mechanical properties :
#
#
# Convention : Reuss Voigt Hill
#
# Bulk Modulus (GPa) = 54.36902 79.33313 66.85108
# Shear Modulus (GPa) = 48.02562 15.26372 31.64467
#
# Velocity S-wave (km/s) = 5.07610 2.86170 4.12044
# Velocity P-wave (km/s) = 7.97032 7.31321 7.64882
#
# Compressibility (1/GPa) = 0.01839283
#
# Stress axis : x y z
#
# Youngs Moduli (GPa) = 63.58811 28.43385 44.91377
#
# Poissons Ratio (x) = 0.28086 0.26042
# Poissons Ratio (y) = 0.62810 0.52585
# Poissons Ratio (z) = 0.36869 0.33290
#
# Static dielectric constant tensor:
#      x y z
#    x 1.625890 0.000000 -0.027790 
#    y 0.000000 1.624690 0.000000 
#    z -0.027790 0.000000 1.655250 
# 
# From -- ./inp_files/86438.got.cif
#   From: 2010.05.17/outbox.cif.g08.bks.cpg/sg10_44_cif.got.tgz:86438.got - 2010.06.03 11:33:40.
