data_PCOD9149850
_publ_section_title
;
Structure prediction by ZEFSAII (Michael W. Deem and Ramdas Pophale) SiO2 
 PCOD9149850
Probable space group: P 2/M
;
_chemical_formula_sum "Si O2"
_cell_formula_units_Z 32
_cell_length_a 26.480773
_cell_length_b 7.760581
_cell_length_c 14.866019
_cell_angle_alpha 90.000000
_cell_angle_beta 26.927234
_cell_angle_gamma 90.000000
_cell_volume 1383.509513
_symmetry_space_group_name_H-M "P 2/M"
_symmetry_group_IT_number 10
_symmetry_cell_setting 'monoclinic'
loop_
_space_group_symop_operation_xyz
x,y,z
-x,y,-z
-x,-y,-z
x,-y,z
loop_
_atom_site_type_symbol
_atom_site_label
_atom_site_fract_x
_atom_site_fract_y
_atom_site_fract_z
Si Si1 0.904259 0.193748 0.924926
Si Si2 0.124976 0.695316 0.833951
Si Si3 0.878546 0.794824 0.664247
Si Si4 0.447507 0.293853 0.343404
Si Si5 0.302942 0.196703 0.407490
Si Si6 0.658427 0.708479 0.110858
Si Si7 0.155410 0.211645 0.482027
Si Si8 0.661541 0.697751 0.298597
O O1 0.028804 0.263053 0.711191
O O2 0.899063 0.000000 0.894865
O O3 0.884596 0.192725 0.062477
O O4 0.794964 0.297079 0.070001
O O5 0.169306 0.500000 0.782741
O O6 0.198954 0.780845 0.640380
O O7 0.000000 0.676724 0.000000
O O8 0.835937 0.731391 0.634836
O O9 0.000000 0.725412 0.500000
O O10 0.891936 0.000000 0.632780
O O11 0.782561 0.761896 0.888309
O O12 0.446525 0.500000 0.347808
O O13 0.403123 0.252798 0.314295
O O14 0.570973 0.232955 0.173759
O O15 0.371641 0.231486 0.549847
O O16 0.252556 0.276013 0.395162
O O17 0.327225 0.000000 0.347423
O O18 0.656045 0.500000 0.117574
O O19 0.619284 0.774022 0.271167
O O20 0.156736 0.000000 0.485347
O O21 0.623376 0.500000 0.361704
#
# Coordination Sequence:
#
# PCOD9149850 Si02
#       8
#     4   4   4   4   4   4   4   4
#     4  11  20  32  53  82 116 152 190 235 281 334
#     4  11  21  32  48  75 115 157 193 229 278 338
#     4  10  21  41  66  88 113 147 188 237 290 342
#     4  10  21  38  58  82 116 155 191 232 287 347
#     4  11  21  35  55  81 115 154 194 237 281 336
#     4  10  22  40  61  85 114 149 191 240 292 343
#     4   9  20  36  55  82 116 152 189 234 292 340
#     4  10  20  35  56  83 116 154 190 230 287 351
#
# _framework density 23.129584999999999
#
# number of rings (size 3 to 8) (size 9 to 14) (size 15 to 20)
#    0.000    1.750    2.500    2.250    0.000    4.250 
#    0.000    3.125    0.000    6.000    0.000    0.000 
#    0.000    0.000    0.000    0.000    0.000    0.000 
#
# Total GULP energy -178472.754998 kJ/mol
# GULP energy per Si atom -5577.273594 kJ/mol
# Density = 2.307694 g / cm^3
# Si number density = 23.129585 Si / 1000 Ang^3
#
#
#
# Elastic Constant Matrix: (Units=GPa)
#
#
# Indices 1 2 3 4 5 6 
#
# 1 161.0197 13.9217 45.4619 0.0000 1.5747 0.0000
# 2 13.9217 32.3124 -3.1539 0.0000 -4.9266 0.0000
# 3 45.4619 -3.1539 69.0908 0.0000 -7.4776 0.0000
# 4 0.0000 0.0000 0.0000 16.4967 0.0000 -4.5178
# 5 1.5747 -4.9266 -7.4776 0.0000 41.0254 0.0000
# 6 0.0000 0.0000 0.0000 -4.5178 0.0000 19.3675
#
#
#
# Elastic Compliance Matrix: (Units=1/GPa)
#
#
# Indices 1 2 3 4 5 6 
#
# 1 0.008262 -0.004422 -0.005845 0.000000 -0.001914 0.000000
# 2 -0.004422 0.034134 0.005029 0.000000 0.005185 0.000000
# 3 -0.005845 0.005029 0.019014 0.000000 0.004294 0.000000
# 4 0.000000 0.000000 0.000000 0.064755 0.000000 0.015105
# 5 -0.001914 0.005185 0.004294 0.000000 0.025854 0.000000
# 6 0.000000 0.000000 0.000000 0.015105 0.000000 0.055156
#
#
# Mechanical properties :
#
#
# Convention : Reuss Voigt Hill
#
# Bulk Modulus (GPa) = 19.63315 41.65360 30.64338
# Shear Modulus (GPa) = 21.31016 29.12414 25.21715
#
# Velocity S-wave (km/s) = 3.03865 3.55233 3.30548
# Velocity P-wave (km/s) = 4.56267 5.90536 5.27689
#
# Compressibility (1/GPa) = 0.05093427
#
# Stress axis : x y z
#
# Youngs Moduli (GPa) = 121.03940 29.29590 52.59232
#
# Poissons Ratio (x) = 0.12954 0.30741
# Poissons Ratio (y) = 0.53522 -0.26449
# Poissons Ratio (z) = 0.70750 -0.14733
#
# Static dielectric constant tensor:
#      x y z
#    x 1.962650 0.000000 -0.036490 
#    y 0.000000 1.903980 0.000000 
#    z -0.036490 0.000000 1.840150 
# 
# From -- ./inp_files/72188.got.cif
#   From: 2010.05.17/outbox.cif.g08.bks.cpg/sg10_37_cif.got.tgz:72188.got - 2010.06.03 11:33:40.
