data_PCOD9149824
_publ_section_title
;
Structure prediction by ZEFSAII (Michael W. Deem and Ramdas Pophale) SiO2 
 PCOD9149824
Probable space group: P 2/M
;
_chemical_formula_sum "Si O2"
_cell_formula_units_Z 32
_cell_length_a 14.549330
_cell_length_b 7.646806
_cell_length_c 24.069608
_cell_angle_alpha 90.000000
_cell_angle_beta 148.838032
_cell_angle_gamma 90.000000
_cell_volume 1385.696527
_symmetry_space_group_name_H-M "P 2/M"
_symmetry_group_IT_number 10
_symmetry_cell_setting 'monoclinic'
loop_
_space_group_symop_operation_xyz
x,y,z
-x,y,-z
-x,-y,-z
x,-y,z
loop_
_atom_site_type_symbol
_atom_site_label
_atom_site_fract_x
_atom_site_fract_y
_atom_site_fract_z
Si Si1 0.767458 0.288280 0.325014
Si Si2 0.671103 0.210173 0.054636
Si Si3 0.206001 0.213555 0.115342
Si Si4 0.831989 0.712972 0.483300
Si Si5 0.339723 0.293913 0.494110
Si Si6 0.937875 0.708192 0.738862
Si Si7 0.613778 0.202428 0.903503
Si Si8 0.714055 0.203641 0.720611
O O1 0.755786 0.500000 0.316894
O O2 0.764167 0.230954 0.387891
O O3 0.599135 0.211933 0.207173
O O4 0.961569 0.238105 0.403345
O O5 0.864825 0.247688 0.179445
O O6 0.651886 0.000000 0.041288
O O7 0.500000 0.276070 0.000000
O O8 0.674216 0.281467 0.993139
O O9 0.315153 0.277180 0.118059
O O10 0.271061 0.278150 0.209377
O O11 0.217123 0.000000 0.122999
O O12 0.000000 0.258266 0.000000
O O13 0.827586 0.500000 0.479396
O O14 0.717525 0.777463 0.475383
O O15 0.299840 0.500000 0.474387
O O16 0.213456 0.219985 0.381005
O O17 0.550958 0.278312 0.600474
O O18 0.923359 0.500000 0.734407
O O19 0.892538 0.775301 0.777121
O O20 0.672323 0.000000 0.933614
O O21 0.676799 0.000000 0.706747
#
# Coordination Sequence:
#
# PCOD9149824 Si02
#       8
#     4   4   4   4   4   4   4   4
#     4   9  17  31  54  79 107 144 186 228 275 331
#     4  10  23  42  62  85 116 153 191 236 291 344
#     4   9  18  34  57  82 110 148 188 228 283 344
#     4   8  16  32  52  77 109 147 186 227 276 331
#     4  10  21  37  57  81 115 154 193 236 287 339
#     4  11  24  40  60  85 114 153 197 241 288 340
#     4  10  20  35  56  82 112 143 181 229 284 339
#     4  11  22  37  60  88 117 152 193 238 289 344
#
# _framework density 23.093077999999998
#
# number of rings (size 3 to 8) (size 9 to 14) (size 15 to 20)
#    0.000    2.250    0.000    3.375    1.750    5.250 
#    0.000    2.500    0.000    2.625    0.000    0.000 
#    0.000    0.000    0.000    0.000    0.000    0.000 
#
# Total GULP energy -178776.608880 kJ/mol
# GULP energy per Si atom -5586.769027 kJ/mol
# Density = 2.304052 g / cm^3
# Si number density = 23.093078 Si / 1000 Ang^3
#
#
#
# Elastic Constant Matrix: (Units=GPa)
#
#
# Indices 1 2 3 4 5 6 
#
# 1 87.8011 2.6042 30.5011 0.0000 8.7742 0.0000
# 2 2.6042 44.7970 -5.9479 0.0000 -9.1076 0.0000
# 3 30.5011 -5.9479 119.4631 0.0000 2.7768 0.0000
# 4 0.0000 0.0000 0.0000 19.6243 0.0000 10.6325
# 5 8.7742 -9.1076 2.7768 0.0000 19.1147 0.0000
# 6 0.0000 0.0000 0.0000 10.6325 0.0000 11.7641
#
#
#
# Elastic Compliance Matrix: (Units=1/GPa)
#
#
# Indices 1 2 3 4 5 6 
#
# 1 0.013326 -0.002620 -0.003373 0.000000 -0.006876 0.000000
# 2 -0.002620 0.025343 0.001628 0.000000 0.013041 0.000000
# 3 -0.003373 0.001628 0.009290 0.000000 0.000974 0.000000
# 4 0.000000 0.000000 0.000000 0.099855 0.000000 -0.090250
# 5 -0.006876 0.013041 0.000974 0.000000 0.061544 0.000000
# 6 0.000000 0.000000 0.000000 -0.090250 0.000000 0.166573
#
#
# Mechanical properties :
#
#
# Convention : Reuss Voigt Hill
#
# Bulk Modulus (GPa) = 25.49219 34.04177 29.76698
# Shear Modulus (GPa) = 12.57107 25.09421 18.83264
#
# Velocity S-wave (km/s) = 2.33570 3.30002 2.85881
# Velocity P-wave (km/s) = 4.28215 5.41233 4.88007
#
# Compressibility (1/GPa) = 0.03922771
#
# Stress axis : x y z
#
# Youngs Moduli (GPa) = 75.04163 39.45894 107.63836
#
# Poissons Ratio (x) = 0.10340 0.36306
# Poissons Ratio (y) = 0.19664 -0.17520
# Poissons Ratio (z) = 0.25312 -0.06423
#
# Static dielectric constant tensor:
#      x y z
#    x 1.876210 0.000000 -0.020520 
#    y 0.000000 1.857520 0.000000 
#    z -0.020520 0.000000 1.852110 
# 
# From -- ./inp_files/89626.got.cif
#   From: 2010.05.17/outbox.cif.g08.bks.cpg/sg10_45_cif.got.tgz:89626.got - 2010.06.03 11:33:40.
