data_PCOD9149720
_publ_section_title
;
Structure prediction by ZEFSAII (Michael W. Deem and Ramdas Pophale) SiO2 
 PCOD9149720
Probable space group: P 2/M
;
_chemical_formula_sum "Si O2"
_cell_formula_units_Z 32
_cell_length_a 15.918486
_cell_length_b 7.972755
_cell_length_c 22.036158
_cell_angle_alpha 90.000000
_cell_angle_beta 146.775526
_cell_angle_gamma 90.000000
_cell_volume 1532.370152
_symmetry_space_group_name_H-M "P 2/M"
_symmetry_group_IT_number 10
_symmetry_cell_setting 'monoclinic'
loop_
_space_group_symop_operation_xyz
x,y,z
-x,y,-z
-x,-y,-z
x,-y,z
loop_
_atom_site_type_symbol
_atom_site_label
_atom_site_fract_x
_atom_site_fract_y
_atom_site_fract_z
Si Si1 0.988357 0.795303 0.924231
Si Si2 0.787874 0.702126 0.416794
Si Si3 0.874803 0.704710 0.337048
Si Si4 0.167252 0.310144 0.338456
Si Si5 0.662409 0.797760 0.669512
Si Si6 0.856517 0.808158 0.099718
Si Si7 0.672703 0.698293 0.102270
Si Si8 0.363873 0.801654 0.560830
O O1 0.820286 0.751941 0.798265
O O2 0.112057 0.737349 0.948853
O O3 0.998286 0.000000 0.930434
O O4 0.000000 0.736065 0.000000
O O5 0.787859 0.500000 0.418281
O O6 0.784319 0.751398 0.344079
O O7 0.653715 0.765903 0.378979
O O8 0.950566 0.760457 0.544152
O O9 0.881604 0.500000 0.338616
O O10 0.789245 0.765268 0.224643
O O11 0.115096 0.500000 0.298355
O O12 0.311960 0.272352 0.382353
O O13 0.223708 0.282925 0.440409
O O14 0.025846 0.196614 0.232771
O O15 0.519760 0.740567 0.623419
O O16 0.654148 0.000000 0.659271
O O17 0.744810 0.720033 0.079347
O O18 0.805771 0.000000 0.063355
O O19 0.660911 0.500000 0.107857
O O20 0.500000 0.768876 0.000000
O O21 0.353466 0.000000 0.544019
#
# Coordination Sequence:
#
# PCOD9149720 Si02
#       8
#     4   4   4   4   4   4   4   4
#     4   8  15  32  56  76  97 135 181 218 258 316
#     4   9  17  32  54  74  96 133 183 224 259 316
#     4   8  16  33  54  73  96 134 180 223 266 315
#     4  11  21  33  53  77 103 138 178 217 259 316
#     4   9  19  34  50  72 105 140 173 214 263 312
#     4  10  20  35  56  82 107 137 179 226 271 317
#     4  10  20  35  55  79 110 146 182 223 274 327
#     4  11  21  32  47  75 111 140 169 211 266 318
#
# _framework density 20.882684999999999
#
# number of rings (size 3 to 8) (size 9 to 14) (size 15 to 20)
#    0.000    2.500    0.000    4.500    0.000    3.750 
#    2.250    1.875    0.000    9.375    0.000    0.000 
#    0.000    0.000    0.000    0.000    0.000    0.000 
#
# Total GULP energy -178521.835363 kJ/mol
# GULP energy per Si atom -5578.807355 kJ/mol
# Density = 2.083515 g / cm^3
# Si number density = 20.882685 Si / 1000 Ang^3
#
#
#
# Elastic Constant Matrix: (Units=GPa)
#
#
# Indices 1 2 3 4 5 6 
#
# 1 142.9989 -6.3757 36.4810 0.0000 -12.1297 0.0000
# 2 -6.3757 21.3723 1.3271 0.0000 -1.3005 0.0000
# 3 36.4810 1.3271 49.1215 0.0000 -15.4210 0.0000
# 4 0.0000 0.0000 0.0000 7.3519 0.0000 -2.9512
# 5 -12.1297 -1.3005 -15.4210 0.0000 30.8024 0.0000
# 6 0.0000 0.0000 0.0000 -2.9512 0.0000 26.8892
#
#
#
# Elastic Compliance Matrix: (Units=1/GPa)
#
#
# Indices 1 2 3 4 5 6 
#
# 1 0.008824 0.003058 -0.006531 0.000000 0.000334 0.000000
# 2 0.003058 0.047994 -0.003030 0.000000 0.001714 0.000000
# 3 -0.006531 -0.003030 0.029000 0.000000 0.011819 0.000000
# 4 0.000000 0.000000 0.000000 0.142289 0.000000 0.015617
# 5 0.000334 0.001714 0.011819 0.000000 0.038586 0.000000
# 6 0.000000 0.000000 0.000000 0.015617 0.000000 0.038904
#
#
# Mechanical properties :
#
#
# Convention : Reuss Voigt Hill
#
# Bulk Modulus (GPa) = 13.73378 30.70640 22.22009
# Shear Modulus (GPa) = 14.58266 25.14606 19.86436
#
# Velocity S-wave (km/s) = 2.64543 3.47386 3.08756
# Velocity P-wave (km/s) = 3.99023 5.55216 4.83469
#
# Compressibility (1/GPa) = 0.07281317
#
# Stress axis : x y z
#
# Youngs Moduli (GPa) = 113.32875 20.83585 34.48243
#
# Poissons Ratio (x) = -0.06372 0.22520
# Poissons Ratio (y) = -0.34658 0.10448
# Poissons Ratio (z) = 0.74014 0.06313
#
# Static dielectric constant tensor:
#      x y z
#    x 1.785950 0.000000 -0.008720 
#    y 0.000000 1.750480 0.000000 
#    z -0.008720 0.000000 1.743300 
# 
# From -- ./inp_files/84757.got.cif
#   From: 2010.05.17/outbox.cif.g08.bks.cpg/sg10_43_cif.got.tgz:84757.got - 2010.06.03 11:33:40.
