data_PCOD9149666
_publ_section_title
;
Structure prediction by ZEFSAII (Michael W. Deem and Ramdas Pophale) SiO2 
 PCOD9149666
Probable space group: P 2/M
;
_chemical_formula_sum "Si O2"
_cell_formula_units_Z 28
_cell_length_a 15.105718
_cell_length_b 13.635558
_cell_length_c 7.946646
_cell_angle_alpha 90.000000
_cell_angle_beta 70.141406
_cell_angle_gamma 90.000000
_cell_volume 1539.474826
_symmetry_space_group_name_H-M "P 2/M"
_symmetry_group_IT_number 10
_symmetry_cell_setting 'monoclinic'
loop_
_space_group_symop_operation_xyz
x,y,z
-x,y,-z
-x,-y,-z
x,-y,z
loop_
_atom_site_type_symbol
_atom_site_label
_atom_site_fract_x
_atom_site_fract_y
_atom_site_fract_z
Si Si1 0.603381 0.315352 0.396285
Si Si2 0.740153 0.888542 0.797503
Si Si3 0.893421 0.272218 0.632346
Si Si4 0.103364 0.613605 0.015554
Si Si5 0.570662 0.789502 0.101057
Si Si6 0.594330 0.890205 0.590241
Si Si7 0.203461 0.614629 0.616290
O O1 0.500000 0.355424 0.500000
O O2 0.605272 0.299357 0.195492
O O3 0.607749 0.202948 0.462019
O O4 0.684822 0.372888 0.437591
O O5 0.832797 0.824220 0.712437
O O6 0.681440 0.889009 0.661831
O O7 0.761717 0.000000 0.832009
O O8 0.663815 0.841754 0.973092
O O9 0.895024 0.332569 0.806703
O O10 0.840042 0.329681 0.515322
O O11 0.000000 0.254670 0.500000
O O12 0.130047 0.500000 0.027592
O O13 0.166827 0.653882 0.821248
O O14 0.000000 0.615792 0.000000
O O15 0.501466 0.865375 0.244719
O O16 0.500000 0.753925 0.000000
O O17 0.591067 0.000000 0.519673
O O18 0.176701 0.500000 0.621685
#
# Coordination Sequence:
#
# PCOD9149666 Si02
#       7
#     4   4   4   4   4   4   4
#     4  10  20  35  55  82 118 152 188 230 282 342
#     4  10  20  35  54  81 117 151 188 231 280 341
#     4  12  23  38  64  87 113 151 193 237 292 342
#     4  10  21  38  61  89 114 139 185 246 297 337
#     4   9  18  32  55  82 111 151 190 235 282 329
#     4   9  17  31  53  82 112 145 190 235 277 329
#     4  11  23  40  61  87 116 148 191 239 293 343
#
# _framework density 18.188020999999999
#
# number of rings (size 3 to 8) (size 9 to 14) (size 15 to 20)
#    0.000    1.857    2.857    1.714    0.000    6.000 
#    0.000    0.000    0.000    0.857    0.000    0.000 
#    0.000    0.000    0.000    0.000    0.000    0.000 
#
# Total GULP energy -156036.596695 kJ/mol
# GULP energy per Si atom -5572.735596 kJ/mol
# Density = 1.814662 g / cm^3
# Si number density = 18.188021 Si / 1000 Ang^3
#
#
#
# Elastic Constant Matrix: (Units=GPa)
#
#
# Indices 1 2 3 4 5 6 
#
# 1 101.9490 33.7808 42.3181 0.0000 -2.5404 0.0000
# 2 33.7808 43.2906 34.4117 0.0000 2.6833 0.0000
# 3 42.3181 34.4117 91.8533 0.0000 8.7107 0.0000
# 4 0.0000 0.0000 0.0000 6.3175 0.0000 -0.8467
# 5 -2.5404 2.6833 8.7107 0.0000 23.6385 0.0000
# 6 0.0000 0.0000 0.0000 -0.8467 0.0000 14.7126
#
#
#
# Elastic Compliance Matrix: (Units=1/GPa)
#
#
# Indices 1 2 3 4 5 6 
#
# 1 0.014247 -0.008328 -0.003812 0.000000 0.003881 0.000000
# 2 -0.008328 0.037780 -0.010181 0.000000 -0.001432 0.000000
# 3 -0.003812 -0.010181 0.016980 0.000000 -0.005511 0.000000
# 4 0.000000 0.000000 0.000000 0.159521 0.000000 0.009180
# 5 0.003881 -0.001432 -0.005511 0.000000 0.044914 0.000000
# 6 0.000000 0.000000 0.000000 0.009180 0.000000 0.068497
#
#
# Mechanical properties :
#
#
# Convention : Reuss Voigt Hill
#
# Bulk Modulus (GPa) = 41.04249 50.90158 45.97203
# Shear Modulus (GPa) = 12.66770 17.37253 15.02012
#
# Velocity S-wave (km/s) = 2.64197 3.09392 2.87683
# Velocity P-wave (km/s) = 5.64989 6.38829 6.03040
#
# Compressibility (1/GPa) = 0.02436500
#
# Stress axis : x y z
#
# Youngs Moduli (GPa) = 70.18849 26.46895 58.89244
#
# Poissons Ratio (x) = 0.22043 0.22450
# Poissons Ratio (y) = 0.58453 0.59960
# Poissons Ratio (z) = 0.26756 0.26949
#
# Static dielectric constant tensor:
#      x y z
#    x 1.637390 0.000000 0.002450 
#    y 0.000000 1.613820 0.000000 
#    z 0.002450 0.000000 1.679890 
# 
# From -- ./inp_files/28209.got.cif
#   From: 2010.05.17/outbox.cif.g08.bks.cpg/sg10_15_cif.got.tgz:28209.got - 2010.06.03 11:33:40.
