data_PCOD9149074
_publ_section_title
;
Structure prediction by ZEFSAII (Michael W. Deem and Ramdas Pophale) SiO2 
 PCOD9149074
Probable space group: P 2/M
;
_chemical_formula_sum "Si O2"
_cell_formula_units_Z 32
_cell_length_a 9.429710
_cell_length_b 9.345322
_cell_length_c 22.753906
_cell_angle_alpha 90.000000
_cell_angle_beta 110.619999
_cell_angle_gamma 90.000000
_cell_volume 1876.700756
_symmetry_space_group_name_H-M "P 2/M"
_symmetry_group_IT_number 10
_symmetry_cell_setting 'monoclinic'
loop_
_space_group_symop_operation_xyz
x,y,z
-x,y,-z
-x,-y,-z
x,-y,z
loop_
_atom_site_type_symbol
_atom_site_label
_atom_site_fract_x
_atom_site_fract_y
_atom_site_fract_z
Si Si1 0.048314 0.829597 0.373334
Si Si2 0.666858 0.828903 0.501496
Si Si3 0.652052 0.164306 0.148673
Si Si4 0.853625 0.335211 0.435229
Si Si5 0.221557 0.832725 0.964880
Si Si6 0.009321 0.170062 0.767794
Si Si7 0.061182 0.667684 0.124983
Si Si8 0.362175 0.666420 0.093226
O O1 0.205772 0.799647 0.430121
O O2 0.913990 0.745964 0.386574
O O3 0.054992 0.794526 0.305519
O O4 0.020001 0.000000 0.374368
O O5 0.500000 0.789302 0.500000
O O6 0.722007 0.746243 0.451456
O O7 0.668338 0.000000 0.490556
O O8 0.694002 0.175819 0.085605
O O9 0.809174 0.193727 0.204917
O O10 0.516562 0.270920 0.141782
O O11 0.606611 0.000000 0.153504
O O12 0.814521 0.500000 0.417898
O O13 0.000000 0.333079 0.500000
O O14 0.063345 0.750756 0.932119
O O15 0.196912 0.000000 0.974507
O O16 0.317194 0.757679 0.029469
O O17 0.942253 0.260900 0.811382
O O18 0.987162 0.000000 0.776362
O O19 0.020030 0.500000 0.122287
O O20 0.223808 0.679964 0.118374
O O21 0.379125 0.500000 0.079911
#
# Coordination Sequence:
#
# PCOD9149074 Si02
#       8
#     4   4   4   4   4   4   4   4
#     4   9  17  32  54  75  97 129 168 206 242 287
#     4   9  17  30  50  77 107 135 163 200 247 292
#     4   9  19  34  50  70  95 122 158 205 249 290
#     4   9  17  29  47  73 102 131 164 199 237 283
#     4  10  20  34  53  75  97 125 163 203 246 297
#     4   9  19  36  55  73  93 125 170 209 243 289
#     4  10  21  35  50  71 100 130 161 200 244 295
#     4  11  22  33  48  73 101 128 160 199 248 301
#
# _framework density 17.051200999999999
#
# number of rings (size 3 to 8) (size 9 to 14) (size 15 to 20)
#    0.000    2.500    0.000    3.000    0.000    9.750 
#    0.000    1.250    0.000    6.000    0.000    0.000 
#    0.000    0.000    0.000    0.000    0.000    0.000 
#
# Total GULP energy -178504.998341 kJ/mol
# GULP energy per Si atom -5578.281198 kJ/mol
# Density = 1.701239 g / cm^3
# Si number density = 17.051201 Si / 1000 Ang^3
#
#
#
# Elastic Constant Matrix: (Units=GPa)
#
#
# Indices 1 2 3 4 5 6 
#
# 1 73.6876 45.5606 8.7893 0.0000 9.7855 0.0000
# 2 45.5606 77.9421 25.2113 0.0000 6.7652 0.0000
# 3 8.7893 25.2113 55.5417 0.0000 2.6926 0.0000
# 4 0.0000 0.0000 0.0000 17.5789 0.0000 0.7898
# 5 9.7855 6.7652 2.6926 0.0000 6.2914 0.0000
# 6 0.0000 0.0000 0.0000 0.7898 0.0000 28.0078
#
#
#
# Elastic Compliance Matrix: (Units=1/GPa)
#
#
# Indices 1 2 3 4 5 6 
#
# 1 0.024868 -0.013402 0.003395 0.000000 -0.025720 0.000000
# 2 -0.013402 0.023480 -0.008500 0.000000 -0.000765 0.000000
# 3 0.003395 -0.008500 0.021586 0.000000 -0.005379 0.000000
# 4 0.000000 0.000000 0.000000 0.056959 0.000000 -0.001606
# 5 -0.025720 -0.000765 -0.005379 0.000000 0.202076 0.000000
# 6 0.000000 0.000000 0.000000 -0.001606 0.000000 0.035750
#
#
# Mechanical properties :
#
#
# Convention : Reuss Voigt Hill
#
# Bulk Modulus (GPa) = 30.37661 40.69930 35.53795
# Shear Modulus (GPa) = 12.11518 18.88296 15.49907
#
# Velocity S-wave (km/s) = 2.66844 3.33141 3.01819
# Velocity P-wave (km/s) = 5.22951 6.22241 5.74744
#
# Compressibility (1/GPa) = 0.03292007
#
# Stress axis : x y z
#
# Youngs Moduli (GPa) = 40.21254 42.58941 46.32568
#
# Poissons Ratio (x) = 0.57079 -0.15728
# Poissons Ratio (y) = 0.53893 0.39377
# Poissons Ratio (z) = -0.13652 0.36201
#
# Static dielectric constant tensor:
#      x y z
#    x 1.565850 0.000000 0.004770 
#    y 0.000000 1.574490 0.000000 
#    z 0.004770 0.000000 1.566040 
# 
# From -- ./inp_files/91742.got.cif
#   From: 2010.05.17/outbox.cif.g08.bks.cpg/sg10_46_cif.got.tgz:91742.got - 2010.06.03 11:33:40.
