data_PCOD9149692
_publ_section_title
;
Structure prediction by ZEFSAII (Michael W. Deem and Ramdas Pophale) SiO2 
 PCOD9149692
Probable space group: P 2/M
;
_chemical_formula_sum "Si O2"
_cell_formula_units_Z 28
_cell_length_a 12.967427
_cell_length_b 7.884940
_cell_length_c 16.461553
_cell_angle_alpha 90.000000
_cell_angle_beta 56.750024
_cell_angle_gamma 90.000000
_cell_volume 1407.596039
_symmetry_space_group_name_H-M "P 2/M"
_symmetry_group_IT_number 10
_symmetry_cell_setting 'monoclinic'
loop_
_space_group_symop_operation_xyz
x,y,z
-x,y,-z
-x,-y,-z
x,-y,z
loop_
_atom_site_type_symbol
_atom_site_label
_atom_site_fract_x
_atom_site_fract_y
_atom_site_fract_z
Si Si1 0.798475 0.207842 0.084626
Si Si2 0.828370 0.301628 0.504506
Si Si3 0.733167 0.803498 0.719163
Si Si4 0.968951 0.303149 0.703501
Si Si5 0.523758 0.207053 0.232548
Si Si6 0.995989 0.201744 0.128041
Si Si7 0.573180 0.794410 0.548689
O O1 0.657608 0.266107 0.146478
O O2 0.874741 0.262193 0.131967
O O3 0.793776 0.000000 0.086167
O O4 0.882462 0.264156 0.972448
O O5 0.848134 0.500000 0.516757
O O6 0.793101 0.211311 0.603493
O O7 0.709281 0.282132 0.498182
O O8 0.945507 0.230110 0.405506
O O9 0.826878 0.718258 0.740654
O O10 0.594627 0.733791 0.768013
O O11 0.725135 0.000000 0.745674
O O12 0.000627 0.500000 0.691807
O O13 0.999090 0.234848 0.779119
O O14 0.498408 0.252059 0.337548
O O15 0.521456 0.000000 0.230389
O O16 0.995947 0.000000 0.116814
O O17 0.500000 0.742523 0.500000
O O18 0.585399 0.000000 0.542139
#
# Coordination Sequence:
#
# PCOD9149692 Si02
#       7
#     4   4   4   4   4   4   4
#     4   8  15  31  54  80 106 130 163 212 264 309
#     4  10  21  35  50  71 104 143 173 206 258 311
#     4  10  20  35  55  78 101 133 178 218 255 304
#     4  11  23  36  51  73 106 141 173 212 262 308
#     4   8  15  29  50  75 104 132 161 208 264 305
#     4   9  18  32  55  82 102 129 172 214 255 306
#     4   9  18  30  48  77 106 135 173 213 250 295
#
# _framework density 19.892071999999999
#
# number of rings (size 3 to 8) (size 9 to 14) (size 15 to 20)
#    0.000    2.714    0.000    3.429    2.000    4.286 
#    0.000    2.143    0.000    9.429    0.000    0.000 
#    0.000    0.000    0.000    0.000    0.000    0.000 
#
# Total GULP energy -156177.325826 kJ/mol
# GULP energy per Si atom -5577.761637 kJ/mol
# Density = 1.984680 g / cm^3
# Si number density = 19.892072 Si / 1000 Ang^3
#
#
#
# Elastic Constant Matrix: (Units=GPa)
#
#
# Indices 1 2 3 4 5 6 
#
# 1 90.5124 -5.4473 39.4875 0.0000 -22.8639 0.0000
# 2 -5.4473 14.6264 -0.9386 0.0000 -3.7161 0.0000
# 3 39.4875 -0.9386 50.7298 0.0000 -24.8646 0.0000
# 4 0.0000 0.0000 0.0000 -122.1131 0.0000 -36.3789
# 5 -22.8639 -3.7161 -24.8646 0.0000 32.7006 0.0000
# 6 0.0000 0.0000 0.0000 -36.3789 0.0000 -52.8225
#
#
#
# Elastic Compliance Matrix: (Units=1/GPa)
#
#
# Indices 1 2 3 4 5 6 
#
# 1 0.017534 0.006921 -0.011359 0.000000 0.004409 0.000000
# 2 0.006921 0.075413 0.004113 0.000000 0.016536 0.000000
# 3 -0.011359 0.004113 0.039799 0.000000 0.022787 0.000000
# 4 0.000000 0.000000 0.000000 -0.010303 0.000000 0.007096
# 5 0.004409 0.016536 0.022787 0.000000 0.052869 0.000000
# 6 0.000000 0.000000 0.000000 0.007096 0.000000 -0.023818
#
#
# Mechanical properties :
#
#
# Convention : Reuss Voigt Hill
#
# Bulk Modulus (GPa) = 7.57028 24.67467 16.12248
# Shear Modulus (GPa) = 25.48733 -20.26254 2.61240
#
# Velocity S-wave (km/s) = 3.58338 -3.19505 1.14723
# Velocity P-wave (km/s) = 4.57545 1.08625 3.14284
#
# Compressibility (1/GPa) = 0.13209557
#
# Stress axis : x y z
#
# Youngs Moduli (GPa) = 57.03145 13.26040 25.12616
#
# Poissons Ratio (x) = -0.09178 0.28542
# Poissons Ratio (y) = -0.39474 -0.10334
# Poissons Ratio (z) = 0.64784 -0.05454
#
# Static dielectric constant tensor:
#      x y z
#    x 1.699500 0.000000 -0.024490 
#    y 0.000000 1.710170 0.000000 
#    z -0.024490 0.000000 1.700210 
# 
# From -- ./inp_files/63618.got.cif
#   From: 2010.05.17/outbox.cif.g08.bks.cpg/sg10_32_cif.got.tgz:63618.got - 2010.06.03 11:33:40.
