data_PCOD9149888
_publ_section_title
;
Structure prediction by ZEFSAII (Michael W. Deem and Ramdas Pophale) SiO2 
 PCOD9149888
Probable space group: P 2/M
;
_chemical_formula_sum "Si O2"
_cell_formula_units_Z 18
_cell_length_a 9.693905
_cell_length_b 22.605259
_cell_length_c 5.239460
_cell_angle_alpha 90.000000
_cell_angle_beta 130.904560
_cell_angle_gamma 90.000000
_cell_volume 867.765628
_symmetry_space_group_name_H-M "P 2/M"
_symmetry_group_IT_number 10
_symmetry_cell_setting 'monoclinic'
loop_
_space_group_symop_operation_xyz
x,y,z
-x,y,-z
-x,-y,-z
x,-y,z
loop_
_atom_site_type_symbol
_atom_site_label
_atom_site_fract_x
_atom_site_fract_y
_atom_site_fract_z
Si Si1 0.626969 0.871329 0.403718
Si Si2 0.371793 0.000000 0.594142
Si Si3 0.114617 0.238202 0.390145
Si Si4 0.279988 0.636404 0.729921
Si Si5 0.276376 0.432316 0.225179
O O1 0.500000 0.866472 0.500000
O O2 0.724385 0.936026 0.526161
O O3 0.758972 0.815932 0.542123
O O4 0.500000 0.870231 0.000000
O O5 0.500000 0.000000 0.500000
O O6 0.500000 0.000000 0.000000
O O7 0.219529 0.296909 0.606651
O O8 0.000000 0.219085 0.500000
O O9 0.000000 0.254202 0.000000
O O10 0.217652 0.594510 0.423417
O O11 0.500000 0.635260 0.000000
O O12 0.217016 0.609826 0.922461
O O13 0.500000 0.432548 0.500000
O O14 0.218463 0.500000 0.118210
#
# Coordination Sequence:
#
# PCOD9149888 Si02
#       5
#     4   2   4   4   4
#     4  10  20  38  63  87 113 149 194 234 277 336
#     4   8  16  32  58  88 112 140 184 238 280 322
#     4  12  25  39  55  82 120 155 189 234 285 329
#     4  10  20  35  57  80 106 145 188 227 275 337
#     4   9  17  31  55  85 108 130 176 239 286 324
#
# _framework density 20.742927999999999
#
# number of rings (size 3 to 8) (size 9 to 14) (size 15 to 20)
#    0.000    2.000    0.000    4.000    0.000    5.333 
#    0.000    1.111    0.000   13.333    0.000    0.000 
#    0.000    0.000    0.000    0.000    0.000    0.000 
#
# Total GULP energy -100568.919278 kJ/mol
# GULP energy per Si atom -5587.162182 kJ/mol
# Density = 2.069572 g / cm^3
# Si number density = 20.742928 Si / 1000 Ang^3
#
#
#
# Elastic Constant Matrix: (Units=GPa)
#
#
# Indices 1 2 3 4 5 6 
#
# 1 90.3515 40.4816 46.0818 0.0000 -29.1259 0.0000
# 2 40.4816 203.2264 53.0908 0.0000 -8.6222 0.0000
# 3 46.0818 53.0908 95.5977 0.0000 -38.5171 0.0000
# 4 0.0000 0.0000 0.0000 11.7907 0.0000 -21.7274
# 5 -29.1259 -8.6222 -38.5171 0.0000 33.5349 0.0000
# 6 0.0000 0.0000 0.0000 -21.7274 0.0000 22.3623
#
#
#
# Elastic Compliance Matrix: (Units=1/GPa)
#
#
# Indices 1 2 3 4 5 6 
#
# 1 0.016975 -0.002306 -0.002235 0.000000 0.011583 0.000000
# 2 -0.002306 0.006385 -0.004802 0.000000 -0.005877 0.000000
# 3 -0.002235 -0.004802 0.024059 0.000000 0.024457 0.000000
# 4 0.000000 0.000000 0.000000 -0.107298 0.000000 -0.104252
# 5 0.011583 -0.005877 0.024457 0.000000 0.066460 0.000000
# 6 0.000000 0.000000 0.000000 -0.104252 0.000000 -0.056574
#
#
# Mechanical properties :
#
#
# Convention : Reuss Voigt Hill
#
# Bulk Modulus (GPa) = 34.80376 74.27599 54.53988
# Shear Modulus (GPa) = -230.11382 30.17233 -99.97075
#
# Velocity S-wave (km/s) = -10.54404 3.81804 -6.94980
# Velocity P-wave (km/s) = 11.46389 7.43789 6.16841
#
# Compressibility (1/GPa) = 0.02873253
#
# Stress axis : x y z
#
# Youngs Moduli (GPa) = 58.91017 156.61255 41.56469
#
# Poissons Ratio (x) = 0.36115 0.09289
# Poissons Ratio (y) = 0.13585 0.19961
# Poissons Ratio (z) = 0.13166 0.75210
#
# Static dielectric constant tensor:
#      x y z
#    x 1.726710 0.000000 0.031160 
#    y 0.000000 1.738590 0.000000 
#    z 0.031160 0.000000 1.731560 
# 
# From -- ./inp_files/3970.got.cif
#   From: 2010.05.17/outbox.cif.g08.bks.cpg/sg10_2_cif.got.tgz:3970.got - 2010.06.03 11:33:40.
