data_PCOD9149733
_publ_section_title
;
Structure prediction by ZEFSAII (Michael W. Deem and Ramdas Pophale) SiO2 
 PCOD9149733
Probable space group: P 2/M
;
_chemical_formula_sum "Si O2"
_cell_formula_units_Z 32
_cell_length_a 22.634680
_cell_length_b 8.622384
_cell_length_c 28.950373
_cell_angle_alpha 90.000000
_cell_angle_beta 161.320737
_cell_angle_gamma 90.000000
_cell_volume 1809.557309
_symmetry_space_group_name_H-M "P 2/M"
_symmetry_group_IT_number 10
_symmetry_cell_setting 'monoclinic'
loop_
_space_group_symop_operation_xyz
x,y,z
-x,y,-z
-x,-y,-z
x,-y,z
loop_
_atom_site_type_symbol
_atom_site_label
_atom_site_fract_x
_atom_site_fract_y
_atom_site_fract_z
Si Si1 0.027387 0.813536 0.695140
Si Si2 0.989201 0.314914 0.813991
Si Si3 0.996374 0.685442 0.569226
Si Si4 0.712789 0.814534 0.288478
Si Si5 0.002982 0.187386 0.927016
Si Si6 0.283950 0.187060 0.461844
Si Si7 0.696772 0.313610 0.026494
Si Si8 0.703614 0.811162 0.780242
O O1 0.203104 0.750331 0.853523
O O2 0.013085 0.743326 0.633798
O O3 0.848608 0.769374 0.593586
O O4 0.036382 0.000000 0.699224
O O5 0.979456 0.500000 0.807055
O O6 0.168050 0.269728 0.915887
O O7 0.001113 0.253180 0.874522
O O8 0.813372 0.249310 0.656254
O O9 0.997403 0.500000 0.567801
O O10 0.812485 0.749282 0.408128
O O11 0.165025 0.750925 0.663530
O O12 0.720947 0.000000 0.294931
O O13 0.504556 0.756592 0.129554
O O14 0.824634 0.234366 0.825296
O O15 0.003409 0.000000 0.924985
O O16 0.181291 0.236094 0.089180
O O17 0.493322 0.242653 0.622860
O O18 0.285848 0.000000 0.461020
O O19 0.686022 0.500000 0.020891
O O20 0.701297 0.000000 0.778873
#
# Coordination Sequence:
#
# PCOD9149733 Si02
#       8
#     4   4   4   4   4   4   4   4
#     4  10  20  35  55  81 108 138 180 228 268 310
#     4  10  21  35  51  75 108 139 172 213 260 314
#     4  11  22  38  58  81 112 147 177 211 262 322
#     4  11  22  38  59  83 109 138 178 226 264 305
#     4   9  17  32  54  76 102 135 175 218 262 311
#     4   9  18  34  55  76 102 136 176 218 262 309
#     4  10  21  38  56  77 107 143 178 217 269 327
#     4   8  16  32  53  77 101 132 175 221 262 308
#
# _framework density 17.683883999999999
#
# number of rings (size 3 to 8) (size 9 to 14) (size 15 to 20)
#    0.000    2.250    0.000    4.875    0.000    4.000 
#    0.000    8.750    0.000    0.000    0.000    0.000 
#    0.000    0.000    0.000    0.000    0.000    0.000 
#
# Total GULP energy -178624.503387 kJ/mol
# GULP energy per Si atom -5582.015731 kJ/mol
# Density = 1.764363 g / cm^3
# Si number density = 17.683884 Si / 1000 Ang^3
#
#
#
# Elastic Constant Matrix: (Units=GPa)
#
#
# Indices 1 2 3 4 5 6 
#
# 1 156.0864 54.3363 121.8398 0.0000 -36.4850 0.0000
# 2 54.3363 78.5452 65.1409 0.0000 -7.0407 0.0000
# 3 121.8398 65.1409 220.4126 0.0000 -4.6240 0.0000
# 4 0.0000 0.0000 0.0000 2.5908 0.0000 12.5052
# 5 -36.4850 -7.0407 -4.6240 0.0000 22.1360 0.0000
# 6 0.0000 0.0000 0.0000 12.5052 0.0000 14.5192
#
#
#
# Elastic Compliance Matrix: (Units=1/GPa)
#
#
# Indices 1 2 3 4 5 6 
#
# 1 0.028644 -0.004751 -0.013530 0.000000 0.042875 0.000000
# 2 -0.004751 0.018079 -0.002773 0.000000 -0.002660 0.000000
# 3 -0.013530 -0.002773 0.012404 0.000000 -0.020592 0.000000
# 4 0.000000 0.000000 0.000000 -0.122254 0.000000 0.105296
# 5 0.042875 -0.002660 -0.020592 0.000000 0.110695 0.000000
# 6 0.000000 0.000000 0.000000 0.105296 0.000000 -0.021815
#
#
# Mechanical properties :
#
#
# Convention : Reuss Voigt Hill
#
# Bulk Modulus (GPa) = 58.75772 104.18645 81.47209
# Shear Modulus (GPa) = 67.99626 22.09768 45.04697
#
# Velocity S-wave (km/s) = 6.20761 3.53880 5.05260
# Velocity P-wave (km/s) = 9.20207 8.70295 8.95599
#
# Compressibility (1/GPa) = 0.01701904
#
# Stress axis : x y z
#
# Youngs Moduli (GPa) = 34.91109 55.31178 80.62102
#
# Poissons Ratio (x) = 0.26279 1.09083
# Poissons Ratio (y) = 0.16586 0.22354
# Poissons Ratio (z) = 0.47236 0.15336
#
# Static dielectric constant tensor:
#      x y z
#    x 1.579160 0.000000 0.011740 
#    y 0.000000 1.594010 0.000000 
#    z 0.011740 0.000000 1.586990 
# 
# From -- ./inp_files/93808.got.cif
#   From: 2010.05.17/outbox.cif.g08.bks.cpg/sg10_47_cif.got.tgz:93808.got - 2010.06.03 11:33:40.
