data_PCOD9149234
_publ_section_title
;
Structure prediction by ZEFSAII (Michael W. Deem and Ramdas Pophale) SiO2 
 PCOD9149234
Probable space group: P 2/M
;
_chemical_formula_sum "Si O2"
_cell_formula_units_Z 28
_cell_length_a 9.254876
_cell_length_b 7.696670
_cell_length_c 29.390207
_cell_angle_alpha 90.000000
_cell_angle_beta 141.576300
_cell_angle_gamma 90.000000
_cell_volume 1301.060853
_symmetry_space_group_name_H-M "P 2/M"
_symmetry_group_IT_number 10
_symmetry_cell_setting 'monoclinic'
loop_
_space_group_symop_operation_xyz
x,y,z
-x,y,-z
-x,-y,-z
x,-y,z
loop_
_atom_site_type_symbol
_atom_site_label
_atom_site_fract_x
_atom_site_fract_y
_atom_site_fract_z
Si Si1 0.522610 0.288587 0.277595
Si Si2 0.400987 0.287193 0.426569
Si Si3 0.123353 0.702331 0.711405
Si Si4 0.011916 0.796225 0.869739
Si Si5 0.286310 0.200412 0.850013
Si Si6 0.188588 0.299167 0.011038
Si Si7 0.734651 0.287790 0.426970
O O1 0.511561 0.500000 0.273889
O O2 0.689691 0.225489 0.278112
O O3 0.261049 0.224289 0.206541
O O4 0.631044 0.235770 0.352703
O O5 0.500000 0.236416 0.500000
O O6 0.400422 0.500000 0.424942
O O7 0.567451 0.230420 0.426630
O O8 0.136691 0.224574 0.355641
O O9 0.100071 0.500000 0.692875
O O10 0.216380 0.713171 0.785488
O O11 0.154470 0.725854 0.861578
O O12 0.070209 0.000000 0.888928
O O13 0.085654 0.710106 0.935120
O O14 0.561794 0.210251 0.925188
O O15 0.213725 0.000000 0.827909
O O16 0.229547 0.500000 0.034040
O O17 0.000000 0.226234 0.000000
O O18 0.737172 0.500000 0.427887
O O19 0.000000 0.230846 0.500000
#
# Coordination Sequence:
#
# PCOD9149234 Si02
#       7
#     4   4   4   4   4   4   4
#     4  10  20  34  54  81 111 144 185 230 275 326
#     4   9  16  27  46  74 108 144 182 227 277 325
#     4  10  20  34  54  81 111 144 185 230 275 326
#     4  11  24  40  58  82 112 146 184 224 269 324
#     4  11  24  40  58  82 112 146 184 224 269 324
#     4  11  24  41  62  88 114 141 178 223 270 322
#     4   9  16  27  46  74 108 144 182 227 277 325
#
# _framework density 21.520899
#
# number of rings (size 3 to 8) (size 9 to 14) (size 15 to 20)
#    0.000    1.857    0.000    4.286    0.000   13.714 
#    0.000    0.000    0.000    0.857    0.000    0.000 
#    0.000    0.000    0.000    0.000    0.000    0.000 
#
# Total GULP energy -156553.315338 kJ/mol
# GULP energy per Si atom -5591.189834 kJ/mol
# Density = 2.147192 g / cm^3
# Si number density = 21.520899 Si / 1000 Ang^3
#
#
#
# Elastic Constant Matrix: (Units=GPa)
#
#
# Indices 1 2 3 4 5 6 
#
# 1 228.2283 -6.0189 95.1147 0.0000 2.2859 0.0000
# 2 -6.0189 36.5700 -18.6123 0.0000 0.3066 0.0000
# 3 95.1147 -18.6123 157.4362 0.0000 6.8582 0.0000
# 4 0.0000 0.0000 0.0000 -311.9659 0.0000 68.7905
# 5 2.2859 0.3066 6.8582 0.0000 41.4865 0.0000
# 6 0.0000 0.0000 0.0000 68.7905 0.0000 6.1860
#
#
#
# Elastic Compliance Matrix: (Units=1/GPa)
#
#
# Indices 1 2 3 4 5 6 
#
# 1 0.005887 -0.000904 -0.003676 0.000000 0.000290 0.000000
# 2 -0.000904 0.029260 0.004042 0.000000 -0.000835 0.000000
# 3 -0.003676 0.004042 0.009109 0.000000 -0.001333 0.000000
# 4 0.000000 0.000000 0.000000 -0.000929 0.000000 0.010326
# 5 0.000290 -0.000835 -0.001333 0.000000 0.024315 0.000000
# 6 0.000000 0.000000 0.000000 0.010326 0.000000 0.046828
#
#
# Mechanical properties :
#
#
# Convention : Reuss Voigt Hill
#
# Bulk Modulus (GPa) = 23.15976 62.57795 42.86885
# Shear Modulus (GPa) = 38.47936 -29.40862 4.53537
#
# Velocity S-wave (km/s) = 4.23306 -3.70065 1.45327
# Velocity P-wave (km/s) = 5.88869 3.29866 4.77272
#
# Compressibility (1/GPa) = 0.04317835
#
# Stress axis : x y z
#
# Youngs Moduli (GPa) = 169.87057 34.17620 109.78647
#
# Poissons Ratio (x) = 0.03091 0.40358
# Poissons Ratio (y) = 0.15364 -0.44375
# Poissons Ratio (z) = 0.62446 -0.13814
#
# Static dielectric constant tensor:
#      x y z
#    x 1.761850 0.000000 0.003410 
#    y 0.000000 1.797910 0.000000 
#    z 0.003410 0.000000 1.704030 
# 
# From -- ./inp_files/91935.got.cif
#   From: 2010.05.17/outbox.cif.g08.bks.cpg/sg10_46_cif.got.tgz:91935.got - 2010.06.03 11:33:40.
