data_PCOD9149772
_publ_section_title
;
Structure prediction by ZEFSAII (Michael W. Deem and Ramdas Pophale) SiO2 
 PCOD9149772
Probable space group: P 2/M
;
_chemical_formula_sum "Si O2"
_cell_formula_units_Z 28
_cell_length_a 24.224680
_cell_length_b 7.943322
_cell_length_c 21.371294
_cell_angle_alpha 90.000000
_cell_angle_beta 160.121588
_cell_angle_gamma 90.000000
_cell_volume 1398.305916
_symmetry_space_group_name_H-M "P 2/M"
_symmetry_group_IT_number 10
_symmetry_cell_setting 'monoclinic'
loop_
_space_group_symop_operation_xyz
x,y,z
-x,y,-z
-x,-y,-z
x,-y,z
loop_
_atom_site_type_symbol
_atom_site_label
_atom_site_fract_x
_atom_site_fract_y
_atom_site_fract_z
Si Si1 0.737029 0.796610 0.367859
Si Si2 0.084971 0.203600 0.937783
Si Si3 0.659634 0.809662 0.690079
Si Si4 0.086318 0.206179 0.795425
Si Si5 0.619679 0.801150 0.979349
Si Si6 0.188529 0.701571 0.693829
Si Si7 0.854546 0.316334 0.794480
O O1 0.745187 0.748633 0.303646
O O2 0.909666 0.738667 0.581102
O O3 0.735496 0.000000 0.370759
O O4 0.566482 0.734728 0.216463
O O5 0.099949 0.256683 0.882377
O O6 0.924233 0.263764 0.802208
O O7 0.084261 0.000000 0.938907
O O8 0.230465 0.264689 0.138024
O O9 0.500000 0.713021 0.500000
O O10 0.748666 0.816890 0.718300
O O11 0.621616 0.000000 0.670885
O O12 0.242334 0.265979 0.921588
O O13 0.086423 0.000000 0.792697
O O14 0.700208 0.777750 0.133302
O O15 0.605749 0.000000 0.950974
O O16 0.190624 0.500000 0.703078
O O17 0.000000 0.758405 0.500000
O O18 0.776683 0.500000 0.707020
O O19 0.000000 0.330717 0.000000
#
# Coordination Sequence:
#
# PCOD9149772 Si02
#       7
#     4   4   4   4   4   4   4
#     4  10  20  35  56  80 102 133 175 215 262 311
#     4   9  17  32  52  73 100 133 167 205 254 303
#     4   9  17  30  49  77 105 131 166 211 257 301
#     4   9  18  34  53  76 106 137 170 214 259 307
#     4  10  20  35  56  79 103 133 173 216 260 310
#     4  11  22  35  54  79 105 138 175 213 262 308
#     4   9  17  30  49  71  95 128 166 204 246 295
#
# _framework density 20.024232000000001
#
# number of rings (size 3 to 8) (size 9 to 14) (size 15 to 20)
#    0.000    2.429    1.429    1.286    0.000    4.857 
#    2.571    1.429    0.000    0.000    0.000    0.000 
#    0.000    0.000    0.000    0.000    0.000    0.000 
#
# Total GULP energy -155886.519060 kJ/mol
# GULP energy per Si atom -5567.375681 kJ/mol
# Density = 1.997866 g / cm^3
# Si number density = 20.024232 Si / 1000 Ang^3
#
#
#
# Elastic Constant Matrix: (Units=GPa)
#
#
# Indices 1 2 3 4 5 6 
#
# 1 169.3496 1.2913 76.0691 0.0000 3.5056 0.0000
# 2 1.2913 24.8921 4.5758 0.0000 4.7709 0.0000
# 3 76.0691 4.5758 96.6942 0.0000 22.8666 0.0000
# 4 0.0000 0.0000 0.0000 1.5745 0.0000 1.9210
# 5 3.5056 4.7709 22.8666 0.0000 30.2804 0.0000
# 6 0.0000 0.0000 0.0000 1.9210 0.0000 25.7818
#
#
#
# Elastic Compliance Matrix: (Units=1/GPa)
#
#
# Indices 1 2 3 4 5 6 
#
# 1 0.009894 0.000066 -0.009147 0.000000 0.005752 0.000000
# 2 0.000066 0.041445 -0.000569 0.000000 -0.006108 0.000000
# 3 -0.009147 -0.000569 0.021053 0.000000 -0.014750 0.000000
# 4 0.000000 0.000000 0.000000 0.698644 0.000000 -0.052056
# 5 0.005752 -0.006108 -0.014750 0.000000 0.044460 0.000000
# 6 0.000000 0.000000 0.000000 -0.052056 0.000000 0.042666
#
#
# Mechanical properties :
#
#
# Convention : Reuss Voigt Hill
#
# Bulk Modulus (GPa) = 18.83501 50.53428 34.68464
# Shear Modulus (GPa) = 5.58560 25.46063 15.52312
#
# Velocity S-wave (km/s) = 1.67197 3.56967 2.78729
# Velocity P-wave (km/s) = 3.62682 6.50241 5.26475
#
# Compressibility (1/GPa) = 0.05309263
#
# Stress axis : x y z
#
# Youngs Moduli (GPa) = 101.07121 24.12827 47.49991
#
# Poissons Ratio (x) = -0.00159 0.43448
# Poissons Ratio (y) = -0.00665 0.02700
# Poissons Ratio (z) = 0.92449 0.01372
#
# Static dielectric constant tensor:
#      x y z
#    x 1.698780 0.000000 0.057360 
#    y 0.000000 1.736710 0.000000 
#    z 0.057360 0.000000 1.767950 
# 
# From -- ./inp_files/37950.got.cif
#   From: 2010.05.17/outbox.cif.g08.bks.cpg/sg10_19_cif.got.tgz:37950.got - 2010.06.03 11:33:40.
