data_PCOD9149516
_publ_section_title
;
Structure prediction by ZEFSAII (Michael W. Deem and Ramdas Pophale) SiO2 
 PCOD9149516
Probable space group: P 2/M
;
_chemical_formula_sum "Si O2"
_cell_formula_units_Z 29
_cell_length_a 14.765509
_cell_length_b 7.736274
_cell_length_c 17.647817
_cell_angle_alpha 90.000000
_cell_angle_beta 41.901802
_cell_angle_gamma 90.000000
_cell_volume 1346.337883
_symmetry_space_group_name_H-M "P 2/M"
_symmetry_group_IT_number 10
_symmetry_cell_setting 'monoclinic'
loop_
_space_group_symop_operation_xyz
x,y,z
-x,y,-z
-x,-y,-z
x,-y,z
loop_
_atom_site_type_symbol
_atom_site_label
_atom_site_fract_x
_atom_site_fract_y
_atom_site_fract_z
Si Si1 0.593023 0.290761 0.839196
Si Si2 0.143427 0.301526 0.230293
Si Si3 0.400632 0.697823 0.341905
Si Si4 0.500000 0.000000 0.000000
Si Si5 0.824555 0.208167 0.960004
Si Si6 0.136162 0.210401 0.779282
Si Si7 0.315592 0.800404 0.804652
Si Si8 0.159811 0.199480 0.594650
O O1 0.568479 0.500000 0.865926
O O2 0.734520 0.240986 0.792750
O O3 0.608015 0.255166 0.740931
O O4 0.490230 0.155510 0.940841
O O5 0.117841 0.500000 0.265694
O O6 0.188924 0.287482 0.114651
O O7 0.999129 0.208794 0.326971
O O8 0.443971 0.500000 0.317875
O O9 0.523701 0.796279 0.305164
O O10 0.258555 0.715617 0.472791
O O11 0.978050 0.248004 0.891843
O O12 0.815024 0.000000 0.955458
O O13 0.723594 0.271564 0.088153
O O14 0.232985 0.275498 0.785605
O O15 0.171700 0.273566 0.672521
O O16 0.146164 0.000000 0.769611
O O17 0.270265 0.000000 0.837255
O O18 0.200575 0.000000 0.571756
#
# Coordination Sequence:
#
# PCOD9149516 Si02
#       8
#     4   4   4   1   4   4   4   4
#     4  10  26  44  63  96 132 167 207 253 307 366
#     4  10  21  39  61  87 120 160 198 246 312 363
#     4  11  25  43  57  82 124 162 198 250 311 362
#     4  12  26  40  76  88 132 168 218 246 304 370
#     4   9  18  32  57  88 119 152 199 247 298 364
#     4   8  16  34  57  87 117 150 193 257 309 352
#     4  10  20  34  58  85 117 156 204 249 304 365
#     4  10  21  39  65  88 115 149 206 258 300 366
#
# _framework density 21.539912000000001
#
# number of rings (size 3 to 8) (size 9 to 14) (size 15 to 20)
#    0.000    2.207    0.000    2.690    5.793    3.310 
#    0.000    8.966    0.000    4.138    0.000    0.000 
#    0.000    0.000    0.000    0.000    0.000    0.000 
#
# Total GULP energy -161669.290822 kJ/mol
# GULP energy per Si atom -5574.803132 kJ/mol
# Density = 2.149089 g / cm^3
# Si number density = 21.539912 Si / 1000 Ang^3
#
#
#
# Elastic Constant Matrix: (Units=GPa)
#
#
# Indices 1 2 3 4 5 6 
#
# 1 103.1780 2.5017 23.7574 0.0000 -14.2167 0.0000
# 2 2.5017 44.2951 13.4688 0.0000 1.7041 0.0000
# 3 23.7574 13.4688 99.2664 0.0000 -1.4800 0.0000
# 4 0.0000 0.0000 0.0000 21.7963 0.0000 10.2938
# 5 -14.2167 1.7041 -1.4800 0.0000 16.7094 0.0000
# 6 0.0000 0.0000 0.0000 10.2938 0.0000 13.3194
#
#
#
# Elastic Compliance Matrix: (Units=1/GPa)
#
#
# Indices 1 2 3 4 5 6 
#
# 1 0.011633 -0.000237 -0.002608 0.000000 0.009691 0.000000
# 2 -0.000237 0.023673 -0.003199 0.000000 -0.002899 0.000000
# 3 -0.002608 -0.003199 0.011118 0.000000 -0.000908 0.000000
# 4 0.000000 0.000000 0.000000 0.072250 0.000000 -0.055838
# 5 0.009691 -0.002899 -0.000908 0.000000 0.068307 0.000000
# 6 0.000000 0.000000 0.000000 -0.055838 0.000000 0.118232
#
#
# Mechanical properties :
#
#
# Convention : Reuss Voigt Hill
#
# Bulk Modulus (GPa) = 29.12145 36.24394 32.68269
# Shear Modulus (GPa) = 15.20926 24.16578 19.68752
#
# Velocity S-wave (km/s) = 2.66013 3.35312 3.02653
# Velocity P-wave (km/s) = 4.79418 5.64395 5.23633
#
# Compressibility (1/GPa) = 0.03433896
#
# Stress axis : x y z
#
# Youngs Moduli (GPa) = 85.95876 42.24155 89.94068
#
# Poissons Ratio (x) = 0.01001 0.23453
# Poissons Ratio (y) = 0.02037 0.28768
# Poissons Ratio (z) = 0.22415 0.13511
#
# Static dielectric constant tensor:
#      x y z
#    x 1.810710 0.000000 -0.016310 
#    y 0.000000 1.800400 0.000000 
#    z -0.016310 0.000000 1.777210 
# 
# From -- ./inp_files/77743.got.cif
#   From: 2010.05.17/outbox.cif.g08.bks.cpg/sg10_39_cif.got.tgz:77743.got - 2010.06.03 11:33:40.
