data_PCOD9149180
_publ_section_title
;
Structure prediction by ZEFSAII (Michael W. Deem and Ramdas Pophale) SiO2 
 PCOD9149180
Probable space group: P 2/M
;
_chemical_formula_sum "Si O2"
_cell_formula_units_Z 22
_cell_length_a 10.371290
_cell_length_b 22.318224
_cell_length_c 5.101528
_cell_angle_alpha 90.000000
_cell_angle_beta 118.255725
_cell_angle_gamma 90.000000
_cell_volume 1040.139068
_symmetry_space_group_name_H-M "P 2/M"
_symmetry_group_IT_number 10
_symmetry_cell_setting 'monoclinic'
loop_
_space_group_symop_operation_xyz
x,y,z
-x,y,-z
-x,-y,-z
x,-y,z
loop_
_atom_site_type_symbol
_atom_site_label
_atom_site_fract_x
_atom_site_fract_y
_atom_site_fract_z
Si Si1 0.393233 0.000000 0.145170
Si Si2 0.893885 0.565605 0.645576
Si Si3 0.832000 0.311079 0.747500
Si Si4 0.396727 0.748360 0.143313
Si Si5 0.332953 0.124930 0.243111
Si Si6 0.103774 0.815664 0.356100
O O1 0.500000 0.000000 0.500000
O O2 0.302839 0.938179 0.074968
O O3 0.500000 0.000000 0.000000
O O4 0.820475 0.500000 0.551627
O O5 0.797029 0.625217 0.583603
O O6 0.000000 0.573647 0.500000
O O7 0.000000 0.562556 0.000000
O O8 0.730325 0.297237 0.898186
O O9 0.826757 0.251385 0.562015
O O10 0.000000 0.314898 0.000000
O O11 0.500000 0.749460 0.500000
O O12 0.327733 0.815373 0.058509
O O13 0.500000 0.734543 0.000000
O O14 0.500000 0.122151 0.500000
O O15 0.229127 0.138080 0.390604
O O16 0.000000 0.829089 0.500000
O O17 0.000000 0.814133 0.000000
#
# Coordination Sequence:
#
# PCOD9149180 Si02
#       6
#     2   4   4   4   4   4
#     4  10  20  34  54  78 100 128 171 214 247 290
#     4   9  17  29  47  73 101 128 164 209 249 287
#     4   9  19  33  54  77 102 133 171 209 249 298
#     4  10  21  35  52  76 105 134 165 207 256 301
#     4   9  20  36  56  77 101 134 172 209 249 299
#     4  10  21  35  52  77 107 134 164 207 257 302
#
# _framework density 21.151018000000001
#
# number of rings (size 3 to 8) (size 9 to 14) (size 15 to 20)
#    0.000    2.545    0.000    1.091    0.000   18.909 
#    0.000    0.909    0.000    1.091    0.000    0.000 
#    0.000    0.000    0.000    0.000    0.000    0.000 
#
# Total GULP energy -122816.783862 kJ/mol
# GULP energy per Si atom -5582.581085 kJ/mol
# Density = 2.110288 g / cm^3
# Si number density = 21.151018 Si / 1000 Ang^3
#
#
#
# Elastic Constant Matrix: (Units=GPa)
#
#
# Indices 1 2 3 4 5 6 
#
# 1 193.4225 91.9234 38.9822 0.0000 -43.5871 0.0000
# 2 91.9234 193.9595 12.2456 0.0000 -25.9368 0.0000
# 3 38.9822 12.2456 66.5359 0.0000 -31.4834 0.0000
# 4 0.0000 0.0000 0.0000 13.3850 0.0000 -8.1674
# 5 -43.5871 -25.9368 -31.4834 0.0000 45.2479 0.0000
# 6 0.0000 0.0000 0.0000 -8.1674 0.0000 17.7497
#
#
#
# Elastic Compliance Matrix: (Units=1/GPa)
#
#
# Indices 1 2 3 4 5 6 
#
# 1 0.008079 -0.003083 -0.001967 0.000000 0.004646 0.000000
# 2 -0.003083 0.006784 0.001480 0.000000 0.001948 0.000000
# 3 -0.001967 0.001480 0.022980 0.000000 0.014943 0.000000
# 4 0.000000 0.000000 0.000000 0.103877 0.000000 0.047798
# 5 0.004646 0.001948 0.014943 0.000000 0.038090 0.000000
# 6 0.000000 0.000000 0.000000 0.047798 0.000000 0.078333
#
#
# Mechanical properties :
#
#
# Convention : Reuss Voigt Hill
#
# Bulk Modulus (GPa) = 32.57184 82.24670 57.40927
# Shear Modulus (GPa) = 18.14759 35.99429 27.07094
#
# Velocity S-wave (km/s) = 2.93234 4.12973 3.58143
# Velocity P-wave (km/s) = 5.18632 7.85554 6.65610
#
# Compressibility (1/GPa) = 0.03070137
#
# Stress axis : x y z
#
# Youngs Moduli (GPa) = 123.78035 147.40370 43.51534
#
# Poissons Ratio (x) = 0.45449 0.08561
# Poissons Ratio (y) = 0.38165 -0.06439
# Poissons Ratio (z) = 0.24352 -0.21812
#
# Static dielectric constant tensor:
#      x y z
#    x 1.729150 0.000000 0.019250 
#    y 0.000000 1.877410 0.000000 
#    z 0.019250 0.000000 1.834450 
# 
# From -- ./inp_files/5200.got.cif
#   From: 2010.05.17/outbox.cif.g08.bks.cpg/sg10_3_cif.got.tgz:5200.got - 2010.06.03 11:33:40.
