data_PCOD9149978
_publ_section_title
;
Structure prediction by ZEFSAII (Michael W. Deem and Ramdas Pophale) SiO2 
 PCOD9149978
Probable space group: P 2/M
;
_chemical_formula_sum "Si O2"
_cell_formula_units_Z 32
_cell_length_a 14.699308
_cell_length_b 7.466836
_cell_length_c 23.923619
_cell_angle_alpha 90.000000
_cell_angle_beta 31.334815
_cell_angle_gamma 90.000000
_cell_volume 1365.512374
_symmetry_space_group_name_H-M "P 2/M"
_symmetry_group_IT_number 10
_symmetry_cell_setting 'monoclinic'
loop_
_space_group_symop_operation_xyz
x,y,z
-x,y,-z
-x,-y,-z
x,-y,z
loop_
_atom_site_type_symbol
_atom_site_label
_atom_site_fract_x
_atom_site_fract_y
_atom_site_fract_z
Si Si1 0.346708 0.282456 0.507502
Si Si2 0.841627 0.790196 0.045973
Si Si3 0.770576 0.712501 0.721871
Si Si4 0.151816 0.719032 0.499637
Si Si5 0.881521 0.205611 0.903608
Si Si6 0.731883 0.283155 0.325004
Si Si7 0.699781 0.784517 0.887330
Si Si8 0.456805 0.283927 0.255402
O O1 0.347056 0.500000 0.507760
O O2 0.222568 0.224971 0.523104
O O3 0.548520 0.228023 0.393653
O O4 0.283138 0.227580 0.602127
O O5 0.648349 0.778119 0.172892
O O6 0.884100 0.000000 0.015723
O O7 0.826704 0.710232 0.991319
O O8 0.000000 0.714504 0.000000
O O9 0.772446 0.500000 0.711591
O O10 0.764916 0.737737 0.791213
O O11 0.601873 0.778019 0.775969
O O12 0.952137 0.781189 0.600197
O O13 0.148115 0.500000 0.499382
O O14 0.297240 0.774135 0.378778
O O15 0.811996 0.283260 0.881401
O O16 0.091331 0.209941 0.793062
O O17 0.818588 0.000000 0.936611
O O18 0.741214 0.500000 0.318149
O O19 0.701855 0.000000 0.887389
O O20 0.500000 0.723696 0.000000
O O21 0.465437 0.500000 0.253028
#
# Coordination Sequence:
#
# PCOD9149978 Si02
#       8
#     4   4   4   4   4   4   4   4
#     4   8  15  28  47  75 107 140 176 213 258 317
#     4  10  23  42  60  78 107 148 188 228 278 332
#     4  10  20  35  57  86 117 146 181 228 276 326
#     4   9  17  31  53  79 113 150 180 217 274 330
#     4  10  21  36  54  77 105 136 176 222 273 326
#     4   9  17  30  51  77 105 137 176 218 262 315
#     4  10  21  37  57  79 107 146 185 224 275 331
#     4  10  21  36  57  85 113 143 185 232 276 324
#
# _framework density 23.434428
#
# number of rings (size 3 to 8) (size 9 to 14) (size 15 to 20)
#    0.000    2.500    0.000    2.625    1.750    5.500 
#    0.000    1.875    0.000    3.000    0.000    0.000 
#    0.000    0.000    0.000    0.000    0.000    0.000 
#
# Total GULP energy -178747.386485 kJ/mol
# GULP energy per Si atom -5585.855828 kJ/mol
# Density = 2.338109 g / cm^3
# Si number density = 23.434428 Si / 1000 Ang^3
#
#
#
# Elastic Constant Matrix: (Units=GPa)
#
#
# Indices 1 2 3 4 5 6 
#
# 1 108.0644 5.1338 40.1247 0.0000 -22.3354 0.0000
# 2 5.1338 65.1149 -9.7535 0.0000 -0.4663 0.0000
# 3 40.1247 -9.7535 122.5312 0.0000 -17.1472 0.0000
# 4 0.0000 0.0000 0.0000 12.5109 0.0000 -1.0266
# 5 -22.3354 -0.4663 -17.1472 0.0000 29.5966 0.0000
# 6 0.0000 0.0000 0.0000 -1.0266 0.0000 5.7685
#
#
#
# Elastic Compliance Matrix: (Units=1/GPa)
#
#
# Indices 1 2 3 4 5 6 
#
# 1 0.011928 -0.001338 -0.002999 0.000000 0.007243 0.000000
# 2 -0.001338 0.015723 0.001723 0.000000 0.000236 0.000000
# 3 -0.002999 0.001723 0.009759 0.000000 0.003418 0.000000
# 4 0.000000 0.000000 0.000000 0.081115 0.000000 0.014436
# 5 0.007243 0.000236 0.003418 0.000000 0.041238 0.000000
# 6 0.000000 0.000000 0.000000 0.014436 0.000000 0.175925
#
#
# Mechanical properties :
#
#
# Convention : Reuss Voigt Hill
#
# Bulk Modulus (GPa) = 31.07402 40.74672 35.91037
# Shear Modulus (GPa) = 14.21905 26.92225 20.57065
#
# Velocity S-wave (km/s) = 2.46592 3.39312 2.96598
# Velocity P-wave (km/s) = 4.62563 5.72506 5.20446
#
# Compressibility (1/GPa) = 0.03218123
#
# Stress axis : x y z
#
# Youngs Moduli (GPa) = 83.83784 63.60247 102.47358
#
# Poissons Ratio (x) = 0.08508 0.30730
# Poissons Ratio (y) = 0.11215 -0.17653
# Poissons Ratio (z) = 0.25142 -0.10956
#
# Static dielectric constant tensor:
#      x y z
#    x 1.898190 0.000000 0.010690 
#    y 0.000000 1.905840 0.000000 
#    z 0.010690 0.000000 1.850560 
# 
# From -- ./inp_files/89358.got.cif
#   From: 2010.05.17/outbox.cif.g08.bks.cpg/sg10_45_cif.got.tgz:89358.got - 2010.06.03 11:33:40.
