data_PCOD9149963
_publ_section_title
;
Structure prediction by ZEFSAII (Michael W. Deem and Ramdas Pophale) SiO2 
 PCOD9149963
Probable space group: P 2/M
;
_chemical_formula_sum "Si O2"
_cell_formula_units_Z 26
_cell_length_a 9.785915
_cell_length_b 13.913239
_cell_length_c 16.085963
_cell_angle_alpha 90.000000
_cell_angle_beta 141.719091
_cell_angle_gamma 90.000000
_cell_volume 1356.845302
_symmetry_space_group_name_H-M "P 2/M"
_symmetry_group_IT_number 10
_symmetry_cell_setting 'monoclinic'
loop_
_space_group_symop_operation_xyz
x,y,z
-x,y,-z
-x,-y,-z
x,-y,z
loop_
_atom_site_type_symbol
_atom_site_label
_atom_site_fract_x
_atom_site_fract_y
_atom_site_fract_z
Si Si1 0.671714 0.888530 0.649829
Si Si2 0.251852 0.284809 0.627209
Si Si3 0.847946 0.113723 0.070910
Si Si4 0.500000 0.241832 0.000000
Si Si5 0.450565 0.892215 0.216816
Si Si6 0.668640 0.613167 0.505142
Si Si7 0.185882 0.609139 0.758263
O O1 0.500000 0.847571 0.500000
O O2 0.571684 0.889839 0.694375
O O3 0.917545 0.848007 0.782984
O O4 0.705424 0.000000 0.640060
O O5 0.393350 0.196663 0.729654
O O6 0.350810 0.322449 0.587245
O O7 0.229469 0.372355 0.681270
O O8 0.000000 0.249239 0.500000
O O9 0.652955 0.172364 0.019486
O O10 0.839753 0.000000 0.086538
O O11 0.782316 0.119955 0.941975
O O12 0.665266 0.312564 0.126473
O O13 0.531499 0.000000 0.232311
O O14 0.500000 0.633751 0.500000
O O15 0.637889 0.500000 0.468928
O O16 0.926257 0.624172 0.652894
O O17 0.242428 0.500000 0.807864
#
# Coordination Sequence:
#
# PCOD9149963 Si02
#       7
#     4   4   4   2   4   4   4
#     4   9  19  36  58  84 113 150 195 242 288 335
#     4  10  20  35  57  85 116 155 195 235 289 350
#     4  10  21  38  58  82 118 156 194 236 285 349
#     4  12  22  36  58  84 108 152 196 236 282 350
#     4  10  20  36  56  82 118 158 195 235 287 345
#     4   9  19  37  62  88 114 147 192 243 295 348
#     4  10  21  38  58  83 115 149 188 241 297 351
#
# _framework density 19.162095999999998
#
# number of rings (size 3 to 8) (size 9 to 14) (size 15 to 20)
#    0.000    2.154    1.538    1.385    0.000    8.308 
#    0.000    0.000    0.000    0.000    0.000    5.385 
#    0.000    0.000    0.000    0.000    0.000    0.000 
#
# Total GULP energy -144840.791704 kJ/mol
# GULP energy per Si atom -5570.799681 kJ/mol
# Density = 1.911848 g / cm^3
# Si number density = 19.162096 Si / 1000 Ang^3
#
#
#
# Elastic Constant Matrix: (Units=GPa)
#
#
# Indices 1 2 3 4 5 6 
#
# 1 97.3355 35.9049 43.0830 0.0000 2.2014 0.0000
# 2 35.9049 90.8152 50.2596 0.0000 12.9858 0.0000
# 3 43.0830 50.2596 132.2377 0.0000 -4.8063 0.0000
# 4 0.0000 0.0000 0.0000 23.6019 0.0000 -5.3382
# 5 2.2014 12.9858 -4.8063 0.0000 20.5391 0.0000
# 6 0.0000 0.0000 0.0000 -5.3382 0.0000 5.1410
#
#
#
# Elastic Compliance Matrix: (Units=1/GPa)
#
#
# Indices 1 2 3 4 5 6 
#
# 1 0.012824 -0.003533 -0.002828 0.000000 0.000198 0.000000
# 2 -0.003533 0.017383 -0.005892 0.000000 -0.011991 0.000000
# 3 -0.002828 -0.005892 0.010962 0.000000 0.006593 0.000000
# 4 0.000000 0.000000 0.000000 0.055375 0.000000 0.057500
# 5 0.000198 -0.011991 0.006593 0.000000 0.057790 0.000000
# 6 0.000000 0.000000 0.000000 0.057500 0.000000 0.254222
#
#
# Mechanical properties :
#
#
# Convention : Reuss Voigt Hill
#
# Bulk Modulus (GPa) = 60.00902 64.32037 62.16469
# Shear Modulus (GPa) = 11.39943 22.59910 16.99926
#
# Velocity S-wave (km/s) = 2.44169 3.43791 2.98170
# Velocity P-wave (km/s) = 6.27165 7.02839 6.66078
#
# Compressibility (1/GPa) = 0.01666416
#
# Stress axis : x y z
#
# Youngs Moduli (GPa) = 77.97605 57.52600 91.22128
#
# Poissons Ratio (x) = 0.20327 0.25798
# Poissons Ratio (y) = 0.27552 0.53743
# Poissons Ratio (z) = 0.22052 0.33892
#
# Static dielectric constant tensor:
#      x y z
#    x 1.668180 0.000000 -0.025300 
#    y 0.000000 1.658660 0.000000 
#    z -0.025300 0.000000 1.700910 
# 
# From -- ./inp_files/62028.got.cif
#   From: 2010.05.17/outbox.cif.g08.bks.cpg/sg10_32_cif.got.tgz:62028.got - 2010.06.03 11:33:40.
