data_PCOD9149157
_publ_section_title
;
Structure prediction by ZEFSAII (Michael W. Deem and Ramdas Pophale) SiO2 
 PCOD9149157
Probable space group: P 2/M
;
_chemical_formula_sum "Si O2"
_cell_formula_units_Z 32
_cell_length_a 14.516197
_cell_length_b 8.899794
_cell_length_c 12.639153
_cell_angle_alpha 90.000000
_cell_angle_beta 90.400524
_cell_angle_gamma 90.000000
_cell_volume 1632.826979
_symmetry_space_group_name_H-M "P 2/M"
_symmetry_group_IT_number 10
_symmetry_cell_setting 'monoclinic'
loop_
_space_group_symop_operation_xyz
x,y,z
-x,y,-z
-x,-y,-z
x,-y,z
loop_
_atom_site_type_symbol
_atom_site_label
_atom_site_fract_x
_atom_site_fract_y
_atom_site_fract_z
Si Si1 0.270142 0.177945 0.818020
Si Si2 0.973766 0.172973 0.882360
Si Si3 0.017896 0.322572 0.332357
Si Si4 0.231644 0.829817 0.050987
Si Si5 0.816010 0.320126 0.391648
Si Si6 0.346666 0.676290 0.220183
Si Si7 0.214059 0.178622 0.391585
Si Si8 0.534737 0.319009 0.118698
O O1 0.227219 0.262531 0.718048
O O2 0.372146 0.236543 0.847260
O O3 0.270623 0.000000 0.796511
O O4 0.214856 0.202450 0.927540
O O5 0.004676 0.279422 0.788976
O O6 0.863036 0.170073 0.885453
O O7 0.006562 0.000000 0.866747
O O8 0.000000 0.221851 0.000000
O O9 0.033804 0.500000 0.344772
O O10 0.111999 0.237889 0.360395
O O11 0.925395 0.281340 0.394948
O O12 0.298217 0.713449 0.107782
O O13 0.270708 0.000000 0.056955
O O14 0.809078 0.500000 0.397587
O O15 0.768067 0.244627 0.491763
O O16 0.339377 0.500000 0.242523
O O17 0.289971 0.764196 0.308719
O O18 0.453118 0.715600 0.201247
O O19 0.213155 0.000000 0.392423
O O20 0.549072 0.500000 0.118477
O O21 0.500000 0.277456 0.000000
#
# Coordination Sequence:
#
# PCOD9149157 Si02
#       8
#     4   4   4   4   4   4   4   4
#     4  11  23  39  63  94 128 164 204 253 310 368
#     4  10  20  34  53  81 121 165 204 247 300 359
#     4  11  23  39  61  90 121 160 209 256 302 361
#     4  10  20  34  55  86 123 162 200 245 303 360
#     4  11  25  44  64  88 123 164 209 258 306 363
#     4  11  22  38  63  91 122 159 202 251 302 361
#     4  12  25  42  65  91 123 161 207 260 310 364
#     4  10  21  39  63  93 126 163 205 249 304 368
#
# _framework density 19.597912000000001
#
# number of rings (size 3 to 8) (size 9 to 14) (size 15 to 20)
#    0.000    1.250    2.500    3.750    0.000    6.500 
#    0.000    0.625    0.000    3.750    0.000    0.000 
#    0.000    0.000    0.000    0.000    0.000    0.000 
#
# Total GULP energy -178849.571571 kJ/mol
# GULP energy per Si atom -5589.049112 kJ/mol
# Density = 1.955331 g / cm^3
# Si number density = 19.597912 Si / 1000 Ang^3
#
#
#
# Elastic Constant Matrix: (Units=GPa)
#
#
# Indices 1 2 3 4 5 6 
#
# 1 75.7567 38.8711 35.3168 0.0000 -12.6874 0.0000
# 2 38.8711 67.5909 43.6723 0.0000 -14.7390 0.0000
# 3 35.3168 43.6723 111.3660 0.0000 -15.6826 0.0000
# 4 0.0000 0.0000 0.0000 39.4814 0.0000 4.0526
# 5 -12.6874 -14.7390 -15.6826 0.0000 26.4368 0.0000
# 6 0.0000 0.0000 0.0000 4.0526 0.0000 19.4886
#
#
#
# Elastic Compliance Matrix: (Units=1/GPa)
#
#
# Indices 1 2 3 4 5 6 
#
# 1 0.019370 -0.009104 -0.002159 0.000000 0.002940 0.000000
# 2 -0.009104 0.025367 -0.006202 0.000000 0.006094 0.000000
# 3 -0.002159 -0.006202 0.012508 0.000000 0.002926 0.000000
# 4 0.000000 0.000000 0.000000 0.025881 0.000000 -0.005382
# 5 0.002940 0.006094 0.002926 0.000000 0.044370 0.000000
# 6 0.000000 0.000000 0.000000 -0.005382 0.000000 0.052431
#
#
# Mechanical properties :
#
#
# Convention : Reuss Voigt Hill
#
# Bulk Modulus (GPa) = 44.81187 54.49266 49.65227
# Shear Modulus (GPa) = 22.49258 26.20494 24.34876
#
# Velocity S-wave (km/s) = 3.39145 3.66064 3.52862
# Velocity P-wave (km/s) = 6.18476 6.76260 6.48012
#
# Compressibility (1/GPa) = 0.02231551
#
# Stress axis : x y z
#
# Youngs Moduli (GPa) = 51.62620 39.42162 79.94683
#
# Poissons Ratio (x) = 0.35888 0.17258
# Poissons Ratio (y) = 0.46999 0.49587
# Poissons Ratio (z) = 0.11144 0.24451
#
# Static dielectric constant tensor:
#      x y z
#    x 1.697630 0.000000 -0.003000 
#    y 0.000000 1.657190 0.000000 
#    z -0.003000 0.000000 1.696550 
# 
# From -- ./inp_files/49846.got.cif
#   From: 2010.05.17/outbox.cif.g08.bks.cpg/sg10_25_cif.got.tgz:49846.got - 2010.06.03 11:33:40.
