data_PCOD9149363
_publ_section_title
;
Structure prediction by ZEFSAII (Michael W. Deem and Ramdas Pophale) SiO2 
 PCOD9149363
Probable space group: P 2/M
;
_chemical_formula_sum "Si O2"
_cell_formula_units_Z 28
_cell_length_a 20.116668
_cell_length_b 9.604404
_cell_length_c 22.790689
_cell_angle_alpha 90.000000
_cell_angle_beta 20.377133
_cell_angle_gamma 90.000000
_cell_volume 1533.239956
_symmetry_space_group_name_H-M "P 2/M"
_symmetry_group_IT_number 10
_symmetry_cell_setting 'monoclinic'
loop_
_space_group_symop_operation_xyz
x,y,z
-x,y,-z
-x,-y,-z
x,-y,z
loop_
_atom_site_type_symbol
_atom_site_label
_atom_site_fract_x
_atom_site_fract_y
_atom_site_fract_z
Si Si1 0.303005 0.335454 0.699639
Si Si2 0.178927 0.164221 0.592261
Si Si3 0.624398 0.164340 0.242516
Si Si4 0.985374 0.836527 0.141103
Si Si5 0.914286 0.336856 0.725870
Si Si6 0.176341 0.152777 0.311597
Si Si7 0.487016 0.651426 0.082279
O O1 0.500000 0.319103 0.500000
O O2 0.266803 0.500000 0.736824
O O3 0.326864 0.258657 0.741879
O O4 0.135374 0.260700 0.802230
O O5 0.406031 0.192722 0.404703
O O6 0.088819 0.187763 0.731481
O O7 0.067960 0.261289 0.638793
O O8 0.152083 0.000000 0.600314
O O9 0.631411 0.000000 0.253361
O O10 0.789214 0.186048 0.057378
O O11 0.946211 0.000000 0.160136
O O12 0.955912 0.500000 0.681921
O O13 0.889033 0.253937 0.686268
O O14 0.699644 0.329803 0.930299
O O15 0.346547 0.221933 0.207787
O O16 0.000000 0.139603 0.500000
O O17 0.232493 0.000000 0.242131
O O18 0.411520 0.500000 0.163576
O O19 0.500000 0.646090 0.000000
#
# Coordination Sequence:
#
# PCOD9149363 Si02
#       7
#     4   4   4   4   4   4   4
#     4  11  22  35  56  85 115 148 188 236 286 336
#     4  10  21  38  58  80 114 152 187 233 280 330
#     4  10  21  38  60  84 111 146 191 236 281 339
#     4  10  21  38  60  84 109 146 191 233 285 339
#     4  10  21  37  57  80 110 147 183 221 273 335
#     4  10  20  34  55  85 114 141 180 229 273 318
#     4   8  16  32  53  76 103 136 174 215 262 318
#
# _framework density 18.261983000000001
#
# number of rings (size 3 to 8) (size 9 to 14) (size 15 to 20)
#    0.000    2.143    1.429    2.571    0.000    8.286 
#    2.571    0.000    0.000    0.000    0.000    0.000 
#    0.000    0.000    0.000    0.000    0.000    0.000 
#
# Total GULP energy -156114.029868 kJ/mol
# GULP energy per Si atom -5575.501067 kJ/mol
# Density = 1.822042 g / cm^3
# Si number density = 18.261983 Si / 1000 Ang^3
#
#
#
# Elastic Constant Matrix: (Units=GPa)
#
#
# Indices 1 2 3 4 5 6 
#
# 1 66.9861 63.7509 43.9015 0.0000 -25.1202 0.0000
# 2 63.7509 121.2819 66.4854 0.0000 -21.8682 0.0000
# 3 43.9015 66.4854 117.3911 0.0000 -15.5094 0.0000
# 4 0.0000 0.0000 0.0000 25.9485 0.0000 -7.1618
# 5 -25.1202 -21.8682 -15.5094 0.0000 20.2591 0.0000
# 6 0.0000 0.0000 0.0000 -7.1618 0.0000 65.9391
#
#
#
# Elastic Compliance Matrix: (Units=1/GPa)
#
#
# Indices 1 2 3 4 5 6 
#
# 1 0.046197 -0.015563 -0.003464 0.000000 0.037831 0.000000
# 2 -0.015563 0.018715 -0.005184 0.000000 -0.003064 0.000000
# 3 -0.003464 -0.005184 0.012731 0.000000 -0.000145 0.000000
# 4 0.000000 0.000000 0.000000 0.039729 0.000000 0.004315
# 5 0.037831 -0.003064 -0.000145 0.000000 0.092850 0.000000
# 6 0.000000 0.000000 0.000000 0.004315 0.000000 0.015634
#
#
# Mechanical properties :
#
#
# Convention : Reuss Voigt Hill
#
# Bulk Modulus (GPa) = 34.22257 72.65942 53.44100
# Shear Modulus (GPa) = 17.60447 31.19741 24.40094
#
# Velocity S-wave (km/s) = 3.10820 4.13767 3.65932
# Velocity P-wave (km/s) = 5.62687 7.91838 6.86886
#
# Compressibility (1/GPa) = 0.02922048
#
# Stress axis : x y z
#
# Youngs Moduli (GPa) = 21.64653 53.43286 78.54812
#
# Poissons Ratio (x) = 0.83156 0.27212
# Poissons Ratio (y) = 0.33688 0.40721
# Poissons Ratio (z) = 0.07499 0.27701
#
# Static dielectric constant tensor:
#      x y z
#    x 1.592600 0.000000 0.001360 
#    y 0.000000 1.659300 0.000000 
#    z 0.001360 0.000000 1.659980 
# 
# From -- ./inp_files/86432.got.cif
#   From: 2010.05.17/outbox.cif.g08.bks.cpg/sg10_44_cif.got.tgz:86432.got - 2010.06.03 11:33:40.
