data_PCOD9149477
_publ_section_title
;
Structure prediction by ZEFSAII (Michael W. Deem and Ramdas Pophale) SiO2 
 PCOD9149477
Probable space group: P 2/M
;
_chemical_formula_sum "Si O2"
_cell_formula_units_Z 24
_cell_length_a 5.515817
_cell_length_b 9.765868
_cell_length_c 21.057435
_cell_angle_alpha 90.000000
_cell_angle_beta 106.142885
_cell_angle_gamma 90.000000
_cell_volume 1089.571621
_symmetry_space_group_name_H-M "P 2/M"
_symmetry_group_IT_number 10
_symmetry_cell_setting 'monoclinic'
loop_
_space_group_symop_operation_xyz
x,y,z
-x,y,-z
-x,-y,-z
x,-y,z
loop_
_atom_site_type_symbol
_atom_site_label
_atom_site_fract_x
_atom_site_fract_y
_atom_site_fract_z
Si Si1 0.204318 0.842333 0.458838
Si Si2 0.842526 0.849010 0.840322
Si Si3 0.713229 0.164563 0.967803
Si Si4 0.591061 0.153392 0.292240
Si Si5 0.907388 0.347857 0.224411
Si Si6 0.333280 0.347144 0.359564
O O1 0.500000 0.827897 0.500000
O O2 0.174100 0.728685 0.402216
O O3 0.000000 0.823663 0.500000
O O4 0.177408 0.000000 0.433915
O O5 0.674674 0.815807 0.889640
O O6 0.669746 0.862677 0.765686
O O7 0.032488 0.727946 0.837073
O O8 0.963317 0.000000 0.860222
O O9 0.718140 0.000000 0.977753
O O10 0.500000 0.219123 0.000000
O O11 0.000000 0.214482 0.000000
O O12 0.545410 0.239418 0.352708
O O13 0.750919 0.244282 0.256022
O O14 0.689307 0.000000 0.310857
O O15 0.795433 0.500000 0.209392
O O16 0.161582 0.364193 0.284603
O O17 0.420287 0.500000 0.384613
#
# Coordination Sequence:
#
# PCOD9149477 Si02
#       6
#     4   4   4   4   4   4
#     4  10  23  42  63  90 122 159 201 245 293 347
#     4   9  19  34  54  82 111 145 192 240 292 349
#     4   9  18  31  52  82 115 148 188 243 298 346
#     4  10  20  34  57  85 113 147 190 241 295 350
#     4  10  21  36  56  83 115 151 189 237 296 349
#     4  10  22  39  58  84 117 152 195 241 293 353
#
# _framework density 22.027004000000002
#
# number of rings (size 3 to 8) (size 9 to 14) (size 15 to 20)
#    0.000    2.333    0.000    1.500    4.667    3.333 
#    0.000    0.000    0.000    1.000    0.000    0.000 
#    0.000    0.000    0.000    0.000    0.000    0.000 
#
# Total GULP energy -133804.746264 kJ/mol
# GULP energy per Si atom -5575.197761 kJ/mol
# Density = 2.197687 g / cm^3
# Si number density = 22.027004 Si / 1000 Ang^3
#
#
#
# Elastic Constant Matrix: (Units=GPa)
#
#
# Indices 1 2 3 4 5 6 
#
# 1 88.2806 49.9841 30.9473 0.0000 -33.4516 0.0000
# 2 49.9841 184.7196 51.7237 0.0000 -47.7700 0.0000
# 3 30.9473 51.7237 85.9858 0.0000 -28.4143 0.0000
# 4 0.0000 0.0000 0.0000-2671.0610 0.0000 1380.9805
# 5 -33.4516 -47.7700 -28.4143 0.0000 45.5938 0.0000
# 6 0.0000 0.0000 0.0000 1380.9805 0.0000 -705.9029
#
#
#
# Elastic Compliance Matrix: (Units=1/GPa)
#
#
# Indices 1 2 3 4 5 6 
#
# 1 0.016347 -0.001497 -0.001937 0.000000 0.009218 0.000000
# 2 -0.001497 0.007973 -0.002342 0.000000 0.005796 0.000000
# 3 -0.001937 -0.002342 0.015686 0.000000 0.005900 0.000000
# 4 0.000000 0.000000 0.000000 0.032685 0.000000 0.063942
# 5 0.009218 0.005796 0.005900 0.000000 0.038445 0.000000
# 6 0.000000 0.000000 0.000000 0.063942 0.000000 0.123675
#
#
# Mechanical properties :
#
#
# Convention : Reuss Voigt Hill
#
# Bulk Modulus (GPa) = 35.14488 69.36626 52.25557
# Shear Modulus (GPa) = 19.54283 -651.18529 -315.82123
#
# Velocity S-wave (km/s) = 2.98186 -17.21256 -11.98709
# Velocity P-wave (km/s) = 5.27686 19.06488 12.95424
#
# Compressibility (1/GPa) = 0.02845365
#
# Stress axis : x y z
#
# Youngs Moduli (GPa) = 61.17300 125.41620 63.75272
#
# Poissons Ratio (x) = 0.18779 0.12347
# Poissons Ratio (y) = 0.09159 0.14932
# Poissons Ratio (z) = 0.11848 0.29375
#
# Static dielectric constant tensor:
#      x y z
#    x 1.884410 0.000000 0.048730 
#    y 0.000000 1.863790 0.000000 
#    z 0.048730 0.000000 1.840000 
# 
# From -- ./inp_files/12987.got.cif
#   From: 2010.05.17/outbox.cif.g08.bks.cpg/sg10_7_cif.got.tgz:12987.got - 2010.06.03 11:33:40.
