data_PCOD9149625
_publ_section_title
;
Structure prediction by ZEFSAII (Michael W. Deem and Ramdas Pophale) SiO2 
 PCOD9149625
Probable space group: P 2/M
;
_chemical_formula_sum "Si O2"
_cell_formula_units_Z 32
_cell_length_a 14.686250
_cell_length_b 8.687621
_cell_length_c 21.209855
_cell_angle_alpha 90.000000
_cell_angle_beta 43.289383
_cell_angle_gamma 90.000000
_cell_volume 1855.552179
_symmetry_space_group_name_H-M "P 2/M"
_symmetry_group_IT_number 10
_symmetry_cell_setting 'monoclinic'
loop_
_space_group_symop_operation_xyz
x,y,z
-x,y,-z
-x,-y,-z
x,-y,z
loop_
_atom_site_type_symbol
_atom_site_label
_atom_site_fract_x
_atom_site_fract_y
_atom_site_fract_z
Si Si1 0.151477 0.185896 0.659778
Si Si2 0.576408 0.184559 0.278977
Si Si3 0.143424 0.186816 0.811442
Si Si4 0.847712 0.185382 0.960880
Si Si5 0.852454 0.184399 0.809062
Si Si6 0.415827 0.314500 0.103301
Si Si7 0.575456 0.683988 0.146327
Si Si8 0.420686 0.684073 0.476583
O O1 0.163962 0.228749 0.727599
O O2 0.269695 0.261799 0.561770
O O3 0.002183 0.230275 0.715115
O O4 0.162128 0.000000 0.650869
O O5 0.728884 0.238282 0.214054
O O6 0.529351 0.248028 0.235870
O O7 0.489300 0.242404 0.381219
O O8 0.576094 0.000000 0.278275
O O9 0.995972 0.236288 0.906239
O O10 0.140710 0.000000 0.814667
O O11 0.836109 0.220234 0.891888
O O12 0.839235 0.000000 0.972794
O O13 0.725895 0.262001 0.057584
O O14 0.734265 0.259489 0.829884
O O15 0.843963 0.000000 0.807878
O O16 0.418207 0.500000 0.101550
O O17 0.486629 0.262311 0.131795
O O18 0.500000 0.260094 0.000000
O O19 0.570779 0.500000 0.150875
O O20 0.500000 0.732334 0.500000
O O21 0.427570 0.500000 0.468458
#
# Coordination Sequence:
#
# PCOD9149625 Si02
#       8
#     4   4   4   4   4   4   4   4
#     4   9  17  33  55  81 109 138 175 219 267 313
#     4  11  22  37  57  77 103 145 186 222 265 316
#     4   8  16  31  52  76 104 139 180 217 254 309
#     4   9  17  32  52  76 105 140 180 218 259 311
#     4   9  18  31  54  84 109 133 174 229 267 304
#     4  10  20  35  54  76 106 145 181 215 269 329
#     4  11  23  37  51  74 110 145 179 224 269 319
#     4  11  22  35  54  83 113 141 176 220 265 312
#
# _framework density 17.245539999999998
#
# number of rings (size 3 to 8) (size 9 to 14) (size 15 to 20)
#    0.000    2.250    2.500    2.625    0.000    2.750 
#    0.000    5.625    0.000    0.750    0.000    5.250 
#    0.000    0.000    0.000    0.000    0.000    0.000 
#
# Total GULP energy -178551.730346 kJ/mol
# GULP energy per Si atom -5579.741573 kJ/mol
# Density = 1.720629 g / cm^3
# Si number density = 17.245540 Si / 1000 Ang^3
#
#
#
# Elastic Constant Matrix: (Units=GPa)
#
#
# Indices 1 2 3 4 5 6 
#
# 1 117.9028 26.9612 71.6444 0.0000 1.8250 0.0000
# 2 26.9612 24.2361 33.2813 0.0000 5.3666 0.0000
# 3 71.6444 33.2813 109.1926 0.0000 0.7961 0.0000
# 4 0.0000 0.0000 0.0000 -122.4974 0.0000 151.0452
# 5 1.8250 5.3666 0.7961 0.0000 24.5158 0.0000
# 6 0.0000 0.0000 0.0000 151.0452 0.0000 -132.0361
#
#
#
# Elastic Compliance Matrix: (Units=1/GPa)
#
#
# Indices 1 2 3 4 5 6 
#
# 1 0.014489 -0.005399 -0.007864 0.000000 0.000359 0.000000
# 2 -0.005399 0.078811 -0.020361 0.000000 -0.016189 0.000000
# 3 -0.007864 -0.020361 0.020492 0.000000 0.004377 0.000000
# 4 0.000000 0.000000 0.000000 0.019883 0.000000 0.022746
# 5 0.000359 -0.016189 0.004377 0.000000 0.044165 0.000000
# 6 0.000000 0.000000 0.000000 0.022746 0.000000 0.018447
#
#
# Mechanical properties :
#
#
# Convention : Reuss Voigt Hill
#
# Bulk Modulus (GPa) = 21.48463 57.23392 39.35927
# Shear Modulus (GPa) = 17.91802 -38.04056 -10.06127
#
# Velocity S-wave (km/s) = 3.22684 -4.70171 -2.41801
# Velocity P-wave (km/s) = 5.13502 1.94549 3.88287
#
# Compressibility (1/GPa) = 0.04654491
#
# Stress axis : x y z
#
# Youngs Moduli (GPa) = 69.01748 12.68857 48.80055
#
# Poissons Ratio (x) = 0.06851 0.38375
# Poissons Ratio (y) = 0.37264 0.99361
# Poissons Ratio (z) = 0.54273 0.25835
#
# Static dielectric constant tensor:
#      x y z
#    x 1.592220 0.000000 -0.006080 
#    y 0.000000 1.580950 0.000000 
#    z -0.006080 0.000000 1.571300 
# 
# From -- ./inp_files/84699.got.cif
#   From: 2010.05.17/outbox.cif.g08.bks.cpg/sg10_43_cif.got.tgz:84699.got - 2010.06.03 11:33:40.
