data_PCOD9149062
_publ_section_title
;
Structure prediction by ZEFSAII (Michael W. Deem and Ramdas Pophale) SiO2 
 PCOD9149062
Probable space group: P 2/M
;
_chemical_formula_sum "Si O2"
_cell_formula_units_Z 20
_cell_length_a 8.183206
_cell_length_b 24.390554
_cell_length_c 7.796910
_cell_angle_alpha 90.000000
_cell_angle_beta 36.884384
_cell_angle_gamma 90.000000
_cell_volume 934.039598
_symmetry_space_group_name_H-M "P 2/M"
_symmetry_group_IT_number 10
_symmetry_cell_setting 'monoclinic'
loop_
_space_group_symop_operation_xyz
x,y,z
-x,y,-z
-x,-y,-z
x,-y,z
loop_
_atom_site_type_symbol
_atom_site_label
_atom_site_fract_x
_atom_site_fract_y
_atom_site_fract_z
Si Si1 0.067256 0.733799 0.146575
Si Si2 0.703809 0.560793 0.169531
Si Si3 0.302291 0.061684 0.820719
Si Si4 0.206110 0.846687 0.182622
Si Si5 0.562953 0.331877 0.653150
O O1 0.048767 0.794892 0.233302
O O2 0.869686 0.689684 0.403631
O O3 0.373137 0.712520 0.901088
O O4 0.000000 0.734886 0.000000
O O5 0.500000 0.554159 0.500000
O O6 0.738284 0.500000 0.060336
O O7 0.553835 0.608922 0.190547
O O8 0.000000 0.577466 0.000000
O O9 0.500000 0.079018 0.500000
O O10 0.386787 0.000000 0.805012
O O11 0.285256 0.105797 0.983963
O O12 0.000000 0.058301 0.000000
O O13 0.000000 0.868694 0.500000
O O14 0.500000 0.826618 0.000000
O O15 0.500000 0.331532 0.500000
#
# Coordination Sequence:
#
# PCOD9149062 Si02
#       5
#     4   4   4   4   4
#     4  10  20  34  53  74 104 146 191 232 274 336
#     4   9  15  23  38  65 103 140 173 220 287 349
#     4  10  22  42  67  92 119 155 196 233 279 346
#     4  12  25  39  58  87 121 152 190 242 295 341
#     4   9  16  28  46  70  99 138 184 226 275 335
#
# _framework density 21.412368000000001
#
# number of rings (size 3 to 8) (size 9 to 14) (size 15 to 20)
#    0.000    2.000    0.000    6.000    0.000    3.200 
#    0.000    0.000    0.000    0.000    0.000    0.000 
#    0.000   16.000    0.000    0.000    0.000    0.000 
#
# Total GULP energy -111531.036889 kJ/mol
# GULP energy per Si atom -5576.551844 kJ/mol
# Density = 2.136363 g / cm^3
# Si number density = 21.412368 Si / 1000 Ang^3
#
#
#
# Elastic Constant Matrix: (Units=GPa)
#
#
# Indices 1 2 3 4 5 6 
#
# 1 38.2817 33.5394 27.8991 0.0000 -2.1354 0.0000
# 2 33.5394 144.1048 43.2462 0.0000 24.6070 0.0000
# 3 27.8991 43.2462 158.4936 0.0000 -5.5679 0.0000
# 4 0.0000 0.0000 0.0000 27.0739 0.0000 -27.3088
# 5 -2.1354 24.6070 -5.5679 0.0000 22.0922 0.0000
# 6 0.0000 0.0000 0.0000 -27.3088 0.0000 -55.0725
#
#
#
# Elastic Compliance Matrix: (Units=1/GPa)
#
#
# Indices 1 2 3 4 5 6 
#
# 1 0.038554 -0.010410 -0.003438 0.000000 0.014454 0.000000
# 2 -0.010410 0.012699 -0.002184 0.000000 -0.015701 0.000000
# 3 -0.003438 -0.002184 0.007652 0.000000 0.004029 0.000000
# 4 0.000000 0.000000 0.000000 0.024621 0.000000 -0.012209
# 5 0.014454 -0.015701 0.004029 0.000000 0.065166 0.000000
# 6 0.000000 0.000000 0.000000 -0.012209 0.000000 -0.012104
#
#
# Mechanical properties :
#
#
# Convention : Reuss Voigt Hill
#
# Bulk Modulus (GPa) = 37.25669 61.13884 49.19777
# Shear Modulus (GPa) = 28.15326 14.56507 21.35917
#
# Velocity S-wave (km/s) = 3.62997 2.61093 3.16177
# Velocity P-wave (km/s) = 5.91661 6.14038 6.02953
#
# Compressibility (1/GPa) = 0.02684082
#
# Stress axis : x y z
#
# Youngs Moduli (GPa) = 25.93738 78.74853 130.68201
#
# Poissons Ratio (x) = 0.81974 0.44935
# Poissons Ratio (y) = 0.27000 0.28543
# Poissons Ratio (z) = 0.08919 0.17200
#
# Static dielectric constant tensor:
#      x y z
#    x 1.804820 0.000000 0.005090 
#    y 0.000000 1.853330 0.000000 
#    z 0.005090 0.000000 1.747720 
# 
# From -- ./inp_files/20721.got.cif
#   From: 2010.05.17/outbox.cif.g08.bks.cpg/sg10_11_cif.got.tgz:20721.got - 2010.06.03 11:33:40.
