data_PCOD9149065
_publ_section_title
;
Structure prediction by ZEFSAII (Michael W. Deem and Ramdas Pophale) SiO2 
 PCOD9149065
Probable space group: P 2/M
;
_chemical_formula_sum "Si O2"
_cell_formula_units_Z 32
_cell_length_a 14.477229
_cell_length_b 8.802139
_cell_length_c 23.160731
_cell_angle_alpha 90.000000
_cell_angle_beta 142.246323
_cell_angle_gamma 90.000000
_cell_volume 1807.038919
_symmetry_space_group_name_H-M "P 2/M"
_symmetry_group_IT_number 10
_symmetry_cell_setting 'monoclinic'
loop_
_space_group_symop_operation_xyz
x,y,z
-x,y,-z
-x,-y,-z
x,-y,z
loop_
_atom_site_type_symbol
_atom_site_label
_atom_site_fract_x
_atom_site_fract_y
_atom_site_fract_z
Si Si1 0.645787 0.674124 0.114624
Si Si2 0.837237 0.183312 0.714108
Si Si3 0.446483 0.183138 0.110150
Si Si4 0.865289 0.184189 0.473922
Si Si5 0.554659 0.319209 0.641701
Si Si6 0.767687 0.816638 0.549517
Si Si7 0.521147 0.183288 0.275656
Si Si8 0.171104 0.182877 0.893598
O O1 0.686332 0.500000 0.145475
O O2 0.587993 0.754388 0.143831
O O3 0.773577 0.758067 0.141236
O O4 0.500000 0.677344 0.000000
O O5 0.697197 0.258221 0.676926
O O6 0.834128 0.222704 0.644555
O O7 0.999449 0.229751 0.819662
O O8 0.823161 0.000000 0.711693
O O9 0.456279 0.228562 0.181569
O O10 0.451910 0.000000 0.110433
O O11 0.293417 0.233270 0.001836
O O12 0.862814 0.232335 0.540016
O O13 0.699323 0.221799 0.367487
O O14 0.000000 0.242109 0.500000
O O15 0.875905 0.000000 0.479280
O O16 0.548891 0.500000 0.636892
O O17 0.399518 0.251470 0.539277
O O18 0.558769 0.260788 0.709665
O O19 0.754409 0.000000 0.540160
O O20 0.509078 0.000000 0.275794
O O21 0.175073 0.000000 0.894013
#
# Coordination Sequence:
#
# PCOD9149065 Si02
#       8
#     4   4   4   4   4   4   4   4
#     4   9  17  29  46  69 100 137 169 199 241 292
#     4  10  20  34  53  74  98 129 165 208 255 299
#     4   9  17  31  52  75  99 131 171 211 247 288
#     4   8  14  26  46  73 100 123 155 198 236 277
#     4  11  22  35  52  73  98 127 162 207 255 303
#     4   9  18  33  53  75  99 130 165 198 239 297
#     4   9  18  33  53  73  96 131 171 207 246 295
#     4   9  18  32  50  75 103 129 165 212 252 288
#
# _framework density 17.708528000000001
#
# number of rings (size 3 to 8) (size 9 to 14) (size 15 to 20)
#    0.000    2.750    0.000    2.625    0.000    5.500 
#    0.000    4.375    0.000    9.750    0.000    0.000 
#    0.000    0.000    0.000    0.000    0.000    0.000 
#
# Total GULP energy -178388.679128 kJ/mol
# GULP energy per Si atom -5574.646223 kJ/mol
# Density = 1.766822 g / cm^3
# Si number density = 17.708528 Si / 1000 Ang^3
#
#
#
# Elastic Constant Matrix: (Units=GPa)
#
#
# Indices 1 2 3 4 5 6 
#
# 1 133.4139 25.3132 61.6328 0.0000 2.2934 0.0000
# 2 25.3132 11.4481 20.5824 0.0000 -4.3907 0.0000
# 3 61.6328 20.5824 73.9450 0.0000 -15.5499 0.0000
# 4 0.0000 0.0000 0.0000 7.0434 0.0000 -1.9576
# 5 2.2934 -4.3907 -15.5499 0.0000 25.3037 0.0000
# 6 0.0000 0.0000 0.0000 -1.9576 0.0000 -7.2359
#
#
#
# Elastic Compliance Matrix: (Units=1/GPa)
#
#
# Indices 1 2 3 4 5 6 
#
# 1 0.016744 -0.024012 -0.009725 0.000000 -0.011660 0.000000
# 2 -0.024012 0.209296 -0.034623 0.000000 0.017217 0.000000
# 3 -0.009725 -0.034623 0.034668 0.000000 0.016178 0.000000
# 4 0.000000 0.000000 0.000000 0.132048 0.000000 -0.035725
# 5 -0.011660 0.017217 0.016178 0.000000 0.053506 0.000000
# 6 0.000000 0.000000 0.000000 -0.035725 0.000000 -0.128534
#
#
# Mechanical properties :
#
#
# Convention : Reuss Voigt Hill
#
# Bulk Modulus (GPa) = 8.06515 48.20710 28.13613
# Shear Modulus (GPa) = 10.08518 12.44081 11.26300
#
# Velocity S-wave (km/s) = 2.38903 2.65341 2.52468
# Velocity P-wave (km/s) = 3.48916 6.05550 4.94183
#
# Compressibility (1/GPa) = 0.12399019
#
# Stress axis : x y z
#
# Youngs Moduli (GPa) = 59.72181 4.77791 28.84494
#
# Poissons Ratio (x) = 0.11473 0.28050
# Poissons Ratio (y) = 1.43406 0.99868
# Poissons Ratio (z) = 0.58077 0.16542
#
# Static dielectric constant tensor:
#      x y z
#    x 1.589640 0.000000 -0.006430 
#    y 0.000000 1.587030 0.000000 
#    z -0.006430 0.000000 1.613240 
# 
# From -- ./inp_files/83615.got.cif
#   From: 2010.05.17/outbox.cif.g08.bks.cpg/sg10_42_cif.got.tgz:83615.got - 2010.06.03 11:33:40.
