data_PCOD9149831
_publ_section_title
;
Structure prediction by ZEFSAII (Michael W. Deem and Ramdas Pophale) SiO2 
 PCOD9149831
Probable space group: P 2/M
;
_chemical_formula_sum "Si O2"
_cell_formula_units_Z 28
_cell_length_a 23.296017
_cell_length_b 11.783237
_cell_length_c 12.297342
_cell_angle_alpha 90.000000
_cell_angle_beta 27.586183
_cell_angle_gamma 90.000000
_cell_volume 1563.204265
_symmetry_space_group_name_H-M "P 2/M"
_symmetry_group_IT_number 10
_symmetry_cell_setting 'monoclinic'
loop_
_space_group_symop_operation_xyz
x,y,z
-x,y,-z
-x,-y,-z
x,-y,z
loop_
_atom_site_type_symbol
_atom_site_label
_atom_site_fract_x
_atom_site_fract_y
_atom_site_fract_z
Si Si1 0.868382 0.500000 0.369218
Si Si2 0.811089 0.864522 0.343781
Si Si3 0.643744 0.865133 0.260795
Si Si4 0.284535 0.135710 0.106794
Si Si5 0.113878 0.258765 0.560819
Si Si6 0.162090 0.258875 0.914881
Si Si7 0.164545 0.500000 0.823776
Si Si8 0.473569 0.137178 0.165929
O O1 0.843000 0.385633 0.478755
O O2 0.807080 0.500000 0.352525
O O3 0.015288 0.500000 0.093422
O O4 0.848866 0.819259 0.398349
O O5 0.875670 0.802490 0.134827
O O6 0.666170 0.834162 0.569308
O O7 0.827368 0.000000 0.311082
O O8 0.500000 0.827288 0.500000
O O9 0.729898 0.806805 0.204965
O O10 0.641577 0.000000 0.287337
O O11 0.703798 0.847383 0.041323
O O12 0.180062 0.206560 0.344634
O O13 0.266272 0.000000 0.157323
O O14 0.416776 0.169916 0.937618
O O15 0.964814 0.261706 0.802973
O O16 0.206789 0.384490 0.808753
O O17 0.476680 0.000000 0.156926
O O18 0.500000 0.179738 0.000000
#
# Coordination Sequence:
#
# PCOD9149831 Si02
#       8
#     2   4   4   4   4   4   2   4
#     4   9  18  36  55  77 113 155 187 224 278 339
#     4  11  20  30  51  84 117 143 176 228 283 339
#     4  10  22  41  61  82 112 151 191 228 274 339
#     4  10  20  35  56  82 114 149 182 225 282 337
#     4  11  21  34  55  83 114 145 185 231 284 337
#     4  11  22  36  56  82 109 147 193 233 276 330
#     4   9  18  36  58  78 107 152 196 229 274 329
#     4   9  16  29  49  75 106 142 180 212 260 333
#
# _framework density 17.911926000000001
#
# number of rings (size 3 to 8) (size 9 to 14) (size 15 to 20)
#    0.000    1.857    2.857    2.143    0.000    5.714 
#    0.000    2.500    0.000    6.857    0.000    0.000 
#    0.000    0.000    0.000    0.000    0.000    0.000 
#
# Total GULP energy -156246.583088 kJ/mol
# GULP energy per Si atom -5580.235110 kJ/mol
# Density = 1.787116 g / cm^3
# Si number density = 17.911926 Si / 1000 Ang^3
#
#
#
# Elastic Constant Matrix: (Units=GPa)
#
#
# Indices 1 2 3 4 5 6 
#
# 1 83.2941 37.4226 23.4599 0.0000 -1.3131 0.0000
# 2 37.4226 91.3536 35.5160 0.0000 11.8700 0.0000
# 3 23.4599 35.5160 83.9059 0.0000 7.2471 0.0000
# 4 0.0000 0.0000 0.0000 19.0832 0.0000 5.8702
# 5 -1.3131 11.8700 7.2471 0.0000 23.1775 0.0000
# 6 0.0000 0.0000 0.0000 5.8702 0.0000 22.9357
#
#
#
# Elastic Compliance Matrix: (Units=1/GPa)
#
#
# Indices 1 2 3 4 5 6 
#
# 1 0.015417 -0.006091 -0.002135 0.000000 0.004660 0.000000
# 2 -0.006091 0.016127 -0.004502 0.000000 -0.007197 0.000000
# 3 -0.002135 -0.004502 0.014627 0.000000 -0.002389 0.000000
# 4 0.000000 0.000000 0.000000 0.056880 0.000000 -0.014558
# 5 0.004660 -0.007197 -0.002389 0.000000 0.047842 0.000000
# 6 0.000000 0.000000 0.000000 -0.014558 0.000000 0.047326
#
#
# Mechanical properties :
#
#
# Convention : Reuss Voigt Hill
#
# Bulk Modulus (GPa) = 48.27270 50.15007 49.21139
# Shear Modulus (GPa) = 21.68450 23.84962 22.76706
#
# Velocity S-wave (km/s) = 3.48317 3.65292 3.56905
# Velocity P-wave (km/s) = 6.57154 6.77132 6.67218
#
# Compressibility (1/GPa) = 0.02071564
#
# Stress axis : x y z
#
# Youngs Moduli (GPa) = 64.86335 62.00830 68.36769
#
# Poissons Ratio (x) = 0.37770 0.14595
# Poissons Ratio (y) = 0.39509 0.30776
# Poissons Ratio (z) = 0.13847 0.27914
#
# Static dielectric constant tensor:
#      x y z
#    x 1.600800 0.000000 -0.000280 
#    y 0.000000 1.603930 0.000000 
#    z -0.000280 0.000000 1.647050 
# 
# From -- ./inp_files/55838.got.cif
#   From: 2010.05.17/outbox.cif.g08.bks.cpg/sg10_28_cif.got.tgz:55838.got - 2010.06.03 11:33:40.
