data_PCOD9149472
_publ_section_title
;
Structure prediction by ZEFSAII (Michael W. Deem and Ramdas Pophale) SiO2 
 PCOD9149472
Probable space group: P 2/M
;
_chemical_formula_sum "Si O2"
_cell_formula_units_Z 32
_cell_length_a 24.070380
_cell_length_b 7.535612
_cell_length_c 15.035473
_cell_angle_alpha 90.000000
_cell_angle_beta 31.024711
_cell_angle_gamma 90.000000
_cell_volume 1405.625037
_symmetry_space_group_name_H-M "P 2/M"
_symmetry_group_IT_number 10
_symmetry_cell_setting 'monoclinic'
loop_
_space_group_symop_operation_xyz
x,y,z
-x,y,-z
-x,-y,-z
x,-y,z
loop_
_atom_site_type_symbol
_atom_site_label
_atom_site_fract_x
_atom_site_fract_y
_atom_site_fract_z
Si Si1 0.524370 0.703300 0.369841
Si Si2 0.326208 0.281672 0.989407
Si Si3 0.748000 0.789889 0.568431
Si Si4 0.668598 0.204843 0.489915
Si Si5 0.000549 0.713743 0.767859
Si Si6 0.079246 0.283086 0.313818
Si Si7 0.892951 0.714612 0.092079
Si Si8 0.405916 0.294110 0.068133
O O1 0.500000 0.784525 0.500000
O O2 0.558717 0.500000 0.340857
O O3 0.615637 0.780713 0.180164
O O4 0.417864 0.703328 0.454717
O O5 0.330033 0.500000 0.984534
O O6 0.201858 0.229264 0.161685
O O7 0.384953 0.219627 0.998993
O O8 0.685165 0.721271 0.567001
O O9 0.875242 0.758615 0.383083
O O10 0.700961 0.712940 0.724212
O O11 0.730895 0.000000 0.595386
O O12 0.785266 0.212517 0.283359
O O13 0.634842 0.000000 0.543586
O O14 0.995399 0.500000 0.775056
O O15 0.964696 0.777731 0.720821
O O16 0.919153 0.774026 0.956258
O O17 0.078244 0.500000 0.314630
O O18 0.000000 0.224014 0.500000
O O19 0.883150 0.500000 0.107678
O O20 0.000000 0.762049 0.000000
O O21 0.435147 0.500000 0.013726
O O22 0.500000 0.212668 0.000000
#
# Coordination Sequence:
#
# PCOD9149472 Si02
#       8
#     4   4   4   4   4   4   4   4
#     4  10  22  39  63  89 114 149 195 248 292 335
#     4   9  18  34  56  86 118 146 186 239 294 346
#     4  11  23  37  55  82 116 152 188 233 285 346
#     4  11  24  39  57  81 117 158 193 234 289 354
#     4  10  20  34  57  84 110 145 189 236 287 342
#     4   9  17  30  53  84 115 145 180 229 285 341
#     4  10  20  35  57  86 114 145 190 245 291 337
#     4  10  20  35  59  85 110 144 188 237 287 341
#
# _framework density 22.765671000000001
#
# number of rings (size 3 to 8) (size 9 to 14) (size 15 to 20)
#    0.000    2.000    1.250    2.250    1.750    5.750 
#    0.000    0.625    0.000    3.375    0.000    0.000 
#    0.000    0.000    0.000    0.000    0.000    0.000 
#
# Total GULP energy -178899.372611 kJ/mol
# GULP energy per Si atom -5590.605394 kJ/mol
# Density = 2.271386 g / cm^3
# Si number density = 22.765671 Si / 1000 Ang^3
#
#
#
# Elastic Constant Matrix: (Units=GPa)
#
#
# Indices 1 2 3 4 5 6 
#
# 1 150.5109 8.0957 55.3383 0.0000 27.9770 0.0000
# 2 8.0957 60.7132 -1.7769 0.0000 4.3228 0.0000
# 3 55.3383 -1.7769 137.1076 0.0000 21.5309 0.0000
# 4 0.0000 0.0000 0.0000 -136.4181 0.0000 -100.7792
# 5 27.9770 4.3228 21.5309 0.0000 46.4633 0.0000
# 6 0.0000 0.0000 0.0000 -100.7792 0.0000 -153.0962
#
#
#
# Elastic Compliance Matrix: (Units=1/GPa)
#
#
# Indices 1 2 3 4 5 6 
#
# 1 0.008419 -0.000944 -0.002834 0.000000 -0.003668 0.000000
# 2 -0.000944 0.016718 0.000812 0.000000 -0.001363 0.000000
# 3 -0.002834 0.000812 0.008835 0.000000 -0.002463 0.000000
# 4 0.000000 0.000000 0.000000 -0.014270 0.000000 0.009393
# 5 -0.003668 -0.001363 -0.002463 0.000000 0.024999 0.000000
# 6 0.000000 0.000000 0.000000 0.009393 0.000000 -0.012715
#
#
# Mechanical properties :
#
#
# Convention : Reuss Voigt Hill
#
# Bulk Modulus (GPa) = 35.66622 52.40511 44.03567
# Shear Modulus (GPa) = 105.78856 -29.49857 38.14499
#
# Velocity S-wave (km/s) = 6.82417 -3.60355 4.09779
# Velocity P-wave (km/s) = 8.82004 2.39900 6.46329
#
# Compressibility (1/GPa) = 0.02803773
#
# Stress axis : x y z
#
# Youngs Moduli (GPa) = 118.78396 59.81715 113.18979
#
# Poissons Ratio (x) = 0.05649 0.32079
# Poissons Ratio (y) = 0.11217 -0.09189
# Poissons Ratio (z) = 0.33665 -0.04856
#
# Static dielectric constant tensor:
#      x y z
#    x 1.827320 0.000000 0.023900 
#    y 0.000000 1.863610 0.000000 
#    z 0.023900 0.000000 1.816940 
# 
# From -- ./inp_files/71401.got.cif
#   From: 2010.05.17/outbox.cif.g08.bks.cpg/sg10_36_cif.got.tgz:71401.got - 2010.06.03 11:33:40.
