data_PCOD9149066
_publ_section_title
;
Structure prediction by ZEFSAII (Michael W. Deem and Ramdas Pophale) SiO2 
 PCOD9149066
Probable space group: P 2/M
;
_chemical_formula_sum "Si O2"
_cell_formula_units_Z 28
_cell_length_a 9.957127
_cell_length_b 7.566098
_cell_length_c 28.333464
_cell_angle_alpha 90.000000
_cell_angle_beta 142.693282
_cell_angle_gamma 90.000000
_cell_volume 1293.709685
_symmetry_space_group_name_H-M "P 2/M"
_symmetry_group_IT_number 10
_symmetry_cell_setting 'monoclinic'
loop_
_space_group_symop_operation_xyz
x,y,z
-x,y,-z
-x,-y,-z
x,-y,z
loop_
_atom_site_type_symbol
_atom_site_label
_atom_site_fract_x
_atom_site_fract_y
_atom_site_fract_z
Si Si1 0.993792 0.712628 0.205938
Si Si2 0.642089 0.792821 0.857689
Si Si3 0.652794 0.782927 0.312282
Si Si4 0.466751 0.210034 0.360920
Si Si5 0.103193 0.793859 0.475652
Si Si6 0.060593 0.714078 0.914926
Si Si7 0.497515 0.701840 0.919017
O O1 0.992868 0.500000 0.206602
O O2 0.206976 0.764364 0.295896
O O3 0.023439 0.771957 0.159889
O O4 0.749630 0.778403 0.151871
O O5 0.478658 0.726086 0.770718
O O6 0.597656 0.701457 0.894679
O O7 0.889336 0.771759 0.906962
O O8 0.598986 0.000000 0.853137
O O9 0.529516 0.723762 0.325854
O O10 0.907778 0.721484 0.388068
O O11 0.650920 0.000000 0.311825
O O12 0.649887 0.281737 0.448840
O O13 0.505685 0.000000 0.370483
O O14 0.000000 0.788281 0.500000
O O15 0.124353 0.000000 0.468047
O O16 0.065445 0.500000 0.916818
O O17 0.309321 0.780292 0.994384
O O18 0.468266 0.500000 0.927822
#
# Coordination Sequence:
#
# PCOD9149066 Si02
#       7
#     4   4   4   4   4   4   4
#     4  10  20  34  53  74  98 129 167 209 248 288
#     4  11  21  33  52  78 105 129 159 204 253 295
#     4   8  14  26  45  72 102 128 157 196 241 289
#     4   9  15  27  49  75 100 126 159 200 247 292
#     4   7  11  21  42  70  97 126 158 192 235 287
#     4  10  20  36  56  73  93 128 172 210 245 291
#     4  10  22  38  52  69  97 135 173 204 240 293
#
# _framework density 21.643184999999999
#
# number of rings (size 3 to 8) (size 9 to 14) (size 15 to 20)
#    0.000    2.714    1.429    3.000    0.000    4.571 
#    0.000    0.000    0.000    9.000    0.000    6.000 
#    0.000    0.000    0.000    0.000    0.000    0.000 
#
# Total GULP energy -156151.213263 kJ/mol
# GULP energy per Si atom -5576.829045 kJ/mol
# Density = 2.159392 g / cm^3
# Si number density = 21.643185 Si / 1000 Ang^3
#
#
#
# Elastic Constant Matrix: (Units=GPa)
#
#
# Indices 1 2 3 4 5 6 
#
# 1 49.3095 -6.2898 16.4848 0.0000 26.0441 0.0000
# 2 -6.2898 51.9103 0.4846 0.0000 -1.5669 0.0000
# 3 16.4848 0.4846 158.8091 0.0000 49.5260 0.0000
# 4 0.0000 0.0000 0.0000 15.9207 0.0000 8.9892
# 5 26.0441 -1.5669 49.5260 0.0000 33.4692 0.0000
# 6 0.0000 0.0000 0.0000 8.9892 0.0000 3.7377
#
#
#
# Elastic Compliance Matrix: (Units=1/GPa)
#
#
# Indices 1 2 3 4 5 6 
#
# 1 0.043496 0.003655 0.011097 0.000000 -0.050095 0.000000
# 2 0.003655 0.019633 0.000299 0.000000 -0.002367 0.000000
# 3 0.011097 0.000299 0.014544 0.000000 -0.030143 0.000000
# 4 0.000000 0.000000 0.000000 -0.175485 0.000000 0.422044
# 5 -0.050095 -0.002367 -0.030143 0.000000 0.113353 0.000000
# 6 0.000000 0.000000 0.000000 0.422044 0.000000 -0.747479
#
#
# Mechanical properties :
#
#
# Convention : Reuss Voigt Hill
#
# Bulk Modulus (GPa) = 9.27878 31.26535 20.27207
# Shear Modulus (GPa) = -6.88598 27.24880 10.18141
#
# Velocity S-wave (km/s) = -1.78564 3.55209 2.17127
# Velocity P-wave (km/s) = 0.21246 5.59467 3.95888
#
# Compressibility (1/GPa) = 0.10777275
#
# Stress axis : x y z
#
# Youngs Moduli (GPa) = 22.99076 50.93577 68.75467
#
# Poissons Ratio (x) = -0.18615 -0.76294
# Poissons Ratio (y) = -0.08402 -0.02055
# Poissons Ratio (z) = -0.25512 -0.01522
#
# Static dielectric constant tensor:
#      x y z
#    x 1.753730 0.000000 0.036930 
#    y 0.000000 1.862290 0.000000 
#    z 0.036930 0.000000 1.834390 
# 
# From -- ./inp_files/92111.got.cif
#   From: 2010.05.17/outbox.cif.g08.bks.cpg/sg10_47_cif.got.tgz:92111.got - 2010.06.03 11:33:40.
