data_PCOD9149818
_publ_section_title
;
Structure prediction by ZEFSAII (Michael W. Deem and Ramdas Pophale) SiO2 
 PCOD9149818
Probable space group: P 2/M
;
_chemical_formula_sum "Si O2"
_cell_formula_units_Z 28
_cell_length_a 25.712065
_cell_length_b 7.414364
_cell_length_c 12.013233
_cell_angle_alpha 90.000000
_cell_angle_beta 28.107898
_cell_angle_gamma 90.000000
_cell_volume 1078.983302
_symmetry_space_group_name_H-M "P 2/M"
_symmetry_group_IT_number 10
_symmetry_cell_setting 'monoclinic'
loop_
_space_group_symop_operation_xyz
x,y,z
-x,y,-z
-x,-y,-z
x,-y,z
loop_
_atom_site_type_symbol
_atom_site_label
_atom_site_fract_x
_atom_site_fract_y
_atom_site_fract_z
Si Si1 0.471252 0.219508 0.683646
Si Si2 0.494358 0.798496 0.883893
Si Si3 0.815690 0.798277 0.075535
Si Si4 0.122615 0.218349 0.804026
Si Si5 0.751035 0.289588 0.651572
Si Si6 0.053777 0.291265 0.561636
Si Si7 0.237922 0.218454 0.050693
O O1 0.500000 0.270116 0.500000
O O2 0.526652 0.277547 0.698441
O O3 0.480454 0.000000 0.668556
O O4 0.341492 0.273425 0.929315
O O5 0.544456 0.000000 0.798783
O O6 0.500000 0.715448 0.000000
O O7 0.362758 0.809710 0.117832
O O8 0.747364 0.716097 0.103627
O O9 0.939569 0.808865 0.791084
O O10 0.771011 0.000000 0.177942
O O11 0.835623 0.712069 0.156421
O O12 0.210837 0.273133 0.546870
O O13 0.116430 0.000000 0.822764
O O14 0.000000 0.280595 0.000000
O O15 0.736536 0.500000 0.706930
O O16 0.855473 0.218048 0.523254
O O17 0.030537 0.500000 0.631164
O O18 0.122196 0.282375 0.318773
O O19 0.236033 0.000000 0.051880
#
# Coordination Sequence:
#
# PCOD9149818 Si02
#       7
#     4   4   4   4   4   4   4
#     4   9  18  34  58  86 113 142 179 230 289 340
#     4  10  21  38  63  90 111 141 189 242 291 344
#     4  10  21  35  54  83 113 147 190 234 279 330
#     4  10  20  35  56  81 112 149 188 235 283 326
#     4  11  23  37  57  83 113 152 191 229 278 339
#     4  11  22  35  54  80 112 151 191 230 271 328
#     4  10  20  35  57  82 111 146 185 230 279 337
#
# _framework density 25.950354999999998
#
# number of rings (size 3 to 8) (size 9 to 14) (size 15 to 20)
#    0.000    1.857    2.857    1.286    0.000    5.714 
#    0.000    4.286    0.000    1.714    0.000    0.000 
#    0.000    0.000    0.000    0.000    0.000    0.000 
#
# Total GULP energy -156353.108826 kJ/mol
# GULP energy per Si atom -5584.039601 kJ/mol
# Density = 2.589129 g / cm^3
# Si number density = 25.950355 Si / 1000 Ang^3
#
#
#
# Elastic Constant Matrix: (Units=GPa)
#
#
# Indices 1 2 3 4 5 6 
#
# 1 197.3598 5.2178 22.8697 0.0000 47.2276 0.0000
# 2 5.2178 98.4165 -6.4227 0.0000 -0.9872 0.0000
# 3 22.8697 -6.4227 77.0827 0.0000 31.3005 0.0000
# 4 0.0000 0.0000 0.0000 9.3222 0.0000 -27.6245
# 5 47.2276 -0.9872 31.3005 0.0000 55.6072 0.0000
# 6 0.0000 0.0000 0.0000 -27.6245 0.0000 26.9484
#
#
#
# Elastic Compliance Matrix: (Units=1/GPa)
#
#
# Indices 1 2 3 4 5 6 
#
# 1 0.006382 -0.000371 0.000362 0.000000 -0.005631 0.000000
# 2 -0.000371 0.010244 0.000988 0.000000 -0.000059 0.000000
# 3 0.000362 0.000988 0.016937 0.000000 -0.009823 0.000000
# 4 0.000000 0.000000 0.000000 -0.052644 0.000000 -0.053965
# 5 -0.005631 -0.000059 -0.009823 0.000000 0.028294 0.000000
# 6 0.000000 0.000000 0.000000 -0.053965 0.000000 -0.018211
#
#
# Mechanical properties :
#
#
# Convention : Reuss Voigt Hill
#
# Bulk Modulus (GPa) = 28.15294 46.24320 37.19807
# Shear Modulus (GPa) = 5645.32109 41.78849 2843.55479
#
# Velocity S-wave (km/s) = 46.69212 4.01724 33.13829
# Velocity P-wave (km/s) = 54.01615 6.27504 38.45205
#
# Compressibility (1/GPa) = 0.03552027
#
# Stress axis : x y z
#
# Youngs Moduli (GPa) = 156.68611 97.61394 59.04258
#
# Poissons Ratio (x) = 0.03624 -0.02137
# Poissons Ratio (y) = 0.05817 -0.05831
# Poissons Ratio (z) = -0.05672 -0.09640
#
# Static dielectric constant tensor:
#      x y z
#    x 2.155090 0.000000 0.081240 
#    y 0.000000 2.016130 0.000000 
#    z 0.081240 0.000000 2.029120 
# 
# From -- ./inp_files/57392.got.cif
#   From: 2010.05.17/outbox.cif.g08.bks.cpg/sg10_29_cif.got.tgz:57392.got - 2010.06.03 11:33:40.
