data_PCOD9149944
_publ_section_title
;
Structure prediction by ZEFSAII (Michael W. Deem and Ramdas Pophale) SiO2 
 PCOD9149944
Probable space group: P 2/M
;
_chemical_formula_sum "Si O2"
_cell_formula_units_Z 28
_cell_length_a 20.532217
_cell_length_b 13.812254
_cell_length_c 9.043743
_cell_angle_alpha 90.000000
_cell_angle_beta 148.642029
_cell_angle_gamma 90.000000
_cell_volume 1334.664248
_symmetry_space_group_name_H-M "P 2/M"
_symmetry_group_IT_number 10
_symmetry_cell_setting 'monoclinic'
loop_
_space_group_symop_operation_xyz
x,y,z
-x,y,-z
-x,-y,-z
x,-y,z
loop_
_atom_site_type_symbol
_atom_site_label
_atom_site_fract_x
_atom_site_fract_y
_atom_site_fract_z
Si Si1 0.719761 0.607095 0.445361
Si Si2 0.375139 0.184089 0.685834
Si Si3 0.369741 0.391908 0.158305
Si Si4 0.540015 0.807502 0.745936
Si Si5 0.223467 0.892243 0.636710
Si Si6 0.060395 0.712070 0.279918
Si Si7 0.159554 0.390949 0.993131
O O1 0.666059 0.500000 0.312888
O O2 0.639840 0.705032 0.290054
O O3 0.835969 0.630261 0.560733
O O4 0.768653 0.605723 0.709953
O O5 0.410305 0.183317 0.584011
O O6 0.263232 0.125487 0.541651
O O7 0.500000 0.142055 0.000000
O O8 0.500000 0.400354 0.500000
O O9 0.345188 0.500000 0.049344
O O10 0.400867 0.300378 0.117066
O O11 0.257313 0.365676 0.053073
O O12 0.500000 0.821354 0.500000
O O13 0.650800 0.875248 0.022185
O O14 0.126764 0.806128 0.474513
O O15 0.176023 0.000000 0.567157
O O16 0.958176 0.675268 0.197743
O O17 0.000000 0.733019 0.000000
O O18 0.115483 0.500000 0.875853
#
# Coordination Sequence:
#
# PCOD9149944 Si02
#       7
#     4   4   4   4   4   4   4
#     4   9  15  25  45  76 111 142 177 221 265 317
#     4   9  19  33  51  79 110 144 178 218 276 333
#     4   9  17  30  51  80 114 151 185 216 259 323
#     4  10  20  35  57  84 115 147 181 223 276 336
#     4  10  22  40  59  80 106 138 184 241 293 338
#     4   9  18  33  54  78 106 143 189 233 275 324
#     4   9  16  28  50  78 110 149 183 215 264 324
#
# _framework density 20.979057000000001
#
# number of rings (size 3 to 8) (size 9 to 14) (size 15 to 20)
#    0.000    2.714    0.000    2.143    0.000    6.857 
#    0.000    7.143    0.000    3.429    0.000    0.000 
#    0.000    0.000    0.000    0.000    0.000    0.000 
#
# Total GULP energy -156025.844936 kJ/mol
# GULP energy per Si atom -5572.351605 kJ/mol
# Density = 2.093131 g / cm^3
# Si number density = 20.979057 Si / 1000 Ang^3
#
#
#
# Elastic Constant Matrix: (Units=GPa)
#
#
# Indices 1 2 3 4 5 6 
#
# 1 84.4060 -6.7927 27.1836 0.0000 -6.2678 0.0000
# 2 -6.7927 71.0901 14.2795 0.0000 -4.1492 0.0000
# 3 27.1836 14.2795 47.7265 0.0000 4.3996 0.0000
# 4 0.0000 0.0000 0.0000 20.3842 0.0000 -1.3017
# 5 -6.2678 -4.1492 4.3996 0.0000 28.5429 0.0000
# 6 0.0000 0.0000 0.0000 -1.3017 0.0000 7.8974
#
#
#
# Elastic Compliance Matrix: (Units=1/GPa)
#
#
# Indices 1 2 3 4 5 6 
#
# 1 0.016134 0.004080 -0.010947 0.000000 0.005823 0.000000
# 2 0.004080 0.016240 -0.007591 0.000000 0.004427 0.000000
# 3 -0.010947 -0.007591 0.030212 0.000000 -0.008164 0.000000
# 4 0.000000 0.000000 0.000000 0.049580 0.000000 0.008172
# 5 0.005823 0.004427 -0.008164 0.000000 0.038216 0.000000
# 6 0.000000 0.000000 0.000000 0.008172 0.000000 0.127971
#
#
# Mechanical properties :
#
#
# Convention : Reuss Voigt Hill
#
# Bulk Modulus (GPa) = 29.70012 30.28484 29.99248
# Shear Modulus (GPa) = 15.69907 22.60170 19.15038
#
# Velocity S-wave (km/s) = 2.73851 3.28586 3.02459
# Velocity P-wave (km/s) = 4.91803 5.37242 5.15024
#
# Compressibility (1/GPa) = 0.03366989
#
# Stress axis : x y z
#
# Youngs Moduli (GPa) = 61.98128 61.57766 33.09984
#
# Poissons Ratio (x) = -0.25126 0.36235
# Poissons Ratio (y) = -0.25291 0.25126
# Poissons Ratio (z) = 0.67851 0.46743
#
# Static dielectric constant tensor:
#      x y z
#    x 1.789140 0.000000 -0.020430 
#    y 0.000000 1.772530 0.000000 
#    z -0.020430 0.000000 1.793900 
# 
# From -- ./inp_files/32847.got.cif
#   From: 2010.05.17/outbox.cif.g08.bks.cpg/sg10_17_cif.got.tgz:32847.got - 2010.06.03 11:33:40.
