data_PCOD9149223
_publ_section_title
;
Structure prediction by ZEFSAII (Michael W. Deem and Ramdas Pophale) SiO2 
 PCOD9149223
Probable space group: P 2/M
;
_chemical_formula_sum "Si O2"
_cell_formula_units_Z 20
_cell_length_a 10.609869
_cell_length_b 13.115289
_cell_length_c 10.609871
_cell_angle_alpha 90.000000
_cell_angle_beta 50.640963
_cell_angle_gamma 90.000000
_cell_volume 1141.517645
_symmetry_space_group_name_H-M "P 2/M"
_symmetry_group_IT_number 10
_symmetry_cell_setting 'monoclinic'
loop_
_space_group_symop_operation_xyz
x,y,z
-x,y,-z
-x,-y,-z
x,-y,z
loop_
_atom_site_type_symbol
_atom_site_label
_atom_site_fract_x
_atom_site_fract_y
_atom_site_fract_z
Si Si1 0.350238 0.881945 0.999047
Si Si2 0.000953 0.118055 0.649762
Si Si3 0.410122 0.709799 0.757346
Si Si4 0.085063 0.500000 0.745331
Si Si5 0.242654 0.709799 0.589878
Si Si6 0.745332 0.500000 0.085063
O O1 0.367162 0.803090 0.874925
O O2 0.356402 0.000000 0.951745
O O3 0.500000 0.866784 0.000000
O O4 0.179614 0.866936 0.179614
O O5 0.125075 0.196910 0.632837
O O6 0.000000 0.133216 0.500000
O O7 0.048255 0.000000 0.643597
O O8 0.310012 0.717930 0.689988
O O9 0.599743 0.709729 0.599744
O O10 0.359551 0.602855 0.853105
O O11 0.146895 0.602855 0.640449
O O12 0.170222 0.500000 0.829778
O O13 0.892235 0.500000 0.892235
#
# Coordination Sequence:
#
# PCOD9149223 Si02
#       6
#     4   4   4   2   4   2
#     4  10  21  37  56  77 104 139 177 217 263 314
#     4  10  21  37  56  77 104 139 177 217 263 314
#     4  10  20  34  54  80 109 140 175 215 259 309
#     4   9  17  31  52  77 106 139 174 213 259 309
#     4  10  20  34  54  80 109 140 175 215 259 309
#     4   9  17  31  52  77 106 139 174 213 259 309
#
# _framework density 17.520534999999999
#
# number of rings (size 3 to 8) (size 9 to 14) (size 15 to 20)
#    0.000    2.200    0.000    3.000    0.000    8.000 
#    0.000    5.000    0.000    0.000    0.000    0.000 
#    0.000    0.000    0.000    0.000    0.000    0.000 
#
# Total GULP energy -111637.462710 kJ/mol
# GULP energy per Si atom -5581.873135 kJ/mol
# Density = 1.748066 g / cm^3
# Si number density = 17.520535 Si / 1000 Ang^3
#
#
#
# Elastic Constant Matrix: (Units=GPa)
#
#
# Indices 1 2 3 4 5 6 
#
# 1 51.7989 70.0742 53.5097 0.0000 -26.3282 0.0000
# 2 70.0742 164.4174 112.8418 0.0000 -17.9430 0.0000
# 3 53.5097 112.8418 152.0706 0.0000 -15.7406 0.0000
# 4 0.0000 0.0000 0.0000 12.7834 0.0000 -66.5655
# 5 -26.3282 -17.9430 -15.7406 0.0000 26.0794 0.0000
# 6 0.0000 0.0000 0.0000 -66.5655 0.0000 -145.8714
#
#
#
# Elastic Compliance Matrix: (Units=1/GPa)
#
#
# Indices 1 2 3 4 5 6 
#
# 1 0.135818 -0.043010 -0.005062 0.000000 0.104466 0.000000
# 2 -0.043010 0.026266 -0.007445 0.000000 -0.029843 0.000000
# 3 -0.005062 -0.007445 0.013677 0.000000 -0.001978 0.000000
# 4 0.000000 0.000000 0.000000 0.023170 0.000000 -0.010573
# 5 0.104466 -0.029843 -0.001978 0.000000 0.122081 0.000000
# 6 0.000000 0.000000 0.000000 -0.010573 0.000000 -0.002030
#
#
# Mechanical properties :
#
#
# Convention : Reuss Voigt Hill
#
# Bulk Modulus (GPa) = 15.44993 93.45979 54.45486
# Shear Modulus (GPa) = 11.07196 -12.61096 -0.76950
#
# Velocity S-wave (km/s) = 2.51657 -2.68578 -0.66344
# Velocity P-wave (km/s) = 4.15710 6.62124 5.52822
#
# Compressibility (1/GPa) = 0.06472520
#
# Stress axis : x y z
#
# Youngs Moduli (GPa) = 7.36281 38.07253 73.11638
#
# Poissons Ratio (x) = 1.63751 0.37014
# Poissons Ratio (y) = 0.31668 0.54434
# Poissons Ratio (z) = 0.03727 0.28344
#
# Static dielectric constant tensor:
#      x y z
#    x 1.571850 0.000000 -0.003800 
#    y 0.000000 1.576730 0.000000 
#    z -0.003800 0.000000 1.580910 
# 
# From -- ./inp_files/32037.got.cif
#   From: 2010.05.17/outbox.cif.g08.bks.cpg/sg10_17_cif.got.tgz:32037.got - 2010.06.03 11:33:40.
