data_PCOD9149421
_publ_section_title
;
Structure prediction by ZEFSAII (Michael W. Deem and Ramdas Pophale) SiO2 
 PCOD9149421
Probable space group: P 2/M
;
_chemical_formula_sum "Si O2"
_cell_formula_units_Z 30
_cell_length_a 14.470131
_cell_length_b 13.266247
_cell_length_c 21.183654
_cell_angle_alpha 90.000000
_cell_angle_beta 22.881980
_cell_angle_gamma 90.000000
_cell_volume 1581.196645
_symmetry_space_group_name_H-M "P 2/M"
_symmetry_group_IT_number 10
_symmetry_cell_setting 'monoclinic'
loop_
_space_group_symop_operation_xyz
x,y,z
-x,y,-z
-x,-y,-z
x,-y,z
loop_
_atom_site_type_symbol
_atom_site_label
_atom_site_fract_x
_atom_site_fract_y
_atom_site_fract_z
Si Si1 0.239101 0.615019 0.761940
Si Si2 0.000000 0.225150 0.000000
Si Si3 0.943657 0.387094 0.466636
Si Si4 0.405896 0.306227 0.130033
Si Si5 0.766052 0.116712 0.030505
Si Si6 0.224609 0.379929 0.555797
Si Si7 0.752938 0.114974 0.693448
Si Si8 0.091052 0.301970 0.138645
O O1 0.205974 0.500000 0.805237
O O2 0.172420 0.699231 0.854459
O O3 0.518640 0.627708 0.573410
O O4 0.067184 0.635118 0.810939
O O5 0.139918 0.158086 0.962349
O O6 0.856212 0.500000 0.535153
O O7 0.196274 0.385007 0.272277
O O8 0.000000 0.340969 0.500000
O O9 0.771395 0.345470 0.520354
O O10 0.291864 0.200545 0.225833
O O11 0.500000 0.298417 0.000000
O O12 0.635005 0.335076 0.027709
O O13 0.885581 0.188243 0.902255
O O14 0.827787 0.000000 0.983011
O O15 0.480280 0.125881 0.204163
O O16 0.162629 0.500000 0.595040
O O17 0.036289 0.316718 0.714303
O O18 0.000000 0.124712 0.500000
O O19 0.746659 0.000000 0.723011
#
# Coordination Sequence:
#
# PCOD9149421 Si02
#       8
#     4   2   4   4   4   4   4   4
#     4  10  21  35  55  82 114 148 186 233 279 331
#     4  10  20  34  56  84 110 148 186 228 278 338
#     4  10  22  37  54  79 112 150 189 232 283 336
#     4  11  21  35  55  82 111 148 188 232 281 332
#     4   9  19  36  58  82 112 147 187 233 284 333
#     4  10  20  36  57  79 111 149 188 232 283 338
#     4   9  19  36  58  82 109 143 184 232 283 337
#     4  10  20  35  55  82 107 146 191 229 283 338
#
# _framework density 18.972971999999999
#
# number of rings (size 3 to 8) (size 9 to 14) (size 15 to 20)
#    0.000    2.133    1.333    1.600    0.000    6.933 
#    0.000    1.333    0.000    7.200    0.000    0.000 
#    0.000    0.000    0.000    0.000    0.000    0.000 
#
# Total GULP energy -167171.400808 kJ/mol
# GULP energy per Si atom -5572.380027 kJ/mol
# Density = 1.892979 g / cm^3
# Si number density = 18.972972 Si / 1000 Ang^3
#
#
#
# Elastic Constant Matrix: (Units=GPa)
#
#
# Indices 1 2 3 4 5 6 
#
# 1 89.8519 27.2735 28.8145 0.0000 -2.9641 0.0000
# 2 27.2735 78.5727 25.6734 0.0000 -6.7071 0.0000
# 3 28.8145 25.6734 76.4785 0.0000 -5.0448 0.0000
# 4 0.0000 0.0000 0.0000 22.0460 0.0000 -12.4025
# 5 -2.9641 -6.7071 -5.0448 0.0000 34.0688 0.0000
# 6 0.0000 0.0000 0.0000 -12.4025 0.0000 -12.0266
#
#
#
# Elastic Compliance Matrix: (Units=1/GPa)
#
#
# Indices 1 2 3 4 5 6 
#
# 1 0.013411 -0.003380 -0.003923 0.000000 -0.000080 0.000000
# 2 -0.003380 0.015301 -0.003720 0.000000 0.002167 0.000000
# 3 -0.003923 -0.003720 0.015887 0.000000 0.001279 0.000000
# 4 0.000000 0.000000 0.000000 0.028706 0.000000 -0.029603
# 5 -0.000080 0.002167 0.001279 0.000000 0.029962 0.000000
# 6 0.000000 0.000000 0.000000 -0.029603 0.000000 -0.052621
#
#
# Mechanical properties :
#
#
# Convention : Reuss Voigt Hill
#
# Bulk Modulus (GPa) = 44.34200 45.38067 44.86134
# Shear Modulus (GPa) = 62.33692 19.69373 41.01533
#
# Velocity S-wave (km/s) = 5.73820 3.22528 4.65454
# Velocity P-wave (km/s) = 8.20515 6.15146 7.25138
#
# Compressibility (1/GPa) = 0.02255198
#
# Stress axis : x y z
#
# Youngs Moduli (GPa) = 74.56602 65.35616 62.94487
#
# Poissons Ratio (x) = 0.22090 0.24696
# Poissons Ratio (y) = 0.25203 0.23415
# Poissons Ratio (z) = 0.29255 0.24312
#
# Static dielectric constant tensor:
#      x y z
#    x 1.706030 0.000000 -0.005900 
#    y 0.000000 1.659330 0.000000 
#    z -0.005900 0.000000 1.653220 
# 
# From -- ./inp_files/85344.got.cif
#   From: 2010.05.17/outbox.cif.g08.bks.cpg/sg10_43_cif.got.tgz:85344.got - 2010.06.03 11:33:40.
