data_PCOD9149163
_publ_section_title
;
Structure prediction by ZEFSAII (Michael W. Deem and Ramdas Pophale) SiO2 
 PCOD9149163
Probable space group: P 2/M
;
_chemical_formula_sum "Si O2"
_cell_formula_units_Z 16
_cell_length_a 8.657696
_cell_length_b 12.482701
_cell_length_c 9.199662
_cell_angle_alpha 90.000000
_cell_angle_beta 56.619267
_cell_angle_gamma 90.000000
_cell_volume 830.206966
_symmetry_space_group_name_H-M "P 2/M"
_symmetry_group_IT_number 10
_symmetry_cell_setting 'monoclinic'
loop_
_space_group_symop_operation_xyz
x,y,z
-x,y,-z
-x,-y,-z
x,-y,z
loop_
_atom_site_type_symbol
_atom_site_label
_atom_site_fract_x
_atom_site_fract_y
_atom_site_fract_z
Si Si1 0.455726 0.500000 0.850731
Si Si2 0.031499 0.724951 0.654685
Si Si3 0.204503 0.705353 0.963746
Si Si4 0.831045 0.500000 0.473048
Si Si5 0.695727 0.125319 0.318056
O O1 0.334950 0.604094 0.877323
O O2 0.641281 0.500000 0.659474
O O3 0.500000 0.500000 0.000000
O O4 0.139347 0.611856 0.625606
O O5 0.151023 0.821170 0.657560
O O6 0.000000 0.736184 0.500000
O O7 0.840465 0.720308 0.842730
O O8 0.291194 0.807198 0.837477
O O9 0.000000 0.688897 0.000000
O O10 0.000000 0.500000 0.500000
O O11 0.500000 0.137864 0.500000
O O12 0.730334 0.000000 0.275465
#
# Coordination Sequence:
#
# PCOD9149163 Si02
#       5
#     2   4   4   2   4
#     4  12  21  34  60  89 119 151 190 238 286 337
#     4  10  20  37  59  84 116 149 190 237 283 338
#     4  10  22  38  59  86 119 153 191 233 287 347
#     4  10  20  34  53  83 119 149 181 228 287 339
#     4  10  22  40  59  81 112 151 195 239 285 339
#
# _framework density 19.272303000000001
#
# number of rings (size 3 to 8) (size 9 to 14) (size 15 to 20)
#    0.000    1.750    0.000    5.625    0.000    8.000 
#    0.000    6.250    0.000    3.750    0.000    0.000 
#    0.000    0.000    0.000    0.000    0.000    0.000 
#
# Total GULP energy -89375.786855 kJ/mol
# GULP energy per Si atom -5585.986678 kJ/mol
# Density = 1.922844 g / cm^3
# Si number density = 19.272303 Si / 1000 Ang^3
#
#
#
# Elastic Constant Matrix: (Units=GPa)
#
#
# Indices 1 2 3 4 5 6 
#
# 1 34.9872 47.6353 34.3395 0.0000 -7.7967 0.0000
# 2 47.6353 191.6971 101.0800 0.0000 -14.5224 0.0000
# 3 34.3395 101.0800 177.8161 0.0000 -1.4357 0.0000
# 4 0.0000 0.0000 0.0000 23.7713 0.0000 -20.3097
# 5 -7.7967 -14.5224 -1.4357 0.0000 39.0340 0.0000
# 6 0.0000 0.0000 0.0000 -20.3097 0.0000 1.7648
#
#
#
# Elastic Compliance Matrix: (Units=1/GPa)
#
#
# Indices 1 2 3 4 5 6 
#
# 1 0.045677 -0.008990 -0.003665 0.000000 0.005644 0.000000
# 2 -0.008990 0.009496 -0.003649 0.000000 0.001603 0.000000
# 3 -0.003665 -0.003649 0.008391 0.000000 -0.001781 0.000000
# 4 0.000000 0.000000 0.000000 -0.004763 0.000000 -0.054812
# 5 0.005644 0.001603 -0.001781 0.000000 0.027277 0.000000
# 6 0.000000 0.000000 0.000000 -0.054812 0.000000 -0.064155
#
#
# Mechanical properties :
#
#
# Convention : Reuss Voigt Hill
#
# Bulk Modulus (GPa) = 32.30374 85.62333 58.96353
# Shear Modulus (GPa) = 77.09987 27.67707 52.38847
#
# Velocity S-wave (km/s) = 6.33185 3.79371 5.21942
# Velocity P-wave (km/s) = 8.38180 7.98212 8.18440
#
# Compressibility (1/GPa) = 0.03095617
#
# Stress axis : x y z
#
# Youngs Moduli (GPa) = 21.89282 105.30661 119.16957
#
# Poissons Ratio (x) = 0.94675 0.43674
# Poissons Ratio (y) = 0.19682 0.43484
# Poissons Ratio (z) = 0.08024 0.38426
#
# Static dielectric constant tensor:
#      x y z
#    x 1.678280 0.000000 0.028920 
#    y 0.000000 1.661270 0.000000 
#    z 0.028920 0.000000 1.707050 
# 
# From -- ./inp_files/17099.got.cif
#   From: 2010.05.17/outbox.cif.g08.bks.cpg/sg10_9_cif.got.tgz:17099.got - 2010.06.03 11:33:40.
