data_PCOD9149712
_publ_section_title
;
Structure prediction by ZEFSAII (Michael W. Deem and Ramdas Pophale) SiO2 
 PCOD9149712
Probable space group: P 2/M
;
_chemical_formula_sum "Si O2"
_cell_formula_units_Z 24
_cell_length_a 16.257007
_cell_length_b 8.543017
_cell_length_c 21.283057
_cell_angle_alpha 90.000000
_cell_angle_beta 18.797063
_cell_angle_gamma 90.000000
_cell_volume 952.433252
_symmetry_space_group_name_H-M "P 2/M"
_symmetry_group_IT_number 10
_symmetry_cell_setting 'monoclinic'
loop_
_space_group_symop_operation_xyz
x,y,z
-x,y,-z
-x,-y,-z
x,-y,z
loop_
_atom_site_type_symbol
_atom_site_label
_atom_site_fract_x
_atom_site_fract_y
_atom_site_fract_z
Si Si1 0.990242 0.684485 0.231336
Si Si2 0.303077 0.818755 0.264967
Si Si3 0.142230 0.183526 0.246903
Si Si4 0.421793 0.320919 0.630673
Si Si5 0.612220 0.320920 0.667844
Si Si6 0.097239 0.821289 0.018937
O O1 0.009000 0.500000 0.201516
O O2 0.160953 0.728100 0.167427
O O3 0.693709 0.714249 0.465149
O O4 0.040637 0.787856 0.133693
O O5 0.424672 0.710881 0.230637
O O6 0.000000 0.820256 0.500000
O O7 0.303515 0.768084 0.191709
O O8 0.391899 0.000000 0.206588
O O9 0.846236 0.209981 0.480632
O O10 0.186843 0.000000 0.205274
O O11 0.500000 0.313138 0.500000
O O12 0.348861 0.500000 0.696278
O O13 0.170792 0.217532 0.820591
O O14 0.689105 0.500000 0.601681
O O15 0.344708 0.284734 0.827613
O O16 0.168593 0.000000 0.957670
#
# Coordination Sequence:
#
# PCOD9149712 Si02
#       6
#     4   4   4   4   4   4
#     4  10  20  35  55  79 107 137 171 212 257 306
#     4   8  16  32  52  74 102 135 170 209 254 305
#     4  10  20  35  55  79 107 137 171 212 257 306
#     4   8  16  32  52  74 102 135 170 209 254 305
#     4  11  21  34  54  78 105 137 174 215 257 305
#     4  11  21  34  54  78 105 137 174 215 257 305
#
# _framework density 25.198616000000001
#
# number of rings (size 3 to 8) (size 9 to 14) (size 15 to 20)
#    0.000    2.333    0.000    6.000    0.000    7.333 
#    0.000    1.667    0.000   10.000    0.000    0.000 
#    0.000    0.000    0.000    0.000    0.000    0.000 
#
# Total GULP energy -134365.442452 kJ/mol
# GULP energy per Si atom -5598.560102 kJ/mol
# Density = 2.514126 g / cm^3
# Si number density = 25.198616 Si / 1000 Ang^3
#
#
#
# Elastic Constant Matrix: (Units=GPa)
#
#
# Indices 1 2 3 4 5 6 
#
# 1 133.4222 14.5738 6.5951 0.0000 -18.6238 0.0000
# 2 14.5738 58.6233 14.7900 0.0000 -12.4196 0.0000
# 3 6.5951 14.7900 94.9571 0.0000 -11.5990 0.0000
# 4 0.0000 0.0000 0.0000 22.2159 0.0000 -6.1793
# 5 -18.6238 -12.4196 -11.5990 0.0000 55.3568 0.0000
# 6 0.0000 0.0000 0.0000 -6.1793 0.0000 20.8493
#
#
#
# Elastic Compliance Matrix: (Units=1/GPa)
#
#
# Indices 1 2 3 4 5 6 
#
# 1 0.007986 -0.001479 -0.000038 0.000000 0.002347 0.000000
# 2 -0.001479 0.018713 -0.002422 0.000000 0.003193 0.000000
# 3 -0.000038 -0.002422 0.011128 0.000000 0.001776 0.000000
# 4 0.000000 0.000000 0.000000 0.049057 0.000000 0.014539
# 5 0.002347 0.003193 0.001776 0.000000 0.019943 0.000000
# 6 0.000000 0.000000 0.000000 0.014539 0.000000 0.052272
#
#
# Mechanical properties :
#
#
# Convention : Reuss Voigt Hill
#
# Bulk Modulus (GPa) = 33.38816 39.88006 36.63411
# Shear Modulus (GPa) = 28.25513 36.42064 32.33788
#
# Velocity S-wave (km/s) = 3.35221 3.80589 3.58623
# Velocity P-wave (km/s) = 5.31619 5.93074 5.63185
#
# Compressibility (1/GPa) = 0.02995074
#
# Stress axis : x y z
#
# Youngs Moduli (GPa) = 125.21924 53.43820 89.86508
#
# Poissons Ratio (x) = 0.07901 0.00338
# Poissons Ratio (y) = 0.18515 0.21764
# Poissons Ratio (z) = 0.00472 0.12942
#
# Static dielectric constant tensor:
#      x y z
#    x 2.084390 0.000000 0.057330 
#    y 0.000000 1.833700 0.000000 
#    z 0.057330 0.000000 2.082350 
# 
# From -- ./inp_files/75891.got.cif
#   From: 2010.05.17/outbox.cif.g08.bks.cpg/sg10_38_cif.got.tgz:75891.got - 2010.06.03 11:33:40.
