data_PCOD9149521
_publ_section_title
;
Structure prediction by ZEFSAII (Michael W. Deem and Ramdas Pophale) SiO2 
 PCOD9149521
Probable space group: P 2/M
;
_chemical_formula_sum "Si O2"
_cell_formula_units_Z 16
_cell_length_a 11.442085
_cell_length_b 7.824542
_cell_length_c 7.943310
_cell_angle_alpha 90.000000
_cell_angle_beta 98.067356
_cell_angle_gamma 90.000000
_cell_volume 704.119422
_symmetry_space_group_name_H-M "P 2/M"
_symmetry_group_IT_number 10
_symmetry_cell_setting 'monoclinic'
loop_
_space_group_symop_operation_xyz
x,y,z
-x,y,-z
-x,-y,-z
x,-y,z
loop_
_atom_site_type_symbol
_atom_site_label
_atom_site_fract_x
_atom_site_fract_y
_atom_site_fract_z
Si Si1 0.767592 0.693176 0.027286
Si Si2 0.048401 0.500000 0.774629
Si Si3 0.661750 0.196410 0.664299
Si Si4 0.560046 0.795689 0.185061
Si Si5 0.806661 0.500000 0.545488
O O1 0.728434 0.500000 0.974362
O O2 0.902021 0.663149 0.111900
O O3 0.693973 0.746139 0.177730
O O4 0.732272 0.803008 0.858610
O O5 0.122940 0.500000 0.615698
O O6 0.911501 0.500000 0.706750
O O7 0.528999 0.256418 0.686200
O O8 0.727553 0.332293 0.561114
O O9 0.659270 0.000000 0.599967
O O10 0.554037 0.000000 0.185793
O O11 0.500000 0.733273 0.000000
#
# Coordination Sequence:
#
# PCOD9149521 Si02
#       5
#     4   2   4   4   2
#     4   9  17  32  55  82 109 135 177 216 265 312
#     4   9  23  38  55  76 102 149 190 221 268 319
#     4  10  20  34  58  87 109 139 177 218 270 321
#     4   8  15  28  49  82 115 137 167 210 264 328
#     4  11  21  42  57  68 112 147 182 231 264 315
#
# _framework density 22.723417999999999
#
# number of rings (size 3 to 8) (size 9 to 14) (size 15 to 20)
#    0.750    2.000    1.250    2.250    1.750    3.500 
#    0.000   11.250    0.000    3.000    0.000    0.000 
#    0.000    0.000    0.000    0.000    0.000    0.000 
#
# Total GULP energy -89199.414167 kJ/mol
# GULP energy per Si atom -5574.963385 kJ/mol
# Density = 2.267170 g / cm^3
# Si number density = 22.723418 Si / 1000 Ang^3
#
#
#
# Elastic Constant Matrix: (Units=GPa)
#
#
# Indices 1 2 3 4 5 6 
#
# 1 92.9089 15.4269 34.0759 0.0000 -28.7907 0.0000
# 2 15.4269 79.6131 19.3068 0.0000 -26.8782 0.0000
# 3 34.0759 19.3068 121.9604 0.0000 -16.8298 0.0000
# 4 0.0000 0.0000 0.0000 0.4959 0.0000 -3.7363
# 5 -28.7907 -26.8782 -16.8298 0.0000 44.4959 0.0000
# 6 0.0000 0.0000 0.0000 -3.7363 0.0000 -8.6610
#
#
#
# Elastic Compliance Matrix: (Units=1/GPa)
#
#
# Indices 1 2 3 4 5 6 
#
# 1 0.014409 0.000873 -0.002959 0.000000 0.008732 0.000000
# 2 0.000873 0.016014 -0.001441 0.000000 0.009693 0.000000
# 3 -0.002959 -0.001441 0.009358 0.000000 0.000754 0.000000
# 4 0.000000 0.000000 0.000000 0.474441 0.000000 -0.204670
# 5 0.008732 0.009693 0.000754 0.000000 0.034264 0.000000
# 6 0.000000 0.000000 0.000000 -0.204670 0.000000 -0.027167
#
#
# Mechanical properties :
#
#
# Convention : Reuss Voigt Hill
#
# Bulk Modulus (GPa) = 30.55610 48.01131 39.28371
# Shear Modulus (GPa) = 9.27156 22.31102 15.79129
#
# Velocity S-wave (km/s) = 2.02214 3.13685 2.63902
# Velocity P-wave (km/s) = 4.35066 5.85613 5.15860
#
# Compressibility (1/GPa) = 0.03272669
#
# Stress axis : x y z
#
# Youngs Moduli (GPa) = 69.39916 62.44713 106.85497
#
# Poissons Ratio (x) = -0.05454 0.31622
# Poissons Ratio (y) = -0.06062 0.15403
# Poissons Ratio (z) = 0.20538 0.09002
#
# Static dielectric constant tensor:
#      x y z
#    x 1.858180 0.000000 0.008580 
#    y 0.000000 1.795610 0.000000 
#    z 0.008580 0.000000 1.941000 
# 
# From -- ./inp_files/21572.got.cif
#   From: 2010.05.17/outbox.cif.g08.bks.cpg/sg10_11_cif.got.tgz:21572.got - 2010.06.03 11:33:40.
