data_PCOD9149461
_publ_section_title
;
Structure prediction by ZEFSAII (Michael W. Deem and Ramdas Pophale) SiO2 
 PCOD9149461
Probable space group: P 2/M
;
_chemical_formula_sum "Si O2"
_cell_formula_units_Z 28
_cell_length_a 20.861910
_cell_length_b 8.945215
_cell_length_c 14.334484
_cell_angle_alpha 90.000000
_cell_angle_beta 30.192077
_cell_angle_gamma 90.000000
_cell_volume 1345.268336
_symmetry_space_group_name_H-M "P 2/M"
_symmetry_group_IT_number 10
_symmetry_cell_setting 'monoclinic'
loop_
_space_group_symop_operation_xyz
x,y,z
-x,y,-z
-x,-y,-z
x,-y,z
loop_
_atom_site_type_symbol
_atom_site_label
_atom_site_fract_x
_atom_site_fract_y
_atom_site_fract_z
Si Si1 0.440282 0.826824 0.250804
Si Si2 0.966668 0.674295 0.224311
Si Si3 0.149522 0.174975 0.292645
Si Si4 0.236032 0.177196 0.872782
Si Si5 0.255726 0.323793 0.342143
Si Si6 0.671796 0.323559 0.066344
Si Si7 0.215181 0.172986 0.686100
O O1 0.378093 0.739284 0.242696
O O2 0.564334 0.750783 0.137306
O O3 0.334542 0.822023 0.466089
O O4 0.463432 0.000000 0.197610
O O5 0.002583 0.500000 0.175514
O O6 0.864946 0.694721 0.435862
O O7 0.892803 0.724549 0.223743
O O8 0.091409 0.774368 0.077621
O O9 0.225133 0.231729 0.288175
O O10 0.000000 0.193741 0.500000
O O11 0.174745 0.000000 0.242778
O O12 0.196030 0.272964 0.147566
O O13 0.327641 0.259739 0.829941
O O14 0.254180 0.216747 0.741307
O O15 0.251773 0.000000 0.863992
O O16 0.269801 0.500000 0.304162
O O17 0.658533 0.500000 0.083102
O O18 0.169570 0.000000 0.746695
#
# Coordination Sequence:
#
# PCOD9149461 Si02
#       7
#     4   4   4   4   4   4   4
#     4  10  21  41  64  86 115 152 198 243 286 340
#     4  10  20  34  56  88 123 155 191 239 293 346
#     4  11  24  42  65  92 119 151 192 235 283 343
#     4  11  22  37  57  83 117 157 200 242 289 344
#     4  10  21  38  61  89 121 155 191 237 292 344
#     4  12  26  42  60  85 118 153 192 240 293 346
#     4   9  20  37  59  85 115 155 198 242 289 341
#
# _framework density 20.813690999999999
#
# number of rings (size 3 to 8) (size 9 to 14) (size 15 to 20)
#    0.000    1.571    0.000    4.714    0.000    9.714 
#    0.000    5.714    0.000    0.000    0.000    0.000 
#    0.000    0.000    0.000    0.000    0.000    0.000 
#
# Total GULP energy -156668.108086 kJ/mol
# GULP energy per Si atom -5595.289575 kJ/mol
# Density = 2.076632 g / cm^3
# Si number density = 20.813691 Si / 1000 Ang^3
#
#
#
# Elastic Constant Matrix: (Units=GPa)
#
#
# Indices 1 2 3 4 5 6 
#
# 1 100.3165 17.3962 5.9500 0.0000 0.8757 0.0000
# 2 17.3962 67.3475 6.9601 0.0000 -6.3413 0.0000
# 3 5.9500 6.9601 18.5909 0.0000 -5.5546 0.0000
# 4 0.0000 0.0000 0.0000 -123.4672 0.0000 -276.5540
# 5 0.8757 -6.3413 -5.5546 0.0000 26.2563 0.0000
# 6 0.0000 0.0000 0.0000 -276.5540 0.0000 -492.7787
#
#
#
# Elastic Compliance Matrix: (Units=1/GPa)
#
#
# Indices 1 2 3 4 5 6 
#
# 1 0.010603 -0.002589 -0.002900 0.000000 -0.001592 0.000000
# 2 -0.002589 0.016256 -0.004332 0.000000 0.003096 0.000000
# 3 -0.002900 -0.004332 0.059838 0.000000 0.011709 0.000000
# 4 0.000000 0.000000 0.000000 0.031507 0.000000 -0.017682
# 5 -0.001592 0.003096 0.011709 0.000000 0.041364 0.000000
# 6 0.000000 0.000000 0.000000 -0.017682 0.000000 0.007894
#
#
# Mechanical properties :
#
#
# Convention : Reuss Voigt Hill
#
# Bulk Modulus (GPa) = 14.91316 27.42972 21.17144
# Shear Modulus (GPa) = 23.87103 -107.60137 -41.86517
#
# Velocity S-wave (km/s) = 3.39025 -7.19789 -4.48976
# Velocity P-wave (km/s) = 4.74402 7.47477 4.08451
#
# Compressibility (1/GPa) = 0.06705487
#
# Stress axis : x y z
#
# Youngs Moduli (GPa) = 94.30976 61.51421 16.71167
#
# Poissons Ratio (x) = 0.15927 0.04847
# Poissons Ratio (y) = 0.24418 0.07240
# Poissons Ratio (z) = 0.27351 0.26651
#
# Static dielectric constant tensor:
#      x y z
#    x 1.727870 0.000000 0.013520 
#    y 0.000000 1.691720 0.000000 
#    z 0.013520 0.000000 1.769920 
# 
# From -- ./inp_files/70203.got.cif
#   From: 2010.05.17/outbox.cif.g08.bks.cpg/sg10_36_cif.got.tgz:70203.got - 2010.06.03 11:33:40.
