data_PCOD9149626
_publ_section_title
;
Structure prediction by ZEFSAII (Michael W. Deem and Ramdas Pophale) SiO2 
 PCOD9149626
Probable space group: P 2/M
;
_chemical_formula_sum "Si O2"
_cell_formula_units_Z 30
_cell_length_a 11.697671
_cell_length_b 19.352897
_cell_length_c 15.791296
_cell_angle_alpha 90.000000
_cell_angle_beta 26.825370
_cell_angle_gamma 90.000000
_cell_volume 1613.252130
_symmetry_space_group_name_H-M "P 2/M"
_symmetry_group_IT_number 10
_symmetry_cell_setting 'monoclinic'
loop_
_space_group_symop_operation_xyz
x,y,z
-x,y,-z
-x,-y,-z
x,-y,z
loop_
_atom_site_type_symbol
_atom_site_label
_atom_site_fract_x
_atom_site_fract_y
_atom_site_fract_z
Si Si1 0.484190 0.315916 0.728906
Si Si2 0.765777 0.678444 0.373145
Si Si3 0.000000 0.779966 0.000000
Si Si4 0.360878 0.072780 0.180134
Si Si5 0.901538 0.419604 0.967039
Si Si6 0.808198 0.168442 0.301142
Si Si7 0.175077 0.921724 0.554697
Si Si8 0.715378 0.813566 0.650832
O O1 0.680565 0.336094 0.525256
O O2 0.242779 0.270791 0.853202
O O3 0.616157 0.262543 0.704067
O O4 0.369654 0.382926 0.848556
O O5 0.500000 0.680856 0.500000
O O6 0.873782 0.756335 0.297659
O O7 0.934608 0.624753 0.208448
O O8 0.933209 0.826175 0.125922
O O9 0.433003 0.139327 0.184655
O O10 0.067541 0.073417 0.346702
O O11 0.409941 0.000000 0.193974
O O12 0.500000 0.072356 0.000000
O O13 0.899961 0.500000 0.945029
O O14 0.000000 0.415368 0.000000
O O15 0.500000 0.163133 0.500000
O O16 0.892369 0.106935 0.307717
O O17 0.316958 0.857793 0.414966
O O18 0.281920 0.000000 0.489268
O O19 0.000000 0.809993 0.500000
#
# Coordination Sequence:
#
# PCOD9149626 Si02
#       8
#     4   4   2   4   4   4   4   4
#     4  12  20  36  58  82 113 147 184 229 271 332
#     4  11  18  33  52  79 113 150 184 218 270 329
#     4  12  20  32  56  82 110 152 186 228 282 326
#     4   9  19  34  51  78 110 137 175 233 294 331
#     4  11  22  34  54  87 119 146 177 221 276 333
#     4  11  20  34  52  78 110 151 191 226 271 333
#     4  10  20  35  54  76 107 144 186 235 281 329
#     4  10  21  36  57  82 106 144 192 231 281 327
#
# _framework density 18.595977999999999
#
# number of rings (size 3 to 8) (size 9 to 14) (size 15 to 20)
#    0.000    1.333    7.333    0.400    1.867    2.667 
#    0.000    0.333    0.000    0.400    0.000    0.933 
#    0.000    0.000    0.000    0.000    0.000    0.000 
#
# Total GULP energy -167162.989981 kJ/mol
# GULP energy per Si atom -5572.099666 kJ/mol
# Density = 1.855365 g / cm^3
# Si number density = 18.595978 Si / 1000 Ang^3
#
#
#
# Elastic Constant Matrix: (Units=GPa)
#
#
# Indices 1 2 3 4 5 6 
#
# 1 39.4225 33.4193 21.3247 0.0000 12.3769 0.0000
# 2 33.4193 129.0407 38.2122 0.0000 11.5528 0.0000
# 3 21.3247 38.2122 86.0145 0.0000 27.3354 0.0000
# 4 0.0000 0.0000 0.0000 21.4685 0.0000 5.4081
# 5 12.3769 11.5528 27.3354 0.0000 22.8120 0.0000
# 6 0.0000 0.0000 0.0000 5.4081 0.0000 29.4558
#
#
#
# Elastic Compliance Matrix: (Units=1/GPa)
#
#
# Indices 1 2 3 4 5 6 
#
# 1 0.037457 -0.008084 -0.000868 0.000000 -0.015188 0.000000
# 2 -0.008084 0.010670 -0.003896 0.000000 0.003651 0.000000
# 3 -0.000868 -0.003896 0.020665 0.000000 -0.022318 0.000000
# 4 0.000000 0.000000 0.000000 0.048839 0.000000 -0.008967
# 5 -0.015188 0.003651 -0.022318 0.000000 0.076972 0.000000
# 6 0.000000 0.000000 0.000000 -0.008967 0.000000 0.035595
#
#
# Mechanical properties :
#
#
# Convention : Reuss Voigt Hill
#
# Bulk Modulus (GPa) = 23.20450 48.93222 36.06836
# Shear Modulus (GPa) = 18.50070 25.51536 22.00803
#
# Velocity S-wave (km/s) = 3.15759 3.70819 3.44391
# Velocity P-wave (km/s) = 5.07929 6.68616 5.93733
#
# Compressibility (1/GPa) = 0.04309509
#
# Stress axis : x y z
#
# Youngs Moduli (GPa) = 26.69709 93.72061 48.39116
#
# Poissons Ratio (x) = 0.75763 0.04202
# Poissons Ratio (y) = 0.21582 0.18855
# Poissons Ratio (z) = 0.02318 0.36518
#
# Static dielectric constant tensor:
#      x y z
#    x 1.666550 0.000000 -0.006280 
#    y 0.000000 1.657230 0.000000 
#    z -0.006280 0.000000 1.730430 
# 
# From -- ./inp_files/65339.got.cif
#   From: 2010.05.17/outbox.cif.g08.bks.cpg/sg10_33_cif.got.tgz:65339.got - 2010.06.03 11:33:40.
