data_PCOD9149107
_publ_section_title
;
Structure prediction by ZEFSAII (Michael W. Deem and Ramdas Pophale) SiO2 
 PCOD9149107
Probable space group: P 2/M
;
_chemical_formula_sum "Si O2"
_cell_formula_units_Z 32
_cell_length_a 7.142271
_cell_length_b 9.070806
_cell_length_c 28.892357
_cell_angle_alpha 90.000000
_cell_angle_beta 87.377510
_cell_angle_gamma 90.000000
_cell_volume 1869.864322
_symmetry_space_group_name_H-M "P 2/M"
_symmetry_group_IT_number 10
_symmetry_cell_setting 'monoclinic'
loop_
_space_group_symop_operation_xyz
x,y,z
-x,y,-z
-x,-y,-z
x,-y,z
loop_
_atom_site_type_symbol
_atom_site_label
_atom_site_fract_x
_atom_site_fract_y
_atom_site_fract_z
Si Si1 0.515148 0.176295 0.303921
Si Si2 0.781094 0.675555 0.123534
Si Si3 0.518501 0.824060 0.053459
Si Si4 0.467141 0.676165 0.447284
Si Si5 0.808495 0.175860 0.619156
Si Si6 0.494476 0.823220 0.196437
Si Si7 0.792357 0.324664 0.369795
Si Si8 0.819370 0.174761 0.872869
O O1 0.329703 0.209904 0.336077
O O2 0.490807 0.214260 0.250479
O O3 0.686668 0.259429 0.326297
O O4 0.546855 0.000000 0.306886
O O5 0.774750 0.500000 0.123894
O O6 0.680938 0.738603 0.078642
O O7 0.658545 0.740758 0.167200
O O8 0.992022 0.734072 0.124861
O O9 0.325300 0.797252 0.083419
O O10 0.556195 0.000000 0.056235
O O11 0.500000 0.784267 0.000000
O O12 0.500000 0.718775 0.500000
O O13 0.431129 0.500000 0.446064
O O14 0.296874 0.759775 0.424540
O O15 0.652011 0.705152 0.414408
O O16 0.008993 0.249089 0.624325
O O17 0.826388 0.000000 0.615475
O O18 0.300312 0.790714 0.171980
O O19 0.524384 0.000000 0.191397
O O20 0.814174 0.500000 0.365304
O O21 0.863633 0.000000 0.872094
#
# Coordination Sequence:
#
# PCOD9149107 Si02
#       8
#     4   4   4   4   4   4   4   4
#     4   9  19  36  56  77 101 132 172 215 257 302
#     4  11  22  34  51  78 111 140 167 208 261 310
#     4   9  19  37  59  79 100 133 178 220 254 296
#     4   9  19  36  55  74 100 137 178 216 255 303
#     4  10  20  34  53  78 107 136 169 212 260 308
#     4   9  19  37  58  76  98 134 178 217 251 296
#     4  10  20  34  53  77 105 136 170 210 257 308
#     4   9  18  34  55  77 102 135 175 214 252 300
#
# _framework density 17.11354
#
# number of rings (size 3 to 8) (size 9 to 14) (size 15 to 20)
#    0.000    2.500    0.000    2.625    0.000    6.000 
#    0.000    7.500    0.000    0.000    0.000    0.000 
#    0.000    0.000    0.000    0.000    0.000    0.000 
#
# Total GULP energy -178567.621064 kJ/mol
# GULP energy per Si atom -5580.238158 kJ/mol
# Density = 1.707459 g / cm^3
# Si number density = 17.113540 Si / 1000 Ang^3
#
#
#
# Elastic Constant Matrix: (Units=GPa)
#
#
# Indices 1 2 3 4 5 6 
#
# 1 157.6240 83.8172 82.2203 0.0000 24.4667 0.0000
# 2 83.8172 66.3043 66.4582 0.0000 12.8848 0.0000
# 3 82.2203 66.4582 168.0269 0.0000 23.8931 0.0000
# 4 0.0000 0.0000 0.0000 15.5844 0.0000 -2.7637
# 5 24.4667 12.8848 23.8931 0.0000 9.7985 0.0000
# 6 0.0000 0.0000 0.0000 -2.7637 0.0000 9.7395
#
#
#
# Elastic Compliance Matrix: (Units=1/GPa)
#
#
# Indices 1 2 3 4 5 6 
#
# 1 0.024903 -0.028991 0.004136 0.000000 -0.034146 0.000000
# 2 -0.028991 0.059944 -0.013177 0.000000 0.025696 0.000000
# 3 0.004136 -0.013177 0.012467 0.000000 -0.023400 0.000000
# 4 0.000000 0.000000 0.000000 0.067567 0.000000 0.019173
# 5 -0.034146 0.025696 -0.023400 0.000000 0.210589 0.000000
# 6 0.000000 0.000000 0.000000 0.019173 0.000000 0.108115
#
#
# Mechanical properties :
#
#
# Convention : Reuss Voigt Hill
#
# Bulk Modulus (GPa) = 47.05739 95.21630 71.13684
# Shear Modulus (GPa) = 8.82253 17.65511 13.23882
#
# Velocity S-wave (km/s) = 2.27299 3.21541 2.78436
# Velocity P-wave (km/s) = 5.86903 8.33930 7.21074
#
# Compressibility (1/GPa) = 0.02125065
#
# Stress axis : x y z
#
# Youngs Moduli (GPa) = 40.15627 16.68215 80.21373
#
# Poissons Ratio (x) = 0.48363 -0.33179
# Poissons Ratio (y) = 1.16416 1.05699
# Poissons Ratio (z) = -0.16610 0.21982
#
# Static dielectric constant tensor:
#      x y z
#    x 1.546280 0.000000 -0.005120 
#    y 0.000000 1.567330 0.000000 
#    z -0.005120 0.000000 1.569730 
# 
# From -- ./inp_files/94343.got.cif
#   From: 2010.05.17/outbox.cif.g08.bks.cpg/sg10_48_cif.got.tgz:94343.got - 2010.06.03 11:33:40.
