data_PCOD9149116
_publ_section_title
;
Structure prediction by ZEFSAII (Michael W. Deem and Ramdas Pophale) SiO2 
 PCOD9149116
Probable space group: P 2/M
;
_chemical_formula_sum "Si O2"
_cell_formula_units_Z 32
_cell_length_a 11.921387
_cell_length_b 8.672403
_cell_length_c 31.226088
_cell_angle_alpha 90.000000
_cell_angle_beta 30.082885
_cell_angle_gamma 90.000000
_cell_volume 1618.229747
_symmetry_space_group_name_H-M "P 2/M"
_symmetry_group_IT_number 10
_symmetry_cell_setting 'monoclinic'
loop_
_space_group_symop_operation_xyz
x,y,z
-x,y,-z
-x,-y,-z
x,-y,z
loop_
_atom_site_type_symbol
_atom_site_label
_atom_site_fract_x
_atom_site_fract_y
_atom_site_fract_z
Si Si1 0.967451 0.319998 0.061130
Si Si2 0.641479 0.821045 0.015948
Si Si3 0.841898 0.313321 0.375053
Si Si4 0.383495 0.318666 0.757047
Si Si5 0.584654 0.686380 0.541991
Si Si6 0.016936 0.183351 0.166233
Si Si7 0.744506 0.183654 0.579368
Si Si8 0.817317 0.683298 0.803453
O O1 0.013189 0.500000 0.058628
O O2 0.721893 0.284366 0.161393
O O3 0.145021 0.208010 0.024402
O O4 0.000000 0.309605 0.000000
O O5 0.746807 0.777946 0.935083
O O6 0.575151 0.000000 0.036219
O O7 0.437149 0.726476 0.102647
O O8 0.834793 0.500000 0.379436
O O9 0.647177 0.269597 0.405320
O O10 0.773740 0.261675 0.445064
O O11 0.079634 0.269088 0.276340
O O12 0.428580 0.500000 0.739469
O O13 0.180621 0.272882 0.792192
O O14 0.598737 0.230875 0.668707
O O15 0.585335 0.500000 0.544931
O O16 0.629913 0.751313 0.574033
O O17 0.038771 0.233143 0.207620
O O18 0.981898 0.000000 0.173194
O O19 0.000000 0.239783 0.500000
O O20 0.746863 0.000000 0.574959
O O21 0.845241 0.500000 0.798601
#
# Coordination Sequence:
#
# PCOD9149116 Si02
#       8
#     4   4   4   4   4   4   4   4
#     4   9  19  38  61  83 107 137 179 233 280 324
#     4  10  21  35  50  74 109 147 183 221 269 326
#     4   8  17  33  55  83 109 138 176 229 284 329
#     4  10  20  36  60  86 107 138 186 228 273 333
#     4   9  17  36  62  81 104 139 185 231 276 334
#     4  10  20  34  53  77 110 146 181 224 272 323
#     4  11  24  40  56  80 117 152 184 232 287 329
#     4  11  20  31  50  79 113 146 182 223 273 324
#
# _framework density 19.774695000000001
#
# number of rings (size 3 to 8) (size 9 to 14) (size 15 to 20)
#    0.000    2.250    0.000    3.750    0.000    5.750 
#    2.250    3.125    0.000    0.000    0.000    0.000 
#    0.000    0.000    0.000    0.000    0.000    0.000 
#
# Total GULP energy -178520.661327 kJ/mol
# GULP energy per Si atom -5578.770666 kJ/mol
# Density = 1.972969 g / cm^3
# Si number density = 19.774695 Si / 1000 Ang^3
#
#
#
# Elastic Constant Matrix: (Units=GPa)
#
#
# Indices 1 2 3 4 5 6 
#
# 1 24.8257 7.1727 18.8278 0.0000 12.3898 0.0000
# 2 7.1727 20.8054 17.8925 0.0000 8.9297 0.0000
# 3 18.8278 17.8925 132.4603 0.0000 19.8512 0.0000
# 4 0.0000 0.0000 0.0000 24.9828 0.0000 -10.8831
# 5 12.3898 8.9297 19.8512 0.0000 25.9084 0.0000
# 6 0.0000 0.0000 0.0000 -10.8831 0.0000 15.8044
#
#
#
# Elastic Compliance Matrix: (Units=1/GPa)
#
#
# Indices 1 2 3 4 5 6 
#
# 1 0.055827 -0.006767 -0.003807 0.000000 -0.021448 0.000000
# 2 -0.006767 0.060750 -0.005187 0.000000 -0.013728 0.000000
# 3 -0.003807 -0.005187 0.009321 0.000000 -0.003533 0.000000
# 4 0.000000 0.000000 0.000000 0.057180 0.000000 0.039375
# 5 -0.021448 -0.013728 -0.003533 0.000000 0.056293 0.000000
# 6 0.000000 0.000000 0.000000 0.039375 0.000000 0.090387
#
#
# Mechanical properties :
#
#
# Convention : Reuss Voigt Hill
#
# Bulk Modulus (GPa) = 10.59582 29.54192 20.06887
# Shear Modulus (GPa) = 12.73109 22.28567 17.50838
#
# Velocity S-wave (km/s) = 2.54009 3.36069 2.97878
# Velocity P-wave (km/s) = 3.73800 5.48003 4.69059
#
# Compressibility (1/GPa) = 0.09437680
#
# Stress axis : x y z
#
# Youngs Moduli (GPa) = 17.91235 16.46086 107.28833
#
# Poissons Ratio (x) = 0.11139 0.40843
# Poissons Ratio (y) = 0.12122 0.55648
# Poissons Ratio (z) = 0.06819 0.08538
#
# Static dielectric constant tensor:
#      x y z
#    x 1.676060 0.000000 0.010270 
#    y 0.000000 1.676590 0.000000 
#    z 0.010270 0.000000 1.756190 
# 
# From -- ./inp_files/58257.got.cif
#   From: 2010.05.17/outbox.cif.g08.bks.cpg/sg10_30_cif.got.tgz:58257.got - 2010.06.03 11:33:40.
