data_PCOD9149551
_publ_section_title
;
Structure prediction by ZEFSAII (Michael W. Deem and Ramdas Pophale) SiO2 
 PCOD9149551
Probable space group: P 2/M
;
_chemical_formula_sum "Si O2"
_cell_formula_units_Z 24
_cell_length_a 14.533814
_cell_length_b 7.917005
_cell_length_c 14.437035
_cell_angle_alpha 90.000000
_cell_angle_beta 42.797300
_cell_angle_gamma 90.000000
_cell_volume 1128.621630
_symmetry_space_group_name_H-M "P 2/M"
_symmetry_group_IT_number 10
_symmetry_cell_setting 'monoclinic'
loop_
_space_group_symop_operation_xyz
x,y,z
-x,y,-z
-x,-y,-z
x,-y,z
loop_
_atom_site_type_symbol
_atom_site_label
_atom_site_fract_x
_atom_site_fract_y
_atom_site_fract_z
Si Si1 0.851017 0.800300 0.093932
Si Si2 0.851126 0.000000 0.565925
Si Si3 0.149327 0.699924 0.579330
Si Si4 0.344757 0.794075 0.599736
Si Si5 0.573523 0.684053 0.044291
Si Si6 0.137096 0.700038 0.120876
Si Si7 0.564865 0.000000 0.848608
O O1 0.742050 0.735243 0.247080
O O2 0.859003 0.000000 0.106984
O O3 0.822717 0.776845 0.007136
O O4 0.000000 0.724736 0.000000
O O5 0.833852 0.830771 0.516970
O O6 0.000000 0.000000 0.500000
O O7 0.725498 0.000000 0.729459
O O8 0.139355 0.500000 0.561059
O O9 0.269254 0.724371 0.564880
O O10 0.007057 0.756153 0.733185
O O11 0.500000 0.744164 0.500000
O O12 0.341212 0.000000 0.595895
O O13 0.567303 0.500000 0.095163
O O14 0.495934 0.832857 0.153512
O O15 0.500000 0.668505 0.000000
O O16 0.731226 0.727961 0.912943
O O17 0.122169 0.500000 0.118867
O O18 0.500000 0.000000 0.000000
#
# Coordination Sequence:
#
# PCOD9149551 Si02
#       7
#     4   2   4   4   4   4   2
#     4  10  20  34  60  95 127 172 221 271 328 392
#     4  12  30  48  73 104 140 183 228 290 345 413
#     4  11  25  45  72 102 138 184 234 284 346 417
#     4  10  21  41  66  96 142 185 228 284 347 409
#     4   9  20  39  64  95 133 168 217 280 333 390
#     4  10  22  38  64 100 135 179 228 281 338 401
#     4  10  24  44  68  99 123 170 223 263 337 409
#
# _framework density 21.264876999999998
#
# number of rings (size 3 to 8) (size 9 to 14) (size 15 to 20)
#    0.000    1.833    2.500    0.000    7.000    3.667 
#    0.000    1.667    0.000    0.000    0.000    0.000 
#    0.000    0.000    0.000    0.000    0.000    0.000 
#
# Total GULP energy -133918.364258 kJ/mol
# GULP energy per Si atom -5579.931844 kJ/mol
# Density = 2.121648 g / cm^3
# Si number density = 21.264877 Si / 1000 Ang^3
#
#
#
# Elastic Constant Matrix: (Units=GPa)
#
#
# Indices 1 2 3 4 5 6 
#
# 1 127.4262 22.5738 62.9481 0.0000 -29.2712 0.0000
# 2 22.5738 93.2313 40.4343 0.0000 -8.6052 0.0000
# 3 62.9481 40.4343 138.3975 0.0000 -23.4014 0.0000
# 4 0.0000 0.0000 0.0000 -44.4597 0.0000 -38.4216
# 5 -29.2712 -8.6052 -23.4014 0.0000 38.6010 0.0000
# 6 0.0000 0.0000 0.0000 -38.4216 0.0000 -4.2120
#
#
#
# Elastic Compliance Matrix: (Units=1/GPa)
#
#
# Indices 1 2 3 4 5 6 
#
# 1 0.011280 -0.000448 -0.003978 0.000000 0.006042 0.000000
# 2 -0.000448 0.012314 -0.003328 0.000000 0.000387 0.000000
# 3 -0.003978 -0.003328 0.010442 0.000000 0.002572 0.000000
# 4 0.000000 0.000000 0.000000 0.003268 0.000000 -0.029808
# 5 0.006042 0.000387 0.002572 0.000000 0.032134 0.000000
# 6 0.000000 0.000000 0.000000 -0.029808 0.000000 0.034493
#
#
# Mechanical properties :
#
#
# Convention : Reuss Voigt Hill
#
# Bulk Modulus (GPa) = 53.97482 67.88529 60.93006
# Shear Modulus (GPa) = 39.80423 13.52577 26.66500
#
# Velocity S-wave (km/s) = 4.33116 2.52476 3.54495
# Velocity P-wave (km/s) = 7.10276 6.36335 6.74320
#
# Compressibility (1/GPa) = 0.01852716
#
# Stress axis : x y z
#
# Youngs Moduli (GPa) = 88.65118 81.21009 95.76576
#
# Poissons Ratio (x) = 0.03641 0.38095
# Poissons Ratio (y) = 0.03974 0.31873
# Poissons Ratio (z) = 0.35265 0.27028
#
# Static dielectric constant tensor:
#      x y z
#    x 1.781810 0.000000 -0.009520 
#    y 0.000000 1.908260 0.000000 
#    z -0.009520 0.000000 1.764620 
# 
# From -- ./inp_files/66368.got.cif
#   From: 2010.05.17/outbox.cif.g08.bks.cpg/sg10_34_cif.got.tgz:66368.got - 2010.06.03 11:33:40.
