data_PCOD9149287
_publ_section_title
;
Structure prediction by ZEFSAII (Michael W. Deem and Ramdas Pophale) SiO2 
 PCOD9149287
Probable space group: P 2/M
;
_chemical_formula_sum "Si O2"
_cell_formula_units_Z 32
_cell_length_a 16.682684
_cell_length_b 9.138269
_cell_length_c 10.926077
_cell_angle_alpha 90.000000
_cell_angle_beta 84.444234
_cell_angle_gamma 90.000000
_cell_volume 1657.865093
_symmetry_space_group_name_H-M "P 2/M"
_symmetry_group_IT_number 10
_symmetry_cell_setting 'monoclinic'
loop_
_space_group_symop_operation_xyz
x,y,z
-x,y,-z
-x,-y,-z
x,-y,z
loop_
_atom_site_type_symbol
_atom_site_label
_atom_site_fract_x
_atom_site_fract_y
_atom_site_fract_z
Si Si1 0.771078 0.823790 0.126497
Si Si2 0.782782 0.331119 0.646520
Si Si3 0.954155 0.176680 0.632470
Si Si4 0.386593 0.823026 0.713602
Si Si5 0.541384 0.827883 0.815561
Si Si6 0.955035 0.821752 0.131781
Si Si7 0.639459 0.827852 0.548081
Si Si8 0.315366 0.669034 0.084013
O O1 0.704621 0.786055 0.238231
O O2 0.861744 0.775047 0.141272
O O3 0.772498 0.000000 0.114513
O O4 0.735325 0.755986 0.008673
O O5 0.798236 0.500000 0.614787
O O6 0.865559 0.244019 0.643232
O O7 0.721138 0.259212 0.560326
O O8 0.735903 0.324345 0.782866
O O9 0.000000 0.216585 0.500000
O O10 0.000798 0.224007 0.749423
O O11 0.948521 0.000000 0.636512
O O12 0.451617 0.769828 0.802878
O O13 0.401813 0.778561 0.571727
O O14 0.394961 0.000000 0.717041
O O15 0.583365 0.816049 0.675381
O O16 0.598527 0.742091 0.899531
O O17 0.540287 0.000000 0.850102
O O18 0.955864 0.000000 0.131806
O O19 0.000000 0.775065 0.000000
O O20 0.659077 0.000000 0.531797
O O21 0.324925 0.500000 0.047466
#
# Coordination Sequence:
#
# PCOD9149287 Si02
#       8
#     4   4   4   4   4   4   4   4
#     4  10  20  34  55  78 104 138 175 221 272 320
#     4  10  21  36  54  77 107 143 180 220 266 319
#     4  10  21  35  57  86 112 140 179 228 278 329
#     4   9  18  31  52  81 109 136 173 223 273 321
#     4   9  17  32  54  80 106 137 177 219 268 323
#     4   9  18  33  54  80 108 139 178 221 268 324
#     4   9  17  31  55  80 106 139 176 219 265 320
#     4  10  21  37  54  75 105 141 184 225 262 313
#
# _framework density 19.301933999999999
#
# number of rings (size 3 to 8) (size 9 to 14) (size 15 to 20)
#    0.000    2.500    0.000    1.875    1.750    4.750 
#    0.000    5.000    0.000    5.250    0.000    0.000 
#    0.000    0.000    0.000    0.000    0.000    0.000 
#
# Total GULP energy -178542.258187 kJ/mol
# GULP energy per Si atom -5579.445568 kJ/mol
# Density = 1.925800 g / cm^3
# Si number density = 19.301934 Si / 1000 Ang^3
#
#
#
# Elastic Constant Matrix: (Units=GPa)
#
#
# Indices 1 2 3 4 5 6 
#
# 1 128.8051 22.5813 48.1393 0.0000 19.2644 0.0000
# 2 22.5813 17.9445 21.7079 0.0000 0.1843 0.0000
# 3 48.1393 21.7079 88.3048 0.0000 11.8544 0.0000
# 4 0.0000 0.0000 0.0000 9.0059 0.0000 -7.2154
# 5 19.2644 0.1843 11.8544 0.0000 21.7568 0.0000
# 6 0.0000 0.0000 0.0000 -7.2154 0.0000 -8.5596
#
#
#
# Elastic Compliance Matrix: (Units=1/GPa)
#
#
# Indices 1 2 3 4 5 6 
#
# 1 0.012239 -0.012481 -0.002334 0.000000 -0.009459 0.000000
# 2 -0.012481 0.094437 -0.019191 0.000000 0.020708 0.000000
# 3 -0.002334 -0.019191 0.018358 0.000000 -0.007773 0.000000
# 4 0.000000 0.000000 0.000000 0.066277 0.000000 -0.055869
# 5 -0.009459 0.020708 -0.007773 0.000000 0.058398 0.000000
# 6 0.000000 0.000000 0.000000 -0.055869 0.000000 -0.069733
#
#
# Mechanical properties :
#
#
# Convention : Reuss Voigt Hill
#
# Bulk Modulus (GPa) = 17.53723 46.65682 32.09702
# Shear Modulus (GPa) = 18.72689 13.94900 16.33795
#
# Velocity S-wave (km/s) = 3.11820 2.69118 2.91252
# Velocity P-wave (km/s) = 4.69783 5.82075 5.28918
#
# Compressibility (1/GPa) = 0.05702156
#
# Stress axis : x y z
#
# Youngs Moduli (GPa) = 81.70777 10.58911 54.47171
#
# Poissons Ratio (x) = 0.13216 0.12714
# Poissons Ratio (y) = 1.01976 1.04539
# Poissons Ratio (z) = 0.19070 0.20322
#
# Static dielectric constant tensor:
#      x y z
#    x 1.665470 0.000000 -0.021160 
#    y 0.000000 1.641930 0.000000 
#    z -0.021160 0.000000 1.691940 
# 
# From -- ./inp_files/49799.got.cif
#   From: 2010.05.17/outbox.cif.g08.bks.cpg/sg10_25_cif.got.tgz:49799.got - 2010.06.03 11:33:40.
