data_PCOD9149047
_publ_section_title
;
Structure prediction by ZEFSAII (Michael W. Deem and Ramdas Pophale) SiO2 
 PCOD9149047
Probable space group: P 2/M
;
_chemical_formula_sum "Si O2"
_cell_formula_units_Z 18
_cell_length_a 7.636491
_cell_length_b 11.717630
_cell_length_c 8.391935
_cell_angle_alpha 90.000000
_cell_angle_beta 94.755238
_cell_angle_gamma 90.000000
_cell_volume 748.338837
_symmetry_space_group_name_H-M "P 2/M"
_symmetry_group_IT_number 10
_symmetry_cell_setting 'monoclinic'
loop_
_space_group_symop_operation_xyz
x,y,z
-x,y,-z
-x,-y,-z
x,-y,z
loop_
_atom_site_type_symbol
_atom_site_label
_atom_site_fract_x
_atom_site_fract_y
_atom_site_fract_z
Si Si1 0.930045 0.000000 0.766612
Si Si2 0.396420 0.626844 0.320261
Si Si3 0.000000 0.796250 0.000000
Si Si4 0.732108 0.000000 0.421540
Si Si5 0.255881 0.366290 0.827299
Si Si6 0.195818 0.231359 0.518644
O O1 0.917212 0.113738 0.869346
O O2 0.794551 0.000000 0.610905
O O3 0.125609 0.000000 0.708158
O O4 0.500000 0.623783 0.500000
O O5 0.324328 0.500000 0.287147
O O6 0.535243 0.651284 0.191140
O O7 0.250574 0.717672 0.353888
O O8 0.847984 0.715790 0.061661
O O9 0.670339 0.867674 0.409469
O O10 0.229892 0.500000 0.860051
O O11 0.182237 0.331769 0.646989
O O12 0.000000 0.180288 0.500000
#
# Coordination Sequence:
#
# PCOD9149047 Si02
#       6
#     2   4   2   2   4   4
#     4  10  20  34  54  77 111 137 176 226 274 291
#     4   8  17  32  48  73 109 139 170 222 268 300
#     4  11  19  34  58  80 101 147 184 212 252 341
#     4  11  18  36  51  80 109 138 172 232 268 304
#     4  10  20  34  52  79 111 140 173 219 267 313
#     4  11  18  31  55  79 106 140 180 218 264 315
#
# _framework density 24.053274999999999
#
# number of rings (size 3 to 8) (size 9 to 14) (size 15 to 20)
#    0.000    2.000    4.444    2.333    0.000    1.778 
#    0.000    7.222    0.000    6.667    0.000   14.000 
#    0.000    0.000    0.000    0.000    0.000    0.000 
#
# Total GULP energy -100349.002258 kJ/mol
# GULP energy per Si atom -5574.944570 kJ/mol
# Density = 2.399853 g / cm^3
# Si number density = 24.053275 Si / 1000 Ang^3
#
#
#
# Elastic Constant Matrix: (Units=GPa)
#
#
# Indices 1 2 3 4 5 6 
#
# 1 53.4765 54.7472 28.4438 0.0000 -39.0426 0.0000
# 2 54.7472 205.2003 75.2198 0.0000 -46.8628 0.0000
# 3 28.4438 75.2198 125.0813 0.0000 -36.9605 0.0000
# 4 0.0000 0.0000 0.0000 94.5140 0.0000 -64.0716
# 5 -39.0426 -46.8628 -36.9605 0.0000 47.2687 0.0000
# 6 0.0000 0.0000 0.0000 -64.0716 0.0000 55.4318
#
#
#
# Elastic Compliance Matrix: (Units=1/GPa)
#
#
# Indices 1 2 3 4 5 6 
#
# 1 0.052096 -0.006137 0.003590 0.000000 0.039753 0.000000
# 2 -0.006137 0.007703 -0.003222 0.000000 0.000048 0.000000
# 3 0.003590 -0.003222 0.011767 0.000000 0.008972 0.000000
# 4 0.000000 0.000000 0.000000 0.048885 0.000000 0.056505
# 5 0.039753 0.000048 0.008972 0.000000 0.061054 0.000000
# 6 0.000000 0.000000 0.000000 0.056505 0.000000 0.083352
#
#
# Mechanical properties :
#
#
# Convention : Reuss Voigt Hill
#
# Bulk Modulus (GPa) = 16.65869 77.84221 47.25045
# Shear Modulus (GPa) = 16.86885 54.46605 35.66745
#
# Velocity S-wave (km/s) = 2.65110 4.76373 3.85496
# Velocity P-wave (km/s) = 4.03880 7.91771 6.28498
#
# Compressibility (1/GPa) = 0.06002874
#
# Stress axis : x y z
#
# Youngs Moduli (GPa) = 19.19534 129.82301 84.98089
#
# Poissons Ratio (x) = 0.79666 -0.30511
# Poissons Ratio (y) = 0.11779 0.27385
# Poissons Ratio (z) = -0.06892 0.41835
#
# Static dielectric constant tensor:
#      x y z
#    x 2.032470 0.000000 0.041650 
#    y 0.000000 1.950740 0.000000 
#    z 0.041650 0.000000 1.936160 
# 
# From -- ./inp_files/17349.got.cif
#   From: 2010.05.17/outbox.cif.g08.bks.cpg/sg10_9_cif.got.tgz:17349.got - 2010.06.03 11:33:40.
