data_PCOD9149696
_publ_section_title
;
Structure prediction by ZEFSAII (Michael W. Deem and Ramdas Pophale) SiO2 
 PCOD9149696
Probable space group: P 2/M
;
_chemical_formula_sum "Si O2"
_cell_formula_units_Z 32
_cell_length_a 23.188649
_cell_length_b 7.698542
_cell_length_c 28.402365
_cell_angle_alpha 90.000000
_cell_angle_beta 162.333987
_cell_angle_gamma 90.000000
_cell_volume 1538.690237
_symmetry_space_group_name_H-M "P 2/M"
_symmetry_group_IT_number 10
_symmetry_cell_setting 'monoclinic'
loop_
_space_group_symop_operation_xyz
x,y,z
-x,y,-z
-x,-y,-z
x,-y,z
loop_
_atom_site_type_symbol
_atom_site_label
_atom_site_fract_x
_atom_site_fract_y
_atom_site_fract_z
Si Si1 0.471491 0.794695 0.785302
Si Si2 0.472583 0.289229 0.532174
Si Si3 0.237352 0.798760 0.910981
Si Si4 0.201119 0.794941 0.140943
Si Si5 0.709336 0.297462 0.153677
Si Si6 0.173276 0.705265 0.374494
Si Si7 0.505766 0.788571 0.705951
Si Si8 0.044862 0.710669 0.481513
O O1 0.502960 0.724689 0.757191
O O2 0.252414 0.772504 0.628112
O O3 0.515408 0.000000 0.816916
O O4 0.609023 0.722946 0.932925
O O5 0.500000 0.230948 0.500000
O O6 0.471087 0.500000 0.531489
O O7 0.649518 0.227879 0.700832
O O8 0.283371 0.231777 0.413146
O O9 0.241874 0.712362 0.863385
O O10 0.028474 0.788122 0.771042
O O11 0.285506 0.000000 0.939738
O O12 0.309679 0.725804 0.179373
O O13 0.171912 0.000000 0.109449
O O14 0.000000 0.718147 0.000000
O O15 0.302909 0.500000 0.841793
O O16 0.880229 0.224460 0.318255
O O17 0.500000 0.220587 0.000000
O O18 0.141091 0.500000 0.344701
O O19 0.320630 0.734511 0.532083
O O20 0.505247 0.000000 0.705470
O O21 0.049767 0.500000 0.483657
O O22 0.000000 0.762970 0.500000
#
# Coordination Sequence:
#
# PCOD9149696 Si02
#       8
#     4   4   4   4   4   4   4   4
#     4  10  22  37  53  76 106 140 175 213 258 308
#     4   9  19  35  53  75 105 139 175 217 265 317
#     4  11  23  37  54  79 110 142 177 217 263 314
#     4   9  18  32  52  78 105 136 175 217 261 311
#     4  10  21  38  60  84 110 141 177 217 261 310
#     4  10  20  35  55  78 104 137 178 220 264 316
#     4   9  18  35  55  75 104 139 175 217 263 310
#     4  10  21  37  58  82 106 135 172 214 259 306
#
# _framework density 20.796908999999999
#
# number of rings (size 3 to 8) (size 9 to 14) (size 15 to 20)
#    0.000    2.250    0.000    2.250    0.000    7.500 
#    0.000    1.250    0.000    0.000    0.000    0.000 
#    0.000    0.000    0.000    0.000    0.000    0.000 
#
# Total GULP energy -178679.687089 kJ/mol
# GULP energy per Si atom -5583.740222 kJ/mol
# Density = 2.074957 g / cm^3
# Si number density = 20.796909 Si / 1000 Ang^3
#
#
#
# Elastic Constant Matrix: (Units=GPa)
#
#
# Indices 1 2 3 4 5 6 
#
# 1 154.1100 -15.0574 75.5393 0.0000 -4.1266 0.0000
# 2 -15.0574 32.0164 -13.1528 0.0000 -3.1089 0.0000
# 3 75.5393 -13.1528 145.7854 0.0000 10.3132 0.0000
# 4 0.0000 0.0000 0.0000 41.3188 0.0000 15.9523
# 5 -4.1266 -3.1089 10.3132 0.0000 32.3427 0.0000
# 6 0.0000 0.0000 0.0000 15.9523 0.0000 56.9336
#
#
#
# Elastic Compliance Matrix: (Units=1/GPa)
#
#
# Indices 1 2 3 4 5 6 
#
# 1 0.009128 0.002646 -0.004697 0.000000 0.002917 0.000000
# 2 0.002646 0.033362 0.001420 0.000000 0.003092 0.000000
# 3 -0.004697 0.001420 0.009672 0.000000 -0.003547 0.000000
# 4 0.000000 0.000000 0.000000 0.027138 0.000000 -0.007604
# 5 0.002917 0.003092 -0.003547 0.000000 0.032719 0.000000
# 6 0.000000 0.000000 0.000000 -0.007604 0.000000 0.019695
#
#
# Mechanical properties :
#
#
# Convention : Reuss Voigt Hill
#
# Bulk Modulus (GPa) = 19.64605 47.39667 33.52136
# Shear Modulus (GPa) = 33.34598 45.09120 39.21859
#
# Velocity S-wave (km/s) = 4.00860 4.66141 4.34728
# Velocity P-wave (km/s) = 5.55809 7.19801 6.43054
#
# Compressibility (1/GPa) = 0.05090081
#
# Stress axis : x y z
#
# Youngs Moduli (GPa) = 109.55304 29.97402 103.38743
#
# Poissons Ratio (x) = -0.07932 0.48564
# Poissons Ratio (y) = -0.28993 -0.14681
# Poissons Ratio (z) = 0.51460 -0.04256
#
# Static dielectric constant tensor:
#      x y z
#    x 1.729250 0.000000 0.002430 
#    y 0.000000 1.779380 0.000000 
#    z 0.002430 0.000000 1.711960 
# 
# From -- ./inp_files/91870.got.cif
#   From: 2010.05.17/outbox.cif.g08.bks.cpg/sg10_46_cif.got.tgz:91870.got - 2010.06.03 11:33:40.
