data_PCOD9149514
_publ_section_title
;
Structure prediction by ZEFSAII (Michael W. Deem and Ramdas Pophale) SiO2 
 PCOD9149514
Probable space group: P 2/M
;
_chemical_formula_sum "Si O2"
_cell_formula_units_Z 32
_cell_length_a 5.373545
_cell_length_b 9.740001
_cell_length_c 29.557183
_cell_angle_alpha 90.000000
_cell_angle_beta 78.067170
_cell_angle_gamma 90.000000
_cell_volume 1513.544643
_symmetry_space_group_name_H-M "P 2/M"
_symmetry_group_IT_number 10
_symmetry_cell_setting 'monoclinic'
loop_
_space_group_symop_operation_xyz
x,y,z
-x,y,-z
-x,-y,-z
x,-y,z
loop_
_atom_site_type_symbol
_atom_site_label
_atom_site_fract_x
_atom_site_fract_y
_atom_site_fract_z
Si Si1 0.000312 0.835166 0.175447
Si Si2 0.565239 0.166826 0.122924
Si Si3 0.843083 0.152811 0.353501
Si Si4 0.283290 0.661549 0.970115
Si Si5 0.503875 0.651794 0.305486
Si Si6 0.286348 0.841810 0.469829
Si Si7 0.232025 0.152377 0.259369
Si Si8 0.118456 0.652827 0.401067
O O1 0.272338 0.793575 0.143803
O O2 0.035769 0.806422 0.227447
O O3 0.755578 0.788769 0.156427
O O4 0.989595 0.000000 0.173173
O O5 0.659891 0.240337 0.074126
O O6 0.574615 0.000000 0.118442
O O7 0.671998 0.245319 0.328086
O O8 0.091371 0.135726 0.312498
O O9 0.904065 0.235828 0.396624
O O10 0.743360 0.000000 0.365913
O O11 0.294833 0.500000 0.956471
O O12 0.500000 0.683480 0.000000
O O13 0.000000 0.687241 0.000000
O O14 0.616039 0.500000 0.294858
O O15 0.428301 0.727024 0.262073
O O16 0.262421 0.634886 0.347975
O O17 0.500000 0.822501 0.500000
O O18 0.298850 0.727690 0.430277
O O19 0.000000 0.826903 0.500000
O O20 0.306122 0.000000 0.452473
O O21 0.341256 0.000000 0.243384
O O22 0.035583 0.500000 0.418860
#
# Coordination Sequence:
#
# PCOD9149514 Si02
#       8
#     4   4   4   4   4   4   4   4
#     4   9  19  34  56  82 114 148 187 234 282 334
#     4  10  20  35  56  84 113 146 185 234 287 337
#     4  10  20  34  58  85 110 147 195 240 286 342
#     4  10  21  37  57  80 109 146 185 231 283 339
#     4  10  21  36  55  82 116 149 187 239 292 338
#     4  10  23  42  63  90 121 154 194 241 290 348
#     4   9  19  35  55  80 107 148 196 235 279 338
#     4  10  22  39  58  83 116 152 190 238 293 347
#
# _framework density 21.142422
#
# number of rings (size 3 to 8) (size 9 to 14) (size 15 to 20)
#    0.000    2.250    0.000    1.875    3.500    3.000 
#    0.000    1.250    0.000    0.000    0.000    0.000 
#    0.000    0.000    0.000    0.000    0.000    0.000 
#
# Total GULP energy -178476.658143 kJ/mol
# GULP energy per Si atom -5577.395567 kJ/mol
# Density = 2.109430 g / cm^3
# Si number density = 21.142422 Si / 1000 Ang^3
#
#
#
# Elastic Constant Matrix: (Units=GPa)
#
#
# Indices 1 2 3 4 5 6 
#
# 1 91.1721 32.4611 25.1632 0.0000 14.1778 0.0000
# 2 32.4611 131.1202 40.1576 0.0000 24.1911 0.0000
# 3 25.1632 40.1576 86.5911 0.0000 9.2671 0.0000
# 4 0.0000 0.0000 0.0000 145.6304 0.0000 56.4667
# 5 14.1778 24.1911 9.2671 0.0000 37.3014 0.0000
# 6 0.0000 0.0000 0.0000 56.4667 0.0000 34.2492
#
#
#
# Elastic Compliance Matrix: (Units=1/GPa)
#
#
# Indices 1 2 3 4 5 6 
#
# 1 0.012795 -0.001826 -0.002545 0.000000 -0.003047 0.000000
# 2 -0.001826 0.010103 -0.003624 0.000000 -0.004958 0.000000
# 3 -0.002545 -0.003624 0.013986 0.000000 -0.000157 0.000000
# 4 0.000000 0.000000 0.000000 0.019035 0.000000 -0.031384
# 5 -0.003047 -0.004958 -0.000157 0.000000 0.031221 0.000000
# 6 0.000000 0.000000 0.000000 -0.031384 0.000000 0.080940
#
#
# Mechanical properties :
#
#
# Convention : Reuss Voigt Hill
#
# Bulk Modulus (GPa) = 47.86354 56.04968 51.95661
# Shear Modulus (GPa) = 26.17311 57.50962 41.84136
#
# Velocity S-wave (km/s) = 3.52226 5.22112 4.45345
# Velocity P-wave (km/s) = 6.26335 7.93189 7.14648
#
# Compressibility (1/GPa) = 0.02089273
#
# Stress axis : x y z
#
# Youngs Moduli (GPa) = 78.15786 98.97704 71.50125
#
# Poissons Ratio (x) = 0.18073 0.18199
# Poissons Ratio (y) = 0.14271 0.25914
# Poissons Ratio (z) = 0.19893 0.35873
#
# Static dielectric constant tensor:
#      x y z
#    x 1.835630 0.000000 -0.037930 
#    y 0.000000 1.827720 0.000000 
#    z -0.037930 0.000000 1.767720 
# 
# From -- ./inp_files/94340.got.cif
#   From: 2010.05.17/outbox.cif.g08.bks.cpg/sg10_48_cif.got.tgz:94340.got - 2010.06.03 11:33:40.
