data_PCOD9149584
_publ_section_title
;
Structure prediction by ZEFSAII (Michael W. Deem and Ramdas Pophale) SiO2 
 PCOD9149584
Probable space group: P 2/M
;
_chemical_formula_sum "Si O2"
_cell_formula_units_Z 28
_cell_length_a 18.905697
_cell_length_b 9.032853
_cell_length_c 14.647453
_cell_angle_alpha 90.000000
_cell_angle_beta 40.494461
_cell_angle_gamma 90.000000
_cell_volume 1624.332756
_symmetry_space_group_name_H-M "P 2/M"
_symmetry_group_IT_number 10
_symmetry_cell_setting 'monoclinic'
loop_
_space_group_symop_operation_xyz
x,y,z
-x,y,-z
-x,-y,-z
x,-y,z
loop_
_atom_site_type_symbol
_atom_site_label
_atom_site_fract_x
_atom_site_fract_y
_atom_site_fract_z
Si Si1 0.369055 0.834899 0.621544
Si Si2 0.179795 0.826460 0.570506
Si Si3 0.166881 0.676189 0.087840
Si Si4 0.611663 0.673950 0.580288
Si Si5 0.012631 0.824762 0.381410
Si Si6 0.994802 0.177641 0.897947
Si Si7 0.376693 0.177467 0.819570
O O1 0.500000 0.847858 0.500000
O O2 0.350733 0.721460 0.558737
O O3 0.336479 0.790675 0.754996
O O4 0.325482 0.000000 0.642675
O O5 0.288331 0.730804 0.457610
O O6 0.106943 0.793102 0.732376
O O7 0.099412 0.803401 0.564262
O O8 0.209369 0.000000 0.545566
O O9 0.172191 0.500000 0.076558
O O10 0.101934 0.729357 0.240949
O O11 0.098260 0.741003 0.069137
O O12 0.286662 0.747323 0.970392
O O13 0.594839 0.500000 0.602808
O O14 0.497816 0.757128 0.711097
O O15 0.000000 0.789460 0.500000
O O16 0.040352 0.000000 0.345445
O O17 0.975200 0.000000 0.911719
O O18 0.000000 0.217789 0.000000
O O19 0.380200 0.000000 0.825606
#
# Coordination Sequence:
#
# PCOD9149584 Si02
#       7
#     4   4   4   4   4   4   4
#     4   8  16  30  46  64  90 135 186 221 251 295
#     4   9  18  33  53  78 106 137 177 218 262 317
#     4  11  22  34  52  82 114 139 171 218 277 328
#     4  11  21  31  47  74 109 142 177 221 268 314
#     4   9  19  39  65  86 103 132 178 224 264 319
#     4   9  19  35  53  73 101 145 190 224 259 308
#     4  10  20  35  53  71 100 144 190 225 258 308
#
# _framework density 17.237846999999999
#
# number of rings (size 3 to 8) (size 9 to 14) (size 15 to 20)
#    0.000    2.429    0.000    4.714    2.000    6.000 
#    0.000    0.000    0.000    0.857    0.000    6.000 
#    0.000    0.000    0.000    0.000    0.000    0.000 
#
# Total GULP energy -156171.845949 kJ/mol
# GULP energy per Si atom -5577.565927 kJ/mol
# Density = 1.719861 g / cm^3
# Si number density = 17.237847 Si / 1000 Ang^3
#
#
#
# Elastic Constant Matrix: (Units=GPa)
#
#
# Indices 1 2 3 4 5 6 
#
# 1 72.7035 42.5381 55.0315 0.0000 5.9209 0.0000
# 2 42.5381 82.9806 60.0602 0.0000 -11.5608 0.0000
# 3 55.0315 60.0602 92.8810 0.0000 -6.8275 0.0000
# 4 0.0000 0.0000 0.0000 13.7033 0.0000 -10.1365
# 5 5.9209 -11.5608 -6.8275 0.0000 27.0531 0.0000
# 6 0.0000 0.0000 0.0000 -10.1365 0.0000 -11.2413
#
#
#
# Elastic Compliance Matrix: (Units=1/GPa)
#
#
# Indices 1 2 3 4 5 6 
#
# 1 0.029276 -0.006681 -0.013966 0.000000 -0.012787 0.000000
# 2 -0.006681 0.025210 -0.011660 0.000000 0.009293 0.000000
# 3 -0.013966 -0.011660 0.026939 0.000000 0.004872 0.000000
# 4 0.000000 0.000000 0.000000 0.043776 0.000000 -0.039474
# 5 -0.012787 0.009293 0.004872 0.000000 0.044964 0.000000
# 6 0.000000 0.000000 0.000000 -0.039474 0.000000 -0.053364
#
#
# Mechanical properties :
#
#
# Convention : Reuss Voigt Hill
#
# Bulk Modulus (GPa) = 59.48328 62.64718 61.06523
# Shear Modulus (GPa) = 26.73544 11.96539 19.35041
#
# Velocity S-wave (km/s) = 3.94251 2.63750 3.35409
# Velocity P-wave (km/s) = 7.43686 6.75995 7.10647
#
# Compressibility (1/GPa) = 0.01681145
#
# Stress axis : x y z
#
# Youngs Moduli (GPa) = 34.15794 39.66694 37.12085
#
# Poissons Ratio (x) = 0.26501 0.51841
# Poissons Ratio (y) = 0.22821 0.43284
# Poissons Ratio (z) = 0.47703 0.46252
#
# Static dielectric constant tensor:
#      x y z
#    x 1.591820 0.000000 -0.006610 
#    y 0.000000 1.574230 0.000000 
#    z -0.006610 0.000000 1.598380 
# 
# From -- ./inp_files/68580.got.cif
#   From: 2010.05.17/outbox.cif.g08.bks.cpg/sg10_35_cif.got.tgz:68580.got - 2010.06.03 11:33:40.
