data_PCOD9149257
_publ_section_title
;
Structure prediction by ZEFSAII (Michael W. Deem and Ramdas Pophale) SiO2 
 PCOD9149257
Probable space group: P 2/M
;
_chemical_formula_sum "Si O2"
_cell_formula_units_Z 28
_cell_length_a 8.869114
_cell_length_b 11.256155
_cell_length_c 15.343965
_cell_angle_alpha 90.000000
_cell_angle_beta 71.356801
_cell_angle_gamma 90.000000
_cell_volume 1451.442368
_symmetry_space_group_name_H-M "P 2/M"
_symmetry_group_IT_number 10
_symmetry_cell_setting 'monoclinic'
loop_
_space_group_symop_operation_xyz
x,y,z
-x,y,-z
-x,-y,-z
x,-y,z
loop_
_atom_site_type_symbol
_atom_site_label
_atom_site_fract_x
_atom_site_fract_y
_atom_site_fract_z
Si Si1 0.791098 0.862395 0.834436
Si Si2 0.612257 0.861256 0.397556
Si Si3 0.889040 0.634415 0.595361
Si Si4 0.088921 0.710067 0.716287
Si Si5 0.807256 0.135075 0.033630
Si Si6 0.582524 0.758227 0.722211
Si Si7 0.711510 0.631117 0.160089
O O1 0.652457 0.818112 0.796125
O O2 0.954153 0.793877 0.783373
O O3 0.819535 0.000000 0.811473
O O4 0.753087 0.850305 0.943594
O O5 0.500000 0.825033 0.500000
O O6 0.772513 0.785015 0.357205
O O7 0.516754 0.841330 0.324723
O O8 0.650519 0.000000 0.401601
O O9 0.845727 0.500000 0.578388
O O10 0.733210 0.709691 0.641874
O O11 0.000000 0.687146 0.500000
O O12 0.994401 0.634489 0.662997
O O13 0.172233 0.638841 0.778367
O O14 0.748036 0.249686 0.097721
O O15 0.760250 0.000000 0.072399
O O16 0.000000 0.136952 0.000000
O O17 0.466651 0.651671 0.772024
O O18 0.728231 0.500000 0.115359
#
# Coordination Sequence:
#
# PCOD9149257 Si02
#       7
#     4   4   4   4   4   4   4
#     4  10  20  37  59  84 112 148 192 238 289 343
#     4  10  20  34  54  82 115 150 189 234 285 341
#     4  10  20  36  57  79 107 146 190 235 283 336
#     4  10  20  35  56  82 110 148 190 237 284 341
#     4  10  21  39  62  88 115 148 194 243 287 343
#     4  10  22  37  55  83 117 151 188 236 287 344
#     4  11  23  39  59  86 120 155 192 237 291 348
#
# _framework density 19.291153000000001
#
# number of rings (size 3 to 8) (size 9 to 14) (size 15 to 20)
#    0.000    1.857    1.429    2.571    0.000    3.714 
#    0.000    3.571    0.000   13.714    0.000    0.000 
#    0.000    0.000    0.000    0.000    0.000    0.000 
#
# Total GULP energy -156231.452101 kJ/mol
# GULP energy per Si atom -5579.694718 kJ/mol
# Density = 1.924725 g / cm^3
# Si number density = 19.291153 Si / 1000 Ang^3
#
#
#
# Elastic Constant Matrix: (Units=GPa)
#
#
# Indices 1 2 3 4 5 6 
#
# 1 58.9386 12.6569 9.6405 0.0000 -1.5345 0.0000
# 2 12.6569 103.9892 31.4631 0.0000 -12.1808 0.0000
# 3 9.6405 31.4631 46.4972 0.0000 0.8797 0.0000
# 4 0.0000 0.0000 0.0000 16.9462 0.0000 3.0081
# 5 -1.5345 -12.1808 0.8797 0.0000 25.0633 0.0000
# 6 0.0000 0.0000 0.0000 3.0081 0.0000 -2.3012
#
#
#
# Elastic Compliance Matrix: (Units=1/GPa)
#
#
# Indices 1 2 3 4 5 6 
#
# 1 0.017712 -0.001222 -0.002856 0.000000 0.000591 0.000000
# 2 -0.001222 0.013211 -0.008812 0.000000 0.006655 0.000000
# 3 -0.002856 -0.008812 0.028165 0.000000 -0.005446 0.000000
# 4 0.000000 0.000000 0.000000 0.047897 0.000000 0.062609
# 5 0.000591 0.006655 -0.005446 0.000000 0.043361 0.000000
# 6 0.000000 0.000000 0.000000 0.062609 0.000000 -0.352711
#
#
# Mechanical properties :
#
#
# Convention : Reuss Voigt Hill
#
# Bulk Modulus (GPa) = 30.02435 35.21621 32.62028
# Shear Modulus (GPa) = -30.21459 18.31928 -5.94766
#
# Velocity S-wave (km/s) = -3.96187 3.08494 -1.75778
# Velocity P-wave (km/s) = 2.30889 5.56631 3.58140
#
# Compressibility (1/GPa) = 0.03330630
#
# Stress axis : x y z
#
# Youngs Moduli (GPa) = 56.45922 75.69572 35.50563
#
# Poissons Ratio (x) = 0.09253 0.10141
# Poissons Ratio (y) = 0.06902 0.31287
# Poissons Ratio (z) = 0.16126 0.66701
#
# Static dielectric constant tensor:
#      x y z
#    x 1.660760 0.000000 -0.000140 
#    y 0.000000 1.672470 0.000000 
#    z -0.000140 0.000000 1.684600 
# 
# From -- ./inp_files/28182.got.cif
#   From: 2010.05.17/outbox.cif.g08.bks.cpg/sg10_15_cif.got.tgz:28182.got - 2010.06.03 11:33:40.
