data_PCOD9149768
_publ_section_title
;
Structure prediction by ZEFSAII (Michael W. Deem and Ramdas Pophale) SiO2 
 PCOD9149768
Probable space group: P 2/M
;
_chemical_formula_sum "Si O2"
_cell_formula_units_Z 28
_cell_length_a 9.423537
_cell_length_b 8.889254
_cell_length_c 30.178360
_cell_angle_alpha 90.000000
_cell_angle_beta 38.984037
_cell_angle_gamma 90.000000
_cell_volume 1590.366550
_symmetry_space_group_name_H-M "P 2/M"
_symmetry_group_IT_number 10
_symmetry_cell_setting 'monoclinic'
loop_
_space_group_symop_operation_xyz
x,y,z
-x,y,-z
-x,-y,-z
x,-y,z
loop_
_atom_site_type_symbol
_atom_site_label
_atom_site_fract_x
_atom_site_fract_y
_atom_site_fract_z
Si Si1 0.755695 0.180503 0.435515
Si Si2 0.847873 0.179786 0.718554
Si Si3 0.529895 0.678636 0.721452
Si Si4 0.328940 0.679828 0.002464
Si Si5 0.483127 0.820837 0.873550
Si Si6 0.162370 0.179354 0.867008
Si Si7 0.074641 0.681605 0.433074
O O1 0.500000 0.236349 0.500000
O O2 0.892611 0.210882 0.356557
O O3 0.903969 0.249584 0.438806
O O4 0.752145 0.000000 0.441809
O O5 0.702996 0.273912 0.718441
O O6 0.733729 0.211311 0.793470
O O7 0.808336 0.000000 0.720095
O O8 0.494330 0.500000 0.730015
O O9 0.300551 0.760070 0.791078
O O10 0.669537 0.722907 0.643524
O O11 0.310190 0.500000 0.007344
O O12 0.083276 0.750134 0.069655
O O13 0.500000 0.725936 0.000000
O O14 0.422517 0.734104 0.932498
O O15 0.308761 0.783944 0.875832
O O16 0.464644 0.000000 0.886143
O O17 0.147875 0.000000 0.868276
O O18 0.061691 0.500000 0.433630
O O19 0.000000 0.729216 0.500000
#
# Coordination Sequence:
#
# PCOD9149768 Si02
#       7
#     4   4   4   4   4   4   4
#     4   9  17  30  49  73 101 132 166 206 249 291
#     4   8  15  29  48  71 100 129 161 205 250 290
#     4   9  16  28  49  74  99 128 164 205 246 287
#     4  11  24  38  51  72 103 134 163 198 242 291
#     4   9  18  33  54  77  98 125 164 206 247 293
#     4  10  20  35  56  79 100 125 162 205 247 293
#     4   9  18  32  49  71 101 135 168 203 245 292
#
# _framework density 17.606003000000001
#
# number of rings (size 3 to 8) (size 9 to 14) (size 15 to 20)
#    0.000    2.714    0.000    2.571    0.000    6.857 
#    0.000    1.429    0.000    3.429    0.000    0.000 
#    0.000    0.000    0.000    0.000    0.000    0.000 
#
# Total GULP energy -155966.438928 kJ/mol
# GULP energy per Si atom -5570.229962 kJ/mol
# Density = 1.756593 g / cm^3
# Si number density = 17.606003 Si / 1000 Ang^3
#
#
#
# Elastic Constant Matrix: (Units=GPa)
#
#
# Indices 1 2 3 4 5 6 
#
# 1 56.1030 27.9579 75.1572 0.0000 -1.2463 0.0000
# 2 27.9579 28.3970 54.2006 0.0000 1.4246 0.0000
# 3 75.1572 54.2006 208.8036 0.0000 -0.7767 0.0000
# 4 0.0000 0.0000 0.0000 30.5595 0.0000 -4.4328
# 5 -1.2463 1.4246 -0.7767 0.0000 23.4425 0.0000
# 6 0.0000 0.0000 0.0000 -4.4328 0.0000 28.4440
#
#
#
# Elastic Compliance Matrix: (Units=1/GPa)
#
#
# Indices 1 2 3 4 5 6 
#
# 1 0.041825 -0.025057 -0.008538 0.000000 0.003463 0.000000
# 2 -0.025057 0.085359 -0.013164 0.000000 -0.006956 0.000000
# 3 -0.008538 -0.013164 0.011282 0.000000 0.000720 0.000000
# 4 0.000000 0.000000 0.000000 0.033480 0.000000 0.005218
# 5 0.003463 -0.006956 0.000720 0.000000 0.043288 0.000000
# 6 0.000000 0.000000 0.000000 0.005218 0.000000 0.035970
#
#
# Mechanical properties :
#
#
# Convention : Reuss Voigt Hill
#
# Bulk Modulus (GPa) = 22.24718 67.54834 44.89776
# Shear Modulus (GPa) = 13.90030 25.55507 19.72769
#
# Velocity S-wave (km/s) = 2.81289 3.81399 3.35103
# Velocity P-wave (km/s) = 4.81802 7.60561 6.36626
#
# Compressibility (1/GPa) = 0.04494951
#
# Stress axis : x y z
#
# Youngs Moduli (GPa) = 23.90914 11.71519 88.63645
#
# Poissons Ratio (x) = 0.29354 0.75674
# Poissons Ratio (y) = 0.59908 1.16683
# Poissons Ratio (z) = 0.20413 0.15422
#
# Static dielectric constant tensor:
#      x y z
#    x 1.571120 0.000000 -0.002620 
#    y 0.000000 1.586840 0.000000 
#    z -0.002620 0.000000 1.651450 
# 
# From -- ./inp_files/94510.got.cif
#   From: 2010.05.17/outbox.cif.g08.bks.cpg/sg10_48_cif.got.tgz:94510.got - 2010.06.03 11:33:40.
