data_PCOD9149483
_publ_section_title
;
Structure prediction by ZEFSAII (Michael W. Deem and Ramdas Pophale) SiO2 
 PCOD9149483
Probable space group: P 2/M
;
_chemical_formula_sum "Si O2"
_cell_formula_units_Z 32
_cell_length_a 12.506862
_cell_length_b 8.679141
_cell_length_c 21.129405
_cell_angle_alpha 90.000000
_cell_angle_beta 127.572144
_cell_angle_gamma 90.000000
_cell_volume 1817.853455
_symmetry_space_group_name_H-M "P 2/M"
_symmetry_group_IT_number 10
_symmetry_cell_setting 'monoclinic'
loop_
_space_group_symop_operation_xyz
x,y,z
-x,y,-z
-x,-y,-z
x,-y,z
loop_
_atom_site_type_symbol
_atom_site_label
_atom_site_fract_x
_atom_site_fract_y
_atom_site_fract_z
Si Si1 0.573141 0.815035 0.213031
Si Si2 0.438995 0.684099 0.290205
Si Si3 0.593129 0.685882 0.474186
Si Si4 0.139346 0.813636 0.873252
Si Si5 0.414444 0.812600 0.030561
Si Si6 0.862998 0.816034 0.623168
Si Si7 0.847311 0.316571 0.263455
Si Si8 0.164026 0.815075 0.238157
O O1 0.503642 0.760120 0.252046
O O2 0.484562 0.761592 0.120464
O O3 0.722717 0.748244 0.258349
O O4 0.580122 0.000000 0.213983
O O5 0.446521 0.500000 0.287578
O O6 0.521275 0.731169 0.383036
O O7 0.284891 0.734816 0.245315
O O8 0.500000 0.734073 0.500000
O O9 0.603193 0.500000 0.479458
O O10 0.740614 0.756247 0.536739
O O11 0.166608 0.746879 0.813348
O O12 0.987298 0.771071 0.837798
O O13 0.142058 0.000000 0.868136
O O14 0.259532 0.766256 0.963242
O O15 0.417118 0.000000 0.032072
O O16 0.500000 0.763122 0.000000
O O17 0.829707 0.775947 0.684669
O O18 0.007403 0.742021 0.660264
O O19 0.874667 0.000000 0.623879
O O20 0.844617 0.500000 0.261761
O O21 0.178042 0.000000 0.237393
#
# Coordination Sequence:
#
# PCOD9149483 Si02
#       8
#     4   4   4   4   4   4   4   4
#     4  11  22  38  59  81 111 149 188 230 277 331
#     4  11  23  38  56  79 114 151 184 224 277 339
#     4  10  20  36  57  83 113 147 184 228 281 333
#     4   9  17  33  56  84 112 142 186 235 277 322
#     4   9  16  31  58  85 109 140 185 235 279 320
#     4  10  20  34  57  86 113 142 185 237 276 319
#     4  11  21  34  54  82 116 149 182 223 280 337
#     4   9  18  32  53  81 111 143 183 228 273 324
#
# _framework density 17.603179000000001
#
# number of rings (size 3 to 8) (size 9 to 14) (size 15 to 20)
#    0.000    2.000    2.500    3.000    0.000    3.250 
#    0.000    3.125    0.000    7.500    0.000    0.000 
#    0.000    0.000    0.000    0.000    0.000    0.000 
#
# Total GULP energy -178618.122310 kJ/mol
# GULP energy per Si atom -5581.816322 kJ/mol
# Density = 1.756311 g / cm^3
# Si number density = 17.603179 Si / 1000 Ang^3
#
#
#
# Elastic Constant Matrix: (Units=GPa)
#
#
# Indices 1 2 3 4 5 6 
#
# 1 151.1669 46.3108 84.0190 0.0000 18.5469 0.0000
# 2 46.3108 38.1003 32.3627 0.0000 6.1057 0.0000
# 3 84.0190 32.3627 118.5185 0.0000 16.5236 0.0000
# 4 0.0000 0.0000 0.0000 -53.7775 0.0000 -86.6483
# 5 18.5469 6.1057 16.5236 0.0000 31.4804 0.0000
# 6 0.0000 0.0000 0.0000 -86.6483 0.0000 -85.5467
#
#
#
# Elastic Compliance Matrix: (Units=1/GPa)
#
#
# Indices 1 2 3 4 5 6 
#
# 1 0.013912 -0.010965 -0.006498 0.000000 -0.002659 0.000000
# 2 -0.010965 0.042916 -0.003977 0.000000 0.000224 0.000000
# 3 -0.006498 -0.003977 0.014553 0.000000 -0.003039 0.000000
# 4 0.000000 0.000000 0.000000 0.029423 0.000000 -0.029802
# 5 -0.002659 0.000224 -0.003039 0.000000 0.034884 0.000000
# 6 0.000000 0.000000 0.000000 -0.029802 0.000000 0.018497
#
#
# Mechanical properties :
#
#
# Convention : Reuss Voigt Hill
#
# Bulk Modulus (GPa) = 35.08372 70.35229 52.71800
# Shear Modulus (GPa) = 24.20541 -11.89588 6.15476
#
# Velocity S-wave (km/s) = 3.71220 -2.60240 1.87189
# Velocity P-wave (km/s) = 6.19254 5.56978 5.88940
#
# Compressibility (1/GPa) = 0.02850325
#
# Stress axis : x y z
#
# Youngs Moduli (GPa) = 71.88093 23.30116 68.71260
#
# Poissons Ratio (x) = 0.25549 0.44646
# Poissons Ratio (y) = 0.78815 0.27327
# Poissons Ratio (z) = 0.46705 0.09267
#
# Static dielectric constant tensor:
#      x y z
#    x 1.577020 0.000000 0.015400 
#    y 0.000000 1.594670 0.000000 
#    z 0.015400 0.000000 1.599680 
# 
# From -- ./inp_files/83531.got.cif
#   From: 2010.05.17/outbox.cif.g08.bks.cpg/sg10_42_cif.got.tgz:83531.got - 2010.06.03 11:33:40.
