data_PCOD9149946
_publ_section_title
;
Structure prediction by ZEFSAII (Michael W. Deem and Ramdas Pophale) SiO2 
 PCOD9149946
Probable space group: P 2/M
;
_chemical_formula_sum "Si O2"
_cell_formula_units_Z 32
_cell_length_a 11.937676
_cell_length_b 7.683264
_cell_length_c 28.947565
_cell_angle_alpha 90.000000
_cell_angle_beta 148.083397
_cell_angle_gamma 90.000000
_cell_volume 1403.699081
_symmetry_space_group_name_H-M "P 2/M"
_symmetry_group_IT_number 10
_symmetry_cell_setting 'monoclinic'
loop_
_space_group_symop_operation_xyz
x,y,z
-x,y,-z
-x,-y,-z
x,-y,z
loop_
_atom_site_type_symbol
_atom_site_label
_atom_site_fract_x
_atom_site_fract_y
_atom_site_fract_z
Si Si1 0.839630 0.299182 0.143213
Si Si2 0.642517 0.200817 0.168951
Si Si3 0.550154 0.797581 0.286793
Si Si4 0.220276 0.206230 0.978844
Si Si5 0.088585 0.785641 0.650545
Si Si6 0.670001 0.787824 0.697062
Si Si7 0.602712 0.787617 0.487607
Si Si8 0.152333 0.300636 0.093013
O O1 0.786027 0.500000 0.130822
O O2 0.765677 0.204854 0.163566
O O3 0.734468 0.234833 0.059047
O O4 0.090702 0.276258 0.224096
O O5 0.786926 0.274683 0.259990
O O6 0.603809 0.000000 0.167984
O O7 0.411239 0.277106 0.077165
O O8 0.769053 0.726527 0.342932
O O9 0.447912 0.723999 0.297747
O O10 0.371859 0.785887 0.184183
O O11 0.589474 0.000000 0.310460
O O12 0.000515 0.292849 0.916043
O O13 0.196112 0.000000 0.977555
O O14 0.845423 0.730116 0.566700
O O15 0.086583 0.000000 0.649804
O O16 0.537653 0.737448 0.605482
O O17 0.682119 0.000000 0.703551
O O18 0.500000 0.729695 0.500000
O O19 0.604319 0.000000 0.489133
O O20 0.197680 0.500000 0.096523
O O21 0.000000 0.222494 0.000000
#
# Coordination Sequence:
#
# PCOD9149946 Si02
#       8
#     4   4   4   4   4   4   4   4
#     4  12  24  37  56  82 116 154 193 240 294 350
#     4  10  21  37  58  82 112 150 193 241 293 349
#     4  10  20  35  57  84 115 152 197 245 289 341
#     4  11  22  37  58  84 113 150 196 242 290 345
#     4   9  18  34  57  87 117 147 190 242 293 344
#     4  10  20  35  58  86 115 153 197 241 292 347
#     4   9  17  31  56  88 119 151 190 241 296 346
#     4  11  23  37  55  81 116 158 200 241 287 343
#
# _framework density 22.796907000000001
#
# number of rings (size 3 to 8) (size 9 to 14) (size 15 to 20)
#    0.000    1.750    1.250    3.750    0.000    7.000 
#    0.000    3.125    0.000    4.125    0.000    1.750 
#    0.000    0.000    0.000    0.000    0.000    0.000 
#
# Total GULP energy -178913.441987 kJ/mol
# GULP energy per Si atom -5591.045062 kJ/mol
# Density = 2.274502 g / cm^3
# Si number density = 22.796907 Si / 1000 Ang^3
#
#
#
# Elastic Constant Matrix: (Units=GPa)
#
#
# Indices 1 2 3 4 5 6 
#
# 1 99.0507 -5.2811 31.4181 0.0000 12.0970 0.0000
# 2 -5.2811 53.4144 0.0281 0.0000 -2.4887 0.0000
# 3 31.4181 0.0281 107.6847 0.0000 8.2933 0.0000
# 4 0.0000 0.0000 0.0000 168.3448 0.0000 146.5903
# 5 12.0970 -2.4887 8.2933 0.0000 43.4799 0.0000
# 6 0.0000 0.0000 0.0000 146.5903 0.0000 129.6715
#
#
#
# Elastic Compliance Matrix: (Units=1/GPa)
#
#
# Indices 1 2 3 4 5 6 
#
# 1 0.011458 0.001017 -0.003148 0.000000 -0.002529 0.000000
# 2 0.001017 0.018863 -0.000368 0.000000 0.000867 0.000000
# 3 -0.003148 -0.000368 0.010290 0.000000 -0.001108 0.000000
# 4 0.000000 0.000000 0.000000 0.380497 0.000000 -0.430142
# 5 -0.002529 0.000867 -0.001108 0.000000 0.023964 0.000000
# 6 0.000000 0.000000 0.000000 -0.430142 0.000000 0.493976
#
#
# Mechanical properties :
#
#
# Convention : Reuss Voigt Hill
#
# Bulk Modulus (GPa) = 28.08163 34.72001 31.40082
# Shear Modulus (GPa) = 5.23058 83.89823 44.56440
#
# Velocity S-wave (km/s) = 1.51638 6.07308 4.42616
# Velocity P-wave (km/s) = 3.92566 8.02743 6.31864
#
# Compressibility (1/GPa) = 0.03561047
#
# Stress axis : x y z
#
# Youngs Moduli (GPa) = 87.27876 53.01485 97.17840
#
# Poissons Ratio (x) = -0.05390 0.30595
# Poissons Ratio (y) = -0.08873 0.03579
# Poissons Ratio (z) = 0.27478 0.01953
#
# Static dielectric constant tensor:
#      x y z
#    x 1.865160 0.000000 -0.005150 
#    y 0.000000 1.844270 0.000000 
#    z -0.005150 0.000000 1.819310 
# 
# From -- ./inp_files/95046.got.cif
#   From: 2010.05.17/outbox.cif.g08.bks.cpg/sg10_48_cif.got.tgz:95046.got - 2010.06.03 11:33:40.
