data_PCOD9149994
_publ_section_title
;
Structure prediction by ZEFSAII (Michael W. Deem and Ramdas Pophale) SiO2 
 PCOD9149994
Probable space group: P 2/M
;
_chemical_formula_sum "Si O2"
_cell_formula_units_Z 28
_cell_length_a 13.971329
_cell_length_b 8.060234
_cell_length_c 12.494180
_cell_angle_alpha 90.000000
_cell_angle_beta 124.639237
_cell_angle_gamma 90.000000
_cell_volume 1157.602879
_symmetry_space_group_name_H-M "P 2/M"
_symmetry_group_IT_number 10
_symmetry_cell_setting 'monoclinic'
loop_
_space_group_symop_operation_xyz
x,y,z
-x,y,-z
-x,-y,-z
x,-y,z
loop_
_atom_site_type_symbol
_atom_site_label
_atom_site_fract_x
_atom_site_fract_y
_atom_site_fract_z
Si Si1 0.396641 0.311248 0.812812
Si Si2 0.309952 0.805481 0.537238
Si Si3 0.358470 0.798360 0.094807
Si Si4 0.052438 0.313261 0.367026
Si Si5 0.657921 0.811299 0.679979
Si Si6 0.091340 0.692046 0.145411
Si Si7 0.812190 0.810749 0.185987
O O1 0.382877 0.500000 0.841059
O O2 0.364338 0.295783 0.667499
O O3 0.529856 0.254282 0.902609
O O4 0.301035 0.200216 0.811078
O O5 0.169549 0.790516 0.459075
O O6 0.354689 0.742885 0.448802
O O7 0.340678 0.000000 0.565931
O O8 0.378296 0.736002 0.229046
O O9 0.353647 0.000000 0.095642
O O10 0.240582 0.740131 0.959735
O O11 0.079180 0.500000 0.418765
O O12 0.037421 0.308255 0.228781
O O13 0.922336 0.265716 0.318380
O O14 0.797237 0.807371 0.781655
O O15 0.614168 0.000000 0.649028
O O16 0.127309 0.500000 0.146245
O O17 0.000000 0.745393 0.000000
O O18 0.846438 0.000000 0.186900
#
# Coordination Sequence:
#
# PCOD9149994 Si02
#       7
#     4   4   4   4   4   4   4
#     4  12  26  42  61  85 116 155 200 249 297 346
#     4  10  21  40  63  88 120 157 198 239 288 349
#     4  10  22  41  63  89 120 154 195 242 293 348
#     4  10  20  35  57  87 122 155 192 240 291 345
#     4   9  19  35  58  86 115 150 191 237 285 340
#     4   9  17  29  48  78 117 156 189 228 283 343
#     4  11  23  40  63  89 118 155 198 242 292 350
#
# _framework density 24.187916000000001
#
# number of rings (size 3 to 8) (size 9 to 14) (size 15 to 20)
#    0.000    1.857    0.000    3.857    0.000    6.000 
#    0.000    5.714    0.000    0.000    0.000    0.000 
#    0.000    0.000    0.000    0.000    0.000    0.000 
#
# Total GULP energy -156391.286180 kJ/mol
# GULP energy per Si atom -5585.403078 kJ/mol
# Density = 2.413286 g / cm^3
# Si number density = 24.187916 Si / 1000 Ang^3
#
#
#
# Elastic Constant Matrix: (Units=GPa)
#
#
# Indices 1 2 3 4 5 6 
#
# 1 83.6520 -4.5921 -1.2980 0.0000 9.1400 0.0000
# 2 -4.5921 44.0356 -1.1042 0.0000 7.0751 0.0000
# 3 -1.2980 -1.1042 74.1706 0.0000 -0.3144 0.0000
# 4 0.0000 0.0000 0.0000 23.0189 0.0000 3.3686
# 5 9.1400 7.0751 -0.3144 0.0000 39.8375 0.0000
# 6 0.0000 0.0000 0.0000 3.3686 0.0000 9.8511
#
#
#
# Elastic Compliance Matrix: (Units=1/GPa)
#
#
# Indices 1 2 3 4 5 6 
#
# 1 0.012403 0.001808 0.000231 0.000000 -0.003165 0.000000
# 2 0.001808 0.023647 0.000364 0.000000 -0.004612 0.000000
# 3 0.000231 0.000364 0.013492 0.000000 -0.000011 0.000000
# 4 0.000000 0.000000 0.000000 0.045731 0.000000 -0.015638
# 5 -0.003165 -0.004612 -0.000011 0.000000 0.026647 0.000000
# 6 0.000000 0.000000 0.000000 -0.015638 0.000000 0.106859
#
#
# Mechanical properties :
#
#
# Convention : Reuss Voigt Hill
#
# Bulk Modulus (GPa) = 18.40031 20.87440 19.63735
# Shear Modulus (GPa) = 20.65346 28.46500 24.55923
#
# Velocity S-wave (km/s) = 2.92528 3.43421 3.18991
# Velocity P-wave (km/s) = 4.36274 4.93700 4.65872
#
# Compressibility (1/GPa) = 0.05434692
#
# Stress axis : x y z
#
# Youngs Moduli (GPa) = 80.62629 42.28778 74.11889
#
# Poissons Ratio (x) = -0.07644 -0.01709
# Poissons Ratio (y) = -0.14574 -0.02699
# Poissons Ratio (z) = -0.01859 -0.01540
#
# Static dielectric constant tensor:
#      x y z
#    x 1.970700 0.000000 -0.046170 
#    y 0.000000 1.859800 0.000000 
#    z -0.046170 0.000000 1.978600 
# 
# From -- ./inp_files/50106.got.cif
#   From: 2010.05.17/outbox.cif.g08.bks.cpg/sg10_26_cif.got.tgz:50106.got - 2010.06.03 11:33:40.
