data_PCOD9149597
_publ_section_title
;
Structure prediction by ZEFSAII (Michael W. Deem and Ramdas Pophale) SiO2 
 PCOD9149597
Probable space group: P 2/M
;
_chemical_formula_sum "Si O2"
_cell_formula_units_Z 32
_cell_length_a 19.126620
_cell_length_b 13.850637
_cell_length_c 21.937767
_cell_angle_alpha 90.000000
_cell_angle_beta 160.158944
_cell_angle_gamma 90.000000
_cell_volume 1972.548233
_symmetry_space_group_name_H-M "P 2/M"
_symmetry_group_IT_number 10
_symmetry_cell_setting 'monoclinic'
loop_
_space_group_symop_operation_xyz
x,y,z
-x,y,-z
-x,-y,-z
x,-y,z
loop_
_atom_site_type_symbol
_atom_site_label
_atom_site_fract_x
_atom_site_fract_y
_atom_site_fract_z
Si Si1 0.212508 0.108509 0.712509
Si Si2 0.073376 0.109695 0.996870
Si Si3 0.628763 0.385647 0.042925
Si Si4 0.343868 0.109695 0.420372
Si Si5 0.193105 0.110482 0.426122
Si Si6 0.583285 0.240146 0.218662
Si Si7 0.989433 0.240148 0.354054
Si Si8 0.392139 0.889519 0.159120
O O1 0.363751 0.167541 0.793215
O O2 0.152126 0.167537 0.722667
O O3 0.000000 0.102315 0.500000
O O4 0.282663 0.000000 0.782665
O O5 0.871493 0.103766 0.790495
O O6 0.144718 0.000000 0.071130
O O7 0.249030 0.148952 0.096622
O O8 0.000000 0.156473 0.000000
O O9 0.646819 0.500000 0.048941
O O10 0.851576 0.334809 0.231886
O O11 0.500000 0.369125 0.000000
O O12 0.507504 0.334810 0.887813
O O13 0.500000 0.156478 0.500000
O O14 0.291823 0.148950 0.444229
O O15 0.423968 0.000000 0.497553
O O16 0.379529 0.101440 0.626515
O O17 0.040539 0.184977 0.333030
O O18 0.113812 0.000000 0.350689
O O19 0.417998 0.184975 0.125504
O O20 0.796288 0.256575 0.432091
O O21 0.324421 0.000000 0.087545
#
# Coordination Sequence:
#
# PCOD9149597 Si02
#       8
#     4   4   4   4   4   4   4   4
#     4   9  16  29  49  72 101 135 166 194 232 286
#     4   9  16  25  38  59  91 134 175 204 231 270
#     4  11  24  40  56  74  96 124 166 218 266 308
#     4   9  16  25  38  59  91 134 175 204 231 270
#     4   9  17  29  46  69  99 135 167 200 241 288
#     4  10  20  35  53  74 100 131 164 204 251 299
#     4  10  20  35  53  74 100 131 164 204 251 299
#     4   9  17  29  46  69  99 135 167 200 241 288
#
# _framework density 16.222670999999998
#
# number of rings (size 3 to 8) (size 9 to 14) (size 15 to 20)
#    0.000    2.500    1.250    1.500    1.750    6.500 
#    0.000    3.750    0.000    0.000    0.000    0.000 
#    0.000    1.000    0.500    0.000    0.000    0.000 
#
# Total GULP energy -178207.204828 kJ/mol
# GULP energy per Si atom -5568.975151 kJ/mol
# Density = 1.618575 g / cm^3
# Si number density = 16.222671 Si / 1000 Ang^3
#
#
#
# Elastic Constant Matrix: (Units=GPa)
#
#
# Indices 1 2 3 4 5 6 
#
# 1 145.3693 57.7473 23.3826 0.0000 18.6459 0.0000
# 2 57.7473 90.0495 34.3738 0.0000 5.5606 0.0000
# 3 23.3826 34.3738 62.8523 0.0000 0.9833 0.0000
# 4 0.0000 0.0000 0.0000 19.3756 0.0000 -3.1300
# 5 18.6459 5.5606 0.9833 0.0000 26.0014 0.0000
# 6 0.0000 0.0000 0.0000 -3.1300 0.0000 6.2120
#
#
#
# Elastic Compliance Matrix: (Units=1/GPa)
#
#
# Indices 1 2 3 4 5 6 
#
# 1 0.010061 -0.005930 -0.000407 0.000000 -0.005931 0.000000
# 2 -0.005930 0.017725 -0.007499 0.000000 0.000746 0.000000
# 3 -0.000407 -0.007499 0.020145 0.000000 0.001134 0.000000
# 4 0.000000 0.000000 0.000000 0.056185 0.000000 0.028310
# 5 -0.005931 0.000746 0.001134 0.000000 0.042510 0.000000
# 6 0.000000 0.000000 0.000000 0.028310 0.000000 0.175244
#
#
# Mechanical properties :
#
#
# Convention : Reuss Voigt Hill
#
# Bulk Modulus (GPa) = 49.36244 58.80872 54.08558
# Shear Modulus (GPa) = 14.03330 22.50229 18.26779
#
# Velocity S-wave (km/s) = 2.94435 3.72840 3.35933
# Velocity P-wave (km/s) = 6.48483 7.40704 6.96123
#
# Compressibility (1/GPa) = 0.02025832
#
# Stress axis : x y z
#
# Youngs Moduli (GPa) = 99.39282 56.41893 49.63995
#
# Poissons Ratio (x) = 0.33459 0.02020
# Poissons Ratio (y) = 0.58945 0.37224
# Poissons Ratio (z) = 0.04044 0.42308
#
# Static dielectric constant tensor:
#      x y z
#    x 1.584310 0.000000 -0.001290 
#    y 0.000000 1.512380 0.000000 
#    z -0.001290 0.000000 1.589720 
# 
# From -- ./inp_files/34835.got.cif
#   From: 2010.05.17/outbox.cif.g08.bks.cpg/sg10_18_cif.got.tgz:34835.got - 2010.06.03 11:33:40.
