data_PCOD9149916
_publ_section_title
;
Structure prediction by ZEFSAII (Michael W. Deem and Ramdas Pophale) SiO2 
 PCOD9149916
Probable space group: P 2/M
;
_chemical_formula_sum "Si O2"
_cell_formula_units_Z 28
_cell_length_a 16.610742
_cell_length_b 7.664879
_cell_length_c 21.209193
_cell_angle_alpha 90.000000
_cell_angle_beta 150.810968
_cell_angle_gamma 90.000000
_cell_volume 1316.935790
_symmetry_space_group_name_H-M "P 2/M"
_symmetry_group_IT_number 10
_symmetry_cell_setting 'monoclinic'
loop_
_space_group_symop_operation_xyz
x,y,z
-x,y,-z
-x,-y,-z
x,-y,z
loop_
_atom_site_type_symbol
_atom_site_label
_atom_site_fract_x
_atom_site_fract_y
_atom_site_fract_z
Si Si1 0.071363 0.291383 0.240066
Si Si2 0.930435 0.211199 0.385266
Si Si3 0.629276 0.205778 0.639678
Si Si4 0.196506 0.294444 0.461675
Si Si5 0.555617 0.786441 0.107441
Si Si6 0.564155 0.797474 0.733445
Si Si7 0.307552 0.209159 0.046464
O O1 0.081925 0.500000 0.248054
O O2 0.189971 0.224873 0.265920
O O3 0.141627 0.226465 0.355387
O O4 0.881763 0.242604 0.100224
O O5 0.742617 0.269536 0.247950
O O6 0.000000 0.270900 0.500000
O O7 0.049221 0.267977 0.410119
O O8 0.930529 0.000000 0.385417
O O9 0.500000 0.280525 0.500000
O O10 0.611710 0.280850 0.697907
O O11 0.588952 0.000000 0.617743
O O12 0.230197 0.500000 0.478900
O O13 0.365689 0.209618 0.601160
O O14 0.430104 0.725610 0.075661
O O15 0.553974 0.000000 0.106770
O O16 0.500000 0.731024 0.000000
O O17 0.643089 0.720464 0.850773
O O18 0.617673 0.000000 0.768497
O O19 0.331351 0.000000 0.064745
#
# Coordination Sequence:
#
# PCOD9149916 Si02
#       7
#     4   4   4   4   4   4   4
#     4  11  24  39  57  84 119 155 192 232 281 347
#     4  10  20  35  57  83 111 145 190 242 289 335
#     4  10  20  37  62  88 112 145 192 242 290 337
#     4  11  23  37  56  84 117 155 194 233 284 345
#     4   9  17  31  53  80 107 140 183 229 277 327
#     4  10  21  38  61  87 114 147 192 244 293 342
#     4  10  21  38  60  85 114 148 189 239 290 339
#
# _framework density 21.261478
#
# number of rings (size 3 to 8) (size 9 to 14) (size 15 to 20)
#    0.000    1.857    1.429    2.571    0.000    7.429 
#    0.000    3.571    0.000    2.571    0.000    0.000 
#    0.000    0.000    0.000    0.000    0.000    0.000 
#
# Total GULP energy -156496.694331 kJ/mol
# GULP energy per Si atom -5589.167655 kJ/mol
# Density = 2.121309 g / cm^3
# Si number density = 21.261478 Si / 1000 Ang^3
#
#
#
# Elastic Constant Matrix: (Units=GPa)
#
#
# Indices 1 2 3 4 5 6 
#
# 1 82.8571 1.5292 21.4979 0.0000 2.9781 0.0000
# 2 1.5292 38.1913 -12.6265 0.0000 -13.8198 0.0000
# 3 21.4979 -12.6265 95.8031 0.0000 -13.3273 0.0000
# 4 0.0000 0.0000 0.0000 53.6943 0.0000 37.9092
# 5 2.9781 -13.8198 -13.3273 0.0000 40.1282 0.0000
# 6 0.0000 0.0000 0.0000 37.9092 0.0000 40.4481
#
#
#
# Elastic Compliance Matrix: (Units=1/GPa)
#
#
# Indices 1 2 3 4 5 6 
#
# 1 0.013232 -0.002977 -0.003817 0.000000 -0.003275 0.000000
# 2 -0.002977 0.033795 0.007100 0.000000 0.014218 0.000000
# 3 -0.003817 0.007100 0.013221 0.000000 0.007119 0.000000
# 4 0.000000 0.000000 0.000000 0.055052 0.000000 -0.051596
# 5 -0.003275 0.014218 0.007119 0.000000 0.032424 0.000000
# 6 0.000000 0.000000 0.000000 -0.051596 0.000000 0.073081
#
#
# Mechanical properties :
#
#
# Convention : Reuss Voigt Hill
#
# Bulk Modulus (GPa) = 16.43115 26.40584 21.41849
# Shear Modulus (GPa) = 20.79178 40.61751 30.70464
#
# Velocity S-wave (km/s) = 3.13055 4.37553 3.80431
# Velocity P-wave (km/s) = 4.56202 6.16227 5.42151
#
# Compressibility (1/GPa) = 0.06086000
#
# Stress axis : x y z
#
# Youngs Moduli (GPa) = 75.57434 29.58988 75.63859
#
# Poissons Ratio (x) = 0.08809 0.28872
# Poissons Ratio (y) = 0.22498 -0.53703
# Poissons Ratio (z) = 0.28848 -0.21009
#
# Static dielectric constant tensor:
#      x y z
#    x 1.747590 0.000000 -0.027110 
#    y 0.000000 1.998450 0.000000 
#    z -0.027110 0.000000 1.725530 
# 
# From -- ./inp_files/49600.got.cif
#   From: 2010.05.17/outbox.cif.g08.bks.cpg/sg10_25_cif.got.tgz:49600.got - 2010.06.03 11:33:40.
