data_PCOD9149642
_publ_section_title
;
Structure prediction by ZEFSAII (Michael W. Deem and Ramdas Pophale) SiO2 
 PCOD9149642
Probable space group: P 2/M
;
_chemical_formula_sum "Si O2"
_cell_formula_units_Z 32
_cell_length_a 29.096550
_cell_length_b 8.595926
_cell_length_c 22.788541
_cell_angle_alpha 90.000000
_cell_angle_beta 161.408144
_cell_angle_gamma 90.000000
_cell_volume 1817.199034
_symmetry_space_group_name_H-M "P 2/M"
_symmetry_group_IT_number 10
_symmetry_cell_setting 'monoclinic'
loop_
_space_group_symop_operation_xyz
x,y,z
-x,y,-z
-x,-y,-z
x,-y,z
loop_
_atom_site_type_symbol
_atom_site_label
_atom_site_fract_x
_atom_site_fract_y
_atom_site_fract_z
Si Si1 0.311594 0.813256 0.513905
Si Si2 0.657847 0.188406 0.212279
Si Si3 0.438092 0.312408 0.487176
Si Si4 0.191274 0.685324 0.490182
Si Si5 0.093487 0.186915 0.796760
Si Si6 0.053992 0.189071 0.502494
Si Si7 0.591803 0.686644 0.793590
Si Si8 0.160077 0.187615 0.209611
O O1 0.249661 0.745789 0.498929
O O2 0.471797 0.753254 0.692720
O O3 0.212701 0.765766 0.338437
O O4 0.313454 0.000000 0.519332
O O5 0.704985 0.256236 0.331844
O O6 0.783336 0.233933 0.318201
O O7 0.659723 0.000000 0.219332
O O8 0.500000 0.236511 0.000000
O O9 0.500000 0.257863 0.500000
O O10 0.432490 0.500000 0.479456
O O11 0.538419 0.266494 0.663693
O O12 0.279630 0.249626 0.309496
O O13 0.185464 0.500000 0.483308
O O14 0.032975 0.751925 0.313900
O O15 0.046429 0.235180 0.673811
O O16 0.094185 0.000000 0.799864
O O17 0.249648 0.250912 0.001634
O O18 0.000000 0.246960 0.500000
O O19 0.051608 0.000000 0.501555
O O20 0.590814 0.500000 0.795714
O O21 0.161482 0.000000 0.209401
O O22 0.000000 0.241853 0.000000
#
# Coordination Sequence:
#
# PCOD9149642 Si02
#       8
#     4   4   4   4   4   4   4   4
#     4  10  20  36  56  77 105 140 178 218 264 321
#     4   9  18  33  53  76 103 136 174 215 260 313
#     4   9  19  35  53  75 104 138 174 210 253 311
#     4  11  22  36  54  77 108 142 178 223 269 311
#     4  10  20  35  55  78 105 139 178 217 261 315
#     4   8  15  29  49  73  98 126 165 209 248 293
#     4  10  20  35  54  78 108 138 173 218 265 312
#     4   9  19  35  54  78 105 133 170 218 266 311
#
# _framework density 17.609518000000001
#
# number of rings (size 3 to 8) (size 9 to 14) (size 15 to 20)
#    0.000    2.500    0.000    3.000    0.000    3.750 
#    0.000    5.000    0.000    9.375    0.000    0.000 
#    0.000    0.000    0.000    0.000    0.000    0.000 
#
# Total GULP energy -178538.026887 kJ/mol
# GULP energy per Si atom -5579.313340 kJ/mol
# Density = 1.756944 g / cm^3
# Si number density = 17.609518 Si / 1000 Ang^3
#
#
#
# Elastic Constant Matrix: (Units=GPa)
#
#
# Indices 1 2 3 4 5 6 
#
# 1 188.6538 37.1727 97.0062 0.0000 16.2805 0.0000
# 2 37.1727 41.9241 39.2221 0.0000 4.7926 0.0000
# 3 97.0062 39.2221 184.8381 0.0000 22.0206 0.0000
# 4 0.0000 0.0000 0.0000 -78.5957 0.0000 40.1178
# 5 16.2805 4.7926 22.0206 0.0000 9.1742 0.0000
# 6 0.0000 0.0000 0.0000 40.1178 0.0000 7.1404
#
#
#
# Elastic Compliance Matrix: (Units=1/GPa)
#
#
# Indices 1 2 3 4 5 6 
#
# 1 0.007922 -0.003891 -0.002660 0.000000 -0.005641 0.000000
# 2 -0.003891 0.031674 -0.004944 0.000000 0.002226 0.000000
# 3 -0.002660 -0.004944 0.009783 0.000000 -0.016178 0.000000
# 4 0.000000 0.000000 0.000000 -0.003290 0.000000 0.018482
# 5 -0.005641 0.002226 -0.016178 0.000000 0.156681 0.000000
# 6 0.000000 0.000000 0.000000 0.018482 0.000000 0.036208
#
#
# Mechanical properties :
#
#
# Convention : Reuss Voigt Hill
#
# Bulk Modulus (GPa) = 37.89565 84.69089 61.29327
# Shear Modulus (GPa) = 18.46631 3.67813 11.07222
#
# Velocity S-wave (km/s) = 3.24181 1.44681 2.51024
# Velocity P-wave (km/s) = 5.96482 7.14067 6.57907
#
# Compressibility (1/GPa) = 0.02638825
#
# Stress axis : x y z
#
# Youngs Moduli (GPa) = 126.23244 31.57204 102.22238
#
# Poissons Ratio (x) = 0.12284 0.27190
# Poissons Ratio (y) = 0.49114 0.50542
# Poissons Ratio (z) = 0.33576 0.15610
#
# Static dielectric constant tensor:
#      x y z
#    x 1.582220 0.000000 -0.008960 
#    y 0.000000 1.593820 0.000000 
#    z -0.008960 0.000000 1.580400 
# 
# From -- ./inp_files/87071.got.cif
#   From: 2010.05.17/outbox.cif.g08.bks.cpg/sg10_44_cif.got.tgz:87071.got - 2010.06.03 11:33:40.
