data_PCOD9149789
_publ_section_title
;
Structure prediction by ZEFSAII (Michael W. Deem and Ramdas Pophale) SiO2 
 PCOD9149789
Probable space group: P 2/M
;
_chemical_formula_sum "Si O2"
_cell_formula_units_Z 32
_cell_length_a 20.923530
_cell_length_b 7.602553
_cell_length_c 25.860490
_cell_angle_alpha 90.000000
_cell_angle_beta 22.500310
_cell_angle_gamma 90.000000
_cell_volume 1574.260126
_symmetry_space_group_name_H-M "P 2/M"
_symmetry_group_IT_number 10
_symmetry_cell_setting 'monoclinic'
loop_
_space_group_symop_operation_xyz
x,y,z
-x,y,-z
-x,-y,-z
x,-y,z
loop_
_atom_site_type_symbol
_atom_site_label
_atom_site_fract_x
_atom_site_fract_y
_atom_site_fract_z
Si Si1 0.932098 0.287285 0.925444
Si Si2 0.599938 0.702123 0.770877
Si Si3 0.160928 0.706459 0.841344
Si Si4 0.623685 0.715521 0.229026
Si Si5 0.085131 0.791182 0.274769
Si Si6 0.226285 0.793047 0.059931
Si Si7 0.293611 0.712002 0.418963
Si Si8 0.365375 0.295249 0.141070
O O1 0.935997 0.500000 0.923981
O O2 0.909430 0.231897 0.883538
O O3 0.091502 0.221277 0.839099
O O4 0.765196 0.232476 0.081532
O O5 0.660370 0.500000 0.727882
O O6 0.678195 0.781030 0.660503
O O7 0.634512 0.783055 0.801480
O O8 0.399646 0.703941 0.914275
O O9 0.197107 0.500000 0.805613
O O10 0.312600 0.778307 0.762377
O O11 0.000000 0.714410 0.000000
O O12 0.625461 0.500000 0.229120
O O13 0.443634 0.774119 0.343799
O O14 0.889706 0.754295 0.424230
O O15 0.162987 0.725690 0.162551
O O16 0.187747 0.713797 0.245956
O O17 0.110045 0.000000 0.257867
O O18 0.261623 0.000000 0.038270
O O19 0.310206 0.500000 0.404264
O O20 0.414973 0.500000 0.110916
O O21 0.500000 0.217310 0.000000
#
# Coordination Sequence:
#
# PCOD9149789 Si02
#       8
#     4   4   4   4   4   4   4   4
#     4   9  15  27  50  78 106 134 171 218 263 309
#     4  10  20  36  59  85 106 130 171 219 265 314
#     4   7  11  20  41  75 107 132 162 208 264 310
#     4   8  13  25  48  78 107 134 167 211 264 312
#     4  11  25  40  53  74 108 145 180 215 257 314
#     4  11  22  34  51  76 106 141 178 218 259 306
#     4  10  20  35  56  80 108 139 174 217 261 309
#     4  10  20  36  61  85 105 132 170 218 266 314
#
# _framework density 20.327009
#
# number of rings (size 3 to 8) (size 9 to 14) (size 15 to 20)
#    0.000    2.500    2.500    2.250    0.000    3.250 
#    0.000    2.500    0.000    4.875    0.000    5.250 
#    0.000    0.000    0.000    0.000    0.000    0.000 
#
# Total GULP energy -178456.769518 kJ/mol
# GULP energy per Si atom -5576.774047 kJ/mol
# Density = 2.028074 g / cm^3
# Si number density = 20.327009 Si / 1000 Ang^3
#
#
#
# Elastic Constant Matrix: (Units=GPa)
#
#
# Indices 1 2 3 4 5 6 
#
# 1 114.2381 -4.6100 2.1577 0.0000 -20.8783 0.0000
# 2 -4.6100 44.2720 -6.4408 0.0000 0.7010 0.0000
# 3 2.1577 -6.4408 48.5085 0.0000 -6.5758 0.0000
# 4 0.0000 0.0000 0.0000 -210.7840 0.0000 192.5977
# 5 -20.8783 0.7010 -6.5758 0.0000 26.7809 0.0000
# 6 0.0000 0.0000 0.0000 192.5977 0.0000 -153.8956
#
#
#
# Elastic Compliance Matrix: (Units=1/GPa)
#
#
# Indices 1 2 3 4 5 6 
#
# 1 0.010276 0.001056 0.000792 0.000000 0.008178 0.000000
# 2 0.001056 0.023142 0.003160 0.000000 0.000993 0.000000
# 3 0.000792 0.003160 0.021797 0.000000 0.005887 0.000000
# 4 0.000000 0.000000 0.000000 0.033059 0.000000 0.041373
# 5 0.008178 0.000993 0.005887 0.000000 0.045135 0.000000
# 6 0.000000 0.000000 0.000000 0.041373 0.000000 0.045280
#
#
# Mechanical properties :
#
#
# Convention : Reuss Voigt Hill
#
# Bulk Modulus (GPa) = 15.33028 21.02582 18.17805
# Shear Modulus (GPa) = 26.25825 -53.18562 -13.46368
#
# Velocity S-wave (km/s) = 3.59805 -5.12072 -2.57642
# Velocity P-wave (km/s) = 4.98191 4.95945 0.33415
#
# Compressibility (1/GPa) = 0.06523038
#
# Stress axis : x y z
#
# Youngs Moduli (GPa) = 97.31526 43.21215 45.87717
#
# Poissons Ratio (x) = -0.04562 -0.03632
# Poissons Ratio (y) = -0.10274 -0.14499
# Poissons Ratio (z) = -0.07704 -0.13657
#
# Static dielectric constant tensor:
#      x y z
#    x 1.769430 0.000000 -0.008500 
#    y 0.000000 1.442940 0.000000 
#    z -0.008500 0.000000 1.677940 
# 
# From -- ./inp_files/93675.got.cif
#   From: 2010.05.17/outbox.cif.g08.bks.cpg/sg10_47_cif.got.tgz:93675.got - 2010.06.03 11:33:40.
