data_PCOD9149755
_publ_section_title
;
Structure prediction by ZEFSAII (Michael W. Deem and Ramdas Pophale) SiO2 
 PCOD9149755
Probable space group: P 2/M
;
_chemical_formula_sum "Si O2"
_cell_formula_units_Z 32
_cell_length_a 22.654437
_cell_length_b 9.043291
_cell_length_c 14.768956
_cell_angle_alpha 90.000000
_cell_angle_beta 30.530421
_cell_angle_gamma 90.000000
_cell_volume 1537.055937
_symmetry_space_group_name_H-M "P 2/M"
_symmetry_group_IT_number 10
_symmetry_cell_setting 'monoclinic'
loop_
_space_group_symop_operation_xyz
x,y,z
-x,y,-z
-x,-y,-z
x,-y,z
loop_
_atom_site_type_symbol
_atom_site_label
_atom_site_fract_x
_atom_site_fract_y
_atom_site_fract_z
Si Si1 0.865798 0.827721 0.500656
Si Si2 0.267569 0.328219 0.169127
Si Si3 0.593704 0.674329 0.451595
Si Si4 0.154617 0.325930 0.970295
Si Si5 0.326206 0.825417 0.481210
Si Si6 0.128230 0.828707 0.196531
Si Si7 0.471279 0.327455 0.141251
Si Si8 0.097832 0.674986 0.739480
O O1 0.768677 0.766966 0.695849
O O2 0.880240 0.727063 0.393066
O O3 0.988899 0.818831 0.390713
O O4 0.847879 0.000000 0.498960
O O5 0.241097 0.500000 0.222566
O O6 0.195718 0.269821 0.179127
O O7 0.405047 0.316428 0.971765
O O8 0.500000 0.720580 0.500000
O O9 0.574202 0.500000 0.496234
O O10 0.723135 0.691584 0.240482
O O11 0.592856 0.763176 0.545801
O O12 0.142897 0.500000 0.011228
O O13 0.153369 0.227727 0.062015
O O14 0.038660 0.291314 0.065246
O O15 0.377825 0.767798 0.317992
O O16 0.196922 0.759332 0.663396
O O17 0.322210 0.000000 0.488313
O O18 0.161777 0.000000 0.163124
O O19 0.433790 0.500000 0.189875
O O20 0.500000 0.285289 0.000000
O O21 0.115335 0.500000 0.727727
#
# Coordination Sequence:
#
# PCOD9149755 Si02
#       8
#     4   4   4   4   4   4   4   4
#     4  10  20  35  55  84 122 161 202 250 311 369
#     4  11  22  34  55  83 114 157 209 260 306 366
#     4  10  23  44  69  94 126 166 209 260 313 369
#     4   9  20  39  64  93 120 158 209 257 307 365
#     4  12  26  42  64  95 129 165 208 257 315 380
#     4  10  21  35  54  83 122 163 199 249 312 371
#     4  10  23  43  64  87 118 160 210 260 311 367
#     4  10  20  38  64  90 122 160 205 256 307 369
#
# _framework density 20.819022
#
# number of rings (size 3 to 8) (size 9 to 14) (size 15 to 20)
#    0.000    1.750    0.000    3.750    1.750    7.000 
#    0.000    2.500    0.000    0.000    0.000    0.000 
#    0.000    0.000    0.000    0.000    0.000    0.000 
#
# Total GULP energy -178924.326464 kJ/mol
# GULP energy per Si atom -5591.385202 kJ/mol
# Density = 2.077164 g / cm^3
# Si number density = 20.819022 Si / 1000 Ang^3
#
#
#
# Elastic Constant Matrix: (Units=GPa)
#
#
# Indices 1 2 3 4 5 6 
#
# 1 109.2789 38.5833 30.5411 0.0000 -16.9029 0.0000
# 2 38.5833 78.6785 49.3134 0.0000 -8.0521 0.0000
# 3 30.5411 49.3134 73.6694 0.0000 -9.1758 0.0000
# 4 0.0000 0.0000 0.0000 6.0666 0.0000 10.2806
# 5 -16.9029 -8.0521 -9.1758 0.0000 20.5492 0.0000
# 6 0.0000 0.0000 0.0000 10.2806 0.0000 -136.2090
#
#
#
# Elastic Compliance Matrix: (Units=1/GPa)
#
#
# Indices 1 2 3 4 5 6 
#
# 1 0.012265 -0.004544 -0.001067 0.000000 0.007831 0.000000
# 2 -0.004544 0.023671 -0.014053 0.000000 -0.000738 0.000000
# 3 -0.001067 -0.014053 0.023961 0.000000 0.004315 0.000000
# 4 0.000000 0.000000 0.000000 0.146144 0.000000 0.011030
# 5 0.007831 -0.000738 0.004315 0.000000 0.056743 0.000000
# 6 0.000000 0.000000 0.000000 0.011030 0.000000 -0.006509
#
#
# Mechanical properties :
#
#
# Convention : Reuss Voigt Hill
#
# Bulk Modulus (GPa) = 48.61995 55.38914 52.00455
# Shear Modulus (GPa) = 16.53110 -12.37270 2.07920
#
# Velocity S-wave (km/s) = 2.82093 -2.44047 1.00043
# Velocity P-wave (km/s) = 5.83219 4.32685 5.13498
#
# Compressibility (1/GPa) = 0.02056769
#
# Stress axis : x y z
#
# Youngs Moduli (GPa) = 81.53298 42.24597 41.73446
#
# Poissons Ratio (x) = 0.19197 0.04455
# Poissons Ratio (y) = 0.37049 0.58650
# Poissons Ratio (z) = 0.08703 0.59368
#
# Static dielectric constant tensor:
#      x y z
#    x 1.765070 0.000000 -0.014650 
#    y 0.000000 1.696600 0.000000 
#    z -0.014650 0.000000 1.736700 
# 
# From -- ./inp_files/71483.got.cif
#   From: 2010.05.17/outbox.cif.g08.bks.cpg/sg10_36_cif.got.tgz:71483.got - 2010.06.03 11:33:40.
