data_PCOD9149086
_publ_section_title
;
Structure prediction by ZEFSAII (Michael W. Deem and Ramdas Pophale) SiO2 
 PCOD9149086
Probable space group: P 2/M
;
_chemical_formula_sum "Si O2"
_cell_formula_units_Z 24
_cell_length_a 8.455739
_cell_length_b 21.988548
_cell_length_c 8.434680
_cell_angle_alpha 90.000000
_cell_angle_beta 59.917385
_cell_angle_gamma 90.000000
_cell_volume 1357.016781
_symmetry_space_group_name_H-M "P 2/M"
_symmetry_group_IT_number 10
_symmetry_cell_setting 'monoclinic'
loop_
_space_group_symop_operation_xyz
x,y,z
-x,y,-z
-x,-y,-z
x,-y,z
loop_
_atom_site_type_symbol
_atom_site_label
_atom_site_fract_x
_atom_site_fract_y
_atom_site_fract_z
Si Si1 0.310286 0.069957 0.500000
Si Si2 0.807379 0.262977 0.500000
Si Si3 0.336326 0.164164 0.206427
Si Si4 0.956474 0.500000 0.205815
Si Si5 0.042753 0.835836 0.793573
Si Si6 0.337711 0.500000 0.205815
Si Si7 0.806971 0.598452 0.500000
O O1 0.500000 0.071154 0.500000
O O2 0.338300 0.106635 0.322910
O O3 0.161210 0.106635 0.677091
O O4 0.257104 0.000000 0.500000
O O5 0.670160 0.223756 0.677586
O O6 0.750795 0.332250 0.500000
O O7 0.000000 0.264446 0.500000
O O8 0.847745 0.223756 0.322415
O O9 0.146812 0.162929 0.206376
O O10 0.500000 0.164604 0.000000
O O11 0.847171 0.559165 0.322673
O O12 0.147793 0.500000 0.204415
O O13 0.000000 0.500000 0.000000
O O14 0.000000 0.835395 0.000000
O O15 0.330156 0.559165 0.322673
O O16 0.500000 0.500000 0.000000
O O17 0.000000 0.599554 0.500000
#
# Coordination Sequence:
#
# PCOD9149086 Si02
#       7
#     4   4   4   2   4   2   4
#     4  10  21  37  56  77 101 130 165 206 249 293
#     4   8  16  31  50  71  96 128 167 206 243 289
#     4  10  20  34  53  76 102 133 166 204 249 296
#     4   9  17  29  48  70  94 127 163 201 244 290
#     4  10  20  34  53  76 102 133 166 204 249 296
#     4   9  17  29  48  70  94 127 163 201 244 290
#     4   8  15  30  48  67  95 131 165 196 241 297
#
# _framework density 17.685853000000002
#
# number of rings (size 3 to 8) (size 9 to 14) (size 15 to 20)
#    0.000    2.833    0.000    3.500    0.000    3.333 
#    0.000    1.667    0.000   10.000    0.000    0.000 
#    0.000    0.000    0.000    0.000    0.000    0.000 
#
# Total GULP energy -133816.636829 kJ/mol
# GULP energy per Si atom -5575.693201 kJ/mol
# Density = 1.764560 g / cm^3
# Si number density = 17.685853 Si / 1000 Ang^3
#
#
#
# Elastic Constant Matrix: (Units=GPa)
#
#
# Indices 1 2 3 4 5 6 
#
# 1 29.9123 31.5221 30.9127 0.0000 5.1633 0.0000
# 2 31.5221 208.2163 114.5864 0.0000 7.3366 0.0000
# 3 30.9127 114.5864 202.1012 0.0000 10.0449 0.0000
# 4 0.0000 0.0000 0.0000 7.5957 0.0000 -0.4781
# 5 5.1633 7.3366 10.0449 0.0000 29.1610 0.0000
# 6 0.0000 0.0000 0.0000 -0.4781 0.0000 13.0082
#
#
#
# Elastic Compliance Matrix: (Units=1/GPa)
#
#
# Indices 1 2 3 4 5 6 
#
# 1 0.042740 -0.004116 -0.003946 0.000000 -0.005173 0.000000
# 2 -0.004116 0.007382 -0.003561 0.000000 0.000098 0.000000
# 3 -0.003946 -0.003561 0.007622 0.000000 -0.001031 0.000000
# 4 0.000000 0.000000 0.000000 0.131958 0.000000 0.004849
# 5 -0.005173 0.000098 -0.001031 0.000000 0.035539 0.000000
# 6 0.000000 0.000000 0.000000 0.004849 0.000000 0.077053
#
#
# Mechanical properties :
#
#
# Convention : Reuss Voigt Hill
#
# Bulk Modulus (GPa) = 28.98806 88.25249 58.62027
# Shear Modulus (GPa) = 14.83507 27.50023 21.16765
#
# Velocity S-wave (km/s) = 2.89936 3.94754 3.46333
# Velocity P-wave (km/s) = 5.25686 8.41343 7.01499
#
# Compressibility (1/GPa) = 0.03449696
#
# Stress axis : x y z
#
# Youngs Moduli (GPa) = 23.39713 135.46604 131.20513
#
# Poissons Ratio (x) = 0.55764 0.51779
# Poissons Ratio (y) = 0.09631 0.46717
# Poissons Ratio (z) = 0.09233 0.48234
#
# Static dielectric constant tensor:
#      x y z
#    x 1.603760 0.000000 -0.004650 
#    y 0.000000 1.603680 0.000000 
#    z -0.004650 0.000000 1.551100 
# 
# From -- ./inp_files/20175.got.cif
#   From: 2010.05.17/outbox.cif.g08.bks.cpg/sg10_11_cif.got.tgz:20175.got - 2010.06.03 11:33:40.
