data_PCOD9149192
_publ_section_title
;
Structure prediction by ZEFSAII (Michael W. Deem and Ramdas Pophale) SiO2 
 PCOD9149192
Probable space group: P 2/M
;
_chemical_formula_sum "Si O2"
_cell_formula_units_Z 24
_cell_length_a 8.138888
_cell_length_b 13.850522
_cell_length_c 14.704817
_cell_angle_alpha 90.000000
_cell_angle_beta 47.100617
_cell_angle_gamma 90.000000
_cell_volume 1214.306295
_symmetry_space_group_name_H-M "P 2/M"
_symmetry_group_IT_number 10
_symmetry_cell_setting 'monoclinic'
loop_
_space_group_symop_operation_xyz
x,y,z
-x,y,-z
-x,-y,-z
x,-y,z
loop_
_atom_site_type_symbol
_atom_site_label
_atom_site_fract_x
_atom_site_fract_y
_atom_site_fract_z
Si Si1 0.257865 0.392417 0.933525
Si Si2 0.242555 0.000000 0.010667
Si Si3 0.251536 0.203185 0.055965
Si Si4 0.000000 0.335918 0.500000
Si Si5 0.500000 0.235974 0.500000
Si Si6 0.739191 0.000000 0.774851
Si Si7 0.509042 0.605958 0.649255
Si Si8 0.997543 0.809872 0.336879
O O1 0.311131 0.500000 0.951401
O O2 0.401863 0.378559 0.788190
O O3 0.285366 0.301802 0.988884
O O4 0.000000 0.393548 0.000000
O O5 0.472105 0.000000 0.865870
O O6 0.160811 0.888422 0.030967
O O7 0.239356 0.000000 0.122969
O O8 0.091079 0.219796 0.202651
O O9 0.500000 0.175053 0.000000
O O10 0.776490 0.393134 0.560732
O O11 0.046398 0.269048 0.394958
O O12 0.548114 0.308033 0.397670
O O13 0.271804 0.177860 0.566795
O O14 0.865528 0.906256 0.691344
O O15 0.433927 0.500000 0.644039
#
# Coordination Sequence:
#
# PCOD9149192 Si02
#       8
#     4   2   4   2   2   2   4   4
#     4  10  22  37  54  80 114 144 172 219 279 321
#     4   9  16  32  55  86 105 134 175 220 276 316
#     4  11  18  34  60  83 105 139 180 228 267 317
#     4  10  21  35  52  80 106 138 178 223 261 304
#     4  10  21  35  52  76 106 144 182 207 257 320
#     4   9  16  32  54  78 106 135 171 216 272 315
#     4  10  20  36  55  75 105 142 180 219 261 314
#     4  10  20  34  54  78 107 140 176 216 264 317
#
# _framework density 19.764368999999999
#
# number of rings (size 3 to 8) (size 9 to 14) (size 15 to 20)
#    0.000    2.000    3.333    2.500    0.000    1.000 
#    0.000    4.583    0.000    1.000    0.000    0.000 
#    0.000    0.000    0.000    0.000    0.000    0.000 
#
# Total GULP energy -133718.475335 kJ/mol
# GULP energy per Si atom -5571.603139 kJ/mol
# Density = 1.971938 g / cm^3
# Si number density = 19.764369 Si / 1000 Ang^3
#
#
#
# Elastic Constant Matrix: (Units=GPa)
#
#
# Indices 1 2 3 4 5 6 
#
# 1 27.9404 8.4601 2.6944 0.0000 0.7484 0.0000
# 2 8.4601 130.2523 57.3889 0.0000 21.8041 0.0000
# 3 2.6944 57.3889 100.5207 0.0000 1.4421 0.0000
# 4 0.0000 0.0000 0.0000 63.3775 0.0000 14.1482
# 5 0.7484 21.8041 1.4421 0.0000 17.1213 0.0000
# 6 0.0000 0.0000 0.0000 14.1482 0.0000 24.9290
#
#
#
# Elastic Compliance Matrix: (Units=1/GPa)
#
#
# Indices 1 2 3 4 5 6 
#
# 1 0.036592 -0.003086 0.000749 0.000000 0.002268 0.000000
# 2 -0.003086 0.014198 -0.007775 0.000000 -0.017292 0.000000
# 3 0.000749 -0.007775 0.014243 0.000000 0.008669 0.000000
# 4 0.000000 0.000000 0.000000 0.018068 0.000000 -0.010254
# 5 0.002268 -0.017292 0.008669 0.000000 0.079598 0.000000
# 6 0.000000 0.000000 0.000000 -0.010254 0.000000 0.045934
#
#
# Mechanical properties :
#
#
# Convention : Reuss Voigt Hill
#
# Bulk Modulus (GPa) = 22.31770 43.97779 33.14774
# Shear Modulus (GPa) = 20.50913 33.76355 27.13634
#
# Velocity S-wave (km/s) = 3.22480 4.13765 3.70941
# Velocity P-wave (km/s) = 5.01819 6.71760 5.92910
#
# Compressibility (1/GPa) = 0.04480748
#
# Stress axis : x y z
#
# Youngs Moduli (GPa) = 27.32834 70.43149 70.21122
#
# Poissons Ratio (x) = 0.21736 -0.05256
# Poissons Ratio (y) = 0.08434 0.54591
# Poissons Ratio (z) = -0.02046 0.54762
#
# Static dielectric constant tensor:
#      x y z
#    x 1.725610 0.000000 -0.017700 
#    y 0.000000 1.753510 0.000000 
#    z -0.017700 0.000000 1.645160 
# 
# From -- ./inp_files/61744.got.cif
#   From: 2010.05.17/outbox.cif.g08.bks.cpg/sg10_31_cif.got.tgz:61744.got - 2010.06.03 11:33:40.
