data_PCOD9149583
_publ_section_title
;
Structure prediction by ZEFSAII (Michael W. Deem and Ramdas Pophale) SiO2 
 PCOD9149583
Probable space group: P 2/M
;
_chemical_formula_sum "Si O2"
_cell_formula_units_Z 26
_cell_length_a 13.095999
_cell_length_b 7.378799
_cell_length_c 14.208088
_cell_angle_alpha 90.000000
_cell_angle_beta 50.758063
_cell_angle_gamma 90.000000
_cell_volume 1063.337421
_symmetry_space_group_name_H-M "P 2/M"
_symmetry_group_IT_number 10
_symmetry_cell_setting 'monoclinic'
loop_
_space_group_symop_operation_xyz
x,y,z
-x,y,-z
-x,-y,-z
x,-y,z
loop_
_atom_site_type_symbol
_atom_site_label
_atom_site_fract_x
_atom_site_fract_y
_atom_site_fract_z
Si Si1 0.954087 0.719542 0.817653
Si Si2 0.939780 0.791500 0.437284
Si Si3 0.657614 0.298262 0.527873
Si Si4 0.366889 0.000000 0.305958
Si Si5 0.760438 0.720046 0.273427
Si Si6 0.286671 0.278929 0.910402
Si Si7 0.451785 0.287441 0.134957
O O1 0.951252 0.500000 0.815594
O O2 0.957499 0.786160 0.708384
O O3 0.091753 0.776835 0.784917
O O4 0.834156 0.778041 0.953042
O O5 0.811432 0.692226 0.471920
O O6 0.000000 0.725546 0.500000
O O7 0.891645 0.000000 0.482620
O O8 0.598135 0.500000 0.567619
O O9 0.601361 0.157589 0.633150
O O10 0.665721 0.232456 0.415378
O O11 0.339974 0.159675 0.240918
O O12 0.761094 0.500000 0.272074
O O13 0.726298 0.782044 0.189237
O O14 0.286757 0.500000 0.910179
O O15 0.421045 0.221541 0.880486
O O16 0.423747 0.500000 0.166261
O O17 0.500000 0.265771 0.000000
#
# Coordination Sequence:
#
# PCOD9149583 Si02
#       7
#     4   4   4   2   4   4   4
#     4   9  17  30  55  87 117 155 197 238 293 360
#     4  10  20  35  52  82 124 162 196 240 293 354
#     4  10  21  38  62  88 117 158 201 244 298 356
#     4  12  23  42  64  86 116 154 200 256 303 346
#     4   8  15  31  58  89 121 154 192 240 296 359
#     4   9  17  34  59  87 118 155 199 247 300 359
#     4  10  23  43  64  88 118 155 202 253 304 354
#
# _framework density 24.451319000000002
#
# number of rings (size 3 to 8) (size 9 to 14) (size 15 to 20)
#    0.000    2.462    0.769    2.538    0.000    4.308 
#    1.385    3.846    0.000    5.538    0.000    0.000 
#    0.000    0.000    0.000    0.000    0.000    0.000 
#
# Total GULP energy -144955.165783 kJ/mol
# GULP energy per Si atom -5575.198684 kJ/mol
# Density = 2.439567 g / cm^3
# Si number density = 24.451319 Si / 1000 Ang^3
#
#
#
# Elastic Constant Matrix: (Units=GPa)
#
#
# Indices 1 2 3 4 5 6 
#
# 1 88.4658 -7.0135 52.1881 0.0000 26.6693 0.0000
# 2 -7.0135 124.9538 40.3782 0.0000 2.8582 0.0000
# 3 52.1881 40.3782 164.2798 0.0000 35.8097 0.0000
# 4 0.0000 0.0000 0.0000 40.4954 0.0000 34.9664
# 5 26.6693 2.8582 35.8097 0.0000 41.3475 0.0000
# 6 0.0000 0.0000 0.0000 34.9664 0.0000 -8.9612
#
#
#
# Elastic Compliance Matrix: (Units=1/GPa)
#
#
# Indices 1 2 3 4 5 6 
#
# 1 0.016041 0.002411 -0.004187 0.000000 -0.006887 0.000000
# 2 0.002411 0.009136 -0.003125 0.000000 0.000520 0.000000
# 3 -0.004187 -0.003125 0.009307 0.000000 -0.005143 0.000000
# 4 0.000000 0.000000 0.000000 0.005652 0.000000 0.022053
# 5 -0.006887 0.000520 -0.005143 0.000000 0.033046 0.000000
# 6 0.000000 0.000000 0.000000 0.022053 0.000000 -0.025541
#
#
# Mechanical properties :
#
#
# Convention : Reuss Voigt Hill
#
# Bulk Modulus (GPa) = 40.51561 60.97832 50.74696
# Shear Modulus (GPa) = 76.13753 34.05279 55.09516
#
# Velocity S-wave (km/s) = 5.58623 3.73591 4.75200
# Velocity P-wave (km/s) = 7.62980 6.60319 7.13499
#
# Compressibility (1/GPa) = 0.02468184
#
# Stress axis : x y z
#
# Youngs Moduli (GPa) = 62.33900 109.45525 107.45095
#
# Poissons Ratio (x) = -0.26390 0.44994
# Poissons Ratio (y) = -0.15030 0.33576
# Poissons Ratio (z) = 0.26104 0.34202
#
# Static dielectric constant tensor:
#      x y z
#    x 2.142870 0.000000 -0.233870 
#    y 0.000000 1.939890 0.000000 
#    z -0.233870 0.000000 2.127620 
# 
# From -- ./inp_files/48971.got.cif
#   From: 2010.05.17/outbox.cif.g08.bks.cpg/sg10_25_cif.got.tgz:48971.got - 2010.06.03 11:33:40.
