data_PCOD9149320
_publ_section_title
;
Structure prediction by ZEFSAII (Michael W. Deem and Ramdas Pophale) SiO2 
 PCOD9149320
Probable space group: P 2/M
;
_chemical_formula_sum "Si O2"
_cell_formula_units_Z 32
_cell_length_a 12.914123
_cell_length_b 15.197528
_cell_length_c 17.873001
_cell_angle_alpha 90.000000
_cell_angle_beta 155.059139
_cell_angle_gamma 90.000000
_cell_volume 1479.179923
_symmetry_space_group_name_H-M "P 2/M"
_symmetry_group_IT_number 10
_symmetry_cell_setting 'monoclinic'
loop_
_space_group_symop_operation_xyz
x,y,z
-x,y,-z
-x,-y,-z
x,-y,z
loop_
_atom_site_type_symbol
_atom_site_label
_atom_site_fract_x
_atom_site_fract_y
_atom_site_fract_z
Si Si1 0.267178 0.282836 0.712956
Si Si2 0.922311 0.399541 0.284037
Si Si3 0.972065 0.094631 0.771477
Si Si4 0.127432 0.289235 0.296893
Si Si5 0.466450 0.096233 0.887922
Si Si6 0.252903 0.905239 0.211125
Si Si7 0.348885 0.710590 0.288074
Si Si8 0.529427 0.398855 0.279842
O O1 0.245267 0.338403 0.774443
O O2 0.333401 0.182462 0.772186
O O3 0.447939 0.333489 0.775187
O O4 0.000000 0.285253 0.500000
O O5 0.840367 0.500000 0.228860
O O6 0.948497 0.356857 0.219621
O O7 0.197055 0.398604 0.502040
O O8 0.919822 0.190180 0.703796
O O9 0.817919 0.094299 0.747377
O O10 0.918314 0.000000 0.698026
O O11 0.264453 0.095219 0.973795
O O12 0.398988 0.310714 0.504079
O O13 0.139003 0.290914 0.214359
O O14 0.350995 0.000000 0.797691
O O15 0.500000 0.102854 0.000000
O O16 0.374513 0.811261 0.275855
O O17 0.375613 0.000000 0.274888
O O18 0.000000 0.904370 0.000000
O O19 0.339238 0.642144 0.214565
O O20 0.476562 0.500000 0.225553
#
# Coordination Sequence:
#
# PCOD9149320 Si02
#       8
#     4   4   4   4   4   4   4   4
#     4  10  20  34  55  82 106 134 175 220 262 304
#     4   9  17  31  52  76 102 133 172 217 260 307
#     4   9  18  32  50  71  98 136 170 200 248 311
#     4   9  17  31  50  76 105 131 172 216 256 303
#     4  10  21  36  55  78 106 142 177 207 256 321
#     4   9  18  31  48  71  99 132 170 205 246 304
#     4   9  18  30  49  78 104 134 170 213 261 303
#     4   9  18  32  51  76 105 136 171 213 262 311
#
# _framework density 21.633610000000001
#
# number of rings (size 3 to 8) (size 9 to 14) (size 15 to 20)
#    0.000    2.750    0.000    1.125    1.750    2.750 
#    0.000    5.000    0.000   11.625    0.000    0.000 
#    0.000    0.000    0.000    0.000    0.000    0.000 
#
# Total GULP energy -178430.151237 kJ/mol
# GULP energy per Si atom -5575.942226 kJ/mol
# Density = 2.158437 g / cm^3
# Si number density = 21.633610 Si / 1000 Ang^3
#
#
#
# Elastic Constant Matrix: (Units=GPa)
#
#
# Indices 1 2 3 4 5 6 
#
# 1 75.9535 82.2236 8.0671 0.0000 5.0208 0.0000
# 2 82.2236 194.8938 14.9512 0.0000 -2.1313 0.0000
# 3 8.0671 14.9512 27.9436 0.0000 -1.6043 0.0000
# 4 0.0000 0.0000 0.0000 41.7407 0.0000 1.1057
# 5 5.0208 -2.1313 -1.6043 0.0000 8.7533 0.0000
# 6 0.0000 0.0000 0.0000 1.1057 0.0000 32.7441
#
#
#
# Elastic Compliance Matrix: (Units=1/GPa)
#
#
# Indices 1 2 3 4 5 6 
#
# 1 0.027050 -0.011404 -0.002787 0.000000 -0.018803 0.000000
# 2 -0.011404 0.010164 -0.001646 0.000000 0.008714 0.000000
# 3 -0.002787 -0.001646 0.037939 0.000000 0.008152 0.000000
# 4 0.000000 0.000000 0.000000 0.023979 0.000000 -0.000810
# 5 -0.018803 0.008714 0.008152 0.000000 0.128644 0.000000
# 6 0.000000 0.000000 0.000000 -0.000810 0.000000 0.030567
#
#
# Mechanical properties :
#
#
# Convention : Reuss Voigt Hill
#
# Bulk Modulus (GPa) = 22.99894 56.58606 39.79250
# Shear Modulus (GPa) = 16.41980 29.55090 22.98535
#
# Velocity S-wave (km/s) = 2.75798 3.69991 3.26311
# Velocity P-wave (km/s) = 4.56027 6.66827 5.71235
#
# Compressibility (1/GPa) = 0.04348026
#
# Stress axis : x y z
#
# Youngs Moduli (GPa) = 36.96794 98.38840 26.35784
#
# Poissons Ratio (x) = 1.12203 0.07346
# Poissons Ratio (y) = 0.42159 0.04337
# Poissons Ratio (z) = 0.10303 0.16190
#
# Static dielectric constant tensor:
#      x y z
#    x 1.808920 0.000000 -0.001330 
#    y 0.000000 1.786900 0.000000 
#    z -0.001330 0.000000 1.800180 
# 
# From -- ./inp_files/77040.got.cif
#   From: 2010.05.17/outbox.cif.g08.bks.cpg/sg10_39_cif.got.tgz:77040.got - 2010.06.03 11:33:40.
