data_PCOD9149554
_publ_section_title
;
Structure prediction by ZEFSAII (Michael W. Deem and Ramdas Pophale) SiO2 
 PCOD9149554
Probable space group: P 2/M
;
_chemical_formula_sum "Si O2"
_cell_formula_units_Z 29
_cell_length_a 14.947158
_cell_length_b 7.639830
_cell_length_c 21.141048
_cell_angle_alpha 90.000000
_cell_angle_beta 149.577229
_cell_angle_gamma 90.000000
_cell_volume 1222.481753
_symmetry_space_group_name_H-M "P 2/M"
_symmetry_group_IT_number 10
_symmetry_cell_setting 'monoclinic'
loop_
_space_group_symop_operation_xyz
x,y,z
-x,y,-z
-x,-y,-z
x,-y,z
loop_
_atom_site_type_symbol
_atom_site_label
_atom_site_fract_x
_atom_site_fract_y
_atom_site_fract_z
Si Si1 0.811379 0.290454 0.001745
Si Si2 0.721494 0.211063 0.804830
Si Si3 0.322580 0.209450 0.600425
Si Si4 0.414994 0.296957 0.794942
Si Si5 0.314784 0.200687 0.866720
Si Si6 0.500000 0.000000 0.500000
Si Si7 0.068971 0.782274 0.332867
Si Si8 0.819840 0.249311 0.731540
O O1 0.831095 0.500000 0.025391
O O2 0.974164 0.192164 0.133309
O O3 0.809271 0.257745 0.925191
O O4 0.617699 0.233929 0.908696
O O5 0.514263 0.250862 0.688015
O O6 0.791804 0.312069 0.786531
O O7 0.744121 0.000000 0.808652
O O8 0.319539 0.281334 0.669329
O O9 0.171760 0.262098 0.459766
O O10 0.315539 0.000000 0.601926
O O11 0.424875 0.500000 0.818105
O O12 0.316308 0.203244 0.791726
O O13 0.133704 0.272560 0.783554
O O14 0.317981 0.000000 0.891232
O O15 0.500000 0.284447 0.000000
O O16 0.637845 0.145544 0.611775
O O17 0.157842 0.690563 0.327229
O O18 0.086930 0.000000 0.335661
#
# Coordination Sequence:
#
# PCOD9149554 Si02
#       8
#     4   4   4   4   4   1   4   4
#     4  10  24  42  61  88 125 166 206 251 311 370
#     4  10  20  34  61  93 121 156 204 257 305 363
#     4   9  19  36  58  87 120 158 201 248 304 366
#     4  10  21  41  64  86 118 160 202 253 306 357
#     4  10  21  37  59  90 121 154 200 249 310 368
#     4  12  24  36  60  96 118 158 198 252 298 352
#     4  10  20  35  58  87 123 163 197 250 309 365
#     4  12  22  37  61  90 129 156 205 251 307 359
#
# _framework density 23.722234
#
# number of rings (size 3 to 8) (size 9 to 14) (size 15 to 20)
#    0.000    1.793    1.379    2.483    2.897    3.034 
#    0.000    5.172    0.000    1.655    0.000    0.000 
#    0.000    0.000    0.000    0.000    0.000    0.000 
#
# Total GULP energy -161464.261414 kJ/mol
# GULP energy per Si atom -5567.733152 kJ/mol
# Density = 2.366824 g / cm^3
# Si number density = 23.722234 Si / 1000 Ang^3
#
#
#
# Elastic Constant Matrix: (Units=GPa)
#
#
# Indices 1 2 3 4 5 6 
#
# 1 96.8294 10.4549 -2.8484 0.0000 -18.2009 0.0000
# 2 10.4549 64.7103 21.6732 0.0000 -0.9095 0.0000
# 3 -2.8484 21.6732 129.6049 0.0000 -11.4237 0.0000
# 4 0.0000 0.0000 0.0000 -56.6570 0.0000 45.1055
# 5 -18.2009 -0.9095 -11.4237 0.0000 19.7959 0.0000
# 6 0.0000 0.0000 0.0000 45.1055 0.0000 -24.9600
#
#
#
# Elastic Compliance Matrix: (Units=1/GPa)
#
#
# Indices 1 2 3 4 5 6 
#
# 1 0.013103 -0.002558 0.001862 0.000000 0.013004 0.000000
# 2 -0.002558 0.016884 -0.003180 0.000000 -0.003411 0.000000
# 3 0.001862 -0.003180 0.008878 0.000000 0.006689 0.000000
# 4 0.000000 0.000000 0.000000 0.040235 0.000000 0.072709
# 5 0.013004 -0.003411 0.006689 0.000000 0.066175 0.000000
# 6 0.000000 0.000000 0.000000 0.072709 0.000000 0.091330
#
#
# Mechanical properties :
#
#
# Convention : Reuss Voigt Hill
#
# Bulk Modulus (GPa) = 32.14151 38.85598 35.49874
# Shear Modulus (GPa) = 19.62875 5.09345 12.36110
#
# Velocity S-wave (km/s) = 2.87965 1.46690 2.28519
# Velocity P-wave (km/s) = 4.96337 4.39137 4.68611
#
# Compressibility (1/GPa) = 0.03111242
#
# Stress axis : x y z
#
# Youngs Moduli (GPa) = 76.31999 59.22777 112.63674
#
# Poissons Ratio (x) = 0.15149 -0.20972
# Poissons Ratio (y) = 0.19521 0.35822
# Poissons Ratio (z) = -0.14210 0.18836
#
# Static dielectric constant tensor:
#      x y z
#    x 1.885120 0.000000 0.003110 
#    y 0.000000 2.128080 0.000000 
#    z 0.003110 0.000000 1.877060 
# 
# From -- ./inp_files/85011.got.cif
#   From: 2010.05.17/outbox.cif.g08.bks.cpg/sg10_43_cif.got.tgz:85011.got - 2010.06.03 11:33:40.
