data_PCOD9149995
_publ_section_title
;
Structure prediction by ZEFSAII (Michael W. Deem and Ramdas Pophale) SiO2 
 PCOD9149995
Probable space group: P 2/M
;
_chemical_formula_sum "Si O2"
_cell_formula_units_Z 28
_cell_length_a 8.629270
_cell_length_b 15.847173
_cell_length_c 21.250825
_cell_angle_alpha 90.000000
_cell_angle_beta 26.161929
_cell_angle_gamma 90.000000
_cell_volume 1281.301004
_symmetry_space_group_name_H-M "P 2/M"
_symmetry_group_IT_number 10
_symmetry_cell_setting 'monoclinic'
loop_
_space_group_symop_operation_xyz
x,y,z
-x,y,-z
-x,-y,-z
x,-y,z
loop_
_atom_site_type_symbol
_atom_site_label
_atom_site_fract_x
_atom_site_fract_y
_atom_site_fract_z
Si Si1 0.321579 0.406544 0.632615
Si Si2 0.850066 0.737538 0.759734
Si Si3 0.743841 0.595849 0.032474
Si Si4 0.446023 0.408262 0.719361
Si Si5 0.211220 0.750022 0.357511
Si Si6 0.577682 0.092187 0.663123
Si Si7 0.211513 0.098672 0.661259
O O1 0.500000 0.409009 0.500000
O O2 0.155448 0.500000 0.701296
O O3 0.572395 0.398522 0.601675
O O4 0.091627 0.323193 0.713251
O O5 0.499952 0.678752 0.883340
O O6 0.976901 0.748615 0.640845
O O7 0.900888 0.832310 0.767513
O O8 0.581274 0.500000 0.092885
O O9 0.000000 0.598977 0.000000
O O10 0.023087 0.596557 0.873388
O O11 0.551641 0.500000 0.704310
O O12 0.580277 0.335970 0.714111
O O13 0.460981 0.831992 0.273420
O O14 0.000000 0.751370 0.500000
O O15 0.403823 0.110873 0.658731
O O16 0.000000 0.084700 0.500000
O O17 0.451137 0.000000 0.730584
O O18 0.500000 0.110437 0.500000
O O19 0.098954 0.000000 0.698748
#
# Coordination Sequence:
#
# PCOD9149995 Si02
#       7
#     4   4   4   4   4   4   4
#     4  10  21  36  54  83 121 153 187 241 309 371
#     4  12  22  34  58  85 118 156 200 253 300 348
#     4  10  21  40  61  83 115 159 214 260 294 344
#     4  10  21  38  58  80 115 158 201 246 296 357
#     4  11  21  32  53  84 114 150 196 242 301 366
#     4   9  18  34  55  80 113 150 188 231 285 358
#     4  10  20  35  57  87 122 156 193 245 308 370
#
# _framework density 21.852789999999999
#
# number of rings (size 3 to 8) (size 9 to 14) (size 15 to 20)
#    0.000    1.714    1.429    4.286    0.000    3.143 
#    0.000    2.143    0.000    1.286    0.000    3.000 
#    0.000    0.000    0.000    0.000    0.000    0.000 
#
# Total GULP energy -155961.123851 kJ/mol
# GULP energy per Si atom -5570.040138 kJ/mol
# Density = 2.180305 g / cm^3
# Si number density = 21.852790 Si / 1000 Ang^3
#
#
#
# Elastic Constant Matrix: (Units=GPa)
#
#
# Indices 1 2 3 4 5 6 
#
# 1 79.2428 62.5384 1.2704 0.0000 4.4270 0.0000
# 2 62.5384 205.9882 19.2728 0.0000 -15.3478 0.0000
# 3 1.2704 19.2728 27.7118 0.0000 2.2595 0.0000
# 4 0.0000 0.0000 0.0000 -1.5586 0.0000 -11.5831
# 5 4.4270 -15.3478 2.2595 0.0000 26.5441 0.0000
# 6 0.0000 0.0000 0.0000 -11.5831 0.0000 56.2712
#
#
#
# Elastic Compliance Matrix: (Units=1/GPa)
#
#
# Indices 1 2 3 4 5 6 
#
# 1 0.017975 -0.006373 0.004182 0.000000 -0.007039 0.000000
# 2 -0.006373 0.007762 -0.005598 0.000000 0.006028 0.000000
# 3 0.004182 -0.005598 0.040388 0.000000 -0.007372 0.000000
# 4 0.000000 0.000000 0.000000 -0.253621 0.000000 -0.052206
# 5 -0.007039 0.006028 -0.007372 0.000000 0.042960 0.000000
# 6 0.000000 0.000000 0.000000 -0.052206 0.000000 0.007025
#
#
# Mechanical properties :
#
#
# Convention : Reuss Voigt Hill
#
# Bulk Modulus (GPa) = 19.78299 53.23399 36.50849
# Shear Modulus (GPa) = -47.58100 31.57542 -8.00279
#
# Velocity S-wave (km/s) = -4.67126 3.80533 -1.91575
# Velocity P-wave (km/s) = 4.47457 6.61215 3.44229
#
# Compressibility (1/GPa) = 0.05054847
#
# Stress axis : x y z
#
# Youngs Moduli (GPa) = 55.63207 128.82668 24.75966
#
# Poissons Ratio (x) = 0.82102 -0.10355
# Poissons Ratio (y) = 0.35455 0.13860
# Poissons Ratio (z) = -0.23266 0.72115
#
# Static dielectric constant tensor:
#      x y z
#    x 1.800650 0.000000 0.028370 
#    y 0.000000 1.880220 0.000000 
#    z 0.028370 0.000000 1.960760 
# 
# From -- ./inp_files/82889.got.cif
#   From: 2010.05.17/outbox.cif.g08.bks.cpg/sg10_42_cif.got.tgz:82889.got - 2010.06.03 11:33:40.
