data_PCOD9149987
_publ_section_title
;
Structure prediction by ZEFSAII (Michael W. Deem and Ramdas Pophale) SiO2 
 PCOD9149987
Probable space group: P 2/M
;
_chemical_formula_sum "Si O2"
_cell_formula_units_Z 20
_cell_length_a 19.819845
_cell_length_b 8.373445
_cell_length_c 8.231935
_cell_angle_alpha 90.000000
_cell_angle_beta 140.763680
_cell_angle_gamma 90.000000
_cell_volume 864.133628
_symmetry_space_group_name_H-M "P 2/M"
_symmetry_group_IT_number 10
_symmetry_cell_setting 'monoclinic'
loop_
_space_group_symop_operation_xyz
x,y,z
-x,y,-z
-x,-y,-z
x,-y,z
loop_
_atom_site_type_symbol
_atom_site_label
_atom_site_fract_x
_atom_site_fract_y
_atom_site_fract_z
Si Si1 0.884371 0.319134 0.363475
Si Si2 0.262261 0.193240 0.320178
Si Si3 0.613265 0.309546 0.138837
Si Si4 0.666568 0.182028 0.884246
Si Si5 0.979768 0.179178 0.149220
O O1 0.848010 0.500000 0.264117
O O2 0.793697 0.195700 0.151138
O O3 0.000000 0.291299 0.500000
O O4 0.923012 0.291813 0.617182
O O5 0.301654 0.242987 0.571796
O O6 0.259780 0.000000 0.310165
O O7 0.339287 0.247082 0.312975
O O8 0.140370 0.246853 0.056689
O O9 0.620105 0.500000 0.158210
O O10 0.622489 0.261660 0.966365
O O11 0.500000 0.255527 0.000000
O O12 0.629209 0.000000 0.813026
O O13 0.986184 0.000000 0.237903
O O14 0.000000 0.156915 0.000000
#
# Coordination Sequence:
#
# PCOD9149987 Si02
#       5
#     4   4   4   4   4
#     4  11  22  35  56  89 127 166 204 245 300 365
#     4  10  22  40  64  95 126 164 214 263 314 371
#     4  11  26  46  67  93 126 163 206 264 329 386
#     4  11  23  41  67  95 128 169 213 263 313 372
#     4  10  20  35  57  86 122 164 209 256 304 361
#
# _framework density 23.144566000000001
#
# number of rings (size 3 to 8) (size 9 to 14) (size 15 to 20)
#    0.000    1.400    2.000    3.000    0.000    7.600 
#    0.000    4.000    0.000    0.000    0.000    0.000 
#    0.000    0.000    0.000    0.000    0.000    0.000 
#
# Total GULP energy -111525.795091 kJ/mol
# GULP energy per Si atom -5576.289755 kJ/mol
# Density = 2.309189 g / cm^3
# Si number density = 23.144566 Si / 1000 Ang^3
#
#
#
# Elastic Constant Matrix: (Units=GPa)
#
#
# Indices 1 2 3 4 5 6 
#
# 1 132.5733 4.7538 10.6607 0.0000 -16.0008 0.0000
# 2 4.7538 33.7251 0.2338 0.0000 -2.7873 0.0000
# 3 10.6607 0.2338 51.2299 0.0000 3.0824 0.0000
# 4 0.0000 0.0000 0.0000 27.5951 0.0000 -6.7847
# 5 -16.0008 -2.7873 3.0824 0.0000 28.5204 0.0000
# 6 0.0000 0.0000 0.0000 -6.7847 0.0000 31.9571
#
#
#
# Elastic Compliance Matrix: (Units=1/GPa)
#
#
# Indices 1 2 3 4 5 6 
#
# 1 0.008313 -0.000760 -0.002016 0.000000 0.004807 0.000000
# 2 -0.000760 0.029968 -0.000130 0.000000 0.002516 0.000000
# 3 -0.002016 -0.000130 0.020140 0.000000 -0.003320 0.000000
# 4 0.000000 0.000000 0.000000 0.038234 0.000000 0.008117
# 5 0.004807 0.002516 -0.003320 0.000000 0.038364 0.000000
# 6 0.000000 0.000000 0.000000 0.008117 0.000000 0.033015
#
#
# Mechanical properties :
#
#
# Convention : Reuss Voigt Hill
#
# Bulk Modulus (GPa) = 19.00853 27.64719 23.32786
# Shear Modulus (GPa) = 26.12585 31.07317 28.59951
#
# Velocity S-wave (km/s) = 3.36342 3.66808 3.51905
# Velocity P-wave (km/s) = 4.82849 5.46911 5.15875
#
# Compressibility (1/GPa) = 0.05260797
#
# Stress axis : x y z
#
# Youngs Moduli (GPa) = 120.30029 33.36942 49.65328
#
# Poissons Ratio (x) = 0.02538 0.10008
# Poissons Ratio (y) = 0.09148 0.00645
# Poissons Ratio (z) = 0.24247 0.00433
#
# Static dielectric constant tensor:
#      x y z
#    x 2.146060 0.000000 -0.273170 
#    y 0.000000 1.827440 0.000000 
#    z -0.273170 0.000000 2.201070 
# 
# From -- ./inp_files/34053.got.cif
#   From: 2010.05.17/outbox.cif.g08.bks.cpg/sg10_18_cif.got.tgz:34053.got - 2010.06.03 11:33:40.
