data_PCOD9149336
_publ_section_title
;
Structure prediction by ZEFSAII (Michael W. Deem and Ramdas Pophale) SiO2 
 PCOD9149336
Probable space group: P 2/M
;
_chemical_formula_sum "Si O2"
_cell_formula_units_Z 32
_cell_length_a 33.333838
_cell_length_b 7.892449
_cell_length_c 13.279312
_cell_angle_alpha 90.000000
_cell_angle_beta 154.506540
_cell_angle_gamma 90.000000
_cell_volume 1503.671900
_symmetry_space_group_name_H-M "P 2/M"
_symmetry_group_IT_number 10
_symmetry_cell_setting 'monoclinic'
loop_
_space_group_symop_operation_xyz
x,y,z
-x,y,-z
-x,-y,-z
x,-y,z
loop_
_atom_site_type_symbol
_atom_site_label
_atom_site_fract_x
_atom_site_fract_y
_atom_site_fract_z
Si Si1 0.395201 0.803304 0.505305
Si Si2 0.805312 0.198896 0.167104
Si Si3 0.881927 0.205584 0.550742
Si Si4 0.551133 0.294702 0.012443
Si Si5 0.236940 0.700882 0.526860
Si Si6 0.187834 0.204940 0.047185
Si Si7 0.400785 0.308812 0.300406
Si Si8 0.089375 0.203275 0.021821
O O1 0.401179 0.688327 0.421420
O O2 0.389909 0.000000 0.460413
O O3 0.484276 0.775889 0.774961
O O4 0.294347 0.763834 0.324647
O O5 0.859669 0.268193 0.387022
O O6 0.822126 0.267803 0.091352
O O7 0.827617 0.000000 0.211474
O O8 0.695700 0.219203 0.944586
O O9 0.807000 0.258553 0.464074
O O10 0.880057 0.000000 0.544477
O O11 0.985940 0.263019 0.815969
O O12 0.551207 0.500000 0.005237
O O13 0.657513 0.232648 0.246572
O O14 0.500000 0.247997 0.000000
O O15 0.242894 0.500000 0.530286
O O16 0.166509 0.761394 0.280701
O O17 0.176832 0.000000 0.017222
O O18 0.120278 0.269264 0.981597
O O19 0.500000 0.226559 0.500000
O O20 0.399085 0.500000 0.254080
O O21 0.083559 0.000000 0.999903
#
# Coordination Sequence:
#
# PCOD9149336 Si02
#       8
#     4   4   4   4   4   4   4   4
#     4  10  20  34  55  83 112 143 182 228 277 328
#     4   9  19  36  56  83 116 146 185 230 280 333
#     4  10  22  38  58  85 115 149 187 232 281 335
#     4  10  22  39  57  80 112 149 188 231 281 336
#     4  11  24  39  57  81 112 149 189 235 284 334
#     4   8  16  33  57  85 114 144 181 229 278 331
#     4  10  21  35  53  77 109 148 187 223 267 328
#     4  10  20  37  61  84 110 146 189 234 284 336
#
# _framework density 21.281236
#
# number of rings (size 3 to 8) (size 9 to 14) (size 15 to 20)
#    0.000    2.250    0.000    3.000    1.750    5.250 
#    0.000    5.000    0.000    0.000    0.000    5.250 
#    0.000    0.000    0.000    0.000    0.000    0.000 
#
# Total GULP energy -178518.646274 kJ/mol
# GULP energy per Si atom -5578.707696 kJ/mol
# Density = 2.123280 g / cm^3
# Si number density = 21.281236 Si / 1000 Ang^3
#
#
#
# Elastic Constant Matrix: (Units=GPa)
#
#
# Indices 1 2 3 4 5 6 
#
# 1 93.9382 5.6976 45.8516 0.0000 17.5399 0.0000
# 2 5.6976 18.6410 14.0907 0.0000 4.7132 0.0000
# 3 45.8516 14.0907 97.8737 0.0000 3.8510 0.0000
# 4 0.0000 0.0000 0.0000 -34.6874 0.0000 -13.3778
# 5 17.5399 4.7132 3.8510 0.0000 32.7422 0.0000
# 6 0.0000 0.0000 0.0000 -13.3778 0.0000 5.0966
#
#
#
# Elastic Compliance Matrix: (Units=1/GPa)
#
#
# Indices 1 2 3 4 5 6 
#
# 1 0.015544 0.002814 -0.007378 0.000000 -0.007864 0.000000
# 2 0.002814 0.062692 -0.009976 0.000000 -0.009359 0.000000
# 3 -0.007378 -0.009976 0.014967 0.000000 0.003628 0.000000
# 4 0.000000 0.000000 0.000000 -0.014326 0.000000 -0.037604
# 5 -0.007864 -0.009359 0.003628 0.000000 0.035675 0.000000
# 6 0.000000 0.000000 0.000000 -0.037604 0.000000 0.097504
#
#
# Mechanical properties :
#
#
# Convention : Reuss Voigt Hill
#
# Bulk Modulus (GPa) = 15.59474 37.97030 26.78252
# Shear Modulus (GPa) = 19.04696 10.28449 14.66573
#
# Velocity S-wave (km/s) = 2.99492 2.20072 2.62799
# Velocity P-wave (km/s) = 4.39354 4.93340 4.67128
#
# Compressibility (1/GPa) = 0.06412420
#
# Stress axis : x y z
#
# Youngs Moduli (GPa) = 64.33291 15.95105 66.81351
#
# Poissons Ratio (x) = -0.04489 0.49294
# Poissons Ratio (y) = -0.18104 0.66652
# Poissons Ratio (z) = 0.47464 0.15912
#
# Static dielectric constant tensor:
#      x y z
#    x 1.823400 0.000000 -0.004640 
#    y 0.000000 1.783930 0.000000 
#    z -0.004640 0.000000 1.787390 
# 
# From -- ./inp_files/58370.got.cif
#   From: 2010.05.17/outbox.cif.g08.bks.cpg/sg10_30_cif.got.tgz:58370.got - 2010.06.03 11:33:40.
