data_PCOD9149993
_publ_section_title
;
Structure prediction by ZEFSAII (Michael W. Deem and Ramdas Pophale) SiO2 
 PCOD9149993
Probable space group: P 2/M
;
_chemical_formula_sum "Si O2"
_cell_formula_units_Z 24
_cell_length_a 12.267972
_cell_length_b 8.566539
_cell_length_c 23.521365
_cell_angle_alpha 90.000000
_cell_angle_beta 26.604288
_cell_angle_gamma 90.000000
_cell_volume 1107.006071
_symmetry_space_group_name_H-M "P 2/M"
_symmetry_group_IT_number 10
_symmetry_cell_setting 'monoclinic'
loop_
_space_group_symop_operation_xyz
x,y,z
-x,y,-z
-x,-y,-z
x,-y,z
loop_
_atom_site_type_symbol
_atom_site_label
_atom_site_fract_x
_atom_site_fract_y
_atom_site_fract_z
Si Si1 0.045454 0.313898 0.801520
Si Si2 0.548621 0.815334 0.542262
Si Si3 0.358374 0.819011 0.308130
Si Si4 0.268672 0.822303 0.150505
Si Si5 0.399848 0.314327 0.908599
Si Si6 0.117223 0.680719 0.524199
O O1 0.080022 0.500000 0.786313
O O2 0.933496 0.263245 0.792796
O O3 0.299528 0.227429 0.690685
O O4 0.844867 0.272142 0.942820
O O5 0.500000 0.768190 0.500000
O O6 0.771230 0.727617 0.467798
O O7 0.591964 0.000000 0.524161
O O8 0.567606 0.767500 0.167118
O O9 0.324011 0.715306 0.380285
O O10 0.108261 0.786570 0.389961
O O11 0.377070 0.000000 0.314716
O O12 0.374921 0.735228 0.155715
O O13 0.194177 0.000000 0.198978
O O14 0.500000 0.830162 0.000000
O O15 0.405285 0.500000 0.898782
O O16 0.044581 0.500000 0.556004
#
# Coordination Sequence:
#
# PCOD9149993 Si02
#       6
#     4   4   4   4   4   4
#     4  10  21  37  57  84 120 158 200 249 299 356
#     4  11  25  43  63  87 121 162 204 247 299 362
#     4  11  22  39  65  93 123 157 200 250 302 356
#     4   9  17  30  50  78 114 154 194 240 292 346
#     4  10  20  35  57  87 120 156 199 248 302 355
#     4  11  23  42  65  90 122 158 202 251 300 355
#
# _framework density 21.680098000000001
#
# number of rings (size 3 to 8) (size 9 to 14) (size 15 to 20)
#    0.000    1.667    0.000    6.000    2.333    5.333 
#    0.000    0.833    0.000    5.000    0.000    0.000 
#    0.000    0.000    0.000    0.000    0.000    0.000 
#
# Total GULP energy -134249.089646 kJ/mol
# GULP energy per Si atom -5593.712069 kJ/mol
# Density = 2.163075 g / cm^3
# Si number density = 21.680098 Si / 1000 Ang^3
#
#
#
# Elastic Constant Matrix: (Units=GPa)
#
#
# Indices 1 2 3 4 5 6 
#
# 1 52.7838 -2.6450 10.0283 0.0000 5.5773 0.0000
# 2 -2.6450 44.2114 1.2912 0.0000 4.2636 0.0000
# 3 10.0283 1.2912 74.6513 0.0000 11.0355 0.0000
# 4 0.0000 0.0000 0.0000 24.9913 0.0000 6.2476
# 5 5.5773 4.2636 11.0355 0.0000 27.7445 0.0000
# 6 0.0000 0.0000 0.0000 6.2476 0.0000 24.8212
#
#
#
# Elastic Compliance Matrix: (Units=1/GPa)
#
#
# Indices 1 2 3 4 5 6 
#
# 1 0.019794 0.001571 -0.002191 0.000000 -0.003349 0.000000
# 2 0.001571 0.023085 -0.000042 0.000000 -0.003847 0.000000
# 3 -0.002191 -0.000042 0.014476 0.000000 -0.005311 0.000000
# 4 0.000000 0.000000 0.000000 0.042701 0.000000 -0.010748
# 5 -0.003349 -0.003847 -0.005311 0.000000 0.039420 0.000000
# 6 0.000000 0.000000 0.000000 -0.010748 0.000000 0.042994
#
#
# Mechanical properties :
#
#
# Convention : Reuss Voigt Hill
#
# Bulk Modulus (GPa) = 17.84716 20.99949 19.42332
# Shear Modulus (GPa) = 24.69508 26.37619 25.53563
#
# Velocity S-wave (km/s) = 3.37867 3.49178 3.43569
# Velocity P-wave (km/s) = 4.84463 5.09546 4.97163
#
# Compressibility (1/GPa) = 0.05603134
#
# Stress axis : x y z
#
# Youngs Moduli (GPa) = 50.52013 43.31854 69.08095
#
# Poissons Ratio (x) = -0.06806 0.15137
# Poissons Ratio (y) = -0.07938 0.00288
# Poissons Ratio (z) = 0.11070 0.00181
#
# Static dielectric constant tensor:
#      x y z
#    x 1.773750 0.000000 0.029140 
#    y 0.000000 1.730860 0.000000 
#    z 0.029140 0.000000 1.852660 
# 
# From -- ./inp_files/88613.got.cif
#   From: 2010.05.17/outbox.cif.g08.bks.cpg/sg10_45_cif.got.tgz:88613.got - 2010.06.03 11:33:40.
