data_PCOD9149159
_publ_section_title
;
Structure prediction by ZEFSAII (Michael W. Deem and Ramdas Pophale) SiO2 
 PCOD9149159
Probable space group: P 2/M
;
_chemical_formula_sum "Si O2"
_cell_formula_units_Z 30
_cell_length_a 12.142834
_cell_length_b 11.169231
_cell_length_c 20.998131
_cell_angle_alpha 90.000000
_cell_angle_beta 33.219311
_cell_angle_gamma 90.000000
_cell_volume 1560.205646
_symmetry_space_group_name_H-M "P 2/M"
_symmetry_group_IT_number 10
_symmetry_cell_setting 'monoclinic'
loop_
_space_group_symop_operation_xyz
x,y,z
-x,y,-z
-x,-y,-z
x,-y,z
loop_
_atom_site_type_symbol
_atom_site_label
_atom_site_fract_x
_atom_site_fract_y
_atom_site_fract_z
Si Si1 0.523003 0.862091 0.236828
Si Si2 0.103217 0.264818 0.886947
Si Si3 0.774118 0.362471 0.771667
Si Si4 0.240357 0.362670 0.371755
Si Si5 0.789165 0.646053 0.407544
Si Si6 0.741099 0.867207 0.000721
Si Si7 0.500000 0.214657 0.000000
Si Si8 0.634016 0.360442 0.347361
O O1 0.741562 0.836962 0.163210
O O2 0.371375 0.753599 0.329195
O O3 0.458625 0.000000 0.281152
O O4 0.570899 0.852703 0.137815
O O5 0.244783 0.345302 0.775381
O O6 0.921328 0.221410 0.930568
O O7 0.000000 0.318349 0.000000
O O8 0.774858 0.500000 0.793558
O O9 0.723980 0.364851 0.721490
O O10 0.999040 0.311040 0.669203
O O11 0.627081 0.292835 0.888947
O O12 0.291511 0.500000 0.371433
O O13 0.000000 0.347891 0.500000
O O14 0.797695 0.500000 0.407110
O O15 0.592970 0.687979 0.540966
O O16 0.752740 0.685019 0.352188
O O17 0.649387 0.854734 0.975015
O O18 0.824360 0.000000 0.969160
O O19 0.612185 0.500000 0.370741
#
# Coordination Sequence:
#
# PCOD9149159 Si02
#       8
#     4   4   4   4   4   4   2   4
#     4  10  21  40  61  83 115 156 199 239 283 345
#     4  10  21  35  55  82 111 146 190 235 289 346
#     4  10  20  34  53  82 118 151 183 227 289 351
#     4  10  22  39  60  87 118 154 195 239 288 344
#     4   8  16  31  51  75 106 151 193 223 271 346
#     4  10  21  38  57  81 111 148 195 239 286 346
#     4  12  20  34  60  88 112 146 186 240 292 342
#     4   9  17  31  52  80 112 146 187 235 282 336
#
# _framework density 19.228234
#
# number of rings (size 3 to 8) (size 9 to 14) (size 15 to 20)
#    0.000    2.267    1.333    2.400    1.867    2.667 
#    0.000    2.667    0.000    0.000    0.000    4.667 
#    0.000    0.000    0.000    0.000    0.000    0.000 
#
# Total GULP energy -167044.860143 kJ/mol
# GULP energy per Si atom -5568.162005 kJ/mol
# Density = 1.918447 g / cm^3
# Si number density = 19.228234 Si / 1000 Ang^3
#
#
#
# Elastic Constant Matrix: (Units=GPa)
#
#
# Indices 1 2 3 4 5 6 
#
# 1 69.8225 12.8695 15.3373 0.0000 2.0433 0.0000
# 2 12.8695 56.5040 24.3667 0.0000 -6.4285 0.0000
# 3 15.3373 24.3667 82.6484 0.0000 4.9230 0.0000
# 4 0.0000 0.0000 0.0000 38.7952 0.0000 13.3168
# 5 2.0433 -6.4285 4.9230 0.0000 28.9144 0.0000
# 6 0.0000 0.0000 0.0000 13.3168 0.0000 29.6252
#
#
#
# Elastic Compliance Matrix: (Units=1/GPa)
#
#
# Indices 1 2 3 4 5 6 
#
# 1 0.015304 -0.002810 -0.001929 0.000000 -0.001378 0.000000
# 2 -0.002810 0.021725 -0.006246 0.000000 0.006092 0.000000
# 3 -0.001929 -0.006246 0.014521 0.000000 -0.003725 0.000000
# 4 0.000000 0.000000 0.000000 0.030479 0.000000 -0.013701
# 5 -0.001378 0.006092 -0.003725 0.000000 0.036671 0.000000
# 6 0.000000 0.000000 0.000000 -0.013701 0.000000 0.039914
#
#
# Mechanical properties :
#
#
# Convention : Reuss Voigt Hill
#
# Bulk Modulus (GPa) = 33.80942 34.90242 34.35592
# Shear Modulus (GPa) = 26.25430 29.89373 28.07401
#
# Velocity S-wave (km/s) = 3.69915 3.94722 3.82519
# Velocity P-wave (km/s) = 5.98885 6.24220 6.11684
#
# Compressibility (1/GPa) = 0.02957755
#
# Stress axis : x y z
#
# Youngs Moduli (GPa) = 65.34164 46.03053 68.86626
#
# Poissons Ratio (x) = 0.12937 0.13287
# Poissons Ratio (y) = 0.18364 0.43016
# Poissons Ratio (z) = 0.12607 0.28752
#
# Static dielectric constant tensor:
#      x y z
#    x 1.723260 0.000000 -0.013720 
#    y 0.000000 1.665810 0.000000 
#    z -0.013720 0.000000 1.667700 
# 
# From -- ./inp_files/84043.got.cif
#   From: 2010.05.17/outbox.cif.g08.bks.cpg/sg10_43_cif.got.tgz:84043.got - 2010.06.03 11:33:40.
