data_PCOD9149348
_publ_section_title
;
Structure prediction by ZEFSAII (Michael W. Deem and Ramdas Pophale) SiO2 
 PCOD9149348
Probable space group: P 2/M
;
_chemical_formula_sum "Si O2"
_cell_formula_units_Z 22
_cell_length_a 9.410935
_cell_length_b 12.796256
_cell_length_c 10.166578
_cell_angle_alpha 90.000000
_cell_angle_beta 64.492688
_cell_angle_gamma 90.000000
_cell_volume 1104.974610
_symmetry_space_group_name_H-M "P 2/M"
_symmetry_group_IT_number 10
_symmetry_cell_setting 'monoclinic'
loop_
_space_group_symop_operation_xyz
x,y,z
-x,y,-z
-x,-y,-z
x,-y,z
loop_
_atom_site_type_symbol
_atom_site_label
_atom_site_fract_x
_atom_site_fract_y
_atom_site_fract_z
Si Si1 0.207585 0.885469 0.816088
Si Si2 0.594757 0.622132 0.828820
Si Si3 0.119241 0.172399 0.562941
Si Si4 0.000000 0.708683 0.000000
Si Si5 0.967491 0.380033 0.725977
Si Si6 0.531708 0.213916 0.633594
O O1 0.121200 0.876918 0.708099
O O2 0.391845 0.866556 0.717455
O O3 0.180281 0.000000 0.884099
O O4 0.144961 0.789576 0.927695
O O5 0.569581 0.500000 0.809409
O O6 0.782488 0.638175 0.770741
O O7 0.531865 0.694931 0.739241
O O8 0.500000 0.645838 0.000000
O O9 0.295534 0.164318 0.438502
O O10 0.000000 0.131899 0.500000
O O11 0.071935 0.293895 0.609529
O O12 0.009418 0.640831 0.127699
O O13 0.006877 0.500000 0.677057
O O14 0.500000 0.256858 0.500000
#
# Coordination Sequence:
#
# PCOD9149348 Si02
#       6
#     4   4   4   2   4   4
#     4  10  22  39  61  84 112 153 194 245 304 346
#     4  10  20  34  55  83 117 156 195 237 289 348
#     4  10  20  36  57  85 115 152 194 241 285 341
#     4  10  20  38  62  86 118 150 194 240 288 358
#     4  10  20  34  58  87 119 157 191 229 287 352
#     4  10  21  37  58  83 118 155 193 245 290 345
#
# _framework density 19.909960000000002
#
# number of rings (size 3 to 8) (size 9 to 14) (size 15 to 20)
#    0.000    2.000    1.818    1.636    0.000    5.091 
#    0.000    9.091    0.000    1.636    0.000    0.000 
#    0.000    0.000    0.000    0.000    0.000    0.000 
#
# Total GULP energy -122852.729638 kJ/mol
# GULP energy per Si atom -5584.214984 kJ/mol
# Density = 1.986464 g / cm^3
# Si number density = 19.909960 Si / 1000 Ang^3
#
#
#
# Elastic Constant Matrix: (Units=GPa)
#
#
# Indices 1 2 3 4 5 6 
#
# 1 94.8060 14.7774 9.0164 0.0000 -3.9516 0.0000
# 2 14.7774 70.3403 0.0452 0.0000 -2.0723 0.0000
# 3 9.0164 0.0452 31.2269 0.0000 -6.6149 0.0000
# 4 0.0000 0.0000 0.0000 2.0618 0.0000 -2.1588
# 5 -3.9516 -2.0723 -6.6149 0.0000 36.8655 0.0000
# 6 0.0000 0.0000 0.0000 -2.1588 0.0000 11.6386
#
#
#
# Elastic Compliance Matrix: (Units=1/GPa)
#
#
# Indices 1 2 3 4 5 6 
#
# 1 0.011232 -0.002343 -0.003132 0.000000 0.000510 0.000000
# 2 -0.002343 0.014729 0.000808 0.000000 0.000722 0.000000
# 3 -0.003132 0.000808 0.034164 0.000000 0.005840 0.000000
# 4 0.000000 0.000000 0.000000 0.601918 0.000000 0.111647
# 5 0.000510 0.000722 0.005840 0.000000 0.028269 0.000000
# 6 0.000000 0.000000 0.000000 0.111647 0.000000 0.106630
#
#
# Mechanical properties :
#
#
# Convention : Reuss Voigt Hill
#
# Bulk Modulus (GPa) = 19.68782 27.11682 23.40232
# Shear Modulus (GPa) = 6.07382 21.61547 13.84464
#
# Velocity S-wave (km/s) = 1.74850 3.29851 2.63983
# Velocity P-wave (km/s) = 3.73982 5.30624 4.59034
#
# Compressibility (1/GPa) = 0.05079281
#
# Stress axis : x y z
#
# Youngs Moduli (GPa) = 89.03052 67.89099 29.27078
#
# Poissons Ratio (x) = 0.15904 0.09166
# Poissons Ratio (y) = 0.20857 -0.02365
# Poissons Ratio (z) = 0.27881 -0.05485
#
# Static dielectric constant tensor:
#      x y z
#    x 1.704610 0.000000 -0.019040 
#    y 0.000000 1.676410 0.000000 
#    z -0.019040 0.000000 1.707140 
# 
# From -- ./inp_files/41948.got.cif
#   From: 2010.05.17/outbox.cif.g08.bks.cpg/sg10_21_cif.got.tgz:41948.got - 2010.06.03 11:33:40.
