data_PCOD9149183
_publ_section_title
;
Structure prediction by ZEFSAII (Michael W. Deem and Ramdas Pophale) SiO2 
 PCOD9149183
Probable space group: P 2/M
;
_chemical_formula_sum "Si O2"
_cell_formula_units_Z 32
_cell_length_a 20.649183
_cell_length_b 7.727152
_cell_length_c 26.101736
_cell_angle_alpha 90.000000
_cell_angle_beta 21.823284
_cell_angle_gamma 90.000000
_cell_volume 1548.235436
_symmetry_space_group_name_H-M "P 2/M"
_symmetry_group_IT_number 10
_symmetry_cell_setting 'monoclinic'
loop_
_space_group_symop_operation_xyz
x,y,z
-x,y,-z
-x,-y,-z
x,-y,z
loop_
_atom_site_type_symbol
_atom_site_label
_atom_site_fract_x
_atom_site_fract_y
_atom_site_fract_z
Si Si1 0.762952 0.290365 0.485953
Si Si2 0.028474 0.202436 0.570804
Si Si3 0.086693 0.195145 0.986672
Si Si4 0.367656 0.203072 0.258647
Si Si5 0.258042 0.290488 0.714336
Si Si6 0.371252 0.787824 0.141059
Si Si7 0.611539 0.709792 0.494560
Si Si8 0.428604 0.297557 0.795278
O O1 0.777622 0.500000 0.475689
O O2 0.908200 0.219846 0.417118
O O3 0.739382 0.229550 0.445150
O O4 0.581283 0.236985 0.645555
O O5 0.187619 0.274383 0.417841
O O6 0.831499 0.271104 0.713498
O O7 0.015176 0.000000 0.567153
O O8 0.922789 0.199744 0.144289
O O9 0.136884 0.000000 0.935331
O O10 0.248126 0.271516 0.898695
O O11 0.000000 0.282573 0.000000
O O12 0.418149 0.267689 0.164958
O O13 0.525138 0.219167 0.183565
O O14 0.332577 0.000000 0.277840
O O15 0.238170 0.500000 0.732143
O O16 0.322419 0.248726 0.610245
O O17 0.408386 0.236757 0.644336
O O18 0.373835 0.000000 0.136676
O O19 0.500000 0.730734 0.000000
O O20 0.606462 0.500000 0.502085
O O21 0.452846 0.500000 0.785140
#
# Coordination Sequence:
#
# PCOD9149183 Si02
#       8
#     4   4   4   4   4   4   4   4
#     4   9  17  31  51  75 101 129 164 209 256 299
#     4   9  17  30  50  76 101 130 174 211 248 306
#     4  11  23  36  50  73 105 137 170 214 262 302
#     4   9  17  32  54  76 102 136 170 215 263 305
#     4   9  17  32  53  73  95 130 173 211 251 307
#     4   9  17  31  52  77 104 135 172 212 255 309
#     4   8  15  30  52  74  97 128 168 210 254 303
#     4  10  20  34  54  78 102 133 174 212 251 307
#
# _framework density 20.668690999999999
#
# number of rings (size 3 to 8) (size 9 to 14) (size 15 to 20)
#    0.000    2.750    0.000    2.625    0.000    4.000 
#    2.250    3.125    0.000    3.750    0.000    0.000 
#    0.000    0.000    0.000    0.000    0.000    0.000 
#
# Total GULP energy -178206.971961 kJ/mol
# GULP energy per Si atom -5568.967874 kJ/mol
# Density = 2.062165 g / cm^3
# Si number density = 20.668691 Si / 1000 Ang^3
#
#
#
# Elastic Constant Matrix: (Units=GPa)
#
#
# Indices 1 2 3 4 5 6 
#
# 1 144.4923 10.4094 54.8731 0.0000 2.4277 0.0000
# 2 10.4094 24.3680 5.4609 0.0000 3.5513 0.0000
# 3 54.8731 5.4609 77.3306 0.0000 -7.9995 0.0000
# 4 0.0000 0.0000 0.0000 0.0758 0.0000 14.1021
# 5 2.4277 3.5513 -7.9995 0.0000 24.0318 0.0000
# 6 0.0000 0.0000 0.0000 14.1021 0.0000 -5.4271
#
#
#
# Elastic Compliance Matrix: (Units=1/GPa)
#
#
# Indices 1 2 3 4 5 6 
#
# 1 0.009842 -0.002157 -0.007147 0.000000 -0.003055 0.000000
# 2 -0.002157 0.043480 -0.002260 0.000000 -0.006959 0.000000
# 3 -0.007147 -0.002260 0.018924 0.000000 0.007355 0.000000
# 4 0.000000 0.000000 0.000000 0.027233 0.000000 0.070765
# 5 -0.003055 -0.006959 0.007355 0.000000 0.045397 0.000000
# 6 0.000000 0.000000 0.000000 0.070765 0.000000 -0.000381
#
#
# Mechanical properties :
#
#
# Convention : Reuss Voigt Hill
#
# Bulk Modulus (GPa) = 20.35969 43.07531 31.71750
# Shear Modulus (GPa) = 27.17462 15.43259 21.30360
#
# Velocity S-wave (km/s) = 3.62991 2.73548 3.21396
# Velocity P-wave (km/s) = 5.23834 5.55547 5.39924
#
# Compressibility (1/GPa) = 0.04911666
#
# Stress axis : x y z
#
# Youngs Moduli (GPa) = 101.60719 22.99929 52.84414
#
# Poissons Ratio (x) = 0.04962 0.37769
# Poissons Ratio (y) = 0.21920 0.11940
# Poissons Ratio (z) = 0.72622 0.05197
#
# Static dielectric constant tensor:
#      x y z
#    x 1.792150 0.000000 0.016570 
#    y 0.000000 1.779290 0.000000 
#    z 0.016570 0.000000 1.755060 
# 
# From -- ./inp_files/93681.got.cif
#   From: 2010.05.17/outbox.cif.g08.bks.cpg/sg10_47_cif.got.tgz:93681.got - 2010.06.03 11:33:40.
