data_PCOD9149241
_publ_section_title
;
Structure prediction by ZEFSAII (Michael W. Deem and Ramdas Pophale) SiO2 
 PCOD9149241
Probable space group: P 2/M
;
_chemical_formula_sum "Si O2"
_cell_formula_units_Z 20
_cell_length_a 15.769202
_cell_length_b 12.803523
_cell_length_c 8.123380
_cell_angle_alpha 90.000000
_cell_angle_beta 36.719922
_cell_angle_gamma 90.000000
_cell_volume 980.634915
_symmetry_space_group_name_H-M "P 2/M"
_symmetry_group_IT_number 10
_symmetry_cell_setting 'monoclinic'
loop_
_space_group_symop_operation_xyz
x,y,z
-x,y,-z
-x,-y,-z
x,-y,z
loop_
_atom_site_type_symbol
_atom_site_label
_atom_site_fract_x
_atom_site_fract_y
_atom_site_fract_z
Si Si1 0.627321 0.788000 0.705148
Si Si2 0.141727 0.881674 0.888322
Si Si3 0.187647 0.620382 0.379710
Si Si4 0.412314 0.611856 0.469120
Si Si5 0.862821 0.329344 0.922604
O O1 0.728504 0.859660 0.438078
O O2 0.723496 0.709679 0.665821
O O3 0.549888 0.707779 0.702550
O O4 0.500000 0.842812 0.000000
O O5 0.146540 0.000000 0.943570
O O6 0.141998 0.794071 0.029359
O O7 0.000000 0.868245 0.000000
O O8 0.232712 0.500000 0.338152
O O9 0.186083 0.642422 0.185735
O O10 0.023371 0.631671 0.691121
O O11 0.500000 0.617097 0.500000
O O12 0.439887 0.500000 0.347004
O O13 0.247427 0.621581 0.776817
#
# Coordination Sequence:
#
# PCOD9149241 Si02
#       5
#     4   4   4   4   4
#     4  11  23  37  58  88 120 152 193 242 290 343
#     4  10  21  42  64  82 110 150 198 248 296 341
#     4  11  21  35  57  88 125 158 190 230 284 345
#     4  10  20  34  54  81 118 161 198 231 282 345
#     4  10  20  36  57  84 115 154 195 242 282 340
#
# _framework density 20.394947999999999
#
# number of rings (size 3 to 8) (size 9 to 14) (size 15 to 20)
#    0.000    1.600    2.000    4.200    0.000    3.600 
#    0.000    6.000    0.000   20.400    0.000    0.000 
#    0.000    0.000    0.000    0.000    0.000    0.000 
#
# Total GULP energy -111734.289319 kJ/mol
# GULP energy per Si atom -5586.714466 kJ/mol
# Density = 2.034853 g / cm^3
# Si number density = 20.394948 Si / 1000 Ang^3
#
#
#
# Elastic Constant Matrix: (Units=GPa)
#
#
# Indices 1 2 3 4 5 6 
#
# 1 47.4812 7.0403 -10.0316 0.0000 -5.9932 0.0000
# 2 7.0403 87.7297 -8.1816 0.0000 1.3319 0.0000
# 3 -10.0316 -8.1816 95.3791 0.0000 -6.4058 0.0000
# 4 0.0000 0.0000 0.0000 15.8387 0.0000 12.7008
# 5 -5.9932 1.3319 -6.4058 0.0000 18.6419 0.0000
# 6 0.0000 0.0000 0.0000 12.7008 0.0000 13.6466
#
#
#
# Elastic Compliance Matrix: (Units=1/GPa)
#
#
# Indices 1 2 3 4 5 6 
#
# 1 0.022986 -0.001709 0.002841 0.000000 0.008488 0.000000
# 2 -0.001709 0.011622 0.000742 0.000000 -0.001125 0.000000
# 3 0.002841 0.000742 0.011162 0.000000 0.004696 0.000000
# 4 0.000000 0.000000 0.000000 0.248868 0.000000 -0.231619
# 5 0.008488 -0.001125 0.004696 0.000000 0.058066 0.000000
# 6 0.000000 0.000000 0.000000 -0.231619 0.000000 0.288844
#
#
# Mechanical properties :
#
#
# Convention : Reuss Voigt Hill
#
# Bulk Modulus (GPa) = 20.19436 23.13825 21.66631
# Shear Modulus (GPa) = 7.64169 25.74295 16.69232
#
# Velocity S-wave (km/s) = 1.93778 3.55663 2.86397
# Velocity P-wave (km/s) = 3.86391 5.31374 4.64573
#
# Compressibility (1/GPa) = 0.04951877
#
# Stress axis : x y z
#
# Youngs Moduli (GPa) = 43.50481 86.04371 89.58721
#
# Poissons Ratio (x) = 0.14701 -0.25453
# Poissons Ratio (y) = 0.07433 -0.06645
# Poissons Ratio (z) = -0.12360 -0.06382
#
# Static dielectric constant tensor:
#      x y z
#    x 1.717790 0.000000 -0.010070 
#    y 0.000000 1.689440 0.000000 
#    z -0.010070 0.000000 1.757930 
# 
# From -- ./inp_files/23650.got.cif
#   From: 2010.05.17/outbox.cif.g08.bks.cpg/sg10_12_cif.got.tgz:23650.got - 2010.06.03 11:33:40.
