data_PCOD9149898
_publ_section_title
;
Structure prediction by ZEFSAII (Michael W. Deem and Ramdas Pophale) SiO2 
 PCOD9149898
Probable space group: P 2/M
;
_chemical_formula_sum "Si O2"
_cell_formula_units_Z 28
_cell_length_a 23.738000
_cell_length_b 7.370741
_cell_length_c 21.637555
_cell_angle_alpha 90.000000
_cell_angle_beta 17.837234
_cell_angle_gamma 90.000000
_cell_volume 1159.658965
_symmetry_space_group_name_H-M "P 2/M"
_symmetry_group_IT_number 10
_symmetry_cell_setting 'monoclinic'
loop_
_space_group_symop_operation_xyz
x,y,z
-x,y,-z
-x,-y,-z
x,-y,z
loop_
_atom_site_type_symbol
_atom_site_label
_atom_site_fract_x
_atom_site_fract_y
_atom_site_fract_z
Si Si1 0.401836 0.719670 0.432415
Si Si2 0.422233 0.292696 0.277070
Si Si3 0.832643 0.212950 0.001689
Si Si4 0.144927 0.778267 0.156812
Si Si5 0.916658 0.294100 0.148890
Si Si6 0.044661 0.203803 0.387651
Si Si7 0.462389 0.721418 0.968685
O O1 0.387330 0.500000 0.444521
O O2 0.354894 0.789591 0.412084
O O3 0.612624 0.762677 0.228415
O O4 0.260444 0.786771 0.631690
O O5 0.358731 0.500000 0.341248
O O6 0.645421 0.289413 0.053713
O O7 0.403671 0.217279 0.226840
O O8 0.870863 0.000000 0.966185
O O9 0.910186 0.278298 0.854435
O O10 0.927386 0.300124 0.961468
O O11 0.019534 0.716436 0.345347
O O12 0.149021 0.000000 0.154379
O O13 0.861856 0.500000 0.188752
O O14 0.000000 0.208805 0.000000
O O15 0.264615 0.197858 0.160625
O O16 0.000000 0.295185 0.500000
O O17 0.964604 0.000000 0.472922
O O18 0.453978 0.500000 0.974724
O O19 0.500000 0.770559 0.000000
#
# Coordination Sequence:
#
# PCOD9149898 Si02
#       7
#     4   4   4   4   4   4   4
#     4   9  18  35  58  79 102 138 182 220 257 310
#     4   8  14  27  48  69  91 124 166 207 247 294
#     4  10  20  35  57  82 109 140 175 219 269 317
#     4   8  15  29  48  69  95 128 165 205 251 298
#     4  10  22  39  57  80 111 143 176 216 261 315
#     4   9  17  30  47  66  93 128 166 205 243 293
#     4   9  17  29  44  65  96 127 157 201 253 299
#
# _framework density 24.145030999999999
#
# number of rings (size 3 to 8) (size 9 to 14) (size 15 to 20)
#    0.000    3.000    0.000    0.429    0.000    2.571 
#    2.571    2.857    0.000    0.000    0.000    0.000 
#    0.000    0.000    0.000    0.000    0.000    0.000 
#
# Total GULP energy -156144.011037 kJ/mol
# GULP energy per Si atom -5576.571823 kJ/mol
# Density = 2.409008 g / cm^3
# Si number density = 24.145031 Si / 1000 Ang^3
#
#
#
# Elastic Constant Matrix: (Units=GPa)
#
#
# Indices 1 2 3 4 5 6 
#
# 1 140.2491 0.7156 48.4749 0.0000 40.5387 0.0000
# 2 0.7156 101.3210 -6.3268 0.0000 7.0786 0.0000
# 3 48.4749 -6.3268 101.8041 0.0000 27.2226 0.0000
# 4 0.0000 0.0000 0.0000 9.0750 0.0000 -0.6364
# 5 40.5387 7.0786 27.2226 0.0000 54.8280 0.0000
# 6 0.0000 0.0000 0.0000 -0.6364 0.0000 34.5353
#
#
#
# Elastic Compliance Matrix: (Units=1/GPa)
#
#
# Indices 1 2 3 4 5 6 
#
# 1 0.009886 0.000135 -0.003159 0.000000 -0.005758 0.000000
# 2 0.000135 0.010071 0.001079 0.000000 -0.001936 0.000000
# 3 -0.003159 0.001079 0.012461 0.000000 -0.003991 0.000000
# 4 0.000000 0.000000 0.000000 0.110336 0.000000 0.002033
# 5 -0.005758 -0.001936 -0.003991 0.000000 0.024728 0.000000
# 6 0.000000 0.000000 0.000000 0.002033 0.000000 0.028993
#
#
# Mechanical properties :
#
#
# Convention : Reuss Voigt Hill
#
# Bulk Modulus (GPa) = 35.05188 47.67794 41.36491
# Shear Modulus (GPa) = 23.82380 39.72169 31.77274
#
# Velocity S-wave (km/s) = 3.14458 4.06042 3.63149
# Velocity P-wave (km/s) = 5.26624 6.46313 5.89514
#
# Compressibility (1/GPa) = 0.02852914
#
# Stress axis : x y z
#
# Youngs Moduli (GPa) = 101.15555 99.29191 80.24927
#
# Poissons Ratio (x) = -0.01343 0.25351
# Poissons Ratio (y) = -0.01368 -0.08661
# Poissons Ratio (z) = 0.31955 -0.10716
#
# Static dielectric constant tensor:
#      x y z
#    x 1.990290 0.000000 0.061320 
#    y 0.000000 1.802030 0.000000 
#    z 0.061320 0.000000 1.936880 
# 
# From -- ./inp_files/86462.got.cif
#   From: 2010.05.17/outbox.cif.g08.bks.cpg/sg10_44_cif.got.tgz:86462.got - 2010.06.03 11:33:40.
