data_PCOD9149776
_publ_section_title
;
Structure prediction by ZEFSAII (Michael W. Deem and Ramdas Pophale) SiO2 
 PCOD9149776
Probable space group: P 2/M
;
_chemical_formula_sum "Si O2"
_cell_formula_units_Z 24
_cell_length_a 10.356091
_cell_length_b 7.535172
_cell_length_c 13.735027
_cell_angle_alpha 90.000000
_cell_angle_beta 77.289272
_cell_angle_gamma 90.000000
_cell_volume 1045.545325
_symmetry_space_group_name_H-M "P 2/M"
_symmetry_group_IT_number 10
_symmetry_cell_setting 'monoclinic'
loop_
_space_group_symop_operation_xyz
x,y,z
-x,y,-z
-x,-y,-z
x,-y,z
loop_
_atom_site_type_symbol
_atom_site_label
_atom_site_fract_x
_atom_site_fract_y
_atom_site_fract_z
Si Si1 0.856230 0.716835 0.557244
Si Si2 0.752130 0.715008 0.783423
Si Si3 0.465339 0.209853 0.899645
Si Si4 0.756777 0.791602 0.206882
Si Si5 0.640696 0.285314 0.435929
Si Si6 0.038250 0.704873 0.098217
O O1 0.856249 0.500000 0.558867
O O2 0.815803 0.775214 0.671626
O O3 0.750936 0.772909 0.494301
O O4 0.000000 0.775715 0.500000
O O5 0.757253 0.500000 0.783839
O O6 0.599454 0.767915 0.816077
O O7 0.840326 0.781403 0.859809
O O8 0.337876 0.281439 0.863447
O O9 0.440439 0.000000 0.916108
O O10 0.500000 0.286311 0.000000
O O11 0.680076 0.770063 0.321020
O O12 0.902680 0.708663 0.182742
O O13 0.777468 0.000000 0.186867
O O14 0.500000 0.223502 0.500000
O O15 0.638179 0.500000 0.435309
O O16 0.074892 0.500000 0.072977
O O17 0.000000 0.786015 0.000000
#
# Coordination Sequence:
#
# PCOD9149776 Si02
#       6
#     4   4   4   4   4   4
#     4   9  17  31  52  77 105 137 173 216 266 317
#     4  10  20  35  58  85 109 139 182 228 272 319
#     4  10  22  39  56  77 109 147 183 220 267 324
#     4  11  23  37  56  82 112 148 185 223 272 328
#     4  10  20  35  56  79 105 141 183 227 274 321
#     4  10  21  37  58  85 114 143 180 228 277 325
#
# _framework density 22.954526999999999
#
# number of rings (size 3 to 8) (size 9 to 14) (size 15 to 20)
#    0.000    2.000    0.000    3.500    0.000    7.000 
#    0.000    0.833    0.000    2.000    0.000    0.000 
#    0.000    0.000    0.000    0.000    0.000    0.000 
#
# Total GULP energy -134212.100505 kJ/mol
# GULP energy per Si atom -5592.170854 kJ/mol
# Density = 2.290228 g / cm^3
# Si number density = 22.954527 Si / 1000 Ang^3
#
#
#
# Elastic Constant Matrix: (Units=GPa)
#
#
# Indices 1 2 3 4 5 6 
#
# 1 98.7321 -3.8073 -15.4190 0.0000 7.7240 0.0000
# 2 -3.8073 62.1620 -3.9694 0.0000 10.0158 0.0000
# 3 -15.4190 -3.9694 67.7633 0.0000 3.0317 0.0000
# 4 0.0000 0.0000 0.0000 17.6251 0.0000 -0.4957
# 5 7.7240 10.0158 3.0317 0.0000 46.9291 0.0000
# 6 0.0000 0.0000 0.0000 -0.4957 0.0000 -15.0660
#
#
#
# Elastic Compliance Matrix: (Units=1/GPa)
#
#
# Indices 1 2 3 4 5 6 
#
# 1 0.010753 0.001178 0.002614 0.000000 -0.002190 0.000000
# 2 0.001178 0.016877 0.001431 0.000000 -0.003888 0.000000
# 3 0.002614 0.001431 0.015514 0.000000 -0.001738 0.000000
# 4 0.000000 0.000000 0.000000 0.056685 0.000000 -0.001865
# 5 -0.002190 -0.003888 -0.001738 0.000000 0.022611 0.000000
# 6 0.000000 0.000000 0.000000 -0.001865 0.000000 -0.066313
#
#
# Mechanical properties :
#
#
# Convention : Reuss Voigt Hill
#
# Bulk Modulus (GPa) = 18.66015 20.25178 19.45596
# Shear Modulus (GPa) = 78.68533 26.68785 52.68659
#
# Velocity S-wave (km/s) = 5.86116 3.41345 4.79608
# Velocity P-wave (km/s) = 7.34514 4.93733 6.25813
#
# Compressibility (1/GPa) = 0.05359014
#
# Stress axis : x y z
#
# Youngs Moduli (GPa) = 92.99368 59.25207 64.45970
#
# Poissons Ratio (x) = -0.06983 -0.16849
# Poissons Ratio (y) = -0.10959 -0.09222
# Poissons Ratio (z) = -0.24307 -0.08477
#
# Static dielectric constant tensor:
#      x y z
#    x 1.797410 0.000000 0.036410 
#    y 0.000000 1.889490 0.000000 
#    z 0.036410 0.000000 1.785920 
# 
# From -- ./inp_files/60211.got.cif
#   From: 2010.05.17/outbox.cif.g08.bks.cpg/sg10_31_cif.got.tgz:60211.got - 2010.06.03 11:33:40.
