data_PCOD9149574
_publ_section_title
;
Structure prediction by ZEFSAII (Michael W. Deem and Ramdas Pophale) SiO2 
 PCOD9149574
Probable space group: P 2/M
;
_chemical_formula_sum "Si O2"
_cell_formula_units_Z 32
_cell_length_a 16.523787
_cell_length_b 8.419557
_cell_length_c 14.621860
_cell_angle_alpha 90.000000
_cell_angle_beta 61.938653
_cell_angle_gamma 90.000000
_cell_volume 1795.100683
_symmetry_space_group_name_H-M "P 2/M"
_symmetry_group_IT_number 10
_symmetry_cell_setting 'monoclinic'
loop_
_space_group_symop_operation_xyz
x,y,z
-x,y,-z
-x,-y,-z
x,-y,z
loop_
_atom_site_type_symbol
_atom_site_label
_atom_site_fract_x
_atom_site_fract_y
_atom_site_fract_z
Si Si1 0.102804 0.809812 0.703586
Si Si2 0.252158 0.806537 0.476849
Si Si3 0.254865 0.691798 0.976276
Si Si4 0.604754 0.192205 0.448679
Si Si5 0.754178 0.309575 0.228125
Si Si6 0.896603 0.690098 0.796955
Si Si7 0.244097 0.192063 0.272562
Si Si8 0.604448 0.808100 0.954309
O O1 0.164051 0.757394 0.583670
O O2 0.156783 0.749178 0.764037
O O3 0.999478 0.750639 0.752132
O O4 0.103717 0.000000 0.704539
O O5 0.341380 0.757890 0.487895
O O6 0.250030 0.751013 0.373706
O O7 0.252231 0.000000 0.474623
O O8 0.255658 0.500000 0.975782
O O9 0.248203 0.746700 0.875394
O O10 0.168216 0.743889 0.084160
O O11 0.345164 0.750408 0.980938
O O12 0.500000 0.247420 0.500000
O O13 0.666244 0.250005 0.331544
O O14 0.604770 0.000000 0.446958
O O15 0.754460 0.500000 0.228237
O O16 0.896996 0.500000 0.795993
O O17 0.846237 0.750785 0.732430
O O18 0.330926 0.243509 0.164674
O O19 0.243472 0.000000 0.273709
O O20 0.603845 0.000000 0.955345
O O21 0.500000 0.752629 0.000000
#
# Coordination Sequence:
#
# PCOD9149574 Si02
#       8
#     4   4   4   4   4   4   4   4
#     4  10  20  35  53  74  99 129 166 205 251 302
#     4   8  16  31  50  71  97 130 165 200 242 295
#     4   9  20  36  52  71 100 137 169 200 247 304
#     4   9  18  33  53  77 104 135 169 205 248 296
#     4  10  20  35  53  74 101 133 169 207 247 292
#     4  10  20  35  52  72  99 129 164 206 251 298
#     4   9  17  32  51  70  97 132 166 200 243 296
#     4   9  18  31  50  77 103 127 163 210 250 286
#
# _framework density 17.826298000000001
#
# number of rings (size 3 to 8) (size 9 to 14) (size 15 to 20)
#    0.000    2.750    0.000    1.875    0.000    4.000 
#    0.000   10.625    0.000    0.000    0.000    0.000 
#    0.000    0.000    0.000    0.000    0.000    0.000 
#
# Total GULP energy -178453.329414 kJ/mol
# GULP energy per Si atom -5576.666544 kJ/mol
# Density = 1.778572 g / cm^3
# Si number density = 17.826298 Si / 1000 Ang^3
#
#
#
# Elastic Constant Matrix: (Units=GPa)
#
#
# Indices 1 2 3 4 5 6 
#
# 1 197.8109 24.2525 127.8998 0.0000 -4.9124 0.0000
# 2 24.2525 13.3273 19.3729 0.0000 1.5053 0.0000
# 3 127.8998 19.3729 129.9519 0.0000 26.1729 0.0000
# 4 0.0000 0.0000 0.0000 21.4145 0.0000 2.7306
# 5 -4.9124 1.5053 26.1729 0.0000 36.4638 0.0000
# 6 0.0000 0.0000 0.0000 2.7306 0.0000 -26.5982
#
#
#
# Elastic Compliance Matrix: (Units=1/GPa)
#
#
# Indices 1 2 3 4 5 6 
#
# 1 0.024396 -0.006730 -0.027735 0.000000 0.023472 0.000000
# 2 -0.006730 0.099369 -0.008395 0.000000 0.001017 0.000000
# 3 -0.027735 -0.008395 0.043166 0.000000 -0.034374 0.000000
# 4 0.000000 0.000000 0.000000 0.046094 0.000000 0.004732
# 5 0.023472 0.001017 -0.034374 0.000000 0.055217 0.000000
# 6 0.000000 0.000000 0.000000 0.004732 0.000000 -0.037111
#
#
# Mechanical properties :
#
#
# Convention : Reuss Voigt Hill
#
# Bulk Modulus (GPa) = 12.31340 76.01560 44.16450
# Shear Modulus (GPa) = 14.53821 17.56034 16.04927
#
# Velocity S-wave (km/s) = 2.85888 3.14200 3.00378
# Velocity P-wave (km/s) = 4.22138 7.47649 6.07116
#
# Compressibility (1/GPa) = 0.08121235
#
# Stress axis : x y z
#
# Youngs Moduli (GPa) = 40.99032 10.06352 23.16616
#
# Poissons Ratio (x) = 0.06773 0.64251
# Poissons Ratio (y) = 0.27587 0.19447
# Poissons Ratio (z) = 1.13686 0.08448
#
# Static dielectric constant tensor:
#      x y z
#    x 1.583400 0.000000 0.001480 
#    y 0.000000 1.614400 0.000000 
#    z 0.001480 0.000000 1.606570 
# 
# From -- ./inp_files/66514.got.cif
#   From: 2010.05.17/outbox.cif.g08.bks.cpg/sg10_34_cif.got.tgz:66514.got - 2010.06.03 11:33:40.
