data_PCOD9149269
_publ_section_title
;
Structure prediction by ZEFSAII (Michael W. Deem and Ramdas Pophale) SiO2 
 PCOD9149269
Probable space group: P 2/M
;
_chemical_formula_sum "Si O2"
_cell_formula_units_Z 30
_cell_length_a 13.678087
_cell_length_b 17.328019
_cell_length_c 6.367770
_cell_angle_alpha 90.000000
_cell_angle_beta 92.126945
_cell_angle_gamma 90.000000
_cell_volume 1508.211805
_symmetry_space_group_name_H-M "P 2/M"
_symmetry_group_IT_number 10
_symmetry_cell_setting 'monoclinic'
loop_
_space_group_symop_operation_xyz
x,y,z
-x,y,-z
-x,-y,-z
x,-y,z
loop_
_atom_site_type_symbol
_atom_site_label
_atom_site_fract_x
_atom_site_fract_y
_atom_site_fract_z
Si Si1 0.636432 0.767954 0.704970
Si Si2 0.811564 0.411009 0.342082
Si Si3 0.500000 0.310943 0.000000
Si Si4 0.725575 0.809045 0.320334
Si Si5 0.584485 0.589279 0.340750
Si Si6 0.104648 0.738791 0.420647
Si Si7 0.801648 0.305213 0.965753
Si Si8 0.381474 0.089293 0.014740
O O1 0.542547 0.741384 0.822205
O O2 0.639969 0.772359 0.456361
O O3 0.715269 0.704538 0.788747
O O4 0.653040 0.853644 0.801392
O O5 0.843997 0.500000 0.368221
O O6 0.698350 0.407046 0.410079
O O7 0.869494 0.344789 0.472807
O O8 0.815377 0.383529 0.097111
O O9 0.576399 0.364984 0.123088
O O10 0.815491 0.802750 0.494609
O O11 0.676962 0.881177 0.197614
O O12 0.766698 0.754948 0.140063
O O13 0.500000 0.614317 0.500000
O O14 0.561632 0.500000 0.296581
O O15 0.108914 0.724290 0.170567
O O16 0.000000 0.762107 0.500000
O O17 0.359510 0.000000 0.054594
O O18 0.500000 0.095465 0.000000
#
# Coordination Sequence:
#
# PCOD9149269 Si02
#       8
#     4   4   2   4   4   4   4   4
#     4  10  20  34  54  84 112 150 194 236 277 326
#     4  10  21  36  53  79 115 153 195 242 295 349
#     4  12  21  32  57  76 108 150 194 242 271 332
#     4   9  21  38  59  83 116 149 192 235 283 334
#     4  10  23  36  51  77 110 154 200 239 282 333
#     4  10  22  39  62  86 111 145 191 246 300 347
#     4   9  19  38  55  80 109 145 190 239 291 343
#     4  10  21  38  57  85 122 159 193 224 271 336
#
# _framework density 19.891105
#
# number of rings (size 3 to 8) (size 9 to 14) (size 15 to 20)
#    0.000    2.133    2.000    0.200    5.600    4.000 
#    0.000    2.000    0.000    0.400    0.000    8.400 
#    0.000    0.000    0.000    0.000    0.000    0.000 
#
# Total GULP energy -167053.791914 kJ/mol
# GULP energy per Si atom -5568.459730 kJ/mol
# Density = 1.984583 g / cm^3
# Si number density = 19.891105 Si / 1000 Ang^3
#
#
#
# Elastic Constant Matrix: (Units=GPa)
#
#
# Indices 1 2 3 4 5 6 
#
# 1 72.4774 13.9932 27.2130 0.0000 -15.5504 0.0000
# 2 13.9932 99.1240 35.6787 0.0000 1.7445 0.0000
# 3 27.2130 35.6787 109.9157 0.0000 -23.4392 0.0000
# 4 0.0000 0.0000 0.0000 20.2918 0.0000 5.5010
# 5 -15.5504 1.7445 -23.4392 0.0000 30.4042 0.0000
# 6 0.0000 0.0000 0.0000 5.5010 0.0000 17.4581
#
#
#
# Elastic Compliance Matrix: (Units=1/GPa)
#
#
# Indices 1 2 3 4 5 6 
#
# 1 0.016369 -0.001703 -0.002027 0.000000 0.006907 0.000000
# 2 -0.001703 0.012068 -0.004582 0.000000 -0.005096 0.000000
# 3 -0.002027 -0.004582 0.013071 0.000000 0.009303 0.000000
# 4 0.000000 0.000000 0.000000 0.053884 0.000000 -0.016979
# 5 0.006907 -0.005096 0.009303 0.000000 0.043887 0.000000
# 6 0.000000 0.000000 0.000000 -0.016979 0.000000 0.062630
#
#
# Mechanical properties :
#
#
# Convention : Reuss Voigt Hill
#
# Bulk Modulus (GPa) = 40.18695 48.36519 44.27607
# Shear Modulus (GPa) = 22.04313 27.27295 24.65804
#
# Velocity S-wave (km/s) = 3.33256 3.70687 3.52469
# Velocity P-wave (km/s) = 5.92075 6.53368 6.23475
#
# Compressibility (1/GPa) = 0.02488370
#
# Stress axis : x y z
#
# Youngs Moduli (GPa) = 61.09023 82.86512 76.50533
#
# Poissons Ratio (x) = 0.14110 0.15508
# Poissons Ratio (y) = 0.10402 0.35057
# Poissons Ratio (z) = 0.12383 0.37972
#
# Static dielectric constant tensor:
#      x y z
#    x 1.799210 0.000000 -0.006470 
#    y 0.000000 1.702760 0.000000 
#    z -0.006470 0.000000 1.765120 
# 
# From -- ./inp_files/9665.got.cif
#   From: 2010.05.17/outbox.cif.g08.bks.cpg/sg10_5_cif.got.tgz:9665.got - 2010.06.03 11:33:40.
