data_PCOD9149556
_publ_section_title
;
Structure prediction by ZEFSAII (Michael W. Deem and Ramdas Pophale) SiO2 
 PCOD9149556
Probable space group: P 2/M
;
_chemical_formula_sum "Si O2"
_cell_formula_units_Z 32
_cell_length_a 5.494123
_cell_length_b 17.311412
_cell_length_c 14.939985
_cell_angle_alpha 90.000000
_cell_angle_beta 84.958399
_cell_angle_gamma 90.000000
_cell_volume 1415.459849
_symmetry_space_group_name_H-M "P 2/M"
_symmetry_group_IT_number 10
_symmetry_cell_setting 'monoclinic'
loop_
_space_group_symop_operation_xyz
x,y,z
-x,y,-z
-x,-y,-z
x,-y,z
loop_
_atom_site_type_symbol
_atom_site_label
_atom_site_fract_x
_atom_site_fract_y
_atom_site_fract_z
Si Si1 0.236442 0.680627 0.050104
Si Si2 0.279212 0.690958 0.716549
Si Si3 0.060123 0.622230 0.404634
Si Si4 0.322576 0.909621 0.292744
Si Si5 0.357093 0.411057 0.215386
Si Si6 0.655375 0.776943 0.585195
Si Si7 0.748252 0.853723 0.016468
Si Si8 0.853194 0.154451 0.216681
O O1 0.214354 0.639793 0.146979
O O2 0.500000 0.657059 0.000000
O O3 0.242929 0.775142 0.044113
O O4 0.000000 0.658515 0.000000
O O5 0.385589 0.633833 0.786333
O O6 0.494130 0.744176 0.671941
O O7 0.095364 0.758796 0.748360
O O8 0.188890 0.637869 0.639472
O O9 0.235118 0.591072 0.319188
O O10 0.165058 0.705466 0.429846
O O11 0.000000 0.581257 0.500000
O O12 0.245868 0.857619 0.381093
O O13 0.611654 0.889950 0.263823
O O14 0.111628 0.888861 0.225415
O O15 0.307095 0.000000 0.310237
O O16 0.377467 0.500000 0.187827
O O17 0.500000 0.786788 0.500000
O O18 0.758136 0.830247 0.119424
O O19 0.500000 0.895381 0.000000
O O20 0.000000 0.899189 0.000000
#
# Coordination Sequence:
#
# PCOD9149556 Si02
#       8
#     4   4   4   4   4   4   4   4
#     4  10  23  42  67  98 136 174 225 288 350 420
#     4  10  21  38  67  89 128 176 233 285 334 398
#     4  11  22  40  69  97 128 180 243 297 339 404
#     4  11  24  41  65 100 140 180 219 273 350 420
#     4  11  27  43  63 100 142 184 228 291 368 427
#     4  10  20  37  62  96 129 169 228 287 340 400
#     4  10  20  34  62  96 124 157 222 284 328 389
#     4  11  22  40  67  97 130 180 227 279 330 407
#
# _framework density 22.607495
#
# number of rings (size 3 to 8) (size 9 to 14) (size 15 to 20)
#    0.000    1.500    2.500    2.625    5.250    1.500 
#    0.000    0.625    0.000   10.125    0.000    0.000 
#    0.000    0.000    0.000    0.000    0.000    0.000 
#
# Total GULP energy -178284.944687 kJ/mol
# GULP energy per Si atom -5571.404521 kJ/mol
# Density = 2.255604 g / cm^3
# Si number density = 22.607495 Si / 1000 Ang^3
#
#
#
# Elastic Constant Matrix: (Units=GPa)
#
#
# Indices 1 2 3 4 5 6 
#
# 1 128.0020 34.8478 25.3453 0.0000 24.2696 0.0000
# 2 34.8478 138.0061 30.3341 0.0000 5.8294 0.0000
# 3 25.3453 30.3341 71.0752 0.0000 20.6799 0.0000
# 4 0.0000 0.0000 0.0000 -9.8339 0.0000 4.3536
# 5 24.2696 5.8294 20.6799 0.0000 45.7865 0.0000
# 6 0.0000 0.0000 0.0000 4.3536 0.0000 28.9503
#
#
#
# Elastic Compliance Matrix: (Units=1/GPa)
#
#
# Indices 1 2 3 4 5 6 
#
# 1 0.009376 -0.001900 -0.001332 0.000000 -0.004126 0.000000
# 2 -0.001900 0.008396 -0.003325 0.000000 0.001440 0.000000
# 3 -0.001332 -0.003325 0.018000 0.000000 -0.007001 0.000000
# 4 0.000000 0.000000 0.000000 -0.095341 0.000000 0.014338
# 5 -0.004126 0.001440 -0.007001 0.000000 0.027006 0.000000
# 6 0.000000 0.000000 0.000000 0.014338 0.000000 0.032386
#
#
# Mechanical properties :
#
#
# Convention : Reuss Voigt Hill
#
# Bulk Modulus (GPa) = 44.13343 57.57085 50.85214
# Shear Modulus (GPa) = 244.02961 29.41763 136.72362
#
# Velocity S-wave (km/s) = 10.40078 3.61117 7.78514
# Velocity P-wave (km/s) = 12.79840 6.55043 10.16629
#
# Compressibility (1/GPa) = 0.02265856
#
# Stress axis : x y z
#
# Youngs Moduli (GPa) = 106.65731 119.10632 55.55452
#
# Poissons Ratio (x) = 0.22636 0.07398
# Poissons Ratio (y) = 0.20270 0.18469
# Poissons Ratio (z) = 0.14204 0.39597
#
# Static dielectric constant tensor:
#      x y z
#    x 1.963450 0.000000 -0.032980 
#    y 0.000000 1.791660 0.000000 
#    z -0.032980 0.000000 1.885880 
# 
# From -- ./inp_files/59424.got.cif
#   From: 2010.05.17/outbox.cif.g08.bks.cpg/sg10_30_cif.got.tgz:59424.got - 2010.06.03 11:33:40.
