data_PCOD9149237
_publ_section_title
;
Structure prediction by ZEFSAII (Michael W. Deem and Ramdas Pophale) SiO2 
 PCOD9149237
Probable space group: P 2/M
;
_chemical_formula_sum "Si O2"
_cell_formula_units_Z 32
_cell_length_a 14.788580
_cell_length_b 7.913111
_cell_length_c 25.328511
_cell_angle_alpha 90.000000
_cell_angle_beta 29.778313
_cell_angle_gamma 90.000000
_cell_volume 1472.074769
_symmetry_space_group_name_H-M "P 2/M"
_symmetry_group_IT_number 10
_symmetry_cell_setting 'monoclinic'
loop_
_space_group_symop_operation_xyz
x,y,z
-x,y,-z
-x,-y,-z
x,-y,z
loop_
_atom_site_type_symbol
_atom_site_label
_atom_site_fract_x
_atom_site_fract_y
_atom_site_fract_z
Si Si1 0.930276 0.798054 0.478519
Si Si2 0.016148 0.701092 0.160075
Si Si3 0.548774 0.695217 0.211658
Si Si4 0.086586 0.199909 0.010766
Si Si5 0.457462 0.197973 0.365343
Si Si6 0.576230 0.293457 0.018298
Si Si7 0.628731 0.795852 0.387118
Si Si8 0.296382 0.704837 0.250995
O O1 0.737403 0.730030 0.555056
O O2 0.000000 0.728611 0.500000
O O3 0.089118 0.762883 0.355758
O O4 0.909788 0.000000 0.495152
O O5 0.026844 0.500000 0.152913
O O6 0.982768 0.764940 0.117310
O O7 0.841098 0.748929 0.283256
O O8 0.215906 0.764773 0.076917
O O9 0.518251 0.500000 0.239261
O O10 0.581656 0.786064 0.250256
O O11 0.380589 0.767572 0.263930
O O12 0.718156 0.711183 0.086521
O O13 0.115182 0.000000 0.991582
O O14 0.000000 0.262002 0.000000
O O15 0.547246 0.269511 0.372626
O O16 0.428622 0.000000 0.390567
O O17 0.579717 0.500000 0.017738
O O18 0.430798 0.238826 0.136380
O O19 0.500000 0.242223 0.000000
O O20 0.500000 0.737105 0.500000
O O21 0.623116 0.000000 0.389417
O O22 0.300713 0.500000 0.249664
#
# Coordination Sequence:
#
# PCOD9149237 Si02
#       8
#     4   4   4   4   4   4   4   4
#     4  10  20  34  54  81 112 151 192 235 285 341
#     4  11  22  39  63  91 119 150 195 247 293 344
#     4  11  21  34  55  85 118 149 189 241 292 344
#     4  11  23  37  56  84 118 158 197 234 290 357
#     4  10  21  38  58  82 115 156 198 238 294 356
#     4   9  19  38  61  85 117 155 190 230 288 352
#     4  10  23  43  63  83 114 157 199 242 290 345
#     4  10  20  35  55  82 114 150 188 231 285 342
#
# _framework density 21.738025
#
# number of rings (size 3 to 8) (size 9 to 14) (size 15 to 20)
#    0.000    1.750    2.500    1.875    0.000    7.000 
#    0.000    0.000    0.000    2.625    0.000    0.000 
#    0.000    0.000    0.000    0.000    0.000    0.000 
#
# Total GULP energy -178703.335223 kJ/mol
# GULP energy per Si atom -5584.479226 kJ/mol
# Density = 2.168855 g / cm^3
# Si number density = 21.738025 Si / 1000 Ang^3
#
#
#
# Elastic Constant Matrix: (Units=GPa)
#
#
# Indices 1 2 3 4 5 6 
#
# 1 94.4385 7.3722 49.6671 0.0000 7.1406 0.0000
# 2 7.3722 28.8624 -1.2480 0.0000 -0.5911 0.0000
# 3 49.6671 -1.2480 143.8129 0.0000 -3.3157 0.0000
# 4 0.0000 0.0000 0.0000 29.2974 0.0000 5.4200
# 5 7.1406 -0.5911 -3.3157 0.0000 31.7695 0.0000
# 6 0.0000 0.0000 0.0000 5.4200 0.0000 -32.2368
#
#
#
# Elastic Compliance Matrix: (Units=1/GPa)
#
#
# Indices 1 2 3 4 5 6 
#
# 1 0.013714 -0.003788 -0.004853 0.000000 -0.003659 0.000000
# 2 -0.003788 0.035721 0.001657 0.000000 0.001689 0.000000
# 3 -0.004853 0.001657 0.008691 0.000000 0.002029 0.000000
# 4 0.000000 0.000000 0.000000 0.033103 0.000000 0.005566
# 5 -0.003659 0.001689 0.002029 0.000000 0.032542 0.000000
# 6 0.000000 0.000000 0.000000 0.005566 0.000000 -0.030085
#
#
# Mechanical properties :
#
#
# Convention : Reuss Voigt Hill
#
# Bulk Modulus (GPa) = 22.64631 42.07739 32.36185
# Shear Modulus (GPa) = 40.85854 19.85419 30.35637
#
# Velocity S-wave (km/s) = 4.34013 3.02543 3.74098
# Velocity P-wave (km/s) = 5.96289 5.62165 5.79478
#
# Compressibility (1/GPa) = 0.04415731
#
# Stress axis : x y z
#
# Youngs Moduli (GPa) = 72.91929 27.99485 115.06409
#
# Poissons Ratio (x) = 0.10604 0.55846
# Poissons Ratio (y) = 0.27620 -0.19067
# Poissons Ratio (z) = 0.35391 -0.04639
#
# Static dielectric constant tensor:
#      x y z
#    x 1.813150 0.000000 -0.021210 
#    y 0.000000 1.782320 0.000000 
#    z -0.021210 0.000000 1.803140 
# 
# From -- ./inp_files/66609.got.cif
#   From: 2010.05.17/outbox.cif.g08.bks.cpg/sg10_34_cif.got.tgz:66609.got - 2010.06.03 11:33:40.
