data_PCOD9149178
_publ_section_title
;
Structure prediction by ZEFSAII (Michael W. Deem and Ramdas Pophale) SiO2 
 PCOD9149178
Probable space group: P 2/M
;
_chemical_formula_sum "Si O2"
_cell_formula_units_Z 20
_cell_length_a 9.138777
_cell_length_b 7.513334
_cell_length_c 26.970180
_cell_angle_alpha 90.000000
_cell_angle_beta 30.462312
_cell_angle_gamma 90.000000
_cell_volume 938.832593
_symmetry_space_group_name_H-M "P 2/M"
_symmetry_group_IT_number 10
_symmetry_cell_setting 'monoclinic'
loop_
_space_group_symop_operation_xyz
x,y,z
-x,y,-z
-x,-y,-z
x,-y,z
loop_
_atom_site_type_symbol
_atom_site_label
_atom_site_fract_x
_atom_site_fract_y
_atom_site_fract_z
Si Si1 0.682810 0.295107 0.099012
Si Si2 0.343623 0.281975 0.292633
Si Si3 0.191502 0.707872 0.494683
Si Si4 0.289106 0.284054 0.717986
Si Si5 0.618028 0.793019 0.913447
O O1 0.732278 0.500000 0.100479
O O2 0.478311 0.219266 0.201734
O O3 0.523371 0.293472 0.093231
O O4 0.000000 0.212863 0.000000
O O5 0.325307 0.500000 0.297966
O O6 0.560105 0.233143 0.274132
O O7 0.022340 0.217631 0.401096
O O8 0.239682 0.500000 0.492724
O O9 0.501077 0.781196 0.387620
O O10 0.000000 0.712936 0.500000
O O11 0.288751 0.500000 0.716582
O O12 0.962387 0.222500 0.810906
O O13 0.533842 0.000000 0.936003
O O14 0.500000 0.719198 0.000000
#
# Coordination Sequence:
#
# PCOD9149178 Si02
#       5
#     4   4   4   4   4
#     4  10  20  34  54  78 100 125 162 207 249 290
#     4   8  14  27  50  80 107 127 156 202 249 289
#     4   7  11  22  45  77 105 127 155 194 241 288
#     4   9  16  30  55  80 100 127 164 204 241 282
#     4  11  24  38  50  68  98 134 167 201 246 298
#
# _framework density 21.303052999999998
#
# number of rings (size 3 to 8) (size 9 to 14) (size 15 to 20)
#    0.000    3.000    0.000    4.200    0.000    3.600 
#    0.000    2.000    0.000   12.600    0.000    0.000 
#    0.000    0.000    0.000    0.000    0.000    0.000 
#
# Total GULP energy -111518.528275 kJ/mol
# GULP energy per Si atom -5575.926414 kJ/mol
# Density = 2.125457 g / cm^3
# Si number density = 21.303053 Si / 1000 Ang^3
#
#
#
# Elastic Constant Matrix: (Units=GPa)
#
#
# Indices 1 2 3 4 5 6 
#
# 1 73.3434 -8.0094 83.6413 0.0000 12.6274 0.0000
# 2 -8.0094 54.6456 -1.4689 0.0000 6.7309 0.0000
# 3 83.6413 -1.4689 239.6908 0.0000 20.2487 0.0000
# 4 0.0000 0.0000 0.0000 -20.7569 0.0000 -50.7810
# 5 12.6274 6.7309 20.2487 0.0000 36.6464 0.0000
# 6 0.0000 0.0000 0.0000 -50.7810 0.0000 12.3417
#
#
#
# Elastic Compliance Matrix: (Units=1/GPa)
#
#
# Indices 1 2 3 4 5 6 
#
# 1 0.023874 0.003847 -0.007922 0.000000 -0.004555 0.000000
# 2 0.003847 0.019385 -0.000851 0.000000 -0.004416 0.000000
# 3 -0.007922 -0.000851 0.007015 0.000000 -0.000990 0.000000
# 4 0.000000 0.000000 0.000000 -0.004353 0.000000 -0.017913
# 5 -0.004555 -0.004416 -0.000990 0.000000 0.030216 0.000000
# 6 0.000000 0.000000 0.000000 -0.017913 0.000000 0.007322
#
#
# Mechanical properties :
#
#
# Convention : Reuss Voigt Hill
#
# Bulk Modulus (GPa) = 24.73909 57.33398 41.03653
# Shear Modulus (GPa) = 46.82383 25.21401 36.01892
#
# Velocity S-wave (km/s) = 4.69336 3.44406 4.11638
# Velocity P-wave (km/s) = 6.40377 6.54120 6.47285
#
# Compressibility (1/GPa) = 0.04042185
#
# Stress axis : x y z
#
# Youngs Moduli (GPa) = 41.88698 51.58709 142.55080
#
# Poissons Ratio (x) = -0.19847 1.12935
# Poissons Ratio (y) = -0.16115 0.12126
# Poissons Ratio (z) = 0.33185 0.04388
#
# Static dielectric constant tensor:
#      x y z
#    x 1.703140 0.000000 0.024220 
#    y 0.000000 1.803040 0.000000 
#    z 0.024220 0.000000 1.815590 
# 
# From -- ./inp_files/26780.got.cif
#   From: 2010.05.17/outbox.cif.g08.bks.cpg/sg10_14_cif.got.tgz:26780.got - 2010.06.03 11:33:40.
