data_PCOD9149872
_publ_section_title
;
Structure prediction by ZEFSAII (Michael W. Deem and Ramdas Pophale) SiO2 
 PCOD9149872
Probable space group: P 2/M
;
_chemical_formula_sum "Si O2"
_cell_formula_units_Z 32
_cell_length_a 15.989763
_cell_length_b 17.322576
_cell_length_c 13.297861
_cell_angle_alpha 90.000000
_cell_angle_beta 26.141582
_cell_angle_gamma 90.000000
_cell_volume 1622.825064
_symmetry_space_group_name_H-M "P 2/M"
_symmetry_group_IT_number 10
_symmetry_cell_setting 'monoclinic'
loop_
_space_group_symop_operation_xyz
x,y,z
-x,y,-z
-x,-y,-z
x,-y,z
loop_
_atom_site_type_symbol
_atom_site_label
_atom_site_fract_x
_atom_site_fract_y
_atom_site_fract_z
Si Si1 0.214520 0.709288 0.745194
Si Si2 0.402665 0.086197 0.214102
Si Si3 0.965659 0.831490 0.422496
Si Si4 0.531951 0.592483 0.078050
Si Si5 0.589708 0.237521 0.269259
Si Si6 0.181906 0.592700 0.605801
Si Si7 0.715326 0.088625 0.051823
Si Si8 0.857013 0.676522 0.830788
O O1 0.320174 0.711804 0.738030
O O2 0.362083 0.759456 0.519261
O O3 0.203542 0.630280 0.693209
O O4 0.000000 0.735902 0.000000
O O5 0.246878 0.152121 0.381903
O O6 0.553262 0.094199 0.140641
O O7 0.314936 0.000000 0.317675
O O8 0.500000 0.089032 0.000000
O O9 0.000000 0.858086 0.500000
O O10 0.020357 0.742006 0.355890
O O11 0.097246 0.880433 0.205467
O O12 0.528311 0.500000 0.077746
O O13 0.363897 0.612712 0.338570
O O14 0.500000 0.623649 0.000000
O O15 0.739592 0.618798 0.888643
O O16 0.659679 0.149402 0.198058
O O17 0.689298 0.274828 0.065760
O O18 0.165698 0.500000 0.628040
O O19 0.995828 0.631001 0.756284
O O20 0.732314 0.000000 0.065168
#
# Coordination Sequence:
#
# PCOD9149872 Si02
#       8
#     4   4   4   4   4   4   4   4
#     4  11  22  43  67  93 125 159 204 266 333 383
#     4  10  20  35  56  85 124 167 210 263 318 371
#     4  11  23  35  56  92 126 168 215 263 315 370
#     4  10  23  43  64  89 130 176 214 258 308 372
#     4  10  23  41  63  93 123 162 204 257 331 385
#     4  11  24  42  68  97 127 165 215 268 319 382
#     4  10  22  40  63  89 126 171 216 265 315 378
#     4  11  23  40  59  93 128 168 211 261 315 379
#
# _framework density 19.718699000000001
#
# number of rings (size 3 to 8) (size 9 to 14) (size 15 to 20)
#    0.000    1.500    3.750    0.750    3.500    0.750 
#    0.000    4.375    0.000    0.750    0.000    0.000 
#    0.000    0.000    0.000    0.000    0.000    0.000 
#
# Total GULP energy -178457.793793 kJ/mol
# GULP energy per Si atom -5576.806056 kJ/mol
# Density = 1.967382 g / cm^3
# Si number density = 19.718699 Si / 1000 Ang^3
#
#
#
# Elastic Constant Matrix: (Units=GPa)
#
#
# Indices 1 2 3 4 5 6 
#
# 1 55.8832 25.2664 14.0904 0.0000 -1.2538 0.0000
# 2 25.2664 77.2630 46.2474 0.0000 -1.2583 0.0000
# 3 14.0904 46.2474 98.8969 0.0000 -10.2318 0.0000
# 4 0.0000 0.0000 0.0000 35.3108 0.0000 -0.3949
# 5 -1.2538 -1.2583 -10.2318 0.0000 23.4236 0.0000
# 6 0.0000 0.0000 0.0000 -0.3949 0.0000 47.1549
#
#
#
# Elastic Compliance Matrix: (Units=1/GPa)
#
#
# Indices 1 2 3 4 5 6 
#
# 1 0.021025 -0.007117 0.000429 0.000000 0.000930 0.000000
# 2 -0.007117 0.020565 -0.008931 0.000000 -0.003178 0.000000
# 3 0.000429 -0.008931 0.014851 0.000000 0.006030 0.000000
# 4 0.000000 0.000000 0.000000 0.028323 0.000000 0.000237
# 5 0.000930 -0.003178 0.006030 0.000000 0.045205 0.000000
# 6 0.000000 0.000000 0.000000 0.000237 0.000000 0.021209
#
#
# Mechanical properties :
#
#
# Convention : Reuss Voigt Hill
#
# Bulk Modulus (GPa) = 39.68051 44.80572 42.24312
# Shear Modulus (GPa) = 26.20316 30.94046 28.57181
#
# Velocity S-wave (km/s) = 3.64929 3.96547 3.81066
# Velocity P-wave (km/s) = 6.15820 6.61350 6.38991
#
# Compressibility (1/GPa) = 0.02520129
#
# Stress axis : x y z
#
# Youngs Moduli (GPa) = 47.56230 48.62737 67.33584
#
# Poissons Ratio (x) = 0.34609 -0.02888
# Poissons Ratio (y) = 0.33851 0.60140
# Poissons Ratio (z) = -0.02040 0.43431
#
# Static dielectric constant tensor:
#      x y z
#    x 1.702970 0.000000 0.018610 
#    y 0.000000 1.691590 0.000000 
#    z 0.018610 0.000000 1.721730 
# 
# From -- ./inp_files/51947.got.cif
#   From: 2010.05.17/outbox.cif.g08.bks.cpg/sg10_26_cif.got.tgz:51947.got - 2010.06.03 11:33:40.
