data_PCOD9149190
_publ_section_title
;
Structure prediction by ZEFSAII (Michael W. Deem and Ramdas Pophale) SiO2 
 PCOD9149190
Probable space group: P 2/M
;
_chemical_formula_sum "Si O2"
_cell_formula_units_Z 28
_cell_length_a 23.245569
_cell_length_b 7.539417
_cell_length_c 17.047386
_cell_angle_alpha 90.000000
_cell_angle_beta 25.373052
_cell_angle_gamma 90.000000
_cell_volume 1280.256307
_symmetry_space_group_name_H-M "P 2/M"
_symmetry_group_IT_number 10
_symmetry_cell_setting 'monoclinic'
loop_
_space_group_symop_operation_xyz
x,y,z
-x,y,-z
-x,-y,-z
x,-y,z
loop_
_atom_site_type_symbol
_atom_site_label
_atom_site_fract_x
_atom_site_fract_y
_atom_site_fract_z
Si Si1 0.157491 0.286730 0.801318
Si Si2 0.336900 0.785048 0.283789
Si Si3 0.361737 0.784690 0.074911
Si Si4 0.353347 0.792593 0.701954
Si Si5 0.898792 0.783391 0.693600
Si Si6 0.878480 0.703958 0.322869
Si Si7 0.141311 0.795661 0.083388
O O1 0.166155 0.500000 0.798528
O O2 0.254754 0.215205 0.748322
O O3 0.192119 0.231514 0.669685
O O4 0.000000 0.237286 0.000000
O O5 0.485738 0.727803 0.126579
O O6 0.223466 0.716566 0.480167
O O7 0.331237 0.000000 0.292447
O O8 0.320101 0.730273 0.214091
O O9 0.363876 0.000000 0.073121
O O10 0.250122 0.732291 0.150839
O O11 0.500000 0.716317 0.500000
O O12 0.375584 0.000000 0.693324
O O13 0.268550 0.715937 0.880152
O O14 0.910487 0.721142 0.769303
O O15 0.000000 0.722540 0.500000
O O16 0.912485 0.000000 0.677030
O O17 0.916421 0.500000 0.261669
O O18 0.016304 0.794939 0.177838
O O19 0.176427 0.000000 0.057341
#
# Coordination Sequence:
#
# PCOD9149190 Si02
#       7
#     4   4   4   4   4   4   4
#     4  10  21  39  59  78 105 146 191 228 268 329
#     4   9  17  31  53  79 105 138 179 220 265 320
#     4   8  15  29  50  77 108 140 177 217 259 316
#     4  10  22  38  57  86 118 143 176 230 292 341
#     4   9  16  27  48  77 106 136 172 214 256 308
#     4  11  22  35  54  79 106 136 180 230 274 319
#     4  10  20  34  54  78 105 140 180 221 271 330
#
# _framework density 21.870621
#
# number of rings (size 3 to 8) (size 9 to 14) (size 15 to 20)
#    0.000    2.429    1.429    2.143    0.000    5.143 
#    0.000    4.286    0.000    4.714    0.000    0.000 
#    0.000    0.000    0.000    0.000    0.000    0.000 
#
# Total GULP energy -156218.022170 kJ/mol
# GULP energy per Si atom -5579.215078 kJ/mol
# Density = 2.182084 g / cm^3
# Si number density = 21.870621 Si / 1000 Ang^3
#
#
#
# Elastic Constant Matrix: (Units=GPa)
#
#
# Indices 1 2 3 4 5 6 
#
# 1 99.6955 -2.0769 47.7507 0.0000 5.8911 0.0000
# 2 -2.0769 50.9974 2.4846 0.0000 4.6454 0.0000
# 3 47.7507 2.4846 146.6847 0.0000 19.5435 0.0000
# 4 0.0000 0.0000 0.0000 12.0616 0.0000 -11.0462
# 5 5.8911 4.6454 19.5435 0.0000 23.1077 0.0000
# 6 0.0000 0.0000 0.0000 -11.0462 0.0000 65.4155
#
#
#
# Elastic Compliance Matrix: (Units=1/GPa)
#
#
# Indices 1 2 3 4 5 6 
#
# 1 0.011907 0.000663 -0.003905 0.000000 0.000134 0.000000
# 2 0.000663 0.020018 0.000004 0.000000 -0.004197 0.000000
# 3 -0.003905 0.000004 0.008966 0.000000 -0.006589 0.000000
# 4 0.000000 0.000000 0.000000 0.098074 0.000000 0.016561
# 5 0.000134 -0.004197 -0.006589 0.000000 0.049658 0.000000
# 6 0.000000 0.000000 0.000000 0.016561 0.000000 0.018083
#
#
# Mechanical properties :
#
#
# Convention : Reuss Voigt Hill
#
# Bulk Modulus (GPa) = 29.05675 43.74381 36.40028
# Shear Modulus (GPa) = 22.25643 36.73157 29.49400
#
# Velocity S-wave (km/s) = 3.19351 4.10261 3.67627
# Velocity P-wave (km/s) = 5.18773 6.51816 5.89063
#
# Compressibility (1/GPa) = 0.03441541
#
# Stress axis : x y z
#
# Youngs Moduli (GPa) = 83.98510 49.95515 111.52792
#
# Poissons Ratio (x) = -0.03312 0.43553
# Poissons Ratio (y) = -0.05568 -0.00048
# Poissons Ratio (z) = 0.32797 -0.00021
#
# Static dielectric constant tensor:
#      x y z
#    x 1.783970 0.000000 0.029390 
#    y 0.000000 1.838980 0.000000 
#    z 0.029390 0.000000 1.807160 
# 
# From -- ./inp_files/70197.got.cif
#   From: 2010.05.17/outbox.cif.g08.bks.cpg/sg10_36_cif.got.tgz:70197.got - 2010.06.03 11:33:40.
