data_PCOD9149071
_publ_section_title
;
Structure prediction by ZEFSAII (Michael W. Deem and Ramdas Pophale) SiO2 
 PCOD9149071
Probable space group: P 2/M
;
_chemical_formula_sum "Si O2"
_cell_formula_units_Z 32
_cell_length_a 21.464926
_cell_length_b 7.768193
_cell_length_c 23.975080
_cell_angle_alpha 90.000000
_cell_angle_beta 155.905650
_cell_angle_gamma 90.000000
_cell_volume 1632.020065
_symmetry_space_group_name_H-M "P 2/M"
_symmetry_group_IT_number 10
_symmetry_cell_setting 'monoclinic'
loop_
_space_group_symop_operation_xyz
x,y,z
-x,y,-z
-x,-y,-z
x,-y,z
loop_
_atom_site_type_symbol
_atom_site_label
_atom_site_fract_x
_atom_site_fract_y
_atom_site_fract_z
Si Si1 0.842690 0.200765 0.907408
Si Si2 0.311903 0.699436 0.945051
Si Si3 0.008570 0.799467 0.268177
Si Si4 0.663589 0.210765 0.657355
Si Si5 0.814211 0.201614 0.270617
Si Si6 0.034207 0.788341 0.163892
Si Si7 0.863800 0.208469 0.513550
Si Si8 0.355649 0.702262 0.758713
O O1 0.713127 0.271840 0.759993
O O2 0.803379 0.000000 0.884434
O O3 0.000000 0.204150 0.000000
O O4 0.896572 0.273144 0.010987
O O5 0.303514 0.500000 0.955026
O O6 0.474194 0.774168 0.095626
O O7 0.164977 0.788120 0.851949
O O8 0.293820 0.710873 0.863438
O O9 0.022937 0.726198 0.218048
O O10 0.109449 0.727385 0.401601
O O11 0.051032 0.000000 0.298096
O O12 0.500000 0.266872 0.500000
O O13 0.803667 0.258606 0.731190
O O14 0.661520 0.000000 0.657606
O O15 0.755965 0.223644 0.285348
O O16 0.986282 0.263367 0.399308
O O17 0.811754 0.000000 0.254965
O O18 0.027371 0.000000 0.157589
O O19 0.716011 0.269148 0.360216
O O20 0.861607 0.000000 0.512428
O O21 0.365086 0.500000 0.778156
#
# Coordination Sequence:
#
# PCOD9149071 Si02
#       8
#     4   4   4   4   4   4   4   4
#     4   7  10  17  30  50  77 109 142 174 211 256
#     4  10  21  35  49  68  94 121 154 196 234 274
#     4   9  18  33  50  67  89 122 162 198 234 276
#     4   8  12  18  31  55  88 120 146 178 223 269
#     4  10  20  34  53  75  96 120 151 187 232 285
#     4   8  13  23  39  57  82 117 153 186 221 269
#     4   9  19  33  47  66  93 122 153 190 231 278
#     4  11  22  33  48  71  95 120 152 191 236 282
#
# _framework density 19.607600999999999
#
# number of rings (size 3 to 8) (size 9 to 14) (size 15 to 20)
#    0.000    3.000    0.000    4.125    0.000    7.500 
#    0.000    1.250    0.000    4.500    0.000    0.000 
#    0.000    5.000    0.000    0.000    0.000    3.125 
#
# Total GULP energy -178311.726516 kJ/mol
# GULP energy per Si atom -5572.241454 kJ/mol
# Density = 1.956297 g / cm^3
# Si number density = 19.607601 Si / 1000 Ang^3
#
#
#
# Elastic Constant Matrix: (Units=GPa)
#
#
# Indices 1 2 3 4 5 6 
#
# 1 79.7771 -3.3562 44.9086 0.0000 -33.3956 0.0000
# 2 -3.3562 24.7580 -1.7108 0.0000 2.6233 0.0000
# 3 44.9086 -1.7108 161.7933 0.0000 -27.6379 0.0000
# 4 0.0000 0.0000 0.0000 9.9425 0.0000 -0.2393
# 5 -33.3956 2.6233 -27.6379 0.0000 19.0905 0.0000
# 6 0.0000 0.0000 0.0000 -0.2393 0.0000 -12.4098
#
#
#
# Elastic Compliance Matrix: (Units=1/GPa)
#
#
# Indices 1 2 3 4 5 6 
#
# 1 0.047189 -0.002502 0.001376 0.000000 0.084884 0.000000
# 2 -0.002502 0.041181 -0.000776 0.000000 -0.011160 0.000000
# 3 0.001376 -0.000776 0.008264 0.000000 0.014477 0.000000
# 4 0.000000 0.000000 0.000000 0.100532 0.000000 -0.001938
# 5 0.084884 -0.011160 0.014477 0.000000 0.223363 0.000000
# 6 0.000000 0.000000 0.000000 -0.001938 0.000000 -0.080544
#
#
# Mechanical properties :
#
#
# Convention : Reuss Voigt Hill
#
# Bulk Modulus (GPa) = 10.77273 38.44572 24.60923
# Shear Modulus (GPa) = 13.34286 18.42376 15.88331
#
# Velocity S-wave (km/s) = 2.61146 3.06865 2.84924
# Velocity P-wave (km/s) = 3.82087 5.67500 4.83760
#
# Compressibility (1/GPa) = 0.09282697
#
# Stress axis : x y z
#
# Youngs Moduli (GPa) = 21.19154 24.28332 121.01234
#
# Poissons Ratio (x) = 0.06076 -0.16646
# Poissons Ratio (y) = 0.05302 0.09395
# Poissons Ratio (z) = -0.02915 0.01885
#
# Static dielectric constant tensor:
#      x y z
#    x 1.669140 0.000000 -0.025580 
#    y 0.000000 1.743350 0.000000 
#    z -0.025580 0.000000 1.713780 
# 
# From -- ./inp_files/90664.got.cif
#   From: 2010.05.17/outbox.cif.g08.bks.cpg/sg10_46_cif.got.tgz:90664.got - 2010.06.03 11:33:40.
