data_PCOD9149046
_publ_section_title
;
Structure prediction by ZEFSAII (Michael W. Deem and Ramdas Pophale) SiO2 
 PCOD9149046
Probable space group: P 2/M
;
_chemical_formula_sum "Si O2"
_cell_formula_units_Z 28
_cell_length_a 10.132550
_cell_length_b 11.356046
_cell_length_c 22.578460
_cell_angle_alpha 90.000000
_cell_angle_beta 32.197730
_cell_angle_gamma 90.000000
_cell_volume 1384.328872
_symmetry_space_group_name_H-M "P 2/M"
_symmetry_group_IT_number 10
_symmetry_cell_setting 'monoclinic'
loop_
_space_group_symop_operation_xyz
x,y,z
-x,y,-z
-x,-y,-z
x,-y,z
loop_
_atom_site_type_symbol
_atom_site_label
_atom_site_fract_x
_atom_site_fract_y
_atom_site_fract_z
Si Si1 0.711730 0.500000 0.092450
Si Si2 0.291471 0.755459 0.873818
Si Si3 0.944413 0.857785 0.429744
Si Si4 0.774377 0.140425 0.370995
Si Si5 0.466630 0.862996 0.926220
Si Si6 0.586370 0.141225 0.665207
Si Si7 0.113249 0.243351 0.151434
Si Si8 0.238394 0.500000 0.066731
O O1 0.610377 0.622313 0.155690
O O2 0.705870 0.500000 0.024006
O O3 0.000000 0.500000 0.000000
O O4 0.422860 0.834262 0.874298
O O5 0.351834 0.800096 0.785209
O O6 0.000000 0.757685 0.000000
O O7 0.943533 0.819566 0.362352
O O8 0.700471 0.819718 0.559116
O O9 0.187931 0.831107 0.374807
O O10 0.929319 0.000000 0.434012
O O11 0.500000 0.161454 0.500000
O O12 0.863256 0.200978 0.277427
O O13 0.800393 0.000000 0.352232
O O14 0.673053 0.782707 0.880032
O O15 0.533196 0.000000 0.908718
O O16 0.214719 0.832299 0.057574
O O17 0.551341 0.000000 0.676441
O O18 0.105268 0.379028 0.135345
O O19 0.500000 0.500000 0.000000
#
# Coordination Sequence:
#
# PCOD9149046 Si02
#       8
#     2   4   4   4   4   4   4   2
#     4  10  22  42  56  75 114 159 198 228 287 347
#     4  11  22  35  54  79 113 148 190 229 282 349
#     4   8  16  32  52  73 103 143 184 217 267 337
#     4  10  20  34  52  78 114 152 184 227 289 351
#     4  11  21  34  55  86 119 145 177 235 301 353
#     4   9  17  31  53  79 104 137 179 229 278 329
#     4  11  21  36  58  83 111 147 194 237 284 338
#     4  12  20  40  65  86 110 153 208 251 281 340
#
# _framework density 20.226406999999998
#
# number of rings (size 3 to 8) (size 9 to 14) (size 15 to 20)
#    0.000    1.857    2.857    3.857    0.000    3.429 
#    0.000    1.786    0.000    2.571    0.000    0.000 
#    0.000    0.000    0.000    0.000    0.000    0.000 
#
# Total GULP energy -156339.237597 kJ/mol
# GULP energy per Si atom -5583.544200 kJ/mol
# Density = 2.018037 g / cm^3
# Si number density = 20.226407 Si / 1000 Ang^3
#
#
#
# Elastic Constant Matrix: (Units=GPa)
#
#
# Indices 1 2 3 4 5 6 
#
# 1 38.0787 -10.3506 -4.3131 0.0000 7.0051 0.0000
# 2 -10.3506 75.4912 22.1179 0.0000 2.7267 0.0000
# 3 -4.3131 22.1179 126.9964 0.0000 17.7723 0.0000
# 4 0.0000 0.0000 0.0000 12.1875 0.0000 -9.3772
# 5 7.0051 2.7267 17.7723 0.0000 27.9405 0.0000
# 6 0.0000 0.0000 0.0000 -9.3772 0.0000 4.3397
#
#
#
# Elastic Compliance Matrix: (Units=1/GPa)
#
#
# Indices 1 2 3 4 5 6 
#
# 1 0.029069 0.003851 0.001525 0.000000 -0.008634 0.000000
# 2 0.003851 0.014470 -0.002258 0.000000 -0.000942 0.000000
# 3 0.001525 -0.002258 0.009157 0.000000 -0.005987 0.000000
# 4 0.000000 0.000000 0.000000 -0.123848 0.000000 -0.267607
# 5 -0.008634 -0.000942 -0.005987 0.000000 0.041855 0.000000
# 6 0.000000 0.000000 0.000000 -0.267607 0.000000 -0.347808
#
#
# Mechanical properties :
#
#
# Convention : Reuss Voigt Hill
#
# Bulk Modulus (GPa) = 16.96866 28.38609 22.67737
# Shear Modulus (GPa) = -13.74770 24.43435 5.34332
#
# Velocity S-wave (km/s) = -2.60992 3.47946 1.62711
# Velocity P-wave (km/s) = 0.82137 5.49607 3.84267
#
# Compressibility (1/GPa) = 0.05893217
#
# Stress axis : x y z
#
# Youngs Moduli (GPa) = 34.40073 69.10854 109.20626
#
# Poissons Ratio (x) = -0.26612 -0.16652
# Poissons Ratio (y) = -0.13247 0.24654
# Poissons Ratio (z) = -0.05246 0.15602
#
# Static dielectric constant tensor:
#      x y z
#    x 1.775470 0.000000 -0.045400 
#    y 0.000000 1.696560 0.000000 
#    z -0.045400 0.000000 1.761700 
# 
# From -- ./inp_files/88848.got.cif
#   From: 2010.05.17/outbox.cif.g08.bks.cpg/sg10_45_cif.got.tgz:88848.got - 2010.06.03 11:33:40.
