data_PCOD9149108
_publ_section_title
;
Structure prediction by ZEFSAII (Michael W. Deem and Ramdas Pophale) SiO2 
 PCOD9149108
Probable space group: P 2/M
;
_chemical_formula_sum "Si O2"
_cell_formula_units_Z 28
_cell_length_a 17.389360
_cell_length_b 7.530357
_cell_length_c 15.425795
_cell_angle_alpha 90.000000
_cell_angle_beta 38.558026
_cell_angle_gamma 90.000000
_cell_volume 1259.066457
_symmetry_space_group_name_H-M "P 2/M"
_symmetry_group_IT_number 10
_symmetry_cell_setting 'monoclinic'
loop_
_space_group_symop_operation_xyz
x,y,z
-x,y,-z
-x,-y,-z
x,-y,z
loop_
_atom_site_type_symbol
_atom_site_label
_atom_site_fract_x
_atom_site_fract_y
_atom_site_fract_z
Si Si1 0.694736 0.714868 0.730014
Si Si2 0.207391 0.710857 0.626650
Si Si3 0.936464 0.716336 0.410718
Si Si4 0.453954 0.203863 0.304502
Si Si5 0.783891 0.717614 0.830113
Si Si6 0.273738 0.298522 0.928494
Si Si7 0.855586 0.716491 0.129076
O O1 0.690147 0.500000 0.732262
O O2 0.826174 0.769904 0.571906
O O3 0.589673 0.775809 0.756648
O O4 0.696786 0.774233 0.827687
O O5 0.186554 0.500000 0.650773
O O6 0.104436 0.777299 0.649353
O O7 0.338600 0.738429 0.464920
O O8 0.198968 0.781370 0.731346
O O9 0.936287 0.500000 0.411434
O O10 0.074309 0.769687 0.312857
O O11 0.579619 0.304404 0.212384
O O12 0.479534 0.000000 0.300033
O O13 0.778408 0.500000 0.835023
O O14 0.750108 0.781889 0.955771
O O15 0.223532 0.500000 0.978763
O O16 0.210607 0.217297 0.899535
O O17 0.843172 0.500000 0.139598
O O18 0.000000 0.757884 0.000000
#
# Coordination Sequence:
#
# PCOD9149108 Si02
#       7
#     4   4   4   4   4   4   4
#     4   9  17  31  53  78 103 132 169 211 255 306
#     4   9  17  32  56  81 106 136 168 205 251 303
#     4   8  13  24  47  79 107 128 159 204 250 299
#     4  11  23  38  52  69  99 137 180 221 256 296
#     4   9  16  27  49  80 107 133 166 207 255 306
#     4  10  20  34  53  77 106 136 169 209 251 301
#     4   9  17  31  56  89 114 130 157 203 256 306
#
# _framework density 22.238699
#
# number of rings (size 3 to 8) (size 9 to 14) (size 15 to 20)
#    0.000    2.714    0.000    3.429    0.000    6.286 
#    0.000    7.143    0.000   15.429    0.000    0.000 
#    0.000    0.000    0.000    0.000    0.000    0.000 
#
# Total GULP energy -156320.906471 kJ/mol
# GULP energy per Si atom -5582.889517 kJ/mol
# Density = 2.218808 g / cm^3
# Si number density = 22.238699 Si / 1000 Ang^3
#
#
#
# Elastic Constant Matrix: (Units=GPa)
#
#
# Indices 1 2 3 4 5 6 
#
# 1 173.9072 -1.1970 66.2709 0.0000 27.9835 0.0000
# 2 -1.1970 30.5701 -10.8629 0.0000 13.2151 0.0000
# 3 66.2709 -10.8629 43.2217 0.0000 23.9721 0.0000
# 4 0.0000 0.0000 0.0000 302.6964 0.0000 -929.9617
# 5 27.9835 13.2151 23.9721 0.0000 41.3535 0.0000
# 6 0.0000 0.0000 0.0000 -929.9617 0.0000 2667.9095
#
#
#
# Elastic Compliance Matrix: (Units=1/GPa)
#
#
# Indices 1 2 3 4 5 6 
#
# 1 0.026269 -0.038515 -0.069162 0.000000 0.034624 0.000000
# 2 -0.038515 0.124746 0.144530 0.000000 -0.097584 0.000000
# 3 -0.069162 0.144530 0.243431 0.000000 -0.140500 0.000000
# 4 0.000000 0.000000 0.000000 -0.046591 0.000000 -0.016240
# 5 0.034624 -0.097584 -0.140500 0.000000 0.113382 0.000000
# 6 0.000000 0.000000 0.000000 -0.016240 0.000000 -0.005286
#
#
# Mechanical properties :
#
#
# Convention : Reuss Voigt Hill
#
# Bulk Modulus (GPa) = 2.13605 39.56902 20.85254
# Shear Modulus (GPa) = 9.28856 615.29108 312.28982
#
# Velocity S-wave (km/s) = 2.04593 16.65162 11.86302
# Velocity P-wave (km/s) = 2.55806 19.68587 14.03704
#
# Compressibility (1/GPa) = 0.46815278
#
# Stress axis : x y z
#
# Youngs Moduli (GPa) = 38.06728 8.01629 4.10793
#
# Poissons Ratio (x) = 0.30875 0.28411
# Poissons Ratio (y) = 1.46618 -0.59372
# Poissons Ratio (z) = 2.63281 -1.15860
#
# Static dielectric constant tensor:
#      x y z
#    x 1.804870 0.000000 0.020260 
#    y 0.000000 1.849760 0.000000 
#    z 0.020260 0.000000 1.824090 
# 
# From -- ./inp_files/68571.got.cif
#   From: 2010.05.17/outbox.cif.g08.bks.cpg/sg10_35_cif.got.tgz:68571.got - 2010.06.03 11:33:40.
