data_PCOD9149437
_publ_section_title
;
Structure prediction by ZEFSAII (Michael W. Deem and Ramdas Pophale) SiO2 
 PCOD9149437
Probable space group: P 2/M
;
_chemical_formula_sum "Si O2"
_cell_formula_units_Z 32
_cell_length_a 12.233643
_cell_length_b 7.605493
_cell_length_c 22.066460
_cell_angle_alpha 90.000000
_cell_angle_beta 42.439451
_cell_angle_gamma 90.000000
_cell_volume 1385.472135
_symmetry_space_group_name_H-M "P 2/M"
_symmetry_group_IT_number 10
_symmetry_cell_setting 'monoclinic'
loop_
_space_group_symop_operation_xyz
x,y,z
-x,y,-z
-x,-y,-z
x,-y,z
loop_
_atom_site_type_symbol
_atom_site_label
_atom_site_fract_x
_atom_site_fract_y
_atom_site_fract_z
Si Si1 0.081476 0.291541 0.171762
Si Si2 0.353068 0.287636 0.967511
Si Si3 0.288788 0.206317 0.198130
Si Si4 0.186447 0.285654 0.912524
Si Si5 0.551571 0.284691 0.545447
Si Si6 0.860444 0.298431 0.482624
Si Si7 0.219601 0.198661 0.355155
Si Si8 0.254333 0.284571 0.748382
O O1 0.074375 0.500000 0.163999
O O2 0.143125 0.267704 0.214946
O O3 0.905414 0.225579 0.223460
O O4 0.222918 0.221430 0.069681
O O5 0.347576 0.500000 0.970736
O O6 0.538155 0.237918 0.903545
O O7 0.295910 0.227618 0.924171
O O8 0.295506 0.281762 0.263690
O O9 0.265223 0.000000 0.216206
O O10 0.188612 0.500000 0.911749
O O11 0.241979 0.228417 0.823299
O O12 0.000000 0.233490 0.000000
O O13 0.500000 0.230920 0.500000
O O14 0.556567 0.500000 0.545015
O O15 0.731295 0.226098 0.488610
O O16 0.417284 0.227392 0.648532
O O17 0.903185 0.500000 0.450773
O O18 0.771954 0.295957 0.584386
O O19 0.027342 0.196390 0.419362
O O20 0.279304 0.000000 0.340257
O O21 0.254962 0.500000 0.747878
#
# Coordination Sequence:
#
# PCOD9149437 Si02
#       8
#     4   4   4   4   4   4   4   4
#     4  10  20  35  57  83 110 144 184 226 275 327
#     4  10  20  34  56  85 113 140 180 231 277 324
#     4  11  25  39  54  77 108 150 192 228 274 327
#     4   9  15  28  51  81 111 139 176 221 272 333
#     4   9  19  32  49  82 121 145 168 213 275 334
#     4  10  20  35  60  89 112 137 180 228 276 328
#     4  10  22  40  58  76 107 149 187 227 278 328
#     4   9  17  30  51  80 113 146 174 214 277 333
#
# _framework density 23.096819
#
# number of rings (size 3 to 8) (size 9 to 14) (size 15 to 20)
#    0.000    2.250    1.250    2.250    3.500    4.000 
#    0.000    0.000    0.000    4.125    0.000    0.000 
#    0.000    0.000    0.000    0.000    0.000    0.000 
#
# Total GULP energy -178829.413372 kJ/mol
# GULP energy per Si atom -5588.419168 kJ/mol
# Density = 2.304425 g / cm^3
# Si number density = 23.096819 Si / 1000 Ang^3
#
#
#
# Elastic Constant Matrix: (Units=GPa)
#
#
# Indices 1 2 3 4 5 6 
#
# 1 83.5423 -3.6182 -23.5477 0.0000 0.9709 0.0000
# 2 -3.6182 50.1656 -2.4519 0.0000 -1.2139 0.0000
# 3 -23.5477 -2.4519 44.0707 0.0000 3.9932 0.0000
# 4 0.0000 0.0000 0.0000 9.8135 0.0000 -5.1987
# 5 0.9709 -1.2139 3.9932 0.0000 25.8518 0.0000
# 6 0.0000 0.0000 0.0000 -5.1987 0.0000 -76.9589
#
#
#
# Elastic Compliance Matrix: (Units=1/GPa)
#
#
# Indices 1 2 3 4 5 6 
#
# 1 0.014261 0.001371 0.007849 0.000000 -0.001684 0.000000
# 2 0.001371 0.020136 0.001797 0.000000 0.000616 0.000000
# 3 0.007849 0.001797 0.027387 0.000000 -0.004441 0.000000
# 4 0.000000 0.000000 0.000000 0.098380 0.000000 -0.006646
# 5 -0.001684 0.000616 -0.004441 0.000000 0.039460 0.000000
# 6 0.000000 0.000000 0.000000 -0.006646 0.000000 -0.012545
#
#
# Mechanical properties :
#
#
# Convention : Reuss Voigt Hill
#
# Bulk Modulus (GPa) = 11.93045 13.17143 12.55094
# Shear Modulus (GPa) = 25.90897 5.56770 15.73834
#
# Velocity S-wave (km/s) = 3.35289 1.55429 2.61321
# Velocity P-wave (km/s) = 4.49064 2.98935 3.81458
#
# Compressibility (1/GPa) = 0.08381912
#
# Stress axis : x y z
#
# Youngs Moduli (GPa) = 70.11984 49.66313 36.51372
#
# Poissons Ratio (x) = -0.06811 -0.28659
# Poissons Ratio (y) = -0.09617 -0.06562
# Poissons Ratio (z) = -0.55036 -0.08925
#
# Static dielectric constant tensor:
#      x y z
#    x 1.833030 0.000000 0.025790 
#    y 0.000000 1.852780 0.000000 
#    z 0.025790 0.000000 1.872580 
# 
# From -- ./inp_files/83587.got.cif
#   From: 2010.05.17/outbox.cif.g08.bks.cpg/sg10_42_cif.got.tgz:83587.got - 2010.06.03 11:33:40.
