data_PCOD9149473
_publ_section_title
;
Structure prediction by ZEFSAII (Michael W. Deem and Ramdas Pophale) SiO2 
 PCOD9149473
Probable space group: P 2/M
;
_chemical_formula_sum "Si O2"
_cell_formula_units_Z 24
_cell_length_a 12.378763
_cell_length_b 7.604376
_cell_length_c 12.137086
_cell_angle_alpha 90.000000
_cell_angle_beta 91.306154
_cell_angle_gamma 90.000000
_cell_volume 1142.200645
_symmetry_space_group_name_H-M "P 2/M"
_symmetry_group_IT_number 10
_symmetry_cell_setting 'monoclinic'
loop_
_space_group_symop_operation_xyz
x,y,z
-x,y,-z
-x,-y,-z
x,-y,z
loop_
_atom_site_type_symbol
_atom_site_label
_atom_site_fract_x
_atom_site_fract_y
_atom_site_fract_z
Si Si1 0.408923 0.215536 0.411852
Si Si2 0.333980 0.702002 0.943138
Si Si3 0.966809 0.786854 0.323393
Si Si4 0.093274 0.705108 0.924479
Si Si5 0.829999 0.785865 0.528491
Si Si6 0.549778 0.202926 0.834589
O O1 0.500000 0.272515 0.500000
O O2 0.290168 0.272785 0.447046
O O3 0.433451 0.272694 0.287707
O O4 0.410168 0.000000 0.411452
O O5 0.327995 0.500000 0.905530
O O6 0.214115 0.781045 0.936880
O O7 0.424885 0.789643 0.869116
O O8 0.381195 0.706421 0.067979
O O9 0.944252 0.716642 0.202245
O O10 0.876533 0.732222 0.410713
O O11 0.081877 0.733048 0.377893
O O12 0.965703 0.000000 0.317701
O O13 0.104578 0.500000 0.957909
O O14 0.000000 0.783072 0.000000
O O15 0.829656 0.000000 0.528147
O O16 0.584696 0.000000 0.836456
#
# Coordination Sequence:
#
# PCOD9149473 Si02
#       6
#     4   4   4   4   4   4
#     4   9  18  30  49  79 113 140 164 208 266 316
#     4  10  21  38  57  74 105 147 178 215 272 321
#     4   9  18  33  57  81 104 137 175 219 262 312
#     4  10  23  39  54  76 107 143 181 220 266 318
#     4   8  16  32  51  78 111 139 168 208 269 321
#     4  10  20  34  57  85 108 135 179 223 258 311
#
# _framework density 21.012070000000001
#
# number of rings (size 3 to 8) (size 9 to 14) (size 15 to 20)
#    0.000    2.667    0.000    3.000    4.667    1.667 
#    0.000    1.667    0.000    4.000    0.000    0.000 
#    0.000    0.000    0.000    0.000    0.000    0.000 
#
# Total GULP energy -133988.124208 kJ/mol
# GULP energy per Si atom -5582.838509 kJ/mol
# Density = 2.096425 g / cm^3
# Si number density = 21.012070 Si / 1000 Ang^3
#
#
#
# Elastic Constant Matrix: (Units=GPa)
#
#
# Indices 1 2 3 4 5 6 
#
# 1 195.9778 -6.6245 104.3221 0.0000 -13.3640 0.0000
# 2 -6.6245 42.9742 -13.3981 0.0000 -1.1684 0.0000
# 3 104.3221 -13.3981 147.4152 0.0000 -12.9431 0.0000
# 4 0.0000 0.0000 0.0000 23.3136 0.0000 3.2743
# 5 -13.3640 -1.1684 -12.9431 0.0000 14.8548 0.0000
# 6 0.0000 0.0000 0.0000 3.2743 0.0000 8.2652
#
#
#
# Elastic Compliance Matrix: (Units=1/GPa)
#
#
# Indices 1 2 3 4 5 6 
#
# 1 0.008281 -0.000428 -0.005683 0.000000 0.002465 0.000000
# 2 -0.000428 0.024203 0.002854 0.000000 0.004005 0.000000
# 3 -0.005683 0.002854 0.011517 0.000000 0.005146 0.000000
# 4 0.000000 0.000000 0.000000 0.045420 0.000000 -0.017993
# 5 0.002465 0.004005 0.005146 0.000000 0.074335 0.000000
# 6 0.000000 0.000000 0.000000 -0.017993 0.000000 0.128118
#
#
# Mechanical properties :
#
#
# Convention : Reuss Voigt Hill
#
# Bulk Modulus (GPa) = 26.67600 61.66295 44.16947
# Shear Modulus (GPa) = 16.08322 29.42457 22.75390
#
# Velocity S-wave (km/s) = 2.76964 3.74620 3.29431
# Velocity P-wave (km/s) = 4.79072 6.93702 5.96126
#
# Compressibility (1/GPa) = 0.03748688
#
# Stress axis : x y z
#
# Youngs Moduli (GPa) = 120.75248 41.31790 86.83128
#
# Poissons Ratio (x) = 0.01769 0.49347
# Poissons Ratio (y) = 0.05171 -0.24785
# Poissons Ratio (z) = 0.68624 -0.11794
#
# Static dielectric constant tensor:
#      x y z
#    x 1.747130 0.000000 -0.013320 
#    y 0.000000 1.773770 0.000000 
#    z -0.013320 0.000000 1.702150 
# 
# From -- ./inp_files/45177.got.cif
#   From: 2010.05.17/outbox.cif.g08.bks.cpg/sg10_23_cif.got.tgz:45177.got - 2010.06.03 11:33:40.
