data_PCOD9149008
_publ_section_title
;
Structure prediction by ZEFSAII (Michael W. Deem and Ramdas Pophale) SiO2 
 PCOD9149008
Probable space group: P 2/M
;
_chemical_formula_sum "Si O2"
_cell_formula_units_Z 28
_cell_length_a 11.815460
_cell_length_b 9.010825
_cell_length_c 18.369664
_cell_angle_alpha 90.000000
_cell_angle_beta 142.565511
_cell_angle_gamma 90.000000
_cell_volume 1188.818699
_symmetry_space_group_name_H-M "P 2/M"
_symmetry_group_IT_number 10
_symmetry_cell_setting 'monoclinic'
loop_
_space_group_symop_operation_xyz
x,y,z
-x,y,-z
-x,-y,-z
x,-y,z
loop_
_atom_site_type_symbol
_atom_site_label
_atom_site_fract_x
_atom_site_fract_y
_atom_site_fract_z
Si Si1 0.239372 0.832399 0.354894
Si Si2 0.640105 0.332632 0.448198
Si Si3 0.403304 0.174977 0.204002
Si Si4 0.127397 0.668931 0.158742
Si Si5 0.192765 0.831406 0.810983
Si Si6 0.697263 0.328626 0.989850
Si Si7 0.941490 0.332642 0.392960
O O1 0.363184 0.777912 0.485285
O O2 0.237599 0.716726 0.287815
O O3 0.023771 0.836406 0.272613
O O4 0.283653 0.000000 0.353436
O O5 0.573087 0.500000 0.429063
O O6 0.544180 0.263223 0.328363
O O7 0.859533 0.346477 0.544331
O O8 0.203111 0.219930 0.136500
O O9 0.433219 0.000000 0.222775
O O10 0.410039 0.234563 0.125477
O O11 0.166479 0.500000 0.155254
O O12 0.912287 0.675847 0.071340
O O13 0.298463 0.740707 0.927626
O O14 0.186581 0.754850 0.728863
O O15 0.260257 0.000000 0.840961
O O16 0.637856 0.500000 0.960875
O O17 0.867583 0.500000 0.369323
O O18 0.000000 0.261624 0.500000
#
# Coordination Sequence:
#
# PCOD9149008 Si02
#       7
#     4   4   4   4   4   4   4
#     4   9  17  31  50  73 102 133 168 211 256 300
#     4  10  20  35  53  74 103 136 169 205 252 308
#     4  12  24  35  49  71 102 138 175 215 257 299
#     4  10  20  34  52  74  99 132 177 220 256 296
#     4   9  17  30  51  79 107 134 165 204 251 299
#     4  10  20  35  54  74 100 136 177 216 252 295
#     4   9  18  34  58  85 108 131 162 202 249 304
#
# _framework density 23.552792
#
# number of rings (size 3 to 8) (size 9 to 14) (size 15 to 20)
#    0.000    2.143    0.000    3.857    0.000    8.286 
#    0.000    2.857    0.000    0.857    0.000    6.000 
#    0.000    0.000    0.000    0.000    0.000    0.000 
#
# Total GULP energy -156631.189420 kJ/mol
# GULP energy per Si atom -5593.971051 kJ/mol
# Density = 2.349918 g / cm^3
# Si number density = 23.552792 Si / 1000 Ang^3
#
#
#
# Elastic Constant Matrix: (Units=GPa)
#
#
# Indices 1 2 3 4 5 6 
#
# 1 54.3222 11.7369 15.9017 0.0000 0.1456 0.0000
# 2 11.7369 165.2657 65.1520 0.0000 -21.0149 0.0000
# 3 15.9017 65.1520 145.1060 0.0000 -38.4591 0.0000
# 4 0.0000 0.0000 0.0000 29.4741 0.0000 -17.0133
# 5 0.1456 -21.0149 -38.4591 0.0000 46.9188 0.0000
# 6 0.0000 0.0000 0.0000 -17.0133 0.0000 -20.7300
#
#
#
# Elastic Compliance Matrix: (Units=1/GPa)
#
#
# Indices 1 2 3 4 5 6 
#
# 1 0.019277 -0.000717 -0.002417 0.000000 -0.002362 0.000000
# 2 -0.000717 0.007400 -0.003021 0.000000 0.000840 0.000000
# 3 -0.002417 -0.003021 0.010420 0.000000 0.007195 0.000000
# 4 0.000000 0.000000 0.000000 0.023022 0.000000 -0.018894
# 5 -0.002362 0.000840 0.007195 0.000000 0.027595 0.000000
# 6 0.000000 0.000000 0.000000 -0.018894 0.000000 -0.032733
#
#
# Mechanical properties :
#
#
# Convention : Reuss Voigt Hill
#
# Bulk Modulus (GPa) = 40.34256 61.14166 50.74211
# Shear Modulus (GPa) = 66.17874 29.25946 47.71910
#
# Velocity S-wave (km/s) = 5.30651 3.52844 4.50605
# Velocity P-wave (km/s) = 7.39670 6.52806 6.97591
#
# Compressibility (1/GPa) = 0.02478772
#
# Stress axis : x y z
#
# Youngs Moduli (GPa) = 51.87447 135.14214 95.96947
#
# Poissons Ratio (x) = 0.09684 0.23193
# Poissons Ratio (y) = 0.03717 0.28995
# Poissons Ratio (z) = 0.12537 0.40829
#
# Static dielectric constant tensor:
#      x y z
#    x 1.974220 0.000000 0.052040 
#    y 0.000000 1.814250 0.000000 
#    z 0.052040 0.000000 1.891560 
# 
# From -- ./inp_files/54665.got.cif
#   From: 2010.05.17/outbox.cif.g08.bks.cpg/sg10_28_cif.got.tgz:54665.got - 2010.06.03 11:33:40.
