data_PCOD9149398
_publ_section_title
;
Structure prediction by ZEFSAII (Michael W. Deem and Ramdas Pophale) SiO2 
 PCOD9149398
Probable space group: P 2/M
;
_chemical_formula_sum "Si O2"
_cell_formula_units_Z 32
_cell_length_a 29.925107
_cell_length_b 9.757602
_cell_length_c 5.420770
_cell_angle_alpha 90.000000
_cell_angle_beta 78.602283
_cell_angle_gamma 90.000000
_cell_volume 1551.634808
_symmetry_space_group_name_H-M "P 2/M"
_symmetry_group_IT_number 10
_symmetry_cell_setting 'monoclinic'
loop_
_space_group_symop_operation_xyz
x,y,z
-x,y,-z
-x,-y,-z
x,-y,z
loop_
_atom_site_type_symbol
_atom_site_label
_atom_site_fract_x
_atom_site_fract_y
_atom_site_fract_z
Si Si1 0.970687 0.157735 0.783977
Si Si2 0.369261 0.167340 0.937849
Si Si3 0.808839 0.348250 0.998633
Si Si4 0.855866 0.847092 0.339129
Si Si5 0.763711 0.848690 0.727263
Si Si6 0.474548 0.832983 0.777301
Si Si7 0.679022 0.164803 0.506076
Si Si8 0.902711 0.652732 0.616779
O O1 0.931787 0.271911 0.795007
O O2 0.000000 0.172256 0.500000
O O3 0.953409 0.000000 0.802924
O O4 0.000000 0.176528 0.000000
O O5 0.421658 0.208002 0.840710
O O6 0.338828 0.214809 0.738275
O O7 0.368185 0.000000 0.943146
O O8 0.350309 0.212605 0.224699
O O9 0.798518 0.500000 0.109161
O O10 0.830687 0.244587 0.167289
O O11 0.766196 0.273245 0.919223
O O12 0.850664 0.364874 0.761333
O O13 0.815766 0.863919 0.584676
O O14 0.898085 0.762602 0.402104
O O15 0.868361 0.000000 0.242597
O O16 0.731123 0.812905 0.534160
O O17 0.748809 0.000000 0.840623
O O18 0.500000 0.787992 0.500000
O O19 0.475348 0.000000 0.774852
O O20 0.500000 0.789449 0.000000
O O21 0.673700 0.000000 0.500396
O O22 0.920136 0.500000 0.535788
#
# Coordination Sequence:
#
# PCOD9149398 Si02
#       8
#     4   4   4   4   4   4   4   4
#     4  10  23  42  63  90 121 154 192 233 280 336
#     4   9  16  25  37  57  84 120 163 215 267 310
#     4  10  21  36  55  80 110 142 179 225 274 326
#     4  10  20  34  56  81 107 140 182 228 275 324
#     4   9  19  33  50  74 100 135 179 225 269 318
#     4   9  15  22  33  49  75 113 161 210 255 310
#     4   9  17  27  42  62  90 121 163 216 264 312
#     4  10  22  39  58  83 114 147 186 230 279 331
#
# _framework density 20.623408000000001
#
# number of rings (size 3 to 8) (size 9 to 14) (size 15 to 20)
#    0.000    2.500    0.000    1.875    3.500    5.500 
#    0.000    0.000    0.000    0.000    0.000    0.000 
#    0.000    0.000    0.000    0.000    0.000   12.500 
#
# Total GULP energy -178373.498786 kJ/mol
# GULP energy per Si atom -5574.171837 kJ/mol
# Density = 2.057647 g / cm^3
# Si number density = 20.623408 Si / 1000 Ang^3
#
#
#
# Elastic Constant Matrix: (Units=GPa)
#
#
# Indices 1 2 3 4 5 6 
#
# 1 90.9906 29.2314 29.7197 0.0000 13.4246 0.0000
# 2 29.2314 113.4294 27.7211 0.0000 27.6931 0.0000
# 3 29.7197 27.7211 91.6276 0.0000 17.2073 0.0000
# 4 0.0000 0.0000 0.0000 -14.7200 0.0000 -25.7581
# 5 13.4246 27.6931 17.2073 0.0000 41.7641 0.0000
# 6 0.0000 0.0000 0.0000 -25.7581 0.0000 -32.3364
#
#
#
# Elastic Compliance Matrix: (Units=1/GPa)
#
#
# Indices 1 2 3 4 5 6 
#
# 1 0.012973 -0.002210 -0.003285 0.000000 -0.001351 0.000000
# 2 -0.002210 0.011256 -0.001539 0.000000 -0.006119 0.000000
# 3 -0.003285 -0.001539 0.013066 0.000000 -0.003307 0.000000
# 4 0.000000 0.000000 0.000000 0.172474 0.000000 -0.137387
# 5 -0.001351 -0.006119 -0.003307 0.000000 0.029798 0.000000
# 6 0.000000 0.000000 0.000000 -0.137387 0.000000 0.078513
#
#
# Mechanical properties :
#
#
# Convention : Reuss Voigt Hill
#
# Bulk Modulus (GPa) = 43.05843 52.15465 47.60654
# Shear Modulus (GPa) = 14.71063 12.89990 13.80526
#
# Velocity S-wave (km/s) = 2.67366 2.50371 2.59008
# Velocity P-wave (km/s) = 5.51861 5.80535 5.66379
#
# Compressibility (1/GPa) = 0.02322426
#
# Stress axis : x y z
#
# Youngs Moduli (GPa) = 77.08553 88.84348 76.53448
#
# Poissons Ratio (x) = 0.19639 0.25144
# Poissons Ratio (y) = 0.17040 0.11781
# Poissons Ratio (z) = 0.25325 0.13675
#
# Static dielectric constant tensor:
#      x y z
#    x 1.754650 0.000000 -0.036380 
#    y 0.000000 1.791200 0.000000 
#    z -0.036380 0.000000 1.805430 
# 
# From -- ./inp_files/13641.got.cif
#   From: 2010.05.17/outbox.cif.g08.bks.cpg/sg10_7_cif.got.tgz:13641.got - 2010.06.03 11:33:40.
