data_PCOD9149631
_publ_section_title
;
Structure prediction by ZEFSAII (Michael W. Deem and Ramdas Pophale) SiO2 
 PCOD9149631
Probable space group: P 2/M
;
_chemical_formula_sum "Si O2"
_cell_formula_units_Z 28
_cell_length_a 16.406922
_cell_length_b 7.544584
_cell_length_c 19.318439
_cell_angle_alpha 90.000000
_cell_angle_beta 150.354812
_cell_angle_gamma 90.000000
_cell_volume 1182.803690
_symmetry_space_group_name_H-M "P 2/M"
_symmetry_group_IT_number 10
_symmetry_cell_setting 'monoclinic'
loop_
_space_group_symop_operation_xyz
x,y,z
-x,y,-z
-x,-y,-z
x,-y,z
loop_
_atom_site_type_symbol
_atom_site_label
_atom_site_fract_x
_atom_site_fract_y
_atom_site_fract_z
Si Si1 0.340810 0.292661 0.922399
Si Si2 0.834750 0.214619 0.339653
Si Si3 0.289562 0.713470 0.487952
Si Si4 0.605265 0.702565 0.649393
Si Si5 0.742500 0.294564 0.988587
Si Si6 0.389008 0.208067 0.704044
Si Si7 0.089624 0.716996 0.205516
O O1 0.378483 0.500000 0.962285
O O2 0.193762 0.278999 0.758755
O O3 0.291507 0.214757 0.960251
O O4 0.500000 0.213824 0.000000
O O5 0.686038 0.276817 0.279608
O O6 0.000000 0.271813 0.500000
O O7 0.834204 0.000000 0.337779
O O8 0.295613 0.500000 0.488304
O O9 0.471311 0.785716 0.601502
O O10 0.264044 0.762234 0.548528
O O11 0.161268 0.768543 0.334184
O O12 0.500000 0.693103 0.500000
O O13 0.635222 0.500000 0.695411
O O14 0.780793 0.781327 0.756817
O O15 0.786181 0.500000 0.032922
O O16 0.900528 0.223348 0.064314
O O17 0.567753 0.288043 0.821864
O O18 0.412938 0.000000 0.729447
O O19 0.099550 0.500000 0.208061
#
# Coordination Sequence:
#
# PCOD9149631 Si02
#       7
#     4   4   4   4   4   4   4
#     4  10  20  35  55  79 104 131 166 209 257 303
#     4  10  23  40  55  73 100 136 175 210 248 301
#     4   9  17  31  55  81 104 132 166 209 259 301
#     4   7  11  24  48  78 105 128 161 206 251 297
#     4  10  20  35  54  77 105 135 169 210 254 302
#     4  11  23  37  51  72 104 139 172 207 251 302
#     4   8  15  29  53  82 105 128 167 213 252 298
#
# _framework density 23.672568999999999
#
# number of rings (size 3 to 8) (size 9 to 14) (size 15 to 20)
#    0.000    2.714    1.429    2.143    2.000    1.714 
#    0.000    1.429    0.000    9.000    0.000    0.000 
#    0.000    0.000    0.000    0.000    0.000    0.000 
#
# Total GULP energy -156230.386173 kJ/mol
# GULP energy per Si atom -5579.656649 kJ/mol
# Density = 2.361869 g / cm^3
# Si number density = 23.672569 Si / 1000 Ang^3
#
#
#
# Elastic Constant Matrix: (Units=GPa)
#
#
# Indices 1 2 3 4 5 6 
#
# 1 23.7688 2.7556 -4.9240 0.0000 7.8274 0.0000
# 2 2.7556 60.6614 -6.4548 0.0000 8.0791 0.0000
# 3 -4.9240 -6.4548 61.1178 0.0000 17.3143 0.0000
# 4 0.0000 0.0000 0.0000 71.7980 0.0000 -65.9256
# 5 7.8274 8.0791 17.3143 0.0000 46.7420 0.0000
# 6 0.0000 0.0000 0.0000 -65.9256 0.0000 88.7393
#
#
#
# Elastic Compliance Matrix: (Units=1/GPa)
#
#
# Indices 1 2 3 4 5 6 
#
# 1 0.046862 -0.000042 0.006695 0.000000 -0.010320 0.000000
# 2 -0.000042 0.017351 0.002991 0.000000 -0.004100 0.000000
# 3 0.006695 0.002991 0.019754 0.000000 -0.008955 0.000000
# 4 0.000000 0.000000 0.000000 0.043819 0.000000 0.032554
# 5 -0.010320 -0.004100 -0.008955 0.000000 0.027148 0.000000
# 6 0.000000 0.000000 0.000000 0.032554 0.000000 0.035454
#
#
# Mechanical properties :
#
#
# Convention : Reuss Voigt Hill
#
# Bulk Modulus (GPa) = 9.68487 14.25576 11.97031
# Shear Modulus (GPa) = 24.32857 51.73395 38.03126
#
# Velocity S-wave (km/s) = 3.20927 4.67989 4.01253
# Velocity P-wave (km/s) = 4.22287 5.93608 5.15120
#
# Compressibility (1/GPa) = 0.10325385
#
# Stress axis : x y z
#
# Youngs Moduli (GPa) = 21.33915 57.63324 50.62263
#
# Poissons Ratio (x) = 0.00242 -0.33890
# Poissons Ratio (y) = 0.00090 -0.15139
# Poissons Ratio (z) = -0.14286 -0.17235
#
# Static dielectric constant tensor:
#      x y z
#    x 1.927170 0.000000 0.049100 
#    y 0.000000 1.904420 0.000000 
#    z 0.049100 0.000000 1.885840 
# 
# From -- ./inp_files/37355.got.cif
#   From: 2010.05.17/outbox.cif.g08.bks.cpg/sg10_19_cif.got.tgz:37355.got - 2010.06.03 11:33:40.
