data_PCOD9149231
_publ_section_title
;
Structure prediction by ZEFSAII (Michael W. Deem and Ramdas Pophale) SiO2 
 PCOD9149231
Probable space group: P 2/M
;
_chemical_formula_sum "Si O2"
_cell_formula_units_Z 22
_cell_length_a 12.294748
_cell_length_b 10.888038
_cell_length_c 14.791412
_cell_angle_alpha 90.000000
_cell_angle_beta 29.144294
_cell_angle_gamma 90.000000
_cell_volume 964.311667
_symmetry_space_group_name_H-M "P 2/M"
_symmetry_group_IT_number 10
_symmetry_cell_setting 'monoclinic'
loop_
_space_group_symop_operation_xyz
x,y,z
-x,y,-z
-x,-y,-z
x,-y,z
loop_
_atom_site_type_symbol
_atom_site_label
_atom_site_fract_x
_atom_site_fract_y
_atom_site_fract_z
Si Si1 0.168473 0.500000 0.656327
Si Si2 0.000000 0.710067 0.500000
Si Si3 0.358485 0.252528 0.822366
Si Si4 0.508781 0.638890 0.889583
Si Si5 0.826643 0.000000 0.332051
Si Si6 0.307920 0.000000 0.774398
Si Si7 0.704290 0.500000 0.229773
Si Si8 0.117927 0.758497 0.609104
O O1 0.434142 0.500000 0.439354
O O2 0.177369 0.500000 0.758646
O O3 0.065045 0.624151 0.688909
O O4 0.768760 0.636901 0.671749
O O5 0.987236 0.779213 0.413546
O O6 0.383604 0.273623 0.910850
O O7 0.256852 0.124224 0.865481
O O8 0.251160 0.373832 0.856131
O O9 0.614161 0.247275 0.600149
O O10 0.422292 0.500000 0.944261
O O11 0.500000 0.676880 0.000000
O O12 0.573465 0.000000 0.557027
O O13 0.806256 0.000000 0.239824
O O14 0.932166 0.126071 0.291352
#
# Coordination Sequence:
#
# PCOD9149231 Si02
#       8
#     2   2   4   4   2   2   2   4
#     4   9  16  23  38  69  94 128 174 218 263 313
#     4  10  21  33  54  78 110 146 174 224 270 312
#     4   9  16  28  45  71 100 136 175 215 265 319
#     4  10  20  34  54  81 109 141 180 220 266 323
#     4   9  16  29  42  71 106 138 178 218 261 325
#     4   9  16  26  47  69 105 142 169 220 275 307
#     4   9  14  24  41  63  99 128 167 224 263 307
#     4   9  18  27  44  69 102 137 177 215 262 316
#
# _framework density 22.8142
#
# number of rings (size 3 to 8) (size 9 to 14) (size 15 to 20)
#    0.000    2.727    0.909    1.364    5.091    4.727 
#    0.000    1.364    0.000    0.000    0.000    7.636 
#    0.000    0.000    0.000    0.000    0.000    0.000 
#
# Total GULP energy -122972.381449 kJ/mol
# GULP energy per Si atom -5589.653702 kJ/mol
# Density = 2.276227 g / cm^3
# Si number density = 22.814200 Si / 1000 Ang^3
#
#
#
# Elastic Constant Matrix: (Units=GPa)
#
#
# Indices 1 2 3 4 5 6 
#
# 1 127.1431 105.8951 50.4930 0.0000 53.1237 0.0000
# 2 105.8951 218.8554 58.8773 0.0000 55.3509 0.0000
# 3 50.4930 58.8773 87.0081 0.0000 11.1294 0.0000
# 4 0.0000 0.0000 0.0000********** 0.0000**********
# 5 53.1237 55.3509 11.1294 0.0000 69.8530 0.0000
# 6 0.0000 0.0000 0.0000********** 0.0000**********
#
#
#
# Elastic Compliance Matrix: (Units=1/GPa)
#
#
# Indices 1 2 3 4 5 6 
#
# 1 0.018015 -0.004840 -0.006041 0.000000 -0.008903 0.000000
# 2 -0.004840 0.008169 -0.002411 0.000000 -0.002408 0.000000
# 3 -0.006041 -0.002411 0.016127 0.000000 0.003935 0.000000
# 4 0.000000 0.000000 0.000000 0.049606 0.000000 -0.052821
# 5 -0.008903 -0.002408 0.003935 0.000000 0.022368 0.000000
# 6 0.000000 0.000000 0.000000 -0.052821 0.000000 0.056243
#
#
# Mechanical properties :
#
#
# Convention : Reuss Voigt Hill
#
# Bulk Modulus (GPa) = 63.58273 95.94860 79.76567
# Shear Modulus (GPa) = 24.70933 -549995.77777 -274985.53422
#
# Velocity S-wave (km/s) = 3.29457 -491.52765 -347.55473
# Velocity P-wave (km/s) = 6.51173 567.53011 401.27797
#
# Compressibility (1/GPa) = 0.01572754
#
# Stress axis : x y z
#
# Youngs Moduli (GPa) = 55.50861 122.41916 62.00862
#
# Poissons Ratio (x) = 0.59252 0.37457
# Poissons Ratio (y) = 0.26867 0.14949
# Poissons Ratio (z) = 0.33531 0.29513
#
# Static dielectric constant tensor:
#      x y z
#    x 1.832730 0.000000 -0.042980 
#    y 0.000000 1.790030 0.000000 
#    z -0.042980 0.000000 1.906120 
# 
# From -- ./inp_files/45886.got.cif
#   From: 2010.05.17/outbox.cif.g08.bks.cpg/sg10_23_cif.got.tgz:45886.got - 2010.06.03 11:33:40.
