data_PCOD9149093
_publ_section_title
;
Structure prediction by ZEFSAII (Michael W. Deem and Ramdas Pophale) SiO2 
 PCOD9149093
Probable space group: P 2/M
;
_chemical_formula_sum "Si O2"
_cell_formula_units_Z 28
_cell_length_a 14.476356
_cell_length_b 22.376735
_cell_length_c 8.652827
_cell_angle_alpha 90.000000
_cell_angle_beta 147.634720
_cell_angle_gamma 90.000000
_cell_volume 1500.456639
_symmetry_space_group_name_H-M "P 2/M"
_symmetry_group_IT_number 10
_symmetry_cell_setting 'monoclinic'
loop_
_space_group_symop_operation_xyz
x,y,z
-x,y,-z
-x,-y,-z
x,-y,z
loop_
_atom_site_type_symbol
_atom_site_label
_atom_site_fract_x
_atom_site_fract_y
_atom_site_fract_z
Si Si1 0.345480 0.375185 0.159998
Si Si2 0.036180 0.615085 0.367770
Si Si3 0.681191 0.290865 0.165152
Si Si4 0.524966 0.500000 0.720337
Si Si5 0.319900 0.847155 0.832797
Si Si6 0.342553 0.069627 0.162381
Si Si7 0.034769 0.066392 0.362390
Si Si8 0.148298 0.500000 0.341138
O O1 0.500000 0.369356 0.500000
O O2 0.374958 0.438100 0.110281
O O3 0.156999 0.376544 0.972168
O O4 0.346532 0.321963 0.039285
O O5 0.000000 0.605940 0.500000
O O6 0.165219 0.671221 0.538292
O O7 0.120680 0.558290 0.406754
O O8 0.730774 0.221680 0.215674
O O9 0.500000 0.294947 0.000000
O O10 0.500000 0.500000 0.500000
O O11 0.339016 0.500000 0.537474
O O12 0.173884 0.882859 0.532117
O O13 0.500000 0.847969 0.000000
O O14 0.346449 0.883685 0.028551
O O15 0.500000 0.078874 0.500000
O O16 0.349709 0.000000 0.117200
O O17 0.154381 0.076190 0.975182
O O18 0.000000 0.066546 0.500000
O O19 0.097722 0.000000 0.410152
O O20 0.000000 0.500000 0.000000
#
# Coordination Sequence:
#
# PCOD9149093 Si02
#       8
#     4   4   4   2   4   4   4   2
#     4  10  20  37  57  79 106 135 176 223 266 322
#     4  10  22  38  57  82 111 142 181 226 277 330
#     4  10  22  38  53  75 107 143 180 220 269 320
#     4  10  20  34  53  79 109 137 169 216 267 321
#     4  10  20  34  53  76 105 141 181 220 260 317
#     4   9  18  33  54  80 108 137 174 221 269 317
#     4   8  15  29  51  76 102 135 173 210 253 311
#     4  12  21  34  60  87 111 143 180 226 280 327
#
# _framework density 18.660986999999999
#
# number of rings (size 3 to 8) (size 9 to 14) (size 15 to 20)
#    0.000    2.286    0.000    4.500    0.000    8.571 
#    0.000    4.286    0.000    6.000    0.000    0.000 
#    0.000    0.000    0.000    0.000    0.000    0.000 
#
# Total GULP energy -156178.916955 kJ/mol
# GULP energy per Si atom -5577.818463 kJ/mol
# Density = 1.861851 g / cm^3
# Si number density = 18.660987 Si / 1000 Ang^3
#
#
#
# Elastic Constant Matrix: (Units=GPa)
#
#
# Indices 1 2 3 4 5 6 
#
# 1 53.8991 54.1463 21.3859 0.0000 21.6802 0.0000
# 2 54.1463 188.9029 74.5058 0.0000 20.2401 0.0000
# 3 21.3859 74.5058 140.2715 0.0000 27.5099 0.0000
# 4 0.0000 0.0000 0.0000 -1.1551 0.0000 18.7187
# 5 21.6802 20.2401 27.5099 0.0000 24.7844 0.0000
# 6 0.0000 0.0000 0.0000 18.7187 0.0000 23.2633
#
#
#
# Elastic Compliance Matrix: (Units=1/GPa)
#
#
# Indices 1 2 3 4 5 6 
#
# 1 0.039620 -0.010116 0.005764 0.000000 -0.032794 0.000000
# 2 -0.010116 0.009354 -0.004683 0.000000 0.006408 0.000000
# 3 0.005764 -0.004683 0.011474 0.000000 -0.013954 0.000000
# 4 0.000000 0.000000 0.000000 -0.061664 0.000000 0.049617
# 5 -0.032794 0.006408 -0.013954 0.000000 0.079290 0.000000
# 6 0.000000 0.000000 0.000000 0.049617 0.000000 0.003062
#
#
# Mechanical properties :
#
#
# Convention : Reuss Voigt Hill
#
# Bulk Modulus (GPa) = 23.59692 75.90551 49.75121
# Shear Modulus (GPa) = 44.11865 24.91421 34.51643
#
# Velocity S-wave (km/s) = 4.86760 3.65786 4.30543
# Velocity P-wave (km/s) = 6.65311 7.65534 7.17175
#
# Compressibility (1/GPa) = 0.04237841
#
# Stress axis : x y z
#
# Youngs Moduli (GPa) = 25.24003 106.90952 87.15289
#
# Poissons Ratio (x) = 1.08152 -0.50238
# Poissons Ratio (y) = 0.25533 0.40811
# Poissons Ratio (z) = -0.14549 0.50062
#
# Static dielectric constant tensor:
#      x y z
#    x 1.637990 0.000000 0.007630 
#    y 0.000000 1.648100 0.000000 
#    z 0.007630 0.000000 1.699190 
# 
# From -- ./inp_files/30533.got.cif
#   From: 2010.05.17/outbox.cif.g08.bks.cpg/sg10_16_cif.got.tgz:30533.got - 2010.06.03 11:33:40.
