data_PCOD9149943
_publ_section_title
;
Structure prediction by ZEFSAII (Michael W. Deem and Ramdas Pophale) SiO2 
 PCOD9149943
Probable space group: P 2/M
;
_chemical_formula_sum "Si O2"
_cell_formula_units_Z 28
_cell_length_a 26.542896
_cell_length_b 7.689553
_cell_length_c 11.169779
_cell_angle_alpha 90.000000
_cell_angle_beta 144.434894
_cell_angle_gamma 90.000000
_cell_volume 1325.986312
_symmetry_space_group_name_H-M "P 2/M"
_symmetry_group_IT_number 10
_symmetry_cell_setting 'monoclinic'
loop_
_space_group_symop_operation_xyz
x,y,z
-x,y,-z
-x,-y,-z
x,-y,z
loop_
_atom_site_type_symbol
_atom_site_label
_atom_site_fract_x
_atom_site_fract_y
_atom_site_fract_z
Si Si1 0.984918 0.199512 0.339750
Si Si2 0.557610 0.788082 0.785778
Si Si3 0.050908 0.203508 0.215207
Si Si4 0.589488 0.210009 0.112526
Si Si5 0.808182 0.703052 0.899801
Si Si6 0.222470 0.293522 0.427539
Si Si7 0.628087 0.210603 0.669012
O O1 0.000000 0.280137 0.500000
O O2 0.026260 0.278027 0.297882
O O3 0.017905 0.000000 0.411232
O O4 0.882783 0.201656 0.116370
O O5 0.457783 0.737075 0.570438
O O6 0.611894 0.733521 0.774685
O O7 0.558539 0.000000 0.787394
O O8 0.591241 0.728210 0.978582
O O9 0.152678 0.217506 0.384575
O O10 0.025590 0.000000 0.171973
O O11 0.000000 0.277679 0.000000
O O12 0.677780 0.257799 0.349559
O O13 0.585642 0.000000 0.104107
O O14 0.500000 0.271554 0.000000
O O15 0.832107 0.500000 0.940987
O O16 0.800645 0.772250 0.749914
O O17 0.715281 0.719968 0.781449
O O18 0.210339 0.500000 0.404598
O O19 0.631706 0.000000 0.673660
#
# Coordination Sequence:
#
# PCOD9149943 Si02
#       7
#     4   4   4   4   4   4   4
#     4  10  22  40  62  87 113 142 181 233 288 334
#     4   8  16  32  54  82 109 140 184 234 283 326
#     4  10  20  38  64  88 110 143 191 239 279 333
#     4  10  20  35  57  84 114 147 189 239 283 328
#     4  11  23  37  54  80 113 146 185 228 276 338
#     4  11  24  38  56  83 115 154 191 230 285 342
#     4   9  17  33  58  80 106 144 186 230 277 333
#
# _framework density 21.116357000000001
#
# number of rings (size 3 to 8) (size 9 to 14) (size 15 to 20)
#    0.000    2.143    1.429    2.571    0.000    5.429 
#    0.000    8.571    0.000    0.000    0.000    0.000 
#    0.000    0.000    0.000    0.000    0.000    0.000 
#
# Total GULP energy -156351.336335 kJ/mol
# GULP energy per Si atom -5583.976298 kJ/mol
# Density = 2.106829 g / cm^3
# Si number density = 21.116357 Si / 1000 Ang^3
#
#
#
# Elastic Constant Matrix: (Units=GPa)
#
#
# Indices 1 2 3 4 5 6 
#
# 1 144.5360 5.5682 70.5918 0.0000 -7.2704 0.0000
# 2 5.5682 41.0631 0.5569 0.0000 -6.8809 0.0000
# 3 70.5918 0.5569 108.1295 0.0000 -17.9101 0.0000
# 4 0.0000 0.0000 0.0000 74.7261 0.0000 56.9567
# 5 -7.2704 -6.8809 -17.9101 0.0000 45.0995 0.0000
# 6 0.0000 0.0000 0.0000 56.9567 0.0000 52.5470
#
#
#
# Elastic Compliance Matrix: (Units=1/GPa)
#
#
# Indices 1 2 3 4 5 6 
#
# 1 0.010298 -0.001525 -0.006935 0.000000 -0.001326 0.000000
# 2 -0.001525 0.025247 0.001566 0.000000 0.004228 0.000000
# 3 -0.006935 0.001566 0.014581 0.000000 0.004911 0.000000
# 4 0.000000 0.000000 0.000000 0.076985 0.000000 -0.083445
# 5 -0.001326 0.004228 0.004911 0.000000 0.024555 0.000000
# 6 0.000000 0.000000 0.000000 -0.083445 0.000000 0.109479
#
#
# Mechanical properties :
#
#
# Convention : Reuss Voigt Hill
#
# Bulk Modulus (GPa) = 27.51943 49.68470 38.60206
# Shear Modulus (GPa) = 17.41899 48.94197 33.18048
#
# Velocity S-wave (km/s) = 2.87523 4.81950 3.96828
# Velocity P-wave (km/s) = 4.90746 7.38581 6.27030
#
# Compressibility (1/GPa) = 0.03633797
#
# Stress axis : x y z
#
# Youngs Moduli (GPa) = 97.11023 39.60909 68.58325
#
# Poissons Ratio (x) = 0.06039 0.47560
# Poissons Ratio (y) = 0.14805 -0.10737
# Poissons Ratio (z) = 0.67342 -0.06201
#
# Static dielectric constant tensor:
#      x y z
#    x 1.767290 0.000000 -0.027420 
#    y 0.000000 1.796280 0.000000 
#    z -0.027420 0.000000 1.720090 
# 
# From -- ./inp_files/57490.got.cif
#   From: 2010.05.17/outbox.cif.g08.bks.cpg/sg10_29_cif.got.tgz:57490.got - 2010.06.03 11:33:40.
