data_PCOD9149487
_publ_section_title
;
Structure prediction by ZEFSAII (Michael W. Deem and Ramdas Pophale) SiO2 
 PCOD9149487
Probable space group: P 2/M
;
_chemical_formula_sum "Si O2"
_cell_formula_units_Z 32
_cell_length_a 29.643070
_cell_length_b 9.521758
_cell_length_c 5.452452
_cell_angle_alpha 90.000000
_cell_angle_beta 102.138769
_cell_angle_gamma 90.000000
_cell_volume 1504.567424
_symmetry_space_group_name_H-M "P 2/M"
_symmetry_group_IT_number 10
_symmetry_cell_setting 'monoclinic'
loop_
_space_group_symop_operation_xyz
x,y,z
-x,y,-z
-x,-y,-z
x,-y,z
loop_
_atom_site_type_symbol
_atom_site_label
_atom_site_fract_x
_atom_site_fract_y
_atom_site_fract_z
Si Si1 0.893520 0.669846 0.859740
Si Si2 0.820901 0.156758 0.037655
Si Si3 0.274927 0.155212 0.330960
Si Si4 0.774927 0.655212 0.330960
Si Si5 0.947372 0.330217 0.424816
Si Si6 0.320901 0.656758 0.037655
Si Si7 0.552628 0.169783 0.575184
Si Si8 0.393520 0.169846 0.859739
O O1 0.885444 0.500000 0.852202
O O2 0.847906 0.761642 0.855622
O O3 0.919090 0.709417 0.636905
O O4 0.924119 0.704601 0.137439
O O5 0.767217 0.136937 0.908474
O O6 0.839653 0.000000 0.106992
O O7 0.817781 0.264691 0.259654
O O8 0.250000 0.249998 0.500001
O O9 0.317781 0.235311 0.259656
O O10 0.287985 0.000000 0.434601
O O11 0.787984 0.500000 0.434605
O O12 0.732783 0.636937 0.091527
O O13 0.949021 0.500000 0.433103
O O14 0.000000 0.278124 0.500000
O O15 0.339653 0.500000 0.106990
O O16 0.347906 0.738359 0.855624
O O17 0.500000 0.221876 0.500000
O O18 0.580910 0.209417 0.363096
O O19 0.550979 0.000000 0.566897
O O20 0.575881 0.204601 0.862562
O O21 0.385444 0.000000 0.852202
#
# Coordination Sequence:
#
# PCOD9149487 Si02
#       8
#     4   4   4   4   4   4   4   4
#     4  10  20  34  57  87 114 149 193 241 289 343
#     4  10  22  38  54  80 114 152 193 238 289 343
#     4  10  21  37  58  81 111 151 193 239 288 341
#     4  10  21  37  58  81 111 151 193 239 288 341
#     4   9  18  34  57  85 115 147 189 241 293 343
#     4  10  22  38  54  80 114 152 193 238 289 343
#     4   9  18  34  57  85 115 147 189 241 293 343
#     4  10  20  34  57  87 114 149 193 241 289 343
#
# _framework density 21.268574000000001
#
# number of rings (size 3 to 8) (size 9 to 14) (size 15 to 20)
#    0.000    2.250    0.000    2.250    3.500    6.000 
#    0.000    0.000    0.000    4.500    0.000    0.000 
#    0.000    0.000    0.000    0.000    0.000    0.000 
#
# Total GULP energy -178448.804208 kJ/mol
# GULP energy per Si atom -5576.525131 kJ/mol
# Density = 2.122017 g / cm^3
# Si number density = 21.268574 Si / 1000 Ang^3
#
#
#
# Elastic Constant Matrix: (Units=GPa)
#
#
# Indices 1 2 3 4 5 6 
#
# 1 107.6535 28.9382 48.4697 0.0000 -16.2639 0.0000
# 2 28.9382 129.3508 30.8586 0.0000 -27.2578 0.0000
# 3 48.4697 30.8586 112.8625 0.0000 -19.9717 0.0000
# 4 0.0000 0.0000 0.0000 12.6710 0.0000 -0.7560
# 5 -16.2639 -27.2578 -19.9717 0.0000 47.0205 0.0000
# 6 0.0000 0.0000 0.0000 -0.7560 0.0000 17.1870
#
#
#
# Elastic Compliance Matrix: (Units=1/GPa)
#
#
# Indices 1 2 3 4 5 6 
#
# 1 0.011876 -0.001278 -0.004493 0.000000 0.001459 0.000000
# 2 -0.001278 0.009229 -0.001196 0.000000 0.004400 0.000000
# 3 -0.004493 -0.001196 0.011590 0.000000 0.002676 0.000000
# 4 0.000000 0.000000 0.000000 0.079128 0.000000 0.003481
# 5 0.001459 0.004400 0.002676 0.000000 0.025459 0.000000
# 6 0.000000 0.000000 0.000000 0.003481 0.000000 0.058337
#
#
# Mechanical properties :
#
#
# Convention : Reuss Voigt Hill
#
# Bulk Modulus (GPa) = 53.29781 62.93332 58.11557
# Shear Modulus (GPa) = 23.16897 31.48240 27.32569
#
# Velocity S-wave (km/s) = 3.30411 3.85155 3.58829
# Velocity P-wave (km/s) = 6.29842 7.03088 6.67470
#
# Compressibility (1/GPa) = 0.01876250
#
# Stress axis : x y z
#
# Youngs Moduli (GPa) = 84.20608 108.34994 86.27960
#
# Poissons Ratio (x) = 0.13843 0.38762
# Poissons Ratio (y) = 0.10758 0.10320
# Poissons Ratio (z) = 0.37831 0.12960
#
# Static dielectric constant tensor:
#      x y z
#    x 1.803630 0.000000 0.076850 
#    y 0.000000 1.844110 0.000000 
#    z 0.076850 0.000000 1.845750 
# 
# From -- ./inp_files/13655.got.cif
#   From: 2010.05.17/outbox.cif.g08.bks.cpg/sg10_7_cif.got.tgz:13655.got - 2010.06.03 11:33:40.
