data_PCOD9149295
_publ_section_title
;
Structure prediction by ZEFSAII (Michael W. Deem and Ramdas Pophale) SiO2 
 PCOD9149295
Probable space group: P 2/M
;
_chemical_formula_sum "Si O2"
_cell_formula_units_Z 28
_cell_length_a 18.149966
_cell_length_b 14.188880
_cell_length_c 9.126321
_cell_angle_alpha 90.000000
_cell_angle_beta 37.968125
_cell_angle_gamma 90.000000
_cell_volume 1445.946514
_symmetry_space_group_name_H-M "P 2/M"
_symmetry_group_IT_number 10
_symmetry_cell_setting 'monoclinic'
loop_
_space_group_symop_operation_xyz
x,y,z
-x,y,-z
-x,-y,-z
x,-y,z
loop_
_atom_site_type_symbol
_atom_site_label
_atom_site_fract_x
_atom_site_fract_y
_atom_site_fract_z
Si Si1 0.873691 0.712559 0.115511
Si Si2 0.245042 0.109120 0.820086
Si Si3 0.991855 0.390996 0.676303
Si Si4 0.140364 0.888994 0.305680
Si Si5 0.669369 0.797760 0.803440
Si Si6 0.451103 0.111032 0.289191
Si Si7 0.750951 0.391595 0.564911
O O1 0.830053 0.817697 0.157526
O O2 0.783177 0.650636 0.354649
O O3 0.000000 0.712399 0.000000
O O4 0.899256 0.665350 0.919803
O O5 0.381073 0.123588 0.551440
O O6 0.215689 0.000000 0.833882
O O7 0.212334 0.125089 0.040719
O O8 0.952886 0.500000 0.730117
O O9 0.122422 0.390402 0.546514
O O10 0.000000 0.353233 0.500000
O O11 0.201685 0.828020 0.336551
O O12 0.000000 0.869968 0.500000
O O13 0.151542 0.000000 0.326878
O O14 0.634342 0.854754 0.710839
O O15 0.668162 0.686905 0.770384
O O16 0.570905 0.829613 0.076330
O O17 0.478179 0.000000 0.229615
O O18 0.709394 0.500000 0.625313
#
# Coordination Sequence:
#
# PCOD9149295 Si02
#       7
#     4   4   4   4   4   4   4
#     4  10  20  34  55  79 116 159 191 239 296 351
#     4  10  22  37  55  84 119 152 193 238 286 354
#     4   9  19  34  56  83 111 151 199 243 291 351
#     4  10  23  38  57  90 127 154 185 236 300 360
#     4  11  21  37  62  85 113 157 196 242 297 337
#     4  10  21  40  63  86 113 151 210 248 276 343
#     4  10  21  36  54  83 115 149 197 249 295 349
#
# _framework density 19.364478999999999
#
# number of rings (size 3 to 8) (size 9 to 14) (size 15 to 20)
#    0.000    2.000    1.429    2.143    6.000    2.571 
#    0.000    3.571    0.000    0.000    0.000    1.000 
#    0.000    0.000    0.000    0.000    0.000    0.000 
#
# Total GULP energy -156304.743135 kJ/mol
# GULP energy per Si atom -5582.312255 kJ/mol
# Density = 1.932041 g / cm^3
# Si number density = 19.364479 Si / 1000 Ang^3
#
#
#
# Elastic Constant Matrix: (Units=GPa)
#
#
# Indices 1 2 3 4 5 6 
#
# 1 54.6006 25.5760 25.2029 0.0000 4.0093 0.0000
# 2 25.5760 142.5295 53.5850 0.0000 2.3862 0.0000
# 3 25.2029 53.5850 109.1696 0.0000 10.9786 0.0000
# 4 0.0000 0.0000 0.0000 24.7198 0.0000 -4.2852
# 5 4.0093 2.3862 10.9786 0.0000 22.7548 0.0000
# 6 0.0000 0.0000 0.0000 -4.2852 0.0000 6.5079
#
#
#
# Elastic Compliance Matrix: (Units=1/GPa)
#
#
# Indices 1 2 3 4 5 6 
#
# 1 0.021218 -0.002457 -0.003513 0.000000 -0.001786 0.000000
# 2 -0.002457 0.008919 -0.003952 0.000000 0.001404 0.000000
# 3 -0.003513 -0.003952 0.012409 0.000000 -0.004954 0.000000
# 4 0.000000 0.000000 0.000000 0.045666 0.000000 0.030069
# 5 -0.001786 0.001404 -0.004954 0.000000 0.046504 0.000000
# 6 0.000000 0.000000 0.000000 0.030069 0.000000 0.173459
#
#
# Mechanical properties :
#
#
# Convention : Reuss Voigt Hill
#
# Bulk Modulus (GPa) = 44.04696 57.22528 50.63612
# Shear Modulus (GPa) = 14.89926 24.25887 19.57907
#
# Velocity S-wave (km/s) = 2.77684 3.54326 3.18320
# Velocity P-wave (km/s) = 5.75124 6.80848 6.30207
#
# Compressibility (1/GPa) = 0.02270304
#
# Stress axis : x y z
#
# Youngs Moduli (GPa) = 47.12904 112.11744 80.58666
#
# Poissons Ratio (x) = 0.27546 0.28309
# Poissons Ratio (y) = 0.11579 0.31847
# Poissons Ratio (z) = 0.16556 0.44308
#
# Static dielectric constant tensor:
#      x y z
#    x 1.673180 0.000000 0.008000 
#    y 0.000000 1.672550 0.000000 
#    z 0.008000 0.000000 1.705270 
# 
# From -- ./inp_files/24884.got.cif
#   From: 2010.05.17/outbox.cif.g08.bks.cpg/sg10_13_cif.got.tgz:24884.got - 2010.06.03 11:33:40.
