data_PCOD9149027
_publ_section_title
;
Structure prediction by ZEFSAII (Michael W. Deem and Ramdas Pophale) SiO2 
 PCOD9149027
Probable space group: P 2/M
;
_chemical_formula_sum "Si O2"
_cell_formula_units_Z 32
_cell_length_a 21.135312
_cell_length_b 10.480703
_cell_length_c 21.343905
_cell_angle_alpha 90.000000
_cell_angle_beta 158.271502
_cell_angle_gamma 90.000000
_cell_volume 1750.329248
_symmetry_space_group_name_H-M "P 2/M"
_symmetry_group_IT_number 10
_symmetry_cell_setting 'monoclinic'
loop_
_space_group_symop_operation_xyz
x,y,z
-x,y,-z
-x,-y,-z
x,-y,z
loop_
_atom_site_type_symbol
_atom_site_label
_atom_site_fract_x
_atom_site_fract_y
_atom_site_fract_z
Si Si1 0.424564 0.847431 0.767202
Si Si2 0.195845 0.848506 0.857519
Si Si3 0.697771 0.643719 0.699082
Si Si4 0.945492 0.845558 0.518318
Si Si5 0.518383 0.651358 0.293702
Si Si6 0.848061 0.860055 0.912354
Si Si7 0.776964 0.647074 0.638178
Si Si8 0.862873 0.259100 0.057957
O O1 0.251977 0.821493 0.646649
O O2 0.431962 0.749471 0.715934
O O3 0.423380 0.000000 0.747936
O O4 0.602276 0.824937 0.967603
O O5 0.070313 0.796644 0.688351
O O6 0.172727 0.000000 0.836745
O O7 0.153373 0.802055 0.888339
O O8 0.500000 0.636424 0.500000
O O9 0.760765 0.500000 0.771984
O O10 0.732484 0.741154 0.786041
O O11 0.781338 0.699211 0.712583
O O12 0.000000 0.797937 0.500000
O O13 0.963511 0.000000 0.533631
O O14 0.554537 0.500000 0.314637
O O15 0.631733 0.694435 0.457600
O O16 0.315289 0.667212 0.116733
O O17 0.888061 0.837542 0.022586
O O18 0.766443 0.000000 0.831380
O O19 0.000000 0.858035 0.000000
O O20 0.731152 0.500000 0.606651
O O21 0.965002 0.658561 0.783255
#
# Coordination Sequence:
#
# PCOD9149027 Si02
#       8
#     4   4   4   4   4   4   4   4
#     4   9  18  33  52  78 112 146 180 217 268 319
#     4   9  18  31  49  75 106 141 179 220 267 317
#     4  10  21  38  57  76 102 138 181 230 282 339
#     4   9  17  30  51  81 114 145 180 220 260 312
#     4  10  21  36  56  82 110 140 184 231 272 325
#     4  11  23  38  54  78 109 141 182 231 283 339
#     4  10  20  34  52  76 102 134 177 226 275 325
#     4  11  20  35  56  76 105 144 180 225 277 331
#
# _framework density 18.282274999999998
#
# number of rings (size 3 to 8) (size 9 to 14) (size 15 to 20)
#    0.000    2.125    1.250    2.250    0.000    3.500 
#    0.000    3.750    0.000    0.375    0.000    3.500 
#    0.000    0.000    0.000    0.000    0.000    0.000 
#
# Total GULP energy -178190.496536 kJ/mol
# GULP energy per Si atom -5568.453017 kJ/mol
# Density = 1.824066 g / cm^3
# Si number density = 18.282275 Si / 1000 Ang^3
#
#
#
# Elastic Constant Matrix: (Units=GPa)
#
#
# Indices 1 2 3 4 5 6 
#
# 1 120.7472 30.0780 68.8036 0.0000 -1.3540 0.0000
# 2 30.0780 53.2436 25.2164 0.0000 2.1919 0.0000
# 3 68.8036 25.2164 100.3159 0.0000 -0.5336 0.0000
# 4 0.0000 0.0000 0.0000 23.1486 0.0000 4.8305
# 5 -1.3540 2.1919 -0.5336 0.0000 24.5265 0.0000
# 6 0.0000 0.0000 0.0000 4.8305 0.0000 41.3394
#
#
#
# Elastic Compliance Matrix: (Units=1/GPa)
#
#
# Indices 1 2 3 4 5 6 
#
# 1 0.014293 -0.003942 -0.008807 0.000000 0.000950 0.000000
# 2 -0.003942 0.022508 -0.002966 0.000000 -0.002294 0.000000
# 3 -0.008807 -0.002966 0.016755 0.000000 0.000143 0.000000
# 4 0.000000 0.000000 0.000000 0.044279 0.000000 -0.005174
# 5 0.000950 -0.002294 0.000143 0.000000 0.041033 0.000000
# 6 0.000000 0.000000 0.000000 -0.005174 0.000000 0.024795
#
#
# Mechanical properties :
#
#
# Convention : Reuss Voigt Hill
#
# Bulk Modulus (GPa) = 45.19730 58.05585 51.62658
# Shear Modulus (GPa) = 24.69531 27.81683 26.25607
#
# Velocity S-wave (km/s) = 3.67928 3.90490 3.79377
# Velocity P-wave (km/s) = 6.54409 7.22185 6.89131
#
# Compressibility (1/GPa) = 0.02212521
#
# Stress axis : x y z
#
# Youngs Moduli (GPa) = 69.96552 44.42906 59.68273
#
# Poissons Ratio (x) = 0.17515 0.52562
# Poissons Ratio (y) = 0.27582 0.17703
# Poissons Ratio (z) = 0.61618 0.13178
#
# Static dielectric constant tensor:
#      x y z
#    x 1.670930 0.000000 0.003400 
#    y 0.000000 1.629940 0.000000 
#    z 0.003400 0.000000 1.656330 
# 
# From -- ./inp_files/86281.got.cif
#   From: 2010.05.17/outbox.cif.g08.bks.cpg/sg10_44_cif.got.tgz:86281.got - 2010.06.03 11:33:40.
