data_PCOD9149651
_publ_section_title
;
Structure prediction by ZEFSAII (Michael W. Deem and Ramdas Pophale) SiO2 
 PCOD9149651
Probable space group: P 2/M
;
_chemical_formula_sum "Si O2"
_cell_formula_units_Z 16
_cell_length_a 10.773289
_cell_length_b 9.526933
_cell_length_c 11.808435
_cell_angle_alpha 90.000000
_cell_angle_beta 44.901290
_cell_angle_gamma 90.000000
_cell_volume 855.518228
_symmetry_space_group_name_H-M "P 2/M"
_symmetry_group_IT_number 10
_symmetry_cell_setting 'monoclinic'
loop_
_space_group_symop_operation_xyz
x,y,z
-x,y,-z
-x,-y,-z
x,-y,z
loop_
_atom_site_type_symbol
_atom_site_label
_atom_site_fract_x
_atom_site_fract_y
_atom_site_fract_z
Si Si1 0.808963 0.240743 0.574197
Si Si2 0.191759 0.000000 0.010325
Si Si3 0.000000 0.750957 0.000000
Si Si4 0.577647 0.000000 0.826107
Si Si5 0.614442 0.500000 0.598076
Si Si6 0.974927 0.000000 0.374604
Si Si7 0.231165 0.500000 0.754220
O O1 0.687708 0.366284 0.616282
O O2 0.000000 0.287430 0.500000
O O3 0.694695 0.138489 0.728552
O O4 0.861618 0.140217 0.434987
O O5 0.112961 0.140874 0.003906
O O6 0.402496 0.000000 0.862431
O O7 0.126447 0.000000 0.184000
O O8 0.879061 0.641438 0.148441
O O9 0.500000 0.000000 0.000000
O O10 0.405334 0.500000 0.719508
O O11 0.701596 0.500000 0.417572
O O12 0.000000 0.000000 0.500000
#
# Coordination Sequence:
#
# PCOD9149651 Si02
#       7
#     4   2   2   2   2   2   2
#     4  10  20  35  54  79 109 140 178 218 267 323
#     4  11  20  35  59  83 107 142 183 224 264 323
#     4  10  22  38  56  80 110 142 182 224 274 322
#     4  11  21  35  56  81 112 142 176 223 274 323
#     4  11  21  36  57  77 104 142 184 224 261 318
#     4   9  18  34  55  80 108 140 177 216 269 320
#     4  10  22  38  54  77 108 143 178 222 275 314
#
# _framework density 18.702114000000002
#
# number of rings (size 3 to 8) (size 9 to 14) (size 15 to 20)
#    0.000    1.750    0.000    7.500    0.000    0.000 
#    0.000    0.625    0.000   12.000    0.000    0.000 
#    0.000    0.000    0.000    0.000    0.000    0.000 
#
# Total GULP energy -89081.465109 kJ/mol
# GULP energy per Si atom -5567.591569 kJ/mol
# Density = 1.865955 g / cm^3
# Si number density = 18.702114 Si / 1000 Ang^3
#
#
#
# Elastic Constant Matrix: (Units=GPa)
#
#
# Indices 1 2 3 4 5 6 
#
# 1 99.5744 49.3523 28.0188 0.0000 -20.3985 0.0000
# 2 49.3523 126.2105 24.7899 0.0000 -6.6050 0.0000
# 3 28.0188 24.7899 85.8621 0.0000 -13.8800 0.0000
# 4 0.0000 0.0000 0.0000 24.5228 0.0000 2.2098
# 5 -20.3985 -6.6050 -13.8800 0.0000 29.0149 0.0000
# 6 0.0000 0.0000 0.0000 2.2098 0.0000 16.1604
#
#
#
# Elastic Compliance Matrix: (Units=1/GPa)
#
#
# Indices 1 2 3 4 5 6 
#
# 1 0.014762 -0.004936 -0.002055 0.000000 0.008271 0.000000
# 2 -0.004936 0.010068 -0.001611 0.000000 -0.001949 0.000000
# 3 -0.002055 -0.001611 0.013536 0.000000 0.004664 0.000000
# 4 0.000000 0.000000 0.000000 0.041287 0.000000 -0.005646
# 5 0.008271 -0.001949 0.004664 0.000000 0.042068 0.000000
# 6 0.000000 0.000000 0.000000 -0.005646 0.000000 0.062652
#
#
# Mechanical properties :
#
#
# Convention : Reuss Voigt Hill
#
# Bulk Modulus (GPa) = 47.25441 57.32990 52.29215
# Shear Modulus (GPa) = 23.96588 27.90536 25.93562
#
# Velocity S-wave (km/s) = 3.58362 3.86696 3.72798
# Velocity P-wave (km/s) = 6.51497 7.11749 6.82288
#
# Compressibility (1/GPa) = 0.02116204
#
# Stress axis : x y z
#
# Youngs Moduli (GPa) = 67.74250 99.32663 73.87559
#
# Poissons Ratio (x) = 0.49026 0.15181
# Poissons Ratio (y) = 0.33437 0.11902
# Poissons Ratio (z) = 0.13921 0.16003
#
# Static dielectric constant tensor:
#      x y z
#    x 1.733590 0.000000 -0.009770 
#    y 0.000000 1.679510 0.000000 
#    z -0.009770 0.000000 1.640230 
# 
# From -- ./inp_files/44534.got.cif
#   From: 2010.05.17/outbox.cif.g08.bks.cpg/sg10_23_cif.got.tgz:44534.got - 2010.06.03 11:33:40.
