data_PCOD9149105
_publ_section_title
;
Structure prediction by ZEFSAII (Michael W. Deem and Ramdas Pophale) SiO2 
 PCOD9149105
Probable space group: P 2/M
;
_chemical_formula_sum "Si O2"
_cell_formula_units_Z 32
_cell_length_a 14.310534
_cell_length_b 8.129251
_cell_length_c 14.338466
_cell_angle_alpha 90.000000
_cell_angle_beta 110.808306
_cell_angle_gamma 90.000000
_cell_volume 1559.250081
_symmetry_space_group_name_H-M "P 2/M"
_symmetry_group_IT_number 10
_symmetry_cell_setting 'monoclinic'
loop_
_space_group_symop_operation_xyz
x,y,z
-x,y,-z
-x,-y,-z
x,-y,z
loop_
_atom_site_type_symbol
_atom_site_label
_atom_site_fract_x
_atom_site_fract_y
_atom_site_fract_z
Si Si1 0.209156 0.693713 0.190083
Si Si2 0.981065 0.190485 0.767976
Si Si3 0.073636 0.199405 0.609367
Si Si4 0.695463 0.698332 0.321988
Si Si5 0.481082 0.699101 0.885367
Si Si6 0.435755 0.314573 0.561622
Si Si7 0.583916 0.814955 0.749906
Si Si8 0.899661 0.313171 0.027402
O O1 0.232075 0.500000 0.194230
O O2 0.114810 0.719328 0.223350
O O3 0.305705 0.794993 0.250433
O O4 0.179988 0.748901 0.074941
O O5 0.021023 0.257793 0.685461
O O6 0.071013 0.207509 0.874022
O O7 0.953625 0.000000 0.748210
O O8 0.188896 0.254454 0.647474
O O9 0.000000 0.252126 0.500000
O O10 0.075100 0.000000 0.610742
O O11 0.688533 0.500000 0.322982
O O12 0.620851 0.749652 0.209243
O O13 0.655804 0.759229 0.410449
O O14 0.483030 0.500000 0.884869
O O15 0.570185 0.770703 0.853206
O O16 0.500000 0.749376 0.000000
O O17 0.500000 0.235201 0.500000
O O18 0.407946 0.500000 0.520505
O O19 0.516865 0.316008 0.672579
O O20 0.547168 0.000000 0.720786
O O21 0.875061 0.500000 0.047774
O O22 0.000000 0.322272 0.000000
#
# Coordination Sequence:
#
# PCOD9149105 Si02
#       8
#     4   4   4   4   4   4   4   4
#     4  10  20  35  54  76 108 147 181 218 269 329
#     4  10  20  34  53  77 104 137 181 231 279 326
#     4  10  23  41  56  74 108 151 188 227 279 333
#     4   9  19  36  59  86 111 139 182 232 276 324
#     4   9  19  38  61  84 114 152 190 229 278 338
#     4   9  19  38  61  83 109 141 179 224 276 333
#     4  11  22  34  52  82 116 145 179 225 275 330
#     4   8  16  31  50  72  99 135 174 212 264 327
#
# _framework density 20.522686
#
# number of rings (size 3 to 8) (size 9 to 14) (size 15 to 20)
#    0.000    2.500    0.000    3.375    0.000    8.500 
#    0.000    6.250    0.000    0.000    0.000    0.000 
#    0.000    0.000    0.000    0.000    0.000    0.000 
#
# Total GULP energy -178161.479456 kJ/mol
# GULP energy per Si atom -5567.546233 kJ/mol
# Density = 2.047598 g / cm^3
# Si number density = 20.522686 Si / 1000 Ang^3
#
#
#
# Elastic Constant Matrix: (Units=GPa)
#
#
# Indices 1 2 3 4 5 6 
#
# 1 114.9174 10.7296 59.7393 0.0000 -6.6939 0.0000
# 2 10.7296 29.4478 9.2524 0.0000 -2.1287 0.0000
# 3 59.7393 9.2524 82.7226 0.0000 -25.6588 0.0000
# 4 0.0000 0.0000 0.0000 13.2419 0.0000 -3.1454
# 5 -6.6939 -2.1287 -25.6588 0.0000 36.5702 0.0000
# 6 0.0000 0.0000 0.0000 -3.1454 0.0000 17.0056
#
#
#
# Elastic Compliance Matrix: (Units=1/GPa)
#
#
# Indices 1 2 3 4 5 6 
#
# 1 0.015063 -0.001985 -0.012573 0.000000 -0.006180 0.000000
# 2 -0.001985 0.035481 -0.002565 0.000000 -0.000098 0.000000
# 3 -0.012573 -0.002565 0.026452 0.000000 0.016109 0.000000
# 4 0.000000 0.000000 0.000000 0.078988 0.000000 0.014610
# 5 -0.006180 -0.000098 0.016109 0.000000 0.037510 0.000000
# 6 0.000000 0.000000 0.000000 0.014610 0.000000 0.061506
#
#
# Mechanical properties :
#
#
# Convention : Reuss Voigt Hill
#
# Bulk Modulus (GPa) = 23.39230 42.94781 33.17006
# Shear Modulus (GPa) = 16.47460 23.18797 19.83129
#
# Velocity S-wave (km/s) = 2.83636 3.36500 3.11193
# Velocity P-wave (km/s) = 4.70633 6.00584 5.39535
#
# Compressibility (1/GPa) = 0.04274911
#
# Stress axis : x y z
#
# Youngs Moduli (GPa) = 66.38647 28.18444 37.80431
#
# Poissons Ratio (x) = 0.05594 0.47532
# Poissons Ratio (y) = 0.13176 0.09699
# Poissons Ratio (z) = 0.83468 0.07231
#
# Static dielectric constant tensor:
#      x y z
#    x 1.794990 0.000000 -0.004550 
#    y 0.000000 1.746720 0.000000 
#    z -0.004550 0.000000 1.764820 
# 
# From -- ./inp_files/66640.got.cif
#   From: 2010.05.17/outbox.cif.g08.bks.cpg/sg10_34_cif.got.tgz:66640.got - 2010.06.03 11:33:40.
