data_PCOD9149982
_publ_section_title
;
Structure prediction by ZEFSAII (Michael W. Deem and Ramdas Pophale) SiO2 
 PCOD9149982
Probable space group: P 2/M
;
_chemical_formula_sum "Si O2"
_cell_formula_units_Z 28
_cell_length_a 15.978367
_cell_length_b 8.007900
_cell_length_c 19.992482
_cell_angle_alpha 90.000000
_cell_angle_beta 149.653372
_cell_angle_gamma 90.000000
_cell_volume 1292.429797
_symmetry_space_group_name_H-M "P 2/M"
_symmetry_group_IT_number 10
_symmetry_cell_setting 'monoclinic'
loop_
_space_group_symop_operation_xyz
x,y,z
-x,y,-z
-x,-y,-z
x,-y,z
loop_
_atom_site_type_symbol
_atom_site_label
_atom_site_fract_x
_atom_site_fract_y
_atom_site_fract_z
Si Si1 0.382545 0.798272 0.358266
Si Si2 0.431448 0.194437 0.791575
Si Si3 0.212780 0.694274 0.955693
Si Si4 0.889794 0.694704 0.360982
Si Si5 0.036015 0.807085 0.325778
Si Si6 0.013444 0.700829 0.084546
Si Si7 0.403954 0.796185 0.618899
O O1 0.500000 0.741808 0.500000
O O2 0.194405 0.742480 0.237178
O O3 0.457518 0.740697 0.338647
O O4 0.385030 0.000000 0.359928
O O5 0.299263 0.285408 0.746920
O O6 0.425960 0.258698 0.710831
O O7 0.383819 0.000000 0.757522
O O8 0.618457 0.213506 0.945638
O O9 0.254992 0.500000 0.993617
O O10 0.071438 0.710762 0.802572
O O11 0.132052 0.764108 0.968032
O O12 0.927270 0.500000 0.374159
O O13 0.941711 0.793871 0.331283
O O14 0.000000 0.751132 0.500000
O O15 0.223085 0.745614 0.466992
O O16 0.046282 0.000000 0.311182
O O17 0.997991 0.500000 0.072377
O O18 0.000000 0.766368 0.000000
O O19 0.406693 0.000000 0.621842
#
# Coordination Sequence:
#
# PCOD9149982 Si02
#       7
#     4   4   4   4   4   4   4
#     4  10  20  35  57  86 119 153 196 248 300 351
#     4  11  22  39  63  89 118 156 204 248 295 354
#     4  11  24  41  59  87 125 160 200 251 305 357
#     4  11  23  40  63  93 126 157 194 240 298 358
#     4  11  22  40  65  90 121 160 201 247 300 356
#     4  10  22  40  60  84 119 162 204 246 296 357
#     4   9  19  35  58  88 118 151 196 251 299 348
#
# _framework density 21.664618999999998
#
# number of rings (size 3 to 8) (size 9 to 14) (size 15 to 20)
#    0.000    1.571    1.429    3.429    0.000    4.000 
#    0.000    5.000    0.000    0.000    0.000    0.000 
#    0.000    0.000    0.000    0.000    0.000    0.000 
#
# Total GULP energy -156594.996466 kJ/mol
# GULP energy per Si atom -5592.678445 kJ/mol
# Density = 2.161531 g / cm^3
# Si number density = 21.664619 Si / 1000 Ang^3
#
#
#
# Elastic Constant Matrix: (Units=GPa)
#
#
# Indices 1 2 3 4 5 6 
#
# 1 50.6508 -2.9644 -15.0549 0.0000 16.6542 0.0000
# 2 -2.9644 24.7401 -6.9024 0.0000 -1.9036 0.0000
# 3 -15.0549 -6.9024 63.3901 0.0000 13.5438 0.0000
# 4 0.0000 0.0000 0.0000 24.7977 0.0000 15.0272
# 5 16.6542 -1.9036 13.5438 0.0000 39.3378 0.0000
# 6 0.0000 0.0000 0.0000 15.0272 0.0000 -9.2627
#
#
#
# Elastic Compliance Matrix: (Units=1/GPa)
#
#
# Indices 1 2 3 4 5 6 
#
# 1 0.028213 0.005141 0.010534 0.000000 -0.015322 0.000000
# 2 0.005141 0.042632 0.006355 0.000000 -0.002301 0.000000
# 3 0.010534 0.006355 0.021433 0.000000 -0.011531 0.000000
# 4 0.000000 0.000000 0.000000 0.020335 0.000000 0.032990
# 5 -0.015322 -0.002301 -0.011531 0.000000 0.035767 0.000000
# 6 0.000000 0.000000 0.000000 0.032990 0.000000 -0.054439
#
#
# Mechanical properties :
#
#
# Convention : Reuss Voigt Hill
#
# Bulk Modulus (GPa) = 7.33482 9.88195 8.60839
# Shear Modulus (GPa) = 52.45111 21.88809 37.16960
#
# Velocity S-wave (km/s) = 4.92575 3.18199 4.14657
# Velocity P-wave (km/s) = 5.97860 4.25104 5.18725
#
# Compressibility (1/GPa) = 0.13633600
#
# Stress axis : x y z
#
# Youngs Moduli (GPa) = 35.44469 23.45653 46.65745
#
# Poissons Ratio (x) = -0.12058 -0.49149
# Poissons Ratio (y) = -0.18220 -0.29649
# Poissons Ratio (z) = -0.37337 -0.14906
#
# Static dielectric constant tensor:
#      x y z
#    x 1.778400 0.000000 -0.021570 
#    y 0.000000 1.767090 0.000000 
#    z -0.021570 0.000000 1.763060 
# 
# From -- ./inp_files/84981.got.cif
#   From: 2010.05.17/outbox.cif.g08.bks.cpg/sg10_43_cif.got.tgz:84981.got - 2010.06.03 11:33:40.
