data_PCOD9149908
_publ_section_title
;
Structure prediction by ZEFSAII (Michael W. Deem and Ramdas Pophale) SiO2 
 PCOD9149908
Probable space group: P 2/M
;
_chemical_formula_sum "Si O2"
_cell_formula_units_Z 24
_cell_length_a 13.565797
_cell_length_b 7.532767
_cell_length_c 10.349208
_cell_angle_alpha 90.000000
_cell_angle_beta 80.871310
_cell_angle_gamma 90.000000
_cell_volume 1044.170143
_symmetry_space_group_name_H-M "P 2/M"
_symmetry_group_IT_number 10
_symmetry_cell_setting 'monoclinic'
loop_
_space_group_symop_operation_xyz
x,y,z
-x,y,-z
-x,-y,-z
x,-y,z
loop_
_atom_site_type_symbol
_atom_site_label
_atom_site_fract_x
_atom_site_fract_y
_atom_site_fract_z
Si Si1 0.557136 0.716819 0.859463
Si Si2 0.898189 0.210387 0.083617
Si Si3 0.205622 0.208026 0.637588
Si Si4 0.435378 0.285130 0.635863
Si Si5 0.782514 0.714910 0.853914
Si Si6 0.903230 0.295666 0.588642
O O1 0.559060 0.500000 0.856163
O O2 0.493510 0.776237 0.750495
O O3 0.671736 0.775755 0.839942
O O4 0.500000 0.770921 0.000000
O O5 0.861945 0.280682 0.229979
O O6 0.913265 0.000000 0.099121
O O7 0.814217 0.234876 0.991561
O O8 0.000000 0.284974 0.000000
O O9 0.321036 0.227781 0.650804
O O10 0.181053 0.293477 0.504752
O O11 0.183918 0.000000 0.627113
O O12 0.500000 0.226900 0.500000
O O13 0.434013 0.500000 0.637080
O O14 0.782401 0.500000 0.847692
O O15 0.861386 0.782027 0.730419
O O16 0.929735 0.500000 0.613369
O O17 0.000000 0.212987 0.500000
#
# Coordination Sequence:
#
# PCOD9149908 Si02
#       6
#     4   4   4   4   4   4
#     4   9  17  30  50  76 103 132 169 215 266 318
#     4  10  22  39  56  78 112 151 188 226 273 331
#     4  11  23  37  56  83 114 149 188 230 278 333
#     4  10  20  36  58  80 107 145 184 226 277 329
#     4  10  20  35  57  83 107 136 181 231 276 325
#     4  10  21  37  57  82 111 143 184 233 280 330
#
# _framework density 22.984760000000001
#
# number of rings (size 3 to 8) (size 9 to 14) (size 15 to 20)
#    0.000    2.000    0.000    3.500    0.000    7.000 
#    0.000    0.833    0.000    3.000    0.000    0.000 
#    0.000    0.000    0.000    0.000    0.000    0.000 
#
# Total GULP energy -134214.941564 kJ/mol
# GULP energy per Si atom -5592.289232 kJ/mol
# Density = 2.293245 g / cm^3
# Si number density = 22.984760 Si / 1000 Ang^3
#
#
#
# Elastic Constant Matrix: (Units=GPa)
#
#
# Indices 1 2 3 4 5 6 
#
# 1 68.7155 -6.1704 -15.1725 0.0000 -1.0687 0.0000
# 2 -6.1704 63.0499 -0.3114 0.0000 -8.8779 0.0000
# 3 -15.1725 -0.3114 102.2272 0.0000 -3.4441 0.0000
# 4 0.0000 0.0000 0.0000 40.9815 0.0000 -55.9455
# 5 -1.0687 -8.8779 -3.4441 0.0000 45.9491 0.0000
# 6 0.0000 0.0000 0.0000 -55.9455 0.0000 99.8024
#
#
#
# Elastic Compliance Matrix: (Units=1/GPa)
#
#
# Indices 1 2 3 4 5 6 
#
# 1 0.015217 0.001619 0.002292 0.000000 0.000838 0.000000
# 2 0.001619 0.016479 0.000400 0.000000 0.003251 0.000000
# 3 0.002292 0.000400 0.010154 0.000000 0.000892 0.000000
# 4 0.000000 0.000000 0.000000 0.103944 0.000000 0.058267
# 5 0.000838 0.003251 0.000892 0.000000 0.022478 0.000000
# 6 0.000000 0.000000 0.000000 0.058267 0.000000 0.042682
#
#
# Mechanical properties :
#
#
# Convention : Reuss Voigt Hill
#
# Bulk Modulus (GPa) = 19.81380 21.18712 20.50046
# Shear Modulus (GPa) = 22.81480 54.38972 38.60226
#
# Velocity S-wave (km/s) = 3.15398 4.86978 4.10258
# Velocity P-wave (km/s) = 4.68002 6.39199 5.60179
#
# Compressibility (1/GPa) = 0.05046987
#
# Stress axis : x y z
#
# Youngs Moduli (GPa) = 65.71535 60.68454 98.48798
#
# Poissons Ratio (x) = -0.09822 -0.22571
# Poissons Ratio (y) = -0.10637 -0.03939
# Poissons Ratio (z) = -0.15060 -0.02427
#
# Static dielectric constant tensor:
#      x y z
#    x 1.836900 0.000000 -0.023240 
#    y 0.000000 1.870300 0.000000 
#    z -0.023240 0.000000 1.813850 
# 
# From -- ./inp_files/27073.got.cif
#   From: 2010.05.17/outbox.cif.g08.bks.cpg/sg10_14_cif.got.tgz:27073.got - 2010.06.03 11:33:40.
