data_PCOD9149019
_publ_section_title
;
Structure prediction by ZEFSAII (Michael W. Deem and Ramdas Pophale) SiO2 
 PCOD9149019
Probable space group: P 2/M
;
_chemical_formula_sum "Si O2"
_cell_formula_units_Z 28
_cell_length_a 21.446027
_cell_length_b 7.612190
_cell_length_c 14.744134
_cell_angle_alpha 90.000000
_cell_angle_beta 30.611878
_cell_angle_gamma 90.000000
_cell_volume 1225.691172
_symmetry_space_group_name_H-M "P 2/M"
_symmetry_group_IT_number 10
_symmetry_cell_setting 'monoclinic'
loop_
_space_group_symop_operation_xyz
x,y,z
-x,y,-z
-x,-y,-z
x,-y,z
loop_
_atom_site_type_symbol
_atom_site_label
_atom_site_fract_x
_atom_site_fract_y
_atom_site_fract_z
Si Si1 0.745183 0.800292 0.345466
Si Si2 0.736705 0.787149 0.881575
Si Si3 0.473045 0.293425 0.711699
Si Si4 0.175813 0.783877 0.565064
Si Si5 0.361530 0.785747 0.185838
Si Si6 0.060852 0.199389 0.240003
Si Si7 0.739002 0.702667 0.148264
O O1 0.603059 0.799245 0.554101
O O2 0.820407 0.723659 0.335813
O O3 0.750986 0.712364 0.240493
O O4 0.786081 0.000000 0.279832
O O5 0.717291 0.731272 0.802872
O O6 0.859510 0.721644 0.777740
O O7 0.741599 0.000000 0.877776
O O8 0.618064 0.736157 0.089771
O O9 0.500089 0.500000 0.669033
O O10 0.392633 0.236361 0.724967
O O11 0.297874 0.731731 0.358479
O O12 0.061799 0.721081 0.647767
O O13 0.171710 0.000000 0.573447
O O14 0.363664 0.000000 0.183140
O O15 0.500000 0.724846 0.000000
O O16 0.028383 0.000000 0.308418
O O17 0.156423 0.196173 0.036792
O O18 0.750314 0.500000 0.104909
#
# Coordination Sequence:
#
# PCOD9149019 Si02
#       7
#     4   4   4   4   4   4   4
#     4  11  21  33  52  76 102 135 173 211 254 302
#     4   9  17  30  53  79 101 133 173 210 249 298
#     4  10  20  34  52  75 105 136 166 207 259 308
#     4   9  19  33  50  75 106 136 167 211 259 298
#     4   9  16  28  49  78 108 134 164 206 255 302
#     4   9  18  34  53  75 102 132 173 215 249 295
#     4  10  21  36  53  74 102 135 169 209 259 307
#
# _framework density 22.844253999999999
#
# number of rings (size 3 to 8) (size 9 to 14) (size 15 to 20)
#    0.000    2.429    0.000    2.571    0.000    6.857 
#    0.000    7.143    0.000    5.571    0.000    4.000 
#    0.000    0.000    0.000    0.000    0.000    0.000 
#
# Total GULP energy -156392.187589 kJ/mol
# GULP energy per Si atom -5585.435271 kJ/mol
# Density = 2.279226 g / cm^3
# Si number density = 22.844254 Si / 1000 Ang^3
#
#
#
# Elastic Constant Matrix: (Units=GPa)
#
#
# Indices 1 2 3 4 5 6 
#
# 1 126.5996 1.8440 8.9533 0.0000 8.5821 0.0000
# 2 1.8440 52.9818 -5.0821 0.0000 -1.4618 0.0000
# 3 8.9533 -5.0821 12.9347 0.0000 -8.3063 0.0000
# 4 0.0000 0.0000 0.0000 -35.9870 0.0000 -11.2782
# 5 8.5821 -1.4618 -8.3063 0.0000 35.5983 0.0000
# 6 0.0000 0.0000 0.0000 -11.2782 0.0000 -18.9840
#
#
#
# Elastic Compliance Matrix: (Units=1/GPa)
#
#
# Indices 1 2 3 4 5 6 
#
# 1 0.008892 -0.001345 -0.009522 0.000000 -0.004421 0.000000
# 2 -0.001345 0.020105 0.011255 0.000000 0.003776 0.000000
# 3 -0.009522 0.011255 0.105974 0.000000 0.027485 0.000000
# 4 0.000000 0.000000 0.000000 -0.034145 0.000000 0.020285
# 5 -0.004421 0.003776 0.027485 0.000000 0.035725 0.000000
# 6 0.000000 0.000000 0.000000 0.020285 0.000000 -0.064727
#
#
# Mechanical properties :
#
#
# Convention : Reuss Voigt Hill
#
# Bulk Modulus (GPa) = 7.36662 22.66074 15.01368
# Shear Modulus (GPa) = 42.99376 8.57885 25.78630
#
# Velocity S-wave (km/s) = 4.34295 1.93998 3.36339
# Velocity P-wave (km/s) = 5.32729 3.86772 4.65506
#
# Compressibility (1/GPa) = 0.13574739
#
# Stress axis : x y z
#
# Youngs Moduli (GPa) = 112.46619 49.73889 9.43627
#
# Poissons Ratio (x) = 0.06689 0.08985
# Poissons Ratio (y) = 0.15124 -0.10620
# Poissons Ratio (z) = 1.07087 -0.55981
#
# Static dielectric constant tensor:
#      x y z
#    x 1.855890 0.000000 -0.027140 
#    y 0.000000 1.855140 0.000000 
#    z -0.027140 0.000000 1.804170 
# 
# From -- ./inp_files/49143.got.cif
#   From: 2010.05.17/outbox.cif.g08.bks.cpg/sg10_25_cif.got.tgz:49143.got - 2010.06.03 11:33:40.
