data_PCOD9149742
_publ_section_title
;
Structure prediction by ZEFSAII (Michael W. Deem and Ramdas Pophale) SiO2 
 PCOD9149742
Probable space group: P 2/M
;
_chemical_formula_sum "Si O2"
_cell_formula_units_Z 32
_cell_length_a 23.874738
_cell_length_b 7.783395
_cell_length_c 14.919454
_cell_angle_alpha 90.000000
_cell_angle_beta 149.116950
_cell_angle_gamma 90.000000
_cell_volume 1423.053430
_symmetry_space_group_name_H-M "P 2/M"
_symmetry_group_IT_number 10
_symmetry_cell_setting 'monoclinic'
loop_
_space_group_symop_operation_xyz
x,y,z
-x,y,-z
-x,-y,-z
x,-y,z
loop_
_atom_site_type_symbol
_atom_site_label
_atom_site_fract_x
_atom_site_fract_y
_atom_site_fract_z
Si Si1 0.485850 0.707549 0.213199
Si Si2 0.907129 0.299113 0.939276
Si Si3 0.578557 0.700753 0.682508
Si Si4 0.827304 0.801485 0.499334
Si Si5 0.987152 0.789142 0.379630
Si Si6 0.259357 0.205979 0.434335
Si Si7 0.386260 0.295576 0.895369
Si Si8 0.180062 0.200381 0.994390
O O1 0.478345 0.500000 0.198968
O O2 0.443115 0.774895 0.249175
O O3 0.613621 0.750192 0.379224
O O4 0.411040 0.770158 0.028971
O O5 0.929629 0.500000 0.982937
O O6 0.794109 0.276569 0.729663
O O7 0.896207 0.220712 0.022929
O O8 0.000000 0.226245 0.000000
O O9 0.500000 0.779372 0.500000
O O10 0.548285 0.500000 0.648786
O O11 0.704633 0.711611 0.830312
O O12 0.807920 0.725760 0.571597
O O13 0.711358 0.793766 0.290307
O O14 0.915156 0.727846 0.550957
O O15 0.859154 0.000000 0.557154
O O16 0.000000 0.731973 0.500000
O O17 0.988933 0.000000 0.383880
O O18 0.878613 0.736561 0.176708
O O19 0.250311 0.000000 0.419421
O O20 0.361296 0.500000 0.862333
O O21 0.500000 0.274219 0.000000
O O22 0.202827 0.000000 0.014140
#
# Coordination Sequence:
#
# PCOD9149742 Si02
#       8
#     4   4   4   4   4   4   4   4
#     4  10  21  37  57  82 117 160 200 241 298 359
#     4  11  24  41  63  88 117 156 197 239 296 364
#     4  10  22  40  61  85 119 161 202 247 301 362
#     4  10  21  36  58  85 117 155 199 249 299 354
#     4   9  20  39  60  85 119 160 201 243 300 358
#     4  11  22  36  58  90 121 150 192 250 303 357
#     4  10  20  35  55  82 118 158 198 245 296 354
#     4  11  23  40  65  93 123 158 201 256 304 354
#
# _framework density 22.486857000000001
#
# number of rings (size 3 to 8) (size 9 to 14) (size 15 to 20)
#    0.000    1.750    1.250    2.625    1.750    5.000 
#    0.000    1.250    0.000    1.875    0.000    0.000 
#    0.000    0.000    0.000    0.000    0.000    0.000 
#
# Total GULP energy -178865.698879 kJ/mol
# GULP energy per Si atom -5589.553090 kJ/mol
# Density = 2.243568 g / cm^3
# Si number density = 22.486857 Si / 1000 Ang^3
#
#
#
# Elastic Constant Matrix: (Units=GPa)
#
#
# Indices 1 2 3 4 5 6 
#
# 1 114.2146 1.5114 23.2586 0.0000 -26.5008 0.0000
# 2 1.5114 32.3160 -5.7312 0.0000 -7.0596 0.0000
# 3 23.2586 -5.7312 90.4871 0.0000 -26.4824 0.0000
# 4 0.0000 0.0000 0.0000 1.4024 0.0000 5.5400
# 5 -26.5008 -7.0596 -26.4824 0.0000 43.9885 0.0000
# 6 0.0000 0.0000 0.0000 5.5400 0.0000 13.9528
#
#
#
# Elastic Compliance Matrix: (Units=1/GPa)
#
#
# Indices 1 2 3 4 5 6 
#
# 1 0.010264 0.000606 -0.000925 0.000000 0.005724 0.000000
# 2 0.000606 0.033541 0.004432 0.000000 0.008416 0.000000
# 3 -0.000925 0.004432 0.014099 0.000000 0.008642 0.000000
# 4 0.000000 0.000000 0.000000 -1.254248 0.000000 0.498003
# 5 0.005724 0.008416 0.008642 0.000000 0.032735 0.000000
# 6 0.000000 0.000000 0.000000 0.498003 0.000000 -0.126064
#
#
# Mechanical properties :
#
#
# Convention : Reuss Voigt Hill
#
# Bulk Modulus (GPa) = 15.12164 30.56613 22.84389
# Shear Modulus (GPa) = -3.91893 26.40065 11.24086
#
# Velocity S-wave (km/s) = -1.32157 3.43016 2.23824
# Velocity P-wave (km/s) = 2.10012 5.41390 4.10615
#
# Compressibility (1/GPa) = 0.06613040
#
# Stress axis : x y z
#
# Youngs Moduli (GPa) = 97.42927 29.81464 70.92764
#
# Poissons Ratio (x) = -0.01808 0.06557
# Poissons Ratio (y) = -0.05909 -0.31432
# Poissons Ratio (z) = 0.09008 -0.13213
#
# Static dielectric constant tensor:
#      x y z
#    x 1.851790 0.000000 -0.025840 
#    y 0.000000 1.840660 0.000000 
#    z -0.025840 0.000000 1.818670 
# 
# From -- ./inp_files/71690.got.cif
#   From: 2010.05.17/outbox.cif.g08.bks.cpg/sg10_36_cif.got.tgz:71690.got - 2010.06.03 11:33:40.
