data_PCOD9149430
_publ_section_title
;
Structure prediction by ZEFSAII (Michael W. Deem and Ramdas Pophale) SiO2 
 PCOD9149430
Probable space group: P 2/M
;
_chemical_formula_sum "Si O2"
_cell_formula_units_Z 18
_cell_length_a 12.428068
_cell_length_b 11.417963
_cell_length_c 8.935361
_cell_angle_alpha 90.000000
_cell_angle_beta 49.574652
_cell_angle_gamma 90.000000
_cell_volume 965.233791
_symmetry_space_group_name_H-M "P 2/M"
_symmetry_group_IT_number 10
_symmetry_cell_setting 'monoclinic'
loop_
_space_group_symop_operation_xyz
x,y,z
-x,y,-z
-x,-y,-z
x,-y,z
loop_
_atom_site_type_symbol
_atom_site_label
_atom_site_fract_x
_atom_site_fract_y
_atom_site_fract_z
Si Si1 0.663363 0.241663 0.358153
Si Si2 0.000000 0.306576 0.500000
Si Si3 0.232759 0.500000 0.752821
Si Si4 0.042077 0.500000 0.211158
Si Si5 0.107989 0.864295 0.023790
Si Si6 0.154300 0.866255 0.534623
O O1 0.500000 0.209121 0.500000
O O2 0.682741 0.380959 0.353166
O O3 0.743459 0.178277 0.425001
O O4 0.746862 0.202023 0.132389
O O5 0.036796 0.388483 0.325367
O O6 0.136401 0.228259 0.420953
O O7 0.098616 0.500000 0.762758
O O8 0.170363 0.500000 0.977967
O O9 0.008480 0.867269 0.257113
O O10 0.134610 0.000000 0.957112
O O11 0.000000 0.808919 0.000000
O O12 0.189314 0.000000 0.461132
#
# Coordination Sequence:
#
# PCOD9149430 Si02
#       6
#     4   2   2   2   4   4
#     4  11  21  33  54  82 117 146 186 231 275 325
#     4  11  19  36  56  92 111 139 182 240 276 331
#     4  11  21  38  53  84 110 147 185 237 276 331
#     4  10  22  34  63  82 109 142 190 234 285 317
#     4   8  16  31  51  77 107 140 180 223 267 314
#     4  10  20  34  56  84 114 147 181 226 278 330
#
# _framework density 18.648330999999999
#
# number of rings (size 3 to 8) (size 9 to 14) (size 15 to 20)
#    0.000    2.000    2.222    4.000    6.222    1.778 
#    0.000    0.000    0.000    6.667    0.000    9.333 
#    0.000    0.000    0.000    0.000    0.000    0.000 
#
# Total GULP energy -100302.752325 kJ/mol
# GULP energy per Si atom -5572.375129 kJ/mol
# Density = 1.860589 g / cm^3
# Si number density = 18.648331 Si / 1000 Ang^3
#
#
#
# Elastic Constant Matrix: (Units=GPa)
#
#
# Indices 1 2 3 4 5 6 
#
# 1 91.6182 43.2725 39.9320 0.0000 -4.7560 0.0000
# 2 43.2725 126.4233 17.4424 0.0000 -0.8188 0.0000
# 3 39.9320 17.4424 52.0026 0.0000 -11.0077 0.0000
# 4 0.0000 0.0000 0.0000 -11.5211 0.0000 4.0201
# 5 -4.7560 -0.8188 -11.0077 0.0000 36.9023 0.0000
# 6 0.0000 0.0000 0.0000 4.0201 0.0000 9.4258
#
#
#
# Elastic Compliance Matrix: (Units=1/GPa)
#
#
# Indices 1 2 3 4 5 6 
#
# 1 0.018764 -0.004611 -0.013206 0.000000 -0.001623 0.000000
# 2 -0.004611 0.009443 0.000312 0.000000 -0.000292 0.000000
# 3 -0.013206 0.000312 0.030855 0.000000 0.007509 0.000000
# 4 0.000000 0.000000 0.000000 -0.075553 0.000000 0.032224
# 5 -0.001623 -0.000292 0.007509 0.000000 0.029123 0.000000
# 6 0.000000 0.000000 0.000000 0.032224 0.000000 0.092348
#
#
# Mechanical properties :
#
#
# Convention : Reuss Voigt Hill
#
# Bulk Modulus (GPa) = 41.57600 52.37089 46.97344
# Shear Modulus (GPa) = 33.78183 18.25455 26.01819
#
# Velocity S-wave (km/s) = 4.26081 3.13211 3.73929
# Velocity P-wave (km/s) = 6.82270 6.42063 6.62472
#
# Compressibility (1/GPa) = 0.02405234
#
# Stress axis : x y z
#
# Youngs Moduli (GPa) = 53.29269 105.89421 32.40943
#
# Poissons Ratio (x) = 0.48830 0.42799
# Poissons Ratio (y) = 0.24575 -0.01010
# Poissons Ratio (z) = 0.70377 -0.03301
#
# Static dielectric constant tensor:
#      x y z
#    x 1.646700 0.000000 0.046310 
#    y 0.000000 1.714250 0.000000 
#    z 0.046310 0.000000 1.695840 
# 
# From -- ./inp_files/23378.got.cif
#   From: 2010.05.17/outbox.cif.g08.bks.cpg/sg10_12_cif.got.tgz:23378.got - 2010.06.03 11:33:40.
