data_PCOD9149942
_publ_section_title
;
Structure prediction by ZEFSAII (Michael W. Deem and Ramdas Pophale) SiO2 
 PCOD9149942
Probable space group: P 2/M
;
_chemical_formula_sum "Si O2"
_cell_formula_units_Z 32
_cell_length_a 19.394897
_cell_length_b 9.000709
_cell_length_c 21.948703
_cell_angle_alpha 90.000000
_cell_angle_beta 152.272909
_cell_angle_gamma 90.000000
_cell_volume 1782.663476
_symmetry_space_group_name_H-M "P 2/M"
_symmetry_group_IT_number 10
_symmetry_cell_setting 'monoclinic'
loop_
_space_group_symop_operation_xyz
x,y,z
-x,y,-z
-x,-y,-z
x,-y,z
loop_
_atom_site_type_symbol
_atom_site_label
_atom_site_fract_x
_atom_site_fract_y
_atom_site_fract_z
Si Si1 0.159463 0.321550 0.597625
Si Si2 0.291869 0.823221 0.219813
Si Si3 0.145525 0.324501 0.989995
Si Si4 0.386653 0.323072 0.539456
Si Si5 0.464399 0.678497 0.902957
Si Si6 0.302707 0.824352 0.594633
Si Si7 0.800809 0.325569 0.728073
Si Si8 0.615497 0.175688 0.907746
O O1 0.160738 0.500000 0.589243
O O2 0.296090 0.286208 0.750133
O O3 0.195389 0.241550 0.562211
O O4 0.000000 0.280015 0.500000
O O5 0.188556 0.753186 0.087042
O O6 0.455738 0.758092 0.337920
O O7 0.238223 0.772596 0.244254
O O8 0.293652 0.000000 0.215390
O O9 0.176315 0.500000 0.018779
O O10 0.247239 0.254704 0.017181
O O11 0.971283 0.304224 0.842737
O O12 0.407240 0.500000 0.562130
O O13 0.294759 0.260331 0.524589
O O14 0.304279 0.294526 0.411354
O O15 0.481898 0.500000 0.911866
O O16 0.572631 0.755945 0.939297
O O17 0.500000 0.722148 0.000000
O O18 0.469548 0.801542 0.751428
O O19 0.279780 0.000000 0.569007
O O20 0.781449 0.500000 0.729879
O O21 0.641175 0.000000 0.932446
#
# Coordination Sequence:
#
# PCOD9149942 Si02
#       8
#     4   4   4   4   4   4   4   4
#     4   9  18  34  56  81 109 144 187 230 274 327
#     4  12  24  38  60  88 115 148 189 232 284 346
#     4  11  22  39  62  84 112 150 193 238 282 334
#     4  11  22  39  62  84 112 150 193 238 282 334
#     4   9  18  34  56  81 109 144 187 230 274 327
#     4  10  20  35  57  84 114 147 188 233 278 336
#     4  10  24  42  58  84 115 148 191 238 286 336
#     4  10  20  35  57  84 114 147 188 233 278 336
#
# _framework density 17.950669000000001
#
# number of rings (size 3 to 8) (size 9 to 14) (size 15 to 20)
#    0.000    1.750    1.250    3.375    0.000    6.500 
#    2.250    0.000    0.000    0.000    0.000    0.000 
#    0.000    0.000    0.000    0.000    0.000    0.000 
#
# Total GULP energy -178788.569526 kJ/mol
# GULP energy per Si atom -5587.142798 kJ/mol
# Density = 1.790981 g / cm^3
# Si number density = 17.950669 Si / 1000 Ang^3
#
#
#
# Elastic Constant Matrix: (Units=GPa)
#
#
# Indices 1 2 3 4 5 6 
#
# 1 96.9545 33.0359 -5.1297 0.0000 -1.8734 0.0000
# 2 33.0359 49.9149 6.8109 0.0000 -2.0185 0.0000
# 3 -5.1297 6.8109 10.9087 0.0000 -3.3707 0.0000
# 4 0.0000 0.0000 0.0000 -14.0496 0.0000 -461.7686
# 5 -1.8734 -2.0185 -3.3707 0.0000 27.4156 0.0000
# 6 0.0000 0.0000 0.0000 -461.7686 0.0000**********
#
#
#
# Elastic Compliance Matrix: (Units=1/GPa)
#
#
# Indices 1 2 3 4 5 6 
#
# 1 0.015311 -0.012155 0.015422 0.000000 0.002047 0.000000
# 2 -0.012155 0.031550 -0.025938 0.000000 -0.001697 0.000000
# 3 0.015422 -0.025938 0.119387 0.000000 0.013823 0.000000
# 4 0.000000 0.000000 0.000000 0.163831 0.000000 -0.007150
# 5 0.002047 -0.001697 0.013823 0.000000 0.038190 0.000000
# 6 0.000000 0.000000 0.000000 -0.007150 0.000000 0.000218
#
#
# Mechanical properties :
#
#
# Convention : Reuss Voigt Hill
#
# Bulk Modulus (GPa) = 8.27096 25.24580 16.75838
# Shear Modulus (GPa) = 11.01002 -2105.19466 -1047.09232
#
# Velocity S-wave (km/s) = 2.47927 -34.28283 -24.17815
# Velocity P-wave (km/s) = 3.57957 39.40798 27.75046
#
# Compressibility (1/GPa) = 0.12090490
#
# Stress axis : x y z
#
# Youngs Moduli (GPa) = 65.31106 31.69613 8.37610
#
# Poissons Ratio (x) = 0.38527 -0.12917
# Poissons Ratio (y) = 0.79387 0.21726
# Poissons Ratio (z) = -1.00721 0.82214
#
# Static dielectric constant tensor:
#      x y z
#    x 1.592070 0.000000 0.002350 
#    y 0.000000 1.597170 0.000000 
#    z 0.002350 0.000000 1.597030 
# 
# From -- ./inp_files/85743.got.cif
#   From: 2010.05.17/outbox.cif.g08.bks.cpg/sg10_43_cif.got.tgz:85743.got - 2010.06.03 11:33:40.
