data_PCOD9149024
_publ_section_title
;
Structure prediction by ZEFSAII (Michael W. Deem and Ramdas Pophale) SiO2 
 PCOD9149024
Probable space group: P 2/M
;
_chemical_formula_sum "Si O2"
_cell_formula_units_Z 32
_cell_length_a 13.714777
_cell_length_b 13.315849
_cell_length_c 14.842596
_cell_angle_alpha 90.000000
_cell_angle_beta 41.797116
_cell_angle_gamma 90.000000
_cell_volume 1806.609705
_symmetry_space_group_name_H-M "P 2/M"
_symmetry_group_IT_number 10
_symmetry_cell_setting 'monoclinic'
loop_
_space_group_symop_operation_xyz
x,y,z
-x,y,-z
-x,-y,-z
x,-y,z
loop_
_atom_site_type_symbol
_atom_site_label
_atom_site_fract_x
_atom_site_fract_y
_atom_site_fract_z
Si Si1 0.530559 0.293322 0.584988
Si Si2 0.997104 0.690829 0.146182
Si Si3 0.432885 0.117805 0.302586
Si Si4 0.111488 0.816062 0.504066
Si Si5 0.225606 0.619313 0.852222
Si Si6 0.161294 0.615563 0.571055
Si Si7 0.939879 0.116403 0.796168
Si Si8 0.605566 0.121662 0.006982
O O1 0.500000 0.283484 0.500000
O O2 0.550854 0.186682 0.620738
O O3 0.391678 0.346749 0.726275
O O4 0.678365 0.356275 0.500307
O O5 0.870335 0.668762 0.161366
O O6 0.952557 0.635679 0.269205
O O7 0.009458 0.808109 0.161101
O O8 0.146898 0.652454 0.998556
O O9 0.270032 0.137120 0.376703
O O10 0.544794 0.150294 0.147010
O O11 0.452830 0.000000 0.307757
O O12 0.129961 0.698304 0.516031
O O13 0.000000 0.831156 0.500000
O O14 0.046304 0.867716 0.638362
O O15 0.213223 0.500000 0.851347
O O16 0.156361 0.500000 0.546000
O O17 0.937400 0.000000 0.824868
O O18 0.775599 0.148151 0.880373
O O19 0.598582 0.000000 0.008769
O O20 0.500000 0.159541 0.000000
#
# Coordination Sequence:
#
# PCOD9149024 Si02
#       8
#     4   4   4   4   4   4   4   4
#     4  11  22  35  53  79 108 142 184 223 261 319
#     4  10  20  34  52  78 104 134 177 218 262 317
#     4  10  21  36  53  77 110 144 179 220 266 318
#     4  10  21  35  54  81 108 139 181 221 264 324
#     4  11  21  35  56  77 102 134 176 224 266 309
#     4  10  20  36  56  78 107 139 176 226 277 318
#     4  10  20  34  52  75 108 140 171 215 263 313
#     4   9  17  31  53  76  98 132 176 217 261 311
#
# _framework density 17.712734999999999
#
# number of rings (size 3 to 8) (size 9 to 14) (size 15 to 20)
#    0.000    1.875    1.250    3.750    0.000    3.000 
#    0.000    1.875    0.000    0.000    0.000    0.000 
#    0.000   20.500    0.000    0.000    0.000    0.000 
#
# Total GULP energy -178611.883941 kJ/mol
# GULP energy per Si atom -5581.621373 kJ/mol
# Density = 1.767242 g / cm^3
# Si number density = 17.712735 Si / 1000 Ang^3
#
#
#
# Elastic Constant Matrix: (Units=GPa)
#
#
# Indices 1 2 3 4 5 6 
#
# 1 41.0606 24.5188 1.8078 0.0000 -3.0218 0.0000
# 2 24.5188 109.0898 12.6197 0.0000 0.5144 0.0000
# 3 1.8078 12.6197 61.2298 0.0000 -12.0323 0.0000
# 4 0.0000 0.0000 0.0000 32.1940 0.0000 -23.2404
# 5 -3.0218 0.5144 -12.0323 0.0000 19.1327 0.0000
# 6 0.0000 0.0000 0.0000 -23.2404 0.0000 21.8071
#
#
#
# Elastic Compliance Matrix: (Units=1/GPa)
#
#
# Indices 1 2 3 4 5 6 
#
# 1 0.028685 -0.006666 0.001657 0.000000 0.005752 0.000000
# 2 -0.006666 0.010987 -0.002662 0.000000 -0.003022 0.000000
# 3 0.001657 -0.002662 0.019280 0.000000 0.012458 0.000000
# 4 0.000000 0.000000 0.000000 0.134662 0.000000 0.143513
# 5 0.005752 -0.003022 0.012458 0.000000 0.061091 0.000000
# 6 0.000000 0.000000 0.000000 0.143513 0.000000 0.198802
#
#
# Mechanical properties :
#
#
# Convention : Reuss Voigt Hill
#
# Bulk Modulus (GPa) = 22.92979 32.14140 27.53559
# Shear Modulus (GPa) = 10.34373 26.12235 18.23304
#
# Velocity S-wave (km/s) = 2.41917 3.84445 3.21187
# Velocity P-wave (km/s) = 4.55814 6.15562 5.41610
#
# Compressibility (1/GPa) = 0.04361140
#
# Stress axis : x y z
#
# Youngs Moduli (GPa) = 34.86124 91.01543 51.86808
#
# Poissons Ratio (x) = 0.60671 -0.08596
# Poissons Ratio (y) = 0.23239 0.13805
# Poissons Ratio (z) = -0.05778 0.24224
#
# Static dielectric constant tensor:
#      x y z
#    x 1.586040 0.000000 -0.008020 
#    y 0.000000 1.590510 0.000000 
#    z -0.008020 0.000000 1.610350 
# 
# From -- ./inp_files/67343.got.cif
#   From: 2010.05.17/outbox.cif.g08.bks.cpg/sg10_34_cif.got.tgz:67343.got - 2010.06.03 11:33:40.
