data_PCOD9149439
_publ_section_title
;
Structure prediction by ZEFSAII (Michael W. Deem and Ramdas Pophale) SiO2 
 PCOD9149439
Probable space group: P 2/M
;
_chemical_formula_sum "Si O2"
_cell_formula_units_Z 32
_cell_length_a 25.065237
_cell_length_b 14.281800
_cell_length_c 9.183408
_cell_angle_alpha 90.000000
_cell_angle_beta 30.610502
_cell_angle_gamma 90.000000
_cell_volume 1673.964850
_symmetry_space_group_name_H-M "P 2/M"
_symmetry_group_IT_number 10
_symmetry_cell_setting 'monoclinic'
loop_
_space_group_symop_operation_xyz
x,y,z
-x,y,-z
-x,-y,-z
x,-y,z
loop_
_atom_site_type_symbol
_atom_site_label
_atom_site_fract_x
_atom_site_fract_y
_atom_site_fract_z
Si Si1 0.237304 0.730469 0.490794
Si Si2 0.956350 0.153865 0.951838
Si Si3 0.622103 0.110374 0.733753
Si Si4 0.903872 0.237622 0.615887
Si Si5 0.584524 0.607198 0.404247
Si Si6 0.386649 0.388441 0.340517
Si Si7 0.209561 0.895845 0.904303
Si Si8 0.208144 0.605668 0.274311
O O1 0.312394 0.822597 0.311450
O O2 0.295454 0.665170 0.471352
O O3 0.230091 0.671304 0.360830
O O4 0.121315 0.762397 0.812855
O O5 0.055935 0.184515 0.622551
O O6 0.880270 0.104598 0.011996
O O7 0.000000 0.110125 0.000000
O O8 0.683928 0.120871 0.435222
O O9 0.628360 0.000000 0.759391
O O10 0.500000 0.135430 0.000000
O O11 0.873017 0.340275 0.636709
O O12 0.000000 0.241914 0.500000
O O13 0.816590 0.180518 0.911588
O O14 0.500000 0.655745 0.500000
O O15 0.545366 0.500000 0.526841
O O16 0.604605 0.647509 0.515177
O O17 0.688060 0.600924 0.066704
O O18 0.364423 0.500000 0.391571
O O19 0.500000 0.374862 0.000000
O O20 0.210396 0.000000 0.967238
O O21 0.178237 0.500000 0.386745
#
# Coordination Sequence:
#
# PCOD9149439 Si02
#       8
#     4   4   4   4   4   4   4   4
#     4  11  21  36  59  85 117 156 198 245 298 355
#     4  10  20  37  57  83 119 151 195 252 293 344
#     4   9  19  37  63  94 124 152 189 236 288 356
#     4  10  22  39  60  81 117 156 199 253 296 357
#     4   9  19  34  52  77 111 147 187 240 294 343
#     4  10  20  34  56  85 115 150 199 251 296 354
#     4   9  20  38  63  92 119 152 192 239 300 359
#     4  11  23  39  57  81 118 159 199 251 304 350
#
# _framework density 19.116291
#
# number of rings (size 3 to 8) (size 9 to 14) (size 15 to 20)
#    0.000    2.125    1.250    1.500    5.250    4.750 
#    0.000    2.500    0.000    0.000    0.000    2.625 
#    0.000    0.000    0.000    0.000    0.000    0.000 
#
# Total GULP energy -178353.106383 kJ/mol
# GULP energy per Si atom -5573.534574 kJ/mol
# Density = 1.907278 g / cm^3
# Si number density = 19.116291 Si / 1000 Ang^3
#
#
#
# Elastic Constant Matrix: (Units=GPa)
#
#
# Indices 1 2 3 4 5 6 
#
# 1 84.4624 31.5674 21.1616 0.0000 22.0421 0.0000
# 2 31.5674 101.5362 30.2382 0.0000 10.9064 0.0000
# 3 21.1616 30.2382 84.1230 0.0000 6.4336 0.0000
# 4 0.0000 0.0000 0.0000 12.2416 0.0000 4.9799
# 5 22.0421 10.9064 6.4336 0.0000 23.0366 0.0000
# 6 0.0000 0.0000 0.0000 4.9799 0.0000 21.7202
#
#
#
# Elastic Compliance Matrix: (Units=1/GPa)
#
#
# Indices 1 2 3 4 5 6 
#
# 1 0.017348 -0.003211 -0.002101 0.000000 -0.014492 0.000000
# 2 -0.003211 0.012037 -0.003391 0.000000 -0.001680 0.000000
# 3 -0.002101 -0.003391 0.013650 0.000000 -0.000196 0.000000
# 4 0.000000 0.000000 0.000000 0.090092 0.000000 -0.020656
# 5 -0.014492 -0.001680 -0.000196 0.000000 0.058126 0.000000
# 6 0.000000 0.000000 0.000000 -0.020656 0.000000 0.050776
#
#
# Mechanical properties :
#
#
# Convention : Reuss Voigt Hill
#
# Bulk Modulus (GPa) = 39.01841 48.45066 43.73454
# Shear Modulus (GPa) = 18.65827 23.87663 21.26745
#
# Velocity S-wave (km/s) = 3.12755 3.53798 3.33908
# Velocity P-wave (km/s) = 5.78770 6.48768 6.14766
#
# Compressibility (1/GPa) = 0.02562892
#
# Stress axis : x y z
#
# Youngs Moduli (GPa) = 57.64285 83.07616 73.26140
#
# Poissons Ratio (x) = 0.26676 0.15396
# Poissons Ratio (y) = 0.18509 0.24840
# Poissons Ratio (z) = 0.12114 0.28168
#
# Static dielectric constant tensor:
#      x y z
#    x 1.683880 0.000000 -0.003680 
#    y 0.000000 1.705010 0.000000 
#    z -0.003680 0.000000 1.667830 
# 
# From -- ./inp_files/36359.got.cif
#   From: 2010.05.17/outbox.cif.g08.bks.cpg/sg10_19_cif.got.tgz:36359.got - 2010.06.03 11:33:40.
