data_PCOD9149637
_publ_section_title
;
Structure prediction by ZEFSAII (Michael W. Deem and Ramdas Pophale) SiO2 
 PCOD9149637
Probable space group: P 2/M
;
_chemical_formula_sum "Si O2"
_cell_formula_units_Z 28
_cell_length_a 16.187481
_cell_length_b 7.748407
_cell_length_c 17.696829
_cell_angle_alpha 90.000000
_cell_angle_beta 35.383065
_cell_angle_gamma 90.000000
_cell_volume 1285.274469
_symmetry_space_group_name_H-M "P 2/M"
_symmetry_group_IT_number 10
_symmetry_cell_setting 'monoclinic'
loop_
_space_group_symop_operation_xyz
x,y,z
-x,y,-z
-x,-y,-z
x,-y,z
loop_
_atom_site_type_symbol
_atom_site_label
_atom_site_fract_x
_atom_site_fract_y
_atom_site_fract_z
Si Si1 0.093274 0.211986 0.176365
Si Si2 0.813545 0.802350 0.480482
Si Si3 0.451123 0.300183 0.414389
Si Si4 0.711940 0.298958 0.305255
Si Si5 0.016775 0.805410 0.070952
Si Si6 0.841186 0.697778 0.623637
Si Si7 0.656721 0.199376 0.899132
O O1 0.232181 0.268946 0.120584
O O2 0.946578 0.263726 0.329835
O O3 0.091863 0.270678 0.089577
O O4 0.091067 0.000000 0.176014
O O5 0.661676 0.795996 0.552584
O O6 0.792334 0.702093 0.573984
O O7 0.849068 0.000000 0.472596
O O8 0.461323 0.500000 0.382019
O O9 0.611103 0.235677 0.312045
O O10 0.376922 0.299320 0.551618
O O11 0.748714 0.500000 0.263077
O O12 0.851219 0.190577 0.217088
O O13 0.073714 0.000000 0.017031
O O14 0.000000 0.722388 0.000000
O O15 0.851431 0.500000 0.643213
O O16 0.742060 0.793232 0.756746
O O17 0.000000 0.772508 0.500000
O O18 0.632134 0.000000 0.939914
O O19 0.500000 0.278169 0.000000
#
# Coordination Sequence:
#
# PCOD9149637 Si02
#       7
#     4   4   4   4   4   4   4
#     4   9  18  34  56  82 110 145 189 240 295 346
#     4  11  20  33  58  85 113 147 190 242 290 345
#     4   9  18  33  52  77 110 144 177 225 284 339
#     4   9  18  33  53  75 106 144 181 225 280 339
#     4  10  20  35  54  77 110 148 190 242 287 331
#     4  11  23  38  59  88 121 153 192 244 299 355
#     4  10  21  40  64  86 116 157 199 246 301 359
#
# _framework density 21.785231
#
# number of rings (size 3 to 8) (size 9 to 14) (size 15 to 20)
#    0.000    2.143    2.857    1.714    0.000    1.714 
#    2.571    2.143    0.000    0.000    0.000    0.000 
#    0.000    0.000    0.000    0.000    0.000    0.000 
#
# Total GULP energy -156004.930733 kJ/mol
# GULP energy per Si atom -5571.604669 kJ/mol
# Density = 2.173565 g / cm^3
# Si number density = 21.785231 Si / 1000 Ang^3
#
#
#
# Elastic Constant Matrix: (Units=GPa)
#
#
# Indices 1 2 3 4 5 6 
#
# 1 186.8148 8.9522 46.5649 0.0000 -1.5119 0.0000
# 2 8.9522 37.0266 0.9598 0.0000 -2.9526 0.0000
# 3 46.5649 0.9598 48.9337 0.0000 0.7703 0.0000
# 4 0.0000 0.0000 0.0000 4.9102 0.0000 -7.7434
# 5 -1.5119 -2.9526 0.7703 0.0000 37.0231 0.0000
# 6 0.0000 0.0000 0.0000 -7.7434 0.0000 -2.1206
#
#
#
# Elastic Compliance Matrix: (Units=1/GPa)
#
#
# Indices 1 2 3 4 5 6 
#
# 1 0.007108 -0.001519 -0.006739 0.000000 0.000309 0.000000
# 2 -0.001519 0.027521 0.000873 0.000000 0.002115 0.000000
# 3 -0.006739 0.000873 0.026843 0.000000 -0.000764 0.000000
# 4 0.000000 0.000000 0.000000 0.030134 0.000000 -0.110034
# 5 0.000309 0.002115 -0.000764 0.000000 0.027207 0.000000
# 6 0.000000 0.000000 0.000000 -0.110034 0.000000 -0.069775
#
#
# Mechanical properties :
#
#
# Convention : Reuss Voigt Hill
#
# Bulk Modulus (GPa) = 21.41274 42.85877 32.13575
# Shear Modulus (GPa) = 62.99052 22.38243 42.68647
#
# Velocity S-wave (km/s) = 5.38304 3.20881 4.43134
# Velocity P-wave (km/s) = 6.96322 5.78313 6.40043
#
# Compressibility (1/GPa) = 0.04670117
#
# Stress axis : x y z
#
# Youngs Moduli (GPa) = 140.68828 36.33600 37.25314
#
# Poissons Ratio (x) = 0.05520 0.25104
# Poissons Ratio (y) = 0.21373 -0.03251
# Poissons Ratio (z) = 0.94808 -0.03171
#
# Static dielectric constant tensor:
#      x y z
#    x 1.997830 0.000000 -0.027150 
#    y 0.000000 1.845670 0.000000 
#    z -0.027150 0.000000 1.820440 
# 
# From -- ./inp_files/77721.got.cif
#   From: 2010.05.17/outbox.cif.g08.bks.cpg/sg10_39_cif.got.tgz:77721.got - 2010.06.03 11:33:40.
