data_PCOD9149242
_publ_section_title
;
Structure prediction by ZEFSAII (Michael W. Deem and Ramdas Pophale) SiO2 
 PCOD9149242
Probable space group: P 2/M
;
_chemical_formula_sum "Si O2"
_cell_formula_units_Z 28
_cell_length_a 5.947285
_cell_length_b 12.596997
_cell_length_c 20.826028
_cell_angle_alpha 90.000000
_cell_angle_beta 115.358238
_cell_angle_gamma 90.000000
_cell_volume 1409.909935
_symmetry_space_group_name_H-M "P 2/M"
_symmetry_group_IT_number 10
_symmetry_cell_setting 'monoclinic'
loop_
_space_group_symop_operation_xyz
x,y,z
-x,y,-z
-x,-y,-z
x,-y,z
loop_
_atom_site_type_symbol
_atom_site_label
_atom_site_fract_x
_atom_site_fract_y
_atom_site_fract_z
Si Si1 0.435092 0.292482 0.918693
Si Si2 0.445118 0.121060 0.171516
Si Si3 0.124551 0.207094 0.701382
Si Si4 0.522606 0.379012 0.316500
Si Si5 0.910777 0.289015 0.809072
Si Si6 0.808997 0.500000 0.536790
Si Si7 0.694142 0.281690 0.579533
Si Si8 0.303784 0.500000 0.039526
O O1 0.465110 0.187764 0.879303
O O2 0.611477 0.389435 0.917687
O O3 0.149744 0.329685 0.876389
O O4 0.500000 0.268507 0.000000
O O5 0.662853 0.124291 0.252525
O O6 0.220830 0.192709 0.170205
O O7 0.380352 0.000000 0.149497
O O8 0.275637 0.307834 0.693866
O O9 0.003728 0.240205 0.753519
O O10 0.894746 0.192533 0.624562
O O11 0.594733 0.500000 0.337734
O O12 0.288811 0.374474 0.239108
O O13 0.451714 0.322106 0.374886
O O14 0.500000 0.500000 0.500000
O O15 0.844871 0.386411 0.574713
O O16 0.000000 0.500000 0.500000
O O17 0.500000 0.251767 0.500000
O O18 0.500000 0.500000 0.000000
O O19 0.000000 0.500000 0.000000
#
# Coordination Sequence:
#
# PCOD9149242 Si02
#       8
#     4   4   4   4   4   2   4   2
#     4  10  23  41  66  98 133 168 217 261 327 400
#     4  10  22  43  68  89 120 163 214 282 342 396
#     4   9  21  37  55  83 116 158 213 259 324 394
#     4  10  20  34  54  81 123 166 213 260 312 383
#     4   9  21  40  54  88 120 162 212 260 323 388
#     4  10  22  32  47  82 128 181 219 250 319 393
#     4  10  21  32  52  84 126 171 212 262 321 394
#     4  10  24  42  67  96 144 191 211 254 317 397
#
# _framework density 19.859425999999999
#
# number of rings (size 3 to 8) (size 9 to 14) (size 15 to 20)
#    0.000    2.286    0.714    0.000   10.000    3.143 
#   10.286    0.714    0.000    0.429    0.000    9.000 
#    0.000    0.000    0.000    0.000    0.000    0.000 
#
# Total GULP energy -155931.334675 kJ/mol
# GULP energy per Si atom -5568.976238 kJ/mol
# Density = 1.981422 g / cm^3
# Si number density = 19.859426 Si / 1000 Ang^3
#
#
#
# Elastic Constant Matrix: (Units=GPa)
#
#
# Indices 1 2 3 4 5 6 
#
# 1 83.9938 21.8940 41.8100 0.0000 3.8192 0.0000
# 2 21.8940 85.1476 24.5194 0.0000 8.0333 0.0000
# 3 41.8100 24.5194 129.9549 0.0000 28.1092 0.0000
# 4 0.0000 0.0000 0.0000 19.6878 0.0000 -0.9294
# 5 3.8192 8.0333 28.1092 0.0000 37.2614 0.0000
# 6 0.0000 0.0000 0.0000 -0.9294 0.0000 4.2697
#
#
#
# Elastic Compliance Matrix: (Units=1/GPa)
#
#
# Indices 1 2 3 4 5 6 
#
# 1 0.014912 -0.002686 -0.004882 0.000000 0.002734 0.000000
# 2 -0.002686 0.012940 -0.001235 0.000000 -0.001583 0.000000
# 3 -0.004882 -0.001235 0.011153 0.000000 -0.007647 0.000000
# 4 0.000000 0.000000 0.000000 0.051320 0.000000 0.011170
# 5 0.002734 -0.001583 -0.007647 0.000000 0.032667 0.000000
# 6 0.000000 0.000000 0.000000 0.011170 0.000000 0.236637
#
#
# Mechanical properties :
#
#
# Convention : Reuss Voigt Hill
#
# Bulk Modulus (GPa) = 46.73311 52.83812 49.78562
# Shear Modulus (GPa) = 13.00838 26.30198 19.65518
#
# Velocity S-wave (km/s) = 2.56212 3.64319 3.14939
# Velocity P-wave (km/s) = 5.68644 6.66040 6.19260
#
# Compressibility (1/GPa) = 0.02139810
#
# Stress axis : x y z
#
# Youngs Moduli (GPa) = 67.06161 77.27995 89.66542
#
# Poissons Ratio (x) = 0.20760 0.43774
# Poissons Ratio (y) = 0.18015 0.11072
# Poissons Ratio (z) = 0.32739 0.09543
#
# Static dielectric constant tensor:
#      x y z
#    x 1.770440 0.000000 0.035620 
#    y 0.000000 1.663520 0.000000 
#    z 0.035620 0.000000 1.776020 
# 
# From -- ./inp_files/81232.got.cif
#   From: 2010.05.17/outbox.cif.g08.bks.cpg/sg10_41_cif.got.tgz:81232.got - 2010.06.03 11:33:40.
