data_PCOD9149529
_publ_section_title
;
Structure prediction by ZEFSAII (Michael W. Deem and Ramdas Pophale) SiO2 
 PCOD9149529
Probable space group: P 2/M
;
_chemical_formula_sum "Si O2"
_cell_formula_units_Z 28
_cell_length_a 5.478473
_cell_length_b 20.925655
_cell_length_c 13.430973
_cell_angle_alpha 90.000000
_cell_angle_beta 59.442511
_cell_angle_gamma 90.000000
_cell_volume 1325.896044
_symmetry_space_group_name_H-M "P 2/M"
_symmetry_group_IT_number 10
_symmetry_cell_setting 'monoclinic'
loop_
_space_group_symop_operation_xyz
x,y,z
-x,y,-z
-x,-y,-z
x,-y,z
loop_
_atom_site_type_symbol
_atom_site_label
_atom_site_fract_x
_atom_site_fract_y
_atom_site_fract_z
Si Si1 0.156738 0.571033 0.573381
Si Si2 0.015653 0.199224 0.613581
Si Si3 0.169512 0.309015 0.708534
Si Si4 0.847378 0.073029 0.733297
Si Si5 0.178592 0.112645 0.862148
Si Si6 0.432838 0.752082 0.812865
Si Si7 0.776142 0.663083 0.972938
O O1 0.500000 0.569666 0.500000
O O2 0.065127 0.500000 0.626976
O O3 0.103719 0.629763 0.657078
O O4 0.000000 0.581348 0.500000
O O5 0.022684 0.123411 0.629039
O O6 0.735948 0.217239 0.734883
O O7 0.000000 0.212681 0.500000
O O8 0.222971 0.248402 0.625500
O O9 0.430979 0.304512 0.730875
O O10 0.926174 0.310453 0.843704
O O11 0.504208 0.086241 0.802603
O O12 0.990709 0.083768 0.812000
O O13 0.888865 0.000000 0.694036
O O14 0.221429 0.188793 0.834823
O O15 0.000000 0.103158 0.000000
O O16 0.339045 0.721854 0.935907
O O17 0.500000 0.623954 0.000000
O O18 0.000000 0.630151 0.000000
#
# Coordination Sequence:
#
# PCOD9149529 Si02
#       7
#     4   4   4   4   4   4   4
#     4  10  24  43  64  94 135 177 212 253 310 366
#     4  11  24  39  61  91 121 161 215 265 308 367
#     4  11  21  37  65  93 126 162 207 264 305 366
#     4  11  25  43  59  85 124 163 206 258 320 380
#     4  11  22  39  66  89 122 159 206 260 317 377
#     4  10  22  37  59  94 128 159 202 259 325 371
#     4  10  20  34  58  88 125 160 194 243 314 376
#
# _framework density 21.117795000000001
#
# number of rings (size 3 to 8) (size 9 to 14) (size 15 to 20)
#    0.000    1.429    2.857    2.571    4.000    2.000 
#    0.000    0.000    0.000    6.857    0.000    0.000 
#    0.000    0.000    0.000    0.000    0.000    0.000 
#
# Total GULP energy -155892.928840 kJ/mol
# GULP energy per Si atom -5567.604601 kJ/mol
# Density = 2.106973 g / cm^3
# Si number density = 21.117795 Si / 1000 Ang^3
#
#
#
# Elastic Constant Matrix: (Units=GPa)
#
#
# Indices 1 2 3 4 5 6 
#
# 1 109.9542 26.0430 16.6770 0.0000 15.5008 0.0000
# 2 26.0430 104.5895 49.9134 0.0000 23.5111 0.0000
# 3 16.6770 49.9134 103.3690 0.0000 27.4334 0.0000
# 4 0.0000 0.0000 0.0000 22.1431 0.0000 5.2407
# 5 15.5008 23.5111 27.4334 0.0000 29.1398 0.0000
# 6 0.0000 0.0000 0.0000 5.2407 0.0000 16.8401
#
#
#
# Elastic Compliance Matrix: (Units=1/GPa)
#
#
# Indices 1 2 3 4 5 6 
#
# 1 0.010051 -0.001699 0.000339 0.000000 -0.004295 0.000000
# 2 -0.001699 0.013503 -0.004792 0.000000 -0.005480 0.000000
# 3 0.000339 -0.004792 0.014604 0.000000 -0.010063 0.000000
# 4 0.000000 0.000000 0.000000 0.048752 0.000000 -0.015172
# 5 -0.004295 -0.005480 -0.010063 0.000000 0.050496 0.000000
# 6 0.000000 0.000000 0.000000 -0.015172 0.000000 0.064103
#
#
# Mechanical properties :
#
#
# Convention : Reuss Voigt Hill
#
# Bulk Modulus (GPa) = 38.67939 55.90885 47.29412
# Shear Modulus (GPa) = 22.47889 28.64321 25.56105
#
# Velocity S-wave (km/s) = 3.26613 3.68687 3.48286
# Velocity P-wave (km/s) = 5.70783 6.68253 6.21432
#
# Compressibility (1/GPa) = 0.02585356
#
# Stress axis : x y z
#
# Youngs Moduli (GPa) = 99.49078 74.05884 68.47568
#
# Poissons Ratio (x) = 0.12582 -0.02318
# Poissons Ratio (y) = 0.16903 0.32811
# Poissons Ratio (z) = -0.03368 0.35486
#
# Static dielectric constant tensor:
#      x y z
#    x 1.950180 0.000000 -0.016780 
#    y 0.000000 1.827140 0.000000 
#    z -0.016780 0.000000 1.756170 
# 
# From -- ./inp_files/7568.got.cif
#   From: 2010.05.17/outbox.cif.g08.bks.cpg/sg10_4_cif.got.tgz:7568.got - 2010.06.03 11:33:40.
