data_PCOD9149081
_publ_section_title
;
Structure prediction by ZEFSAII (Michael W. Deem and Ramdas Pophale) SiO2 
 PCOD9149081
Probable space group: P 2/M
;
_chemical_formula_sum "Si O2"
_cell_formula_units_Z 28
_cell_length_a 8.465000
_cell_length_b 10.448272
_cell_length_c 30.183996
_cell_angle_alpha 90.000000
_cell_angle_beta 35.107774
_cell_angle_gamma 90.000000
_cell_volume 1535.337331
_symmetry_space_group_name_H-M "P 2/M"
_symmetry_group_IT_number 10
_symmetry_cell_setting 'monoclinic'
loop_
_space_group_symop_operation_xyz
x,y,z
-x,y,-z
-x,-y,-z
x,-y,z
loop_
_atom_site_type_symbol
_atom_site_label
_atom_site_fract_x
_atom_site_fract_y
_atom_site_fract_z
Si Si1 0.731971 0.852585 0.767033
Si Si2 0.006553 0.764584 0.826902
Si Si3 0.868051 0.358331 0.290466
Si Si4 0.788221 0.646170 0.961631
Si Si5 0.604189 0.142074 0.693545
Si Si6 0.570644 0.854333 0.075053
Si Si7 0.241541 0.647777 0.409839
O O1 0.638528 0.840598 0.738131
O O2 0.495583 0.829274 0.858107
O O3 0.975277 0.753681 0.720374
O O4 0.820343 0.000000 0.754383
O O5 0.029563 0.655879 0.783920
O O6 0.279562 0.846877 0.758492
O O7 0.996135 0.702395 0.877654
O O8 0.728383 0.841706 0.880337
O O9 0.935764 0.500000 0.291654
O O10 0.540157 0.342081 0.364620
O O11 0.848890 0.500000 0.960957
O O12 0.500000 0.643494 0.000000
O O13 0.751145 0.745510 0.010280
O O14 0.752368 0.252128 0.631621
O O15 0.702952 0.000000 0.658840
O O16 0.673634 0.000000 0.045762
O O17 0.216051 0.500000 0.400334
O O18 0.000000 0.673261 0.500000
#
# Coordination Sequence:
#
# PCOD9149081 Si02
#       7
#     4   4   4   4   4   4   4
#     4   9  19  34  49  70 102 134 165 202 244 291
#     4   9  17  29  49  71  95 123 163 209 251 289
#     4   9  17  31  53  75  95 127 167 201 238 289
#     4   9  17  28  44  67  94 123 159 206 252 291
#     4  10  20  34  53  76 100 129 165 203 243 289
#     4   9  17  29  46  67  92 125 163 203 247 292
#     4   9  19  36  56  79 105 129 157 197 243 290
#
# _framework density 18.237034999999999
#
# number of rings (size 3 to 8) (size 9 to 14) (size 15 to 20)
#    0.000    2.857    0.000    0.857    0.000   11.429 
#    0.000    1.429    0.000    7.714    0.000    0.000 
#    0.000    0.000    0.000    0.000    0.000    0.000 
#
# Total GULP energy -156073.410443 kJ/mol
# GULP energy per Si atom -5574.050373 kJ/mol
# Density = 1.819553 g / cm^3
# Si number density = 18.237035 Si / 1000 Ang^3
#
#
#
# Elastic Constant Matrix: (Units=GPa)
#
#
# Indices 1 2 3 4 5 6 
#
# 1 36.4538 33.2543 12.0635 0.0000 14.2258 0.0000
# 2 33.2543 109.9549 48.6671 0.0000 18.5432 0.0000
# 3 12.0635 48.6671 70.3890 0.0000 9.7031 0.0000
# 4 0.0000 0.0000 0.0000 20.2187 0.0000 7.0067
# 5 14.2258 18.5432 9.7031 0.0000 16.7681 0.0000
# 6 0.0000 0.0000 0.0000 7.0067 0.0000 10.9971
#
#
#
# Elastic Compliance Matrix: (Units=1/GPa)
#
#
# Indices 1 2 3 4 5 6 
#
# 1 0.048342 -0.010986 0.003575 0.000000 -0.030932 0.000000
# 2 -0.010986 0.017371 -0.009524 0.000000 -0.004378 0.000000
# 3 0.003575 -0.009524 0.020805 0.000000 -0.004540 0.000000
# 4 0.000000 0.000000 0.000000 0.063474 0.000000 -0.040442
# 5 -0.030932 -0.004378 -0.004540 0.000000 0.093349 0.000000
# 6 0.000000 0.000000 0.000000 -0.040442 0.000000 0.116700
#
#
# Mechanical properties :
#
#
# Convention : Reuss Voigt Hill
#
# Bulk Modulus (GPa) = 18.99435 44.97417 31.98426
# Shear Modulus (GPa) = 12.15187 17.78430 14.96809
#
# Velocity S-wave (km/s) = 2.58414 3.12617 2.86799
# Velocity P-wave (km/s) = 4.39790 6.14370 5.34259
#
# Compressibility (1/GPa) = 0.05264724
#
# Stress axis : x y z
#
# Youngs Moduli (GPa) = 20.68599 57.56727 48.06585
#
# Poissons Ratio (x) = 0.63244 -0.17183
# Poissons Ratio (y) = 0.22726 0.45778
# Poissons Ratio (z) = -0.07395 0.54827
#
# Static dielectric constant tensor:
#      x y z
#    x 1.623610 0.000000 -0.002790 
#    y 0.000000 1.635540 0.000000 
#    z -0.002790 0.000000 1.616230 
# 
# From -- ./inp_files/79285.got.cif
#   From: 2010.05.17/outbox.cif.g08.bks.cpg/sg10_40_cif.got.tgz:79285.got - 2010.06.03 11:33:40.
