data_PCOD9149899
_publ_section_title
;
Structure prediction by ZEFSAII (Michael W. Deem and Ramdas Pophale) SiO2 
 PCOD9149899
Probable space group: P 2/M
;
_chemical_formula_sum "Si O2"
_cell_formula_units_Z 28
_cell_length_a 29.810879
_cell_length_b 9.060830
_cell_length_c 9.528008
_cell_angle_alpha 90.000000
_cell_angle_beta 142.676445
_cell_angle_gamma 90.000000
_cell_volume 1560.427015
_symmetry_space_group_name_H-M "P 2/M"
_symmetry_group_IT_number 10
_symmetry_cell_setting 'monoclinic'
loop_
_space_group_symop_operation_xyz
x,y,z
-x,y,-z
-x,-y,-z
x,-y,z
loop_
_atom_site_type_symbol
_atom_site_label
_atom_site_fract_x
_atom_site_fract_y
_atom_site_fract_z
Si Si1 0.068627 0.677610 0.070613
Si Si2 0.791119 0.322876 0.390270
Si Si3 0.803021 0.324592 0.094677
Si Si4 0.070722 0.823581 0.771483
Si Si5 0.369424 0.324392 0.326049
Si Si6 0.364980 0.176322 0.014871
Si Si7 0.492929 0.823468 0.819178
O O1 0.066607 0.500000 0.047168
O O2 0.144402 0.715013 0.340691
O O3 0.064270 0.753301 0.909128
O O4 0.000000 0.718400 0.000000
O O5 0.779225 0.500000 0.363922
O O6 0.814647 0.287014 0.288354
O O7 0.713796 0.242817 0.226916
O O8 0.816409 0.500000 0.111612
O O9 0.857066 0.236469 0.128462
O O10 0.716448 0.295904 0.849549
O O11 0.000000 0.782973 0.500000
O O12 0.073613 0.000000 0.790147
O O13 0.377955 0.500000 0.331162
O O14 0.383284 0.246517 0.211350
O O15 0.425866 0.260922 0.579138
O O16 0.430880 0.211045 0.071799
O O17 0.359151 0.000000 0.013700
O O18 0.480426 0.000000 0.775495
O O19 0.500000 0.786573 0.000000
#
# Coordination Sequence:
#
# PCOD9149899 Si02
#       7
#     4   4   4   4   4   4   4
#     4  10  21  38  60  83 109 145 185 225 272 324
#     4   9  19  36  58  84 110 137 178 229 273 319
#     4   9  19  37  59  82 108 140 179 222 270 325
#     4  11  24  38  54  81 114 146 182 225 270 318
#     4  10  21  37  58  83 109 140 182 229 272 319
#     4  10  20  35  57  82 109 145 183 219 268 328
#     4  10  22  38  54  77 111 147 183 224 271 326
#
# _framework density 17.943805000000001
#
# number of rings (size 3 to 8) (size 9 to 14) (size 15 to 20)
#    0.000    2.143    0.000    3.429    0.000   10.286 
#    0.000    2.857    0.000    0.000    0.000    0.000 
#    0.000    0.000    0.000    0.000    0.000    0.000 
#
# Total GULP energy -156393.050869 kJ/mol
# GULP energy per Si atom -5585.466102 kJ/mol
# Density = 1.790296 g / cm^3
# Si number density = 17.943805 Si / 1000 Ang^3
#
#
#
# Elastic Constant Matrix: (Units=GPa)
#
#
# Indices 1 2 3 4 5 6 
#
# 1 159.1000 73.2267 106.9238 0.0000 -5.5952 0.0000
# 2 73.2267 51.0444 75.4664 0.0000 -2.0722 0.0000
# 3 106.9238 75.4664 174.5483 0.0000 -14.1168 0.0000
# 4 0.0000 0.0000 0.0000 29.9127 0.0000 -2.0908
# 5 -5.5952 -2.0722 -14.1168 0.0000 12.4328 0.0000
# 6 0.0000 0.0000 0.0000 -2.0908 0.0000 25.2537
#
#
#
# Elastic Compliance Matrix: (Units=1/GPa)
#
#
# Indices 1 2 3 4 5 6 
#
# 1 0.018783 -0.028665 0.001304 0.000000 0.005156 0.000000
# 2 -0.028665 0.102647 -0.029158 0.000000 -0.028898 0.000000
# 3 0.001304 -0.029158 0.018929 0.000000 0.017220 0.000000
# 4 0.000000 0.000000 0.000000 0.033625 0.000000 0.002784
# 5 0.005156 -0.028898 0.017220 0.000000 0.097488 0.000000
# 6 0.000000 0.000000 0.000000 0.002784 0.000000 0.039829
#
#
# Mechanical properties :
#
#
# Convention : Reuss Voigt Hill
#
# Bulk Modulus (GPa) = 36.59890 99.54740 68.07315
# Shear Modulus (GPa) = 11.53545 22.12490 16.83017
#
# Velocity S-wave (km/s) = 2.53823 3.51523 3.06590
# Velocity P-wave (km/s) = 5.38803 8.48962 7.11001
#
# Compressibility (1/GPa) = 0.02732322
#
# Stress axis : x y z
#
# Youngs Moduli (GPa) = 53.23843 9.74212 52.82815
#
# Poissons Ratio (x) = 0.27926 -0.06889
# Poissons Ratio (y) = 1.52607 1.54034
# Poissons Ratio (z) = -0.06942 0.28406
#
# Static dielectric constant tensor:
#      x y z
#    x 1.584850 0.000000 0.005650 
#    y 0.000000 1.597690 0.000000 
#    z 0.005650 0.000000 1.597950 
# 
# From -- ./inp_files/37302.got.cif
#   From: 2010.05.17/outbox.cif.g08.bks.cpg/sg10_19_cif.got.tgz:37302.got - 2010.06.03 11:33:40.
