data_PCOD9149788
_publ_section_title
;
Structure prediction by ZEFSAII (Michael W. Deem and Ramdas Pophale) SiO2 
 PCOD9149788
Probable space group: P 2/M
;
_chemical_formula_sum "Si O2"
_cell_formula_units_Z 30
_cell_length_a 27.798379
_cell_length_b 7.496873
_cell_length_c 12.733933
_cell_angle_alpha 90.000000
_cell_angle_beta 34.097411
_cell_angle_gamma 90.000000
_cell_volume 1487.703898
_symmetry_space_group_name_H-M "P 2/M"
_symmetry_group_IT_number 10
_symmetry_cell_setting 'monoclinic'
loop_
_space_group_symop_operation_xyz
x,y,z
-x,y,-z
-x,-y,-z
x,-y,z
loop_
_atom_site_type_symbol
_atom_site_label
_atom_site_fract_x
_atom_site_fract_y
_atom_site_fract_z
Si Si1 0.896975 0.713249 0.994051
Si Si2 0.030929 0.000000 0.749693
Si Si3 0.875785 0.297792 0.277648
Si Si4 0.565284 0.710949 0.714607
Si Si5 0.703293 0.287000 0.295371
Si Si6 0.312114 0.214327 0.323879
Si Si7 0.623581 0.203622 0.007682
Si Si8 0.407188 0.786596 0.706874
O O1 0.906320 0.500000 0.958902
O O2 0.903660 0.746011 0.108225
O O3 0.800915 0.770936 0.134871
O O4 0.967558 0.841438 0.817556
O O5 0.088240 0.155416 0.706492
O O6 0.903965 0.500000 0.250123
O O7 0.772502 0.290714 0.468930
O O8 0.553108 0.500000 0.719418
O O9 0.636767 0.781074 0.503448
O O10 0.604788 0.738605 0.757816
O O11 0.474287 0.798092 0.856433
O O12 0.705418 0.500000 0.305365
O O13 0.662770 0.246172 0.255923
O O14 0.305297 0.000000 0.334528
O O15 0.322272 0.282247 0.186296
O O16 0.620121 0.285609 0.129876
O O17 0.654567 0.000000 0.963720
O O18 0.500000 0.717447 0.500000
O O19 0.417626 0.000000 0.701060
#
# Coordination Sequence:
#
# PCOD9149788 Si02
#       8
#     4   2   4   4   4   4   4   4
#     4  10  21  36  54  83 120 149 187 236 280 345
#     4  12  23  36  58  88 113 155 187 222 294 357
#     4  11  21  36  56  83 118 151 189 232 280 347
#     4  11  21  34  53  78 113 153 195 235 277 330
#     4  10  21  35  53  80 113 152 188 232 287 332
#     4  11  22  36  55  78 114 156 195 233 284 341
#     4  10  22  38  53  79 111 149 198 244 277 327
#     4  10  20  35  56  80 107 146 195 242 285 330
#
# _framework density 20.165302000000001
#
# number of rings (size 3 to 8) (size 9 to 14) (size 15 to 20)
#    0.000    1.467    3.333    2.800    0.933    5.067 
#    0.000    0.000    0.000    0.000    0.000    1.867 
#    0.000    3.200    0.000    0.000    0.000    0.000 
#
# Total GULP energy -167096.617236 kJ/mol
# GULP energy per Si atom -5569.887241 kJ/mol
# Density = 2.011941 g / cm^3
# Si number density = 20.165302 Si / 1000 Ang^3
#
#
#
# Elastic Constant Matrix: (Units=GPa)
#
#
# Indices 1 2 3 4 5 6 
#
# 1 57.0697 -7.7630 10.8438 0.0000 3.3214 0.0000
# 2 -7.7630 74.2291 -5.1837 0.0000 -2.5147 0.0000
# 3 10.8438 -5.1837 14.4547 0.0000 1.3768 0.0000
# 4 0.0000 0.0000 0.0000 12.8279 0.0000 -9.6349
# 5 3.3214 -2.5147 1.3768 0.0000 29.1287 0.0000
# 6 0.0000 0.0000 0.0000 -9.6349 0.0000 25.3890
#
#
#
# Elastic Compliance Matrix: (Units=1/GPa)
#
#
# Indices 1 2 3 4 5 6 
#
# 1 0.020592 0.001059 -0.014920 0.000000 -0.001551 0.000000
# 2 0.001059 0.013899 0.004106 0.000000 0.000885 0.000000
# 3 -0.014920 0.004106 0.082020 0.000000 -0.001821 0.000000
# 4 0.000000 0.000000 0.000000 0.109034 0.000000 0.041377
# 5 -0.001551 0.000885 -0.001821 0.000000 0.034670 0.000000
# 6 0.000000 0.000000 0.000000 0.041377 0.000000 0.055090
#
#
# Mechanical properties :
#
#
# Convention : Reuss Voigt Hill
#
# Bulk Modulus (GPa) = 10.30922 15.72751 13.01836
# Shear Modulus (GPa) = 13.61847 23.32620 18.47233
#
# Velocity S-wave (km/s) = 2.60155 3.40479 3.02991
# Velocity P-wave (km/s) = 3.76132 4.82421 4.32554
#
# Compressibility (1/GPa) = 0.09700058
#
# Stress axis : x y z
#
# Youngs Moduli (GPa) = 48.56312 71.94623 12.19210
#
# Poissons Ratio (x) = -0.07619 0.18191
# Poissons Ratio (y) = -0.05143 -0.05006
# Poissons Ratio (z) = 0.72457 -0.29539
#
# Static dielectric constant tensor:
#      x y z
#    x 1.708900 0.000000 0.008300 
#    y 0.000000 1.749740 0.000000 
#    z 0.008300 0.000000 1.749240 
# 
# From -- ./inp_files/56625.got.cif
#   From: 2010.05.17/outbox.cif.g08.bks.cpg/sg10_29_cif.got.tgz:56625.got - 2010.06.03 11:33:40.
