data_PCOD9149379
_publ_section_title
;
Structure prediction by ZEFSAII (Michael W. Deem and Ramdas Pophale) SiO2 
 PCOD9149379
Probable space group: P 2/M
;
_chemical_formula_sum "Si O2"
_cell_formula_units_Z 32
_cell_length_a 13.859432
_cell_length_b 23.901037
_cell_length_c 8.004094
_cell_angle_alpha 90.000000
_cell_angle_beta 147.683132
_cell_angle_gamma 90.000000
_cell_volume 1417.438628
_symmetry_space_group_name_H-M "P 2/M"
_symmetry_group_IT_number 10
_symmetry_cell_setting 'monoclinic'
loop_
_space_group_symop_operation_xyz
x,y,z
-x,y,-z
-x,-y,-z
x,-y,z
loop_
_atom_site_type_symbol
_atom_site_label
_atom_site_fract_x
_atom_site_fract_y
_atom_site_fract_z
Si Si1 0.210132 0.438682 0.858415
Si Si2 0.274919 0.752419 0.161134
Si Si3 0.713741 0.683650 0.498618
Si Si4 0.210339 0.561584 0.259454
Si Si5 0.292475 0.936461 0.646254
Si Si6 0.702973 0.318737 0.125358
Si Si7 0.312280 0.062452 0.274043
Si Si8 0.986983 0.144285 0.183550
O O1 0.279569 0.500000 0.910490
O O2 0.295192 0.385364 0.896557
O O3 0.000000 0.437214 0.500000
O O4 0.229841 0.433397 0.087513
O O5 0.500000 0.762493 0.500000
O O6 0.221073 0.720527 0.252790
O O7 0.230693 0.711456 0.942674
O O8 0.137833 0.804203 0.941855
O O9 0.719880 0.618071 0.554530
O O10 0.798322 0.693986 0.440635
O O11 0.504753 0.698838 0.173418
O O12 0.285129 0.500000 0.416902
O O13 0.000000 0.560301 0.000000
O O14 0.290356 0.938489 0.441239
O O15 0.179535 0.880250 0.527332
O O16 0.232472 0.000000 0.613473
O O17 0.500000 0.930372 0.000000
O O18 0.500000 0.091142 0.500000
O O19 0.319206 0.000000 0.215746
O O20 0.139283 0.092454 0.953746
O O21 0.000000 0.150224 0.000000
#
# Coordination Sequence:
#
# PCOD9149379 Si02
#       8
#     4   4   4   4   4   4   4   4
#     4  10  20  35  56  85 121 156 199 261 327 395
#     4  10  21  40  65  87 122 171 220 277 328 383
#     4  10  21  38  63  87 118 159 209 261 323 396
#     4  10  20  34  55  87 122 158 198 255 328 397
#     4   9  18  35  63  97 135 173 208 260 324 382
#     4  10  21  39  61  89 118 158 209 262 326 393
#     4   9  17  32  60  94 127 168 212 254 309 378
#     4  10  20  36  63  90 125 171 220 262 316 385
#
# _framework density 22.575934
#
# number of rings (size 3 to 8) (size 9 to 14) (size 15 to 20)
#    0.000    2.250    1.250    1.500    0.000    4.000 
#    2.250    3.125   33.000    3.000    0.000    0.000 
#    0.000    0.000    0.000    0.125    0.000    0.000 
#
# Total GULP energy -178390.460364 kJ/mol
# GULP energy per Si atom -5574.701886 kJ/mol
# Density = 2.252455 g / cm^3
# Si number density = 22.575934 Si / 1000 Ang^3
#
#
#
# Elastic Constant Matrix: (Units=GPa)
#
#
# Indices 1 2 3 4 5 6 
#
# 1 63.7959 31.6783 28.6965 0.0000 -12.8710 0.0000
# 2 31.6783 112.0839 49.0330 0.0000 -9.3110 0.0000
# 3 28.6965 49.0330 78.1296 0.0000 -4.0867 0.0000
# 4 0.0000 0.0000 0.0000 30.9471 0.0000 18.5988
# 5 -12.8710 -9.3110 -4.0867 0.0000 31.3669 0.0000
# 6 0.0000 0.0000 0.0000 18.5988 0.0000 7.5946
#
#
#
# Elastic Compliance Matrix: (Units=1/GPa)
#
#
# Indices 1 2 3 4 5 6 
#
# 1 0.021038 -0.002953 -0.005506 0.000000 0.007039 0.000000
# 2 -0.002953 0.012938 -0.006945 0.000000 0.001724 0.000000
# 3 -0.005506 -0.006945 0.019084 0.000000 -0.001834 0.000000
# 4 0.000000 0.000000 0.000000 -0.068490 0.000000 0.167729
# 5 0.007039 0.001724 -0.001834 0.000000 0.035042 0.000000
# 6 0.000000 0.000000 0.000000 0.167729 0.000000 -0.279089
#
#
# Mechanical properties :
#
#
# Convention : Reuss Voigt Hill
#
# Bulk Modulus (GPa) = 44.93786 52.53612 48.73699
# Shear Modulus (GPa) = -22.59852 23.62182 0.51165
#
# Velocity S-wave (km/s) = -3.16729 3.23821 0.47658
# Velocity P-wave (km/s) = 2.56374 6.10759 4.68377
#
# Compressibility (1/GPa) = 0.02225295
#
# Stress axis : x y z
#
# Youngs Moduli (GPa) = 47.53337 77.29318 52.39968
#
# Poissons Ratio (x) = 0.22821 0.28851
# Poissons Ratio (y) = 0.14035 0.36391
# Poissons Ratio (z) = 0.26171 0.53679
#
# Static dielectric constant tensor:
#      x y z
#    x 1.923780 0.000000 -0.002360 
#    y 0.000000 1.852470 0.000000 
#    z -0.002360 0.000000 1.899060 
# 
# From -- ./inp_files/30617.got.cif
#   From: 2010.05.17/outbox.cif.g08.bks.cpg/sg10_16_cif.got.tgz:30617.got - 2010.06.03 11:33:40.
