data_PCOD9149436
_publ_section_title
;
Structure prediction by ZEFSAII (Michael W. Deem and Ramdas Pophale) SiO2 
 PCOD9149436
Probable space group: P 2/M
;
_chemical_formula_sum "Si O2"
_cell_formula_units_Z 29
_cell_length_a 13.194729
_cell_length_b 10.165240
_cell_length_c 14.680760
_cell_angle_alpha 90.000000
_cell_angle_beta 53.167862
_cell_angle_gamma 90.000000
_cell_volume 1576.054205
_symmetry_space_group_name_H-M "P 2/M"
_symmetry_group_IT_number 10
_symmetry_cell_setting 'monoclinic'
loop_
_space_group_symop_operation_xyz
x,y,z
-x,y,-z
-x,-y,-z
x,-y,z
loop_
_atom_site_type_symbol
_atom_site_label
_atom_site_fract_x
_atom_site_fract_y
_atom_site_fract_z
Si Si1 0.829195 0.347415 0.852891
Si Si2 0.602392 0.844998 0.025327
Si Si3 0.056327 0.655502 0.874440
Si Si4 0.753603 0.847752 0.487468
Si Si5 0.019471 0.651899 0.597178
Si Si6 0.500000 0.500000 0.500000
Si Si7 0.492538 0.157448 0.279385
Si Si8 0.326418 0.745442 0.657559
O O1 0.786337 0.500000 0.882335
O O2 0.947554 0.331216 0.857523
O O3 0.888936 0.324192 0.721206
O O4 0.720520 0.246198 0.937238
O O5 0.541040 0.800209 0.154214
O O6 0.638044 0.000000 0.014394
O O7 0.500000 0.835172 0.000000
O O8 0.082362 0.500000 0.872536
O O9 0.186560 0.719459 0.772420
O O10 0.000000 0.707067 0.000000
O O11 0.873982 0.752855 0.427532
O O12 0.647886 0.797902 0.616157
O O13 0.690537 0.836996 0.421728
O O14 0.786386 0.000000 0.488436
O O15 0.057012 0.500000 0.598209
O O16 0.000000 0.663927 0.500000
O O17 0.396344 0.614907 0.584451
O O18 0.588454 0.198884 0.306845
O O19 0.486058 0.000000 0.281122
#
# Coordination Sequence:
#
# PCOD9149436 Si02
#       8
#     4   4   4   4   4   1   4   4
#     4  10  21  40  61  87 120 154 194 247 302 354
#     4  10  23  43  65  87 118 160 206 252 299 356
#     4  10  20  34  56  84 118 157 192 238 295 351
#     4  11  23  38  62  91 122 160 200 248 308 368
#     4  10  23  41  63  89 121 158 199 253 306 361
#     4  12  24  32  60  96 120 172 204 254 306 374
#     4  10  22  40  59  85 122 162 199 250 306 359
#     4  12  21  38  59  88 127 156 204 248 305 368
#
# _framework density 18.400382
#
# number of rings (size 3 to 8) (size 9 to 14) (size 15 to 20)
#    0.000    1.517    3.448    1.241    2.897    2.207 
#    1.241    0.000    0.000    2.897    0.000    0.000 
#    0.000    0.000    0.000    0.000    0.000    0.000 
#
# Total GULP energy -161635.554382 kJ/mol
# GULP energy per Si atom -5573.639806 kJ/mol
# Density = 1.835850 g / cm^3
# Si number density = 18.400382 Si / 1000 Ang^3
#
#
#
# Elastic Constant Matrix: (Units=GPa)
#
#
# Indices 1 2 3 4 5 6 
#
# 1 38.3737 23.0363 30.7086 0.0000 -5.7442 0.0000
# 2 23.0363 49.9161 50.9285 0.0000 -15.4456 0.0000
# 3 30.7086 50.9285 150.9487 0.0000 -11.9723 0.0000
# 4 0.0000 0.0000 0.0000 29.1600 0.0000 -11.2604
# 5 -5.7442 -15.4456 -11.9723 0.0000 36.1876 0.0000
# 6 0.0000 0.0000 0.0000 -11.2604 0.0000 15.1813
#
#
#
# Elastic Compliance Matrix: (Units=1/GPa)
#
#
# Indices 1 2 3 4 5 6 
#
# 1 0.036793 -0.014702 -0.002628 0.000000 -0.001304 0.000000
# 2 -0.014702 0.040309 -0.009683 0.000000 0.011667 0.000000
# 3 -0.002628 -0.009683 0.010337 0.000000 -0.001130 0.000000
# 4 0.000000 0.000000 0.000000 0.048059 0.000000 0.035647
# 5 -0.001304 0.011667 -0.001130 0.000000 0.032033 0.000000
# 6 0.000000 0.000000 0.000000 0.035647 0.000000 0.092311
#
#
# Mechanical properties :
#
#
# Convention : Reuss Voigt Hill
#
# Bulk Modulus (GPa) = 29.93000 49.84278 39.88639
# Shear Modulus (GPa) = 15.38432 25.07679 20.23056
#
# Velocity S-wave (km/s) = 2.89465 3.69567 3.31941
# Velocity P-wave (km/s) = 5.24150 6.73479 6.03451
#
# Compressibility (1/GPa) = 0.03341129
#
# Stress axis : x y z
#
# Youngs Moduli (GPa) = 27.17871 24.80857 96.74128
#
# Poissons Ratio (x) = 0.36474 0.25426
# Poissons Ratio (y) = 0.39959 0.93678
# Poissons Ratio (z) = 0.07143 0.24023
#
# Static dielectric constant tensor:
#      x y z
#    x 1.608810 0.000000 0.020040 
#    y 0.000000 1.616320 0.000000 
#    z 0.020040 0.000000 1.656730 
# 
# From -- ./inp_files/66448.got.cif
#   From: 2010.05.17/outbox.cif.g08.bks.cpg/sg10_34_cif.got.tgz:66448.got - 2010.06.03 11:33:40.
