data_PCOD9149860
_publ_section_title
;
Structure prediction by ZEFSAII (Michael W. Deem and Ramdas Pophale) SiO2 
 PCOD9149860
Probable space group: P 2/M
;
_chemical_formula_sum "Si O2"
_cell_formula_units_Z 32
_cell_length_a 22.756482
_cell_length_b 8.675616
_cell_length_c 11.301352
_cell_angle_alpha 90.000000
_cell_angle_beta 130.874812
_cell_angle_gamma 90.000000
_cell_volume 1687.091999
_symmetry_space_group_name_H-M "P 2/M"
_symmetry_group_IT_number 10
_symmetry_cell_setting 'monoclinic'
loop_
_space_group_symop_operation_xyz
x,y,z
-x,y,-z
-x,-y,-z
x,-y,z
loop_
_atom_site_type_symbol
_atom_site_label
_atom_site_fract_x
_atom_site_fract_y
_atom_site_fract_z
Si Si1 0.348666 0.683184 0.293252
Si Si2 0.719834 0.817365 0.166302
Si Si3 0.197737 0.816724 0.974736
Si Si4 0.251618 0.682100 0.545363
Si Si5 0.102613 0.817305 0.221979
Si Si6 0.399578 0.816887 0.609597
Si Si7 0.569133 0.683675 0.849492
Si Si8 0.053061 0.316932 0.905034
O O1 0.347024 0.500000 0.314234
O O2 0.381312 0.769497 0.450174
O O3 0.401718 0.710621 0.247229
O O4 0.262825 0.741989 0.145831
O O5 0.772282 0.790546 0.119040
O O6 0.750719 0.728202 0.320488
O O7 0.718178 0.000000 0.188154
O O8 0.633979 0.758848 0.018589
O O9 0.114623 0.742736 0.890824
O O10 0.195109 0.000000 0.992980
O O11 0.242747 0.500000 0.517813
O O12 0.183523 0.768300 0.385315
O O13 0.333950 0.737150 0.602435
O O14 0.030634 0.764750 0.209215
O O15 0.099387 0.000000 0.197809
O O16 0.088825 0.731660 0.079346
O O17 0.484816 0.755992 0.754191
O O18 0.395419 0.000000 0.617483
O O19 0.566917 0.500000 0.865152
O O20 0.043673 0.500000 0.887412
#
# Coordination Sequence:
#
# PCOD9149860 Si02
#       8
#     4   4   4   4   4   4   4   4
#     4  10  20  35  56  84 118 151 186 232 285 339
#     4  10  22  41  62  84 112 148 191 237 283 333
#     4  10  20  36  59  86 116 151 190 231 279 335
#     4  12  25  42  61  82 112 149 191 236 285 337
#     4  11  22  39  61  87 120 153 187 229 282 336
#     4  12  24  37  56  83 114 149 191 236 285 340
#     4  10  21  38  59  84 114 149 189 234 285 337
#     4  11  21  36  60  91 123 152 187 228 276 334
#
# _framework density 18.967548000000001
#
# number of rings (size 3 to 8) (size 9 to 14) (size 15 to 20)
#    0.000    1.250    0.000    7.875    0.000    5.000 
#    0.000    3.125    0.000    3.750    0.000    0.000 
#    0.000    0.000    0.000    0.000    0.000    0.000 
#
# Total GULP energy -179020.092042 kJ/mol
# GULP energy per Si atom -5594.377876 kJ/mol
# Density = 1.892438 g / cm^3
# Si number density = 18.967548 Si / 1000 Ang^3
#
#
#
# Elastic Constant Matrix: (Units=GPa)
#
#
# Indices 1 2 3 4 5 6 
#
# 1 58.2827 17.7122 14.2830 0.0000 23.0082 0.0000
# 2 17.7122 64.0804 5.5398 0.0000 4.6725 0.0000
# 3 14.2830 5.5398 -11.5012 0.0000 -13.4482 0.0000
# 4 0.0000 0.0000 0.0000 34.9306 0.0000 1.8575
# 5 23.0082 4.6725 -13.4482 0.0000 10.4202 0.0000
# 6 0.0000 0.0000 0.0000 1.8575 0.0000 33.3072
#
#
#
# Elastic Compliance Matrix: (Units=1/GPa)
#
#
# Indices 1 2 3 4 5 6 
#
# 1 0.015362 -0.005771 0.021097 0.000000 -0.004104 0.000000
# 2 -0.005771 0.017177 -0.001907 0.000000 0.002578 0.000000
# 3 0.021097 -0.001907 -0.003268 0.000000 -0.049944 0.000000
# 4 0.000000 0.000000 0.000000 0.028713 0.000000 -0.001601
# 5 -0.004104 0.002578 -0.049944 0.000000 0.039416 0.000000
# 6 0.000000 0.000000 0.000000 -0.001601 0.000000 0.030113
#
#
# Mechanical properties :
#
#
# Convention : Reuss Voigt Hill
#
# Bulk Modulus (GPa) = 17.82224 20.65909 19.24067
# Shear Modulus (GPa) = 41.88344 20.62007 31.25176
#
# Velocity S-wave (km/s) = 4.70421 3.30073 4.06352
# Velocity P-wave (km/s) = 6.23880 5.04400 5.67294
#
# Compressibility (1/GPa) = 0.05610966
#
# Stress axis : x y z
#
# Youngs Moduli (GPa) = 65.09718 58.21638 -306.03882
#
# Poissons Ratio (x) = 0.33594 6.45642
# Poissons Ratio (y) = 0.37565 -0.58362
# Poissons Ratio (z) = -1.37334 0.11102
#
# Static dielectric constant tensor:
#      x y z
#    x 1.666210 0.000000 -0.005320 
#    y 0.000000 1.629440 0.000000 
#    z -0.005320 0.000000 1.621220 
# 
# From -- ./inp_files/55317.got.cif
#   From: 2010.05.17/outbox.cif.g08.bks.cpg/sg10_28_cif.got.tgz:55317.got - 2010.06.03 11:33:40.
