data_PCOD9149541
_publ_section_title
;
Structure prediction by ZEFSAII (Michael W. Deem and Ramdas Pophale) SiO2 
 PCOD9149541
Probable space group: P 2/M
;
_chemical_formula_sum "Si O2"
_cell_formula_units_Z 29
_cell_length_a 22.035379
_cell_length_b 7.462932
_cell_length_c 14.415302
_cell_angle_alpha 90.000000
_cell_angle_beta 148.216405
_cell_angle_gamma 90.000000
_cell_volume 1248.611479
_symmetry_space_group_name_H-M "P 2/M"
_symmetry_group_IT_number 10
_symmetry_cell_setting 'monoclinic'
loop_
_space_group_symop_operation_xyz
x,y,z
-x,y,-z
-x,-y,-z
x,-y,z
loop_
_atom_site_type_symbol
_atom_site_label
_atom_site_fract_x
_atom_site_fract_y
_atom_site_fract_z
Si Si1 0.630959 0.283288 0.574997
Si Si2 0.326935 0.709436 0.996501
Si Si3 0.233113 0.707322 0.068126
Si Si4 0.970282 0.206864 0.715946
Si Si5 0.537789 0.280410 0.151215
Si Si6 0.886165 0.783914 0.409964
Si Si7 0.245619 0.285139 0.457422
Si Si8 0.500000 0.000000 0.500000
O O1 0.608901 0.500000 0.547194
O O2 0.709563 0.218614 0.764334
O O3 0.699372 0.240665 0.570109
O O4 0.520409 0.160455 0.447338
O O5 0.350729 0.500000 0.044616
O O6 0.276116 0.785981 0.026218
O O7 0.443864 0.782410 0.104278
O O8 0.227393 0.718397 0.789353
O O9 0.267404 0.500000 0.114113
O O10 0.095188 0.711794 0.893670
O O11 0.906505 0.280414 0.541327
O O12 0.881941 0.220005 0.685789
O O13 0.994679 0.000000 0.727725
O O14 0.537332 0.500000 0.150679
O O15 0.664290 0.222465 0.347149
O O16 0.500000 0.222980 0.000000
O O17 0.000000 0.732724 0.500000
O O18 0.878354 0.000000 0.399496
O O19 0.240258 0.500000 0.454208
#
# Coordination Sequence:
#
# PCOD9149541 Si02
#       8
#     4   4   4   4   4   4   4   1
#     4  10  25  46  69 101 134 170 220 271 322 392
#     4  10  20  34  59  89 118 157 209 265 316 380
#     4  10  22  40  61  91 126 163 214 269 325 379
#     4  11  23  38  62  88 126 167 213 270 320 392
#     4   9  18  34  58  89 122 157 203 259 317 381
#     4  10  20  36  53  82 124 167 205 254 321 378
#     4  10  22  42  66  90 125 170 211 259 325 386
#     4  12  26  44  76 100 134 178 216 268 332 386
#
# _framework density 23.2258
#
# number of rings (size 3 to 8) (size 9 to 14) (size 15 to 20)
#    0.000    1.931    1.379    1.448    3.862    3.034 
#    0.000    3.448    0.000    2.483    0.000    0.000 
#    0.000    0.000    0.000    0.000    0.000    0.000 
#
# Total GULP energy -161865.705781 kJ/mol
# GULP energy per Si atom -5581.576061 kJ/mol
# Density = 2.317294 g / cm^3
# Si number density = 23.225800 Si / 1000 Ang^3
#
#
#
# Elastic Constant Matrix: (Units=GPa)
#
#
# Indices 1 2 3 4 5 6 
#
# 1 123.0975 16.4220 31.2456 0.0000 6.0695 0.0000
# 2 16.4220 81.4124 -11.3811 0.0000 -3.9616 0.0000
# 3 31.2456 -11.3811 95.3858 0.0000 -2.5152 0.0000
# 4 0.0000 0.0000 0.0000 34.7120 0.0000 21.8429
# 5 6.0695 -3.9616 -2.5152 0.0000 40.9207 0.0000
# 6 0.0000 0.0000 0.0000 21.8429 0.0000 25.1509
#
#
#
# Elastic Compliance Matrix: (Units=1/GPa)
#
#
# Indices 1 2 3 4 5 6 
#
# 1 0.009414 -0.002468 -0.003427 0.000000 -0.001846 0.000000
# 2 -0.002468 0.013208 0.002432 0.000000 0.001794 0.000000
# 3 -0.003427 0.002432 0.011935 0.000000 0.001477 0.000000
# 4 0.000000 0.000000 0.000000 0.063525 0.000000 -0.055170
# 5 -0.001846 0.001794 0.001477 0.000000 0.024976 0.000000
# 6 0.000000 0.000000 0.000000 -0.055170 0.000000 0.087674
#
#
# Mechanical properties :
#
#
# Convention : Reuss Voigt Hill
#
# Bulk Modulus (GPa) = 36.19070 41.38542 38.78806
# Shear Modulus (GPa) = 22.03930 37.73065 29.88497
#
# Velocity S-wave (km/s) = 3.08379 4.03490 3.59097
# Velocity P-wave (km/s) = 5.31936 6.29004 5.82496
#
# Compressibility (1/GPa) = 0.02763141
#
# Stress axis : x y z
#
# Youngs Moduli (GPa) = 106.22847 75.71084 83.78485
#
# Poissons Ratio (x) = 0.18683 0.28711
# Poissons Ratio (y) = 0.26214 -0.20373
# Poissons Ratio (z) = 0.36402 -0.18410
#
# Static dielectric constant tensor:
#      x y z
#    x 1.871580 0.000000 -0.009960 
#    y 0.000000 1.887440 0.000000 
#    z -0.009960 0.000000 1.889590 
# 
# From -- ./inp_files/70327.got.cif
#   From: 2010.05.17/outbox.cif.g08.bks.cpg/sg10_36_cif.got.tgz:70327.got - 2010.06.03 11:33:40.
