data_PCOD9149491
_publ_section_title
;
Structure prediction by ZEFSAII (Michael W. Deem and Ramdas Pophale) SiO2 
 PCOD9149491
Probable space group: P 2/M
;
_chemical_formula_sum "Si O2"
_cell_formula_units_Z 32
_cell_length_a 21.363851
_cell_length_b 10.565379
_cell_length_c 21.218433
_cell_angle_alpha 90.000000
_cell_angle_beta 158.971975
_cell_angle_gamma 90.000000
_cell_volume 1718.541700
_symmetry_space_group_name_H-M "P 2/M"
_symmetry_group_IT_number 10
_symmetry_cell_setting 'monoclinic'
loop_
_space_group_symop_operation_xyz
x,y,z
-x,y,-z
-x,-y,-z
x,-y,z
loop_
_atom_site_type_symbol
_atom_site_label
_atom_site_fract_x
_atom_site_fract_y
_atom_site_fract_z
Si Si1 0.475065 0.152736 0.547494
Si Si2 0.573666 0.769106 0.875209
Si Si3 0.781553 0.651120 0.501863
Si Si4 0.861890 0.649692 0.224791
Si Si5 0.410244 0.135162 0.846275
Si Si6 0.130898 0.153529 0.303366
Si Si7 0.206290 0.642324 0.703122
Si Si8 0.262854 0.852167 0.099953
O O1 0.500000 0.201044 0.500000
O O2 0.281146 0.172715 0.392435
O O3 0.619800 0.203235 0.733077
O O4 0.496003 0.000000 0.565124
O O5 0.408306 0.681317 0.704194
O O6 0.525384 0.852664 0.891138
O O7 0.628527 0.838819 0.862745
O O8 0.743532 0.692042 0.056103
O O9 0.794596 0.500000 0.530335
O O10 0.816684 0.752050 0.590735
O O11 0.937398 0.680595 0.599129
O O12 0.855038 0.500000 0.225164
O O13 0.778072 0.695481 0.211219
O O14 0.293169 0.259588 0.738494
O O15 0.314355 0.000000 0.751557
O O16 0.500000 0.133994 0.000000
O O17 0.130546 0.000000 0.319386
O O18 0.936526 0.191200 0.097713
O O19 0.279820 0.500000 0.765741
O O20 0.000000 0.633981 0.500000
O O21 0.243631 0.000000 0.095836
#
# Coordination Sequence:
#
# PCOD9149491 Si02
#       8
#     4   4   4   4   4   4   4   4
#     4   9  18  34  58  90 126 156 191 241 287 337
#     4  12  21  37  60  81 114 158 194 242 296 352
#     4  11  23  38  59  90 120 149 199 250 292 352
#     4  10  21  37  56  83 113 147 193 248 297 347
#     4  11  24  39  56  83 115 149 192 244 300 357
#     4  10  20  36  59  89 122 158 197 235 290 348
#     4  10  21  40  62  81 108 149 197 248 300 358
#     4  10  20  34  57  87 118 156 197 237 288 348
#
# _framework density 18.620439000000001
#
# number of rings (size 3 to 8) (size 9 to 14) (size 15 to 20)
#    0.000    1.625    3.750    1.500    0.000    3.500 
#    0.000    3.125    0.000    0.375    0.000    0.875 
#    0.000    0.000    0.000    0.000    0.000    0.000 
#
# Total GULP energy -178243.109892 kJ/mol
# GULP energy per Si atom -5570.097184 kJ/mol
# Density = 1.857806 g / cm^3
# Si number density = 18.620439 Si / 1000 Ang^3
#
#
#
# Elastic Constant Matrix: (Units=GPa)
#
#
# Indices 1 2 3 4 5 6 
#
# 1 33.1154 68.7733 -6.7489 0.0000 -30.1170 0.0000
# 2 68.7733 50.1269 48.1087 0.0000 15.3114 0.0000
# 3 -6.7489 48.1087 87.9053 0.0000 -14.1314 0.0000
# 4 0.0000 0.0000 0.0000 19.3388 0.0000 -2.8854
# 5 -30.1170 15.3114 -14.1314 0.0000 22.3709 0.0000
# 6 0.0000 0.0000 0.0000 -2.8854 0.0000 29.7249
#
#
#
# Elastic Compliance Matrix: (Units=1/GPa)
#
#
# Indices 1 2 3 4 5 6 
#
# 1 0.000225 0.009271 -0.006710 0.000000 -0.010281 0.000000
# 2 0.009271 0.001357 0.002033 0.000000 0.012837 0.000000
# 3 -0.006710 0.002033 0.008985 0.000000 -0.004749 0.000000
# 4 0.000000 0.000000 0.000000 0.052469 0.000000 0.005093
# 5 -0.010281 0.012837 -0.004749 0.000000 0.019074 0.000000
# 6 0.000000 0.000000 0.000000 0.005093 0.000000 0.034136
#
#
# Mechanical properties :
#
#
# Convention : Reuss Voigt Hill
#
# Bulk Modulus (GPa) = 50.61752 43.49042 47.05397
# Shear Modulus (GPa) = 43.99803 18.35456 31.17629
#
# Velocity S-wave (km/s) = 4.86623 3.14303 4.09627
# Velocity P-wave (km/s) = 7.66919 6.04801 6.90633
#
# Compressibility (1/GPa) = 0.01975601
#
# Stress axis : x y z
#
# Youngs Moduli (GPa) = 4447.61695 737.01438 111.29936
#
# Poissons Ratio (x) = -6.83319 0.74677
# Poissons Ratio (y) = -41.23585 -0.22626
# Poissons Ratio (z) = 29.84174 -1.49830
#
# Static dielectric constant tensor:
#      x y z
#    x 1.972040 0.000000 -0.096250 
#    y 0.000000 1.646130 0.000000 
#    z -0.096250 0.000000 1.697840 
# 
# From -- ./inp_files/86267.got.cif
#   From: 2010.05.17/outbox.cif.g08.bks.cpg/sg10_44_cif.got.tgz:86267.got - 2010.06.03 11:33:40.
