data_PCOD9149355
_publ_section_title
;
Structure prediction by ZEFSAII (Michael W. Deem and Ramdas Pophale) SiO2 
 PCOD9149355
Probable space group: P 2/M
;
_chemical_formula_sum "Si O2"
_cell_formula_units_Z 32
_cell_length_a 22.635428
_cell_length_b 9.877577
_cell_length_c 19.985961
_cell_angle_alpha 90.000000
_cell_angle_beta 19.932157
_cell_angle_gamma 90.000000
_cell_volume 1523.352399
_symmetry_space_group_name_H-M "P 2/M"
_symmetry_group_IT_number 10
_symmetry_cell_setting 'monoclinic'
loop_
_space_group_symop_operation_xyz
x,y,z
-x,y,-z
-x,-y,-z
x,-y,z
loop_
_atom_site_type_symbol
_atom_site_label
_atom_site_fract_x
_atom_site_fract_y
_atom_site_fract_z
Si Si1 0.479052 0.159175 0.734211
Si Si2 0.051138 0.659007 0.021787
Si Si3 0.151069 0.657325 0.122646
Si Si4 0.843388 0.651784 0.621721
Si Si5 0.807297 0.659587 0.407646
Si Si6 0.381174 0.157145 0.688598
Si Si7 0.349149 0.354616 0.037838
Si Si8 0.596668 0.151063 0.823993
O O1 0.301401 0.240420 0.939404
O O2 0.486500 0.163545 0.645399
O O3 0.642857 0.242786 0.587326
O O4 0.473706 0.000000 0.759653
O O5 0.099017 0.500000 0.972880
O O6 0.212572 0.749774 0.871582
O O7 0.896501 0.677123 0.239630
O O8 0.000000 0.692324 0.000000
O O9 0.185370 0.500000 0.064866
O O10 0.179703 0.659790 0.172317
O O11 0.962339 0.690326 0.295119
O O12 0.880533 0.500000 0.556890
O O13 0.764034 0.755085 0.654502
O O14 0.000000 0.705548 0.500000
O O15 0.698945 0.635650 0.833434
O O16 0.760488 0.500000 0.464778
O O17 0.500000 0.199483 0.500000
O O18 0.329437 0.000000 0.733477
O O19 0.431361 0.500000 0.931291
O O20 0.470793 0.225496 0.906107
O O21 0.639672 0.000000 0.757946
O O22 0.500000 0.142506 0.000000
#
# Coordination Sequence:
#
# PCOD9149355 Si02
#       8
#     4   4   4   4   4   4   4   4
#     4  11  23  38  59  85 114 150 192 237 290 348
#     4  10  20  34  55  84 112 142 185 237 290 341
#     4  10  21  40  62  82 111 153 197 240 286 340
#     4   9  17  31  52  80 112 141 178 227 273 321
#     4  10  21  38  59  83 114 150 190 237 291 346
#     4  10  21  36  54  80 113 149 188 232 287 351
#     4   9  18  34  56  79 104 141 185 226 272 327
#     4   9  17  30  50  75 105 140 174 212 263 319
#
# _framework density 21.006302999999999
#
# number of rings (size 3 to 8) (size 9 to 14) (size 15 to 20)
#    0.000    2.250    1.250    1.500    0.000    4.250 
#    2.250    0.000    0.000    0.000    0.000    0.000 
#    0.000    0.000    0.000    0.000    0.000    0.000 
#
# Total GULP energy -178576.254713 kJ/mol
# GULP energy per Si atom -5580.507960 kJ/mol
# Density = 2.095849 g / cm^3
# Si number density = 21.006303 Si / 1000 Ang^3
#
#
#
# Elastic Constant Matrix: (Units=GPa)
#
#
# Indices 1 2 3 4 5 6 
#
# 1 80.7642 50.1473 31.8496 0.0000 -16.0454 0.0000
# 2 50.1473 114.3527 74.8831 0.0000 -26.6207 0.0000
# 3 31.8496 74.8831 94.5999 0.0000 -21.6748 0.0000
# 4 0.0000 0.0000 0.0000 43.8891 0.0000 -21.0999
# 5 -16.0454 -26.6207 -21.6748 0.0000 43.8498 0.0000
# 6 0.0000 0.0000 0.0000 -21.0999 0.0000 31.6912
#
#
#
# Elastic Compliance Matrix: (Units=1/GPa)
#
#
# Indices 1 2 3 4 5 6 
#
# 1 0.017177 -0.007423 0.000565 0.000000 0.002058 0.000000
# 2 -0.007423 0.022157 -0.014187 0.000000 0.003722 0.000000
# 3 0.000565 -0.014187 0.022199 0.000000 0.002567 0.000000
# 4 0.000000 0.000000 0.000000 0.033511 0.000000 0.022312
# 5 0.002058 0.003722 0.002567 0.000000 0.027087 0.000000
# 6 0.000000 0.000000 0.000000 0.022312 0.000000 0.046410
#
#
# Mechanical properties :
#
#
# Convention : Reuss Voigt Hill
#
# Bulk Modulus (GPa) = 51.43597 67.05298 59.24448
# Shear Modulus (GPa) = 23.02957 32.74179 27.88568
#
# Velocity S-wave (km/s) = 3.31466 3.95228 3.64743
# Velocity P-wave (km/s) = 6.26007 7.26753 6.78253
#
# Compressibility (1/GPa) = 0.01944165
#
# Stress axis : x y z
#
# Youngs Moduli (GPa) = 58.21682 45.13255 45.04741
#
# Poissons Ratio (x) = 0.33503 -0.02543
# Poissons Ratio (y) = 0.43216 0.63908
# Poissons Ratio (z) = -0.03286 0.64029
#
# Static dielectric constant tensor:
#      x y z
#    x 1.800480 0.000000 0.045630 
#    y 0.000000 1.741470 0.000000 
#    z 0.045630 0.000000 1.758720 
# 
# From -- ./inp_files/90576.got.cif
#   From: 2010.05.17/outbox.cif.g08.bks.cpg/sg10_46_cif.got.tgz:90576.got - 2010.06.03 11:33:40.
