data_PCOD9149144
_publ_section_title
;
Structure prediction by ZEFSAII (Michael W. Deem and Ramdas Pophale) SiO2 
 PCOD9149144
Probable space group: P 2/M
;
_chemical_formula_sum "Si O2"
_cell_formula_units_Z 26
_cell_length_a 19.016200
_cell_length_b 9.613762
_cell_length_c 9.389619
_cell_angle_alpha 90.000000
_cell_angle_beta 128.501437
_cell_angle_gamma 90.000000
_cell_volume 1343.385879
_symmetry_space_group_name_H-M "P 2/M"
_symmetry_group_IT_number 10
_symmetry_cell_setting 'monoclinic'
loop_
_space_group_symop_operation_xyz
x,y,z
-x,y,-z
-x,-y,-z
x,-y,z
loop_
_atom_site_type_symbol
_atom_site_label
_atom_site_fract_x
_atom_site_fract_y
_atom_site_fract_z
Si Si1 0.329397 0.334513 0.263467
Si Si2 0.652209 0.657402 0.393623
Si Si3 0.211855 0.833354 0.620152
Si Si4 0.060420 0.667703 0.295548
Si Si5 0.126040 0.667600 0.056647
Si Si6 0.500000 0.251747 0.000000
Si Si7 0.355138 0.843490 0.034716
O O1 0.331240 0.500000 0.242007
O O2 0.369357 0.308233 0.470226
O O3 0.373802 0.258282 0.187878
O O4 0.225294 0.285112 0.141405
O O5 0.691420 0.500000 0.441977
O O6 0.722598 0.765646 0.416342
O O7 0.565097 0.661936 0.184756
O O8 0.118168 0.753462 0.481548
O O9 0.204121 0.000000 0.593721
O O10 0.264113 0.805117 0.834011
O O11 0.066277 0.500000 0.325474
O O12 0.956074 0.710464 0.148519
O O13 0.101381 0.699288 0.189657
O O14 0.127280 0.500000 0.052151
O O15 0.565732 0.164998 0.981487
O O16 0.346208 0.000000 0.076653
#
# Coordination Sequence:
#
# PCOD9149144 Si02
#       7
#     4   4   4   4   4   2   4
#     4  10  20  36  57  84 114 144 179 226 276 324
#     4  10  20  36  60  85 112 141 178 226 277 330
#     4  10  20  34  53  80 112 149 190 228 269 321
#     4   9  15  29  55  81 109 147 188 228 268 314
#     4   8  15  29  52  82 113 144 181 226 272 319
#     4  10  22  40  62  86 106 136 184 230 272 330
#     4  10  23  41  58  77 109 149 185 224 275 330
#
# _framework density 19.354081000000001
#
# number of rings (size 3 to 8) (size 9 to 14) (size 15 to 20)
#    0.000    2.462    1.538    1.846    0.000    5.538 
#    0.000    5.385    0.000    4.615    0.000    0.000 
#    0.000    0.000    0.000    0.000    0.000    0.000 
#
# Total GULP energy -144982.880055 kJ/mol
# GULP energy per Si atom -5576.264617 kJ/mol
# Density = 1.931003 g / cm^3
# Si number density = 19.354081 Si / 1000 Ang^3
#
#
#
# Elastic Constant Matrix: (Units=GPa)
#
#
# Indices 1 2 3 4 5 6 
#
# 1 43.3087 6.5021 34.3187 0.0000 -2.8964 0.0000
# 2 6.5021 57.8185 47.6457 0.0000 -11.9741 0.0000
# 3 34.3187 47.6457 115.0074 0.0000 2.5131 0.0000
# 4 0.0000 0.0000 0.0000 76.1882 0.0000 10.1054
# 5 -2.8964 -11.9741 2.5131 0.0000 31.9131 0.0000
# 6 0.0000 0.0000 0.0000 10.1054 0.0000 10.4325
#
#
#
# Elastic Compliance Matrix: (Units=1/GPa)
#
#
# Indices 1 2 3 4 5 6 
#
# 1 0.033262 0.009346 -0.013964 0.000000 0.007625 0.000000
# 2 0.009346 0.033149 -0.016841 0.000000 0.014612 0.000000
# 3 -0.013964 -0.016841 0.020039 0.000000 -0.009164 0.000000
# 4 0.000000 0.000000 0.000000 0.015060 0.000000 -0.014588
# 5 0.007625 0.014612 -0.009164 0.000000 0.038231 0.000000
# 6 0.000000 0.000000 0.000000 -0.014588 0.000000 0.109985
#
#
# Mechanical properties :
#
#
# Convention : Reuss Voigt Hill
#
# Bulk Modulus (GPa) = 22.97191 43.67417 33.32304
# Shear Modulus (GPa) = 16.27838 32.21795 24.24817
#
# Velocity S-wave (km/s) = 2.90329 4.08445 3.54343
# Velocity P-wave (km/s) = 4.80976 6.69765 5.83062
#
# Compressibility (1/GPa) = 0.04353143
#
# Stress axis : x y z
#
# Youngs Moduli (GPa) = 30.06411 30.16720 49.90219
#
# Poissons Ratio (x) = -0.28193 0.69683
# Poissons Ratio (y) = -0.28097 0.84040
# Poissons Ratio (z) = 0.41981 0.50805
#
# Static dielectric constant tensor:
#      x y z
#    x 1.694720 0.000000 0.032040 
#    y 0.000000 1.645450 0.000000 
#    z 0.032040 0.000000 1.700430 
# 
# From -- ./inp_files/33980.got.cif
#   From: 2010.05.17/outbox.cif.g08.bks.cpg/sg10_17_cif.got.tgz:33980.got - 2010.06.03 11:33:40.
