data_PCOD9149352
_publ_section_title
;
Structure prediction by ZEFSAII (Michael W. Deem and Ramdas Pophale) SiO2 
 PCOD9149352
Probable space group: P 2/M
;
_chemical_formula_sum "Si O2"
_cell_formula_units_Z 24
_cell_length_a 14.215664
_cell_length_b 10.844343
_cell_length_c 11.736842
_cell_angle_alpha 90.000000
_cell_angle_beta 135.553172
_cell_angle_gamma 90.000000
_cell_volume 1266.989279
_symmetry_space_group_name_H-M "P 2/M"
_symmetry_group_IT_number 10
_symmetry_cell_setting 'monoclinic'
loop_
_space_group_symop_operation_xyz
x,y,z
-x,y,-z
-x,-y,-z
x,-y,z
loop_
_atom_site_type_symbol
_atom_site_label
_atom_site_fract_x
_atom_site_fract_y
_atom_site_fract_z
Si Si1 0.920940 0.359558 0.246265
Si Si2 0.843501 0.865321 0.329673
Si Si3 0.759314 0.639564 0.875994
Si Si4 0.854191 0.132696 0.815927
Si Si5 0.201090 0.230558 0.470742
Si Si6 0.535576 0.644439 0.400972
O O1 0.898535 0.500000 0.267955
O O2 0.841398 0.253509 0.246324
O O3 0.079608 0.327532 0.387834
O O4 0.866421 0.352929 0.070028
O O5 0.772385 0.838910 0.388129
O O6 0.000000 0.873181 0.500000
O O7 0.804934 0.000000 0.248024
O O8 0.767102 0.500000 0.833853
O O9 0.787268 0.745670 0.809600
O O10 0.606636 0.656415 0.787157
O O11 0.857013 0.147185 0.682182
O O12 0.788585 0.000000 0.786753
O O13 0.000000 0.130659 0.000000
O O14 0.339676 0.286426 0.545345
O O15 0.500000 0.682894 0.500000
O O16 0.569832 0.500000 0.434671
#
# Coordination Sequence:
#
# PCOD9149352 Si02
#       6
#     4   4   4   4   4   4
#     4  10  21  36  59  86 111 142 191 240 278 329
#     4   9  20  37  58  82 112 147 185 234 288 334
#     4  10  21  38  56  82 117 151 186 230 283 336
#     4  11  22  35  55  85 116 149 188 232 283 338
#     4  11  20  35  58  86 114 147 190 234 279 332
#     4  10  20  34  55  83 120 155 185 226 285 341
#
# _framework density 18.942544999999999
#
# number of rings (size 3 to 8) (size 9 to 14) (size 15 to 20)
#    0.000    1.833    3.333    1.000    0.000    6.000 
#    0.000    3.333    0.000    4.000    0.000    0.000 
#    0.000    0.000    0.000    0.000    0.000    0.000 
#
# Total GULP energy -133740.432149 kJ/mol
# GULP energy per Si atom -5572.518006 kJ/mol
# Density = 1.889943 g / cm^3
# Si number density = 18.942545 Si / 1000 Ang^3
#
#
#
# Elastic Constant Matrix: (Units=GPa)
#
#
# Indices 1 2 3 4 5 6 
#
# 1 85.2270 56.0319 -4.7581 0.0000 1.2536 0.0000
# 2 56.0319 162.8727 18.7650 0.0000 -12.1065 0.0000
# 3 -4.7581 18.7650 14.6548 0.0000 6.6055 0.0000
# 4 0.0000 0.0000 0.0000 10.5565 0.0000 -20.3271
# 5 1.2536 -12.1065 6.6055 0.0000 24.3924 0.0000
# 6 0.0000 0.0000 0.0000 -20.3271 0.0000 11.5526
#
#
#
# Elastic Compliance Matrix: (Units=1/GPa)
#
#
# Indices 1 2 3 4 5 6 
#
# 1 0.021167 -0.011622 0.028298 0.000000 -0.014519 0.000000
# 2 -0.011622 0.014777 -0.029922 0.000000 0.016035 0.000000
# 3 0.028298 -0.029922 0.140203 0.000000 -0.054273 0.000000
# 4 0.000000 0.000000 0.000000 -0.039667 0.000000 -0.069796
# 5 -0.014519 0.016035 -0.054273 0.000000 0.064398 0.000000
# 6 0.000000 0.000000 0.000000 -0.069796 0.000000 -0.036247
#
#
# Mechanical properties :
#
#
# Convention : Reuss Voigt Hill
#
# Bulk Modulus (GPa) = 6.68201 44.75910 25.72055
# Shear Modulus (GPa) = 20.74617 22.14800 21.44708
#
# Velocity S-wave (km/s) = 3.31299 3.42310 3.36849
# Velocity P-wave (km/s) = 4.26260 6.26926 5.36066
#
# Compressibility (1/GPa) = 0.14965558
#
# Stress axis : x y z
#
# Youngs Moduli (GPa) = 47.24277 67.67213 7.13251
#
# Poissons Ratio (x) = 0.78645 -0.20184
# Poissons Ratio (y) = 0.54903 0.21342
# Poissons Ratio (z) = -1.33688 2.02492
#
# Static dielectric constant tensor:
#      x y z
#    x 1.664350 0.000000 -0.015800 
#    y 0.000000 1.710510 0.000000 
#    z -0.015800 0.000000 1.676410 
# 
# From -- ./inp_files/46790.got.cif
#   From: 2010.05.17/outbox.cif.g08.bks.cpg/sg10_24_cif.got.tgz:46790.got - 2010.06.03 11:33:40.
