data_PCOD9149587
_publ_section_title
;
Structure prediction by ZEFSAII (Michael W. Deem and Ramdas Pophale) SiO2 
 PCOD9149587
Probable space group: P 2/M
;
_chemical_formula_sum "Si O2"
_cell_formula_units_Z 32
_cell_length_a 24.177016
_cell_length_b 8.572958
_cell_length_c 21.423428
_cell_angle_alpha 90.000000
_cell_angle_beta 23.397163
_cell_angle_gamma 90.000000
_cell_volume 1763.294781
_symmetry_space_group_name_H-M "P 2/M"
_symmetry_group_IT_number 10
_symmetry_cell_setting 'monoclinic'
loop_
_space_group_symop_operation_xyz
x,y,z
-x,y,-z
-x,-y,-z
x,-y,z
loop_
_atom_site_type_symbol
_atom_site_label
_atom_site_fract_x
_atom_site_fract_y
_atom_site_fract_z
Si Si1 0.064192 0.685116 0.321499
Si Si2 0.421975 0.680862 0.513739
Si Si3 0.692376 0.812210 0.178661
Si Si4 0.517360 0.316420 0.140456
Si Si5 0.258933 0.312606 0.334966
Si Si6 0.700780 0.817530 0.841514
Si Si7 0.751074 0.814806 0.979719
Si Si8 0.842083 0.188300 0.150936
O O1 0.078143 0.500000 0.318805
O O2 0.145695 0.776441 0.291359
O O3 0.902051 0.725229 0.487220
O O4 0.141209 0.728631 0.177374
O O5 0.500000 0.693584 0.500000
O O6 0.405050 0.500000 0.515812
O O7 0.532892 0.758123 0.352475
O O8 0.271467 0.757123 0.680564
O O9 0.753057 0.761863 0.049294
O O10 0.783380 0.758609 0.144032
O O11 0.692780 0.000000 0.179120
O O12 0.526331 0.500000 0.145532
O O13 0.359208 0.272092 0.288714
O O14 0.599116 0.221430 0.108193
O O15 0.599973 0.281982 0.990452
O O16 0.270481 0.500000 0.313721
O O17 0.308677 0.229616 0.220407
O O18 0.671541 0.000000 0.880611
O O19 0.776919 0.000000 0.949590
O O20 0.842333 0.000000 0.150497
O O21 0.000000 0.241535 0.000000
#
# Coordination Sequence:
#
# PCOD9149587 Si02
#       8
#     4   4   4   4   4   4   4   4
#     4  10  20  35  53  71  96 130 165 201 244 296
#     4   9  17  29  48  75 103 130 163 202 240 279
#     4   9  18  33  53  74  98 132 169 203 240 289
#     4  10  20  35  53  71  96 129 164 204 248 294
#     4  10  21  35  51  72  97 127 163 202 248 301
#     4  11  21  32  50  76 101 126 160 201 248 300
#     4  10  20  35  53  73  97 127 167 207 244 290
#     4   9  17  31  52  77 106 137 166 198 242 293
#
# _framework density 18.147845
#
# number of rings (size 3 to 8) (size 9 to 14) (size 15 to 20)
#    0.000    2.250    0.000    4.875    0.000    7.750 
#    0.000    1.250    0.000    4.500    0.000    0.000 
#    0.000    0.000    0.000    0.000    0.000    0.000 
#
# Total GULP energy -178523.090681 kJ/mol
# GULP energy per Si atom -5578.846584 kJ/mol
# Density = 1.810654 g / cm^3
# Si number density = 18.147845 Si / 1000 Ang^3
#
#
#
# Elastic Constant Matrix: (Units=GPa)
#
#
# Indices 1 2 3 4 5 6 
#
# 1 52.7396 -1.0814 19.4495 0.0000 0.1790 0.0000
# 2 -1.0814 11.3802 -2.0356 0.0000 -0.9031 0.0000
# 3 19.4495 -2.0356 48.4052 0.0000 -20.9223 0.0000
# 4 0.0000 0.0000 0.0000 4.4729 0.0000 -1.6257
# 5 0.1790 -0.9031 -20.9223 0.0000 29.2156 0.0000
# 6 0.0000 0.0000 0.0000 -1.6257 0.0000 7.3729
#
#
#
# Elastic Compliance Matrix: (Units=1/GPa)
#
#
# Indices 1 2 3 4 5 6 
#
# 1 0.024243 -0.001078 -0.014288 0.000000 -0.010414 0.000000
# 2 -0.001078 0.089839 0.007842 0.000000 0.008399 0.000000
# 3 -0.014288 0.007842 0.038919 0.000000 0.028201 0.000000
# 4 0.000000 0.000000 0.000000 0.243044 0.000000 0.053589
# 5 -0.010414 0.008399 0.028201 0.000000 0.054747 0.000000
# 6 0.000000 0.000000 0.000000 0.053589 0.000000 0.147448
#
#
# Mechanical properties :
#
#
# Convention : Reuss Voigt Hill
#
# Bulk Modulus (GPa) = 7.24884 16.13221 11.69052
# Shear Modulus (GPa) = 7.58411 14.62511 11.10461
#
# Velocity S-wave (km/s) = 2.04649 2.84189 2.47634
# Velocity P-wave (km/s) = 3.09632 4.43589 3.82520
#
# Compressibility (1/GPa) = 0.13795310
#
# Stress axis : x y z
#
# Youngs Moduli (GPa) = 41.24846 11.13103 25.69441
#
# Poissons Ratio (x) = 0.01200 0.36711
# Poissons Ratio (y) = 0.04448 -0.20149
# Poissons Ratio (z) = 0.58934 -0.08729
#
# Static dielectric constant tensor:
#      x y z
#    x 1.629080 0.000000 -0.017630 
#    y 0.000000 1.612170 0.000000 
#    z -0.017630 0.000000 1.629440 
# 
# From -- ./inp_files/91219.got.cif
#   From: 2010.05.17/outbox.cif.g08.bks.cpg/sg10_46_cif.got.tgz:91219.got - 2010.06.03 11:33:40.
