data_PCOD9149403
_publ_section_title
;
Structure prediction by ZEFSAII (Michael W. Deem and Ramdas Pophale) SiO2 
 PCOD9149403
Probable space group: P 2/M
;
_chemical_formula_sum "Si O2"
_cell_formula_units_Z 20
_cell_length_a 9.981424
_cell_length_b 7.368233
_cell_length_c 25.793003
_cell_angle_alpha 90.000000
_cell_angle_beta 153.826898
_cell_angle_gamma 90.000000
_cell_volume 836.719013
_symmetry_space_group_name_H-M "P 2/M"
_symmetry_group_IT_number 10
_symmetry_cell_setting 'monoclinic'
loop_
_space_group_symop_operation_xyz
x,y,z
-x,y,-z
-x,-y,-z
x,-y,z
loop_
_atom_site_type_symbol
_atom_site_label
_atom_site_fract_x
_atom_site_fract_y
_atom_site_fract_z
Si Si1 0.314966 0.219604 0.270939
Si Si2 0.347291 0.710463 0.997523
Si Si3 0.651951 0.720245 0.888704
Si Si4 0.439545 0.221590 0.537660
Si Si5 0.802990 0.792127 0.361108
O O1 0.325164 0.272231 0.334984
O O2 0.617013 0.284061 0.345435
O O3 0.014286 0.282987 0.137117
O O4 0.314313 0.000000 0.268093
O O5 0.441858 0.500000 0.032165
O O6 0.500000 0.794819 0.000000
O O7 0.432511 0.785645 0.083117
O O8 0.639953 0.500000 0.883228
O O9 0.434727 0.789349 0.768613
O O10 0.000000 0.772818 0.000000
O O11 0.500000 0.283554 0.500000
O O12 0.114341 0.285423 0.446732
O O13 0.435796 0.000000 0.534283
O O14 0.876300 0.000000 0.400310
#
# Coordination Sequence:
#
# PCOD9149403 Si02
#       5
#     4   4   4   4   4
#     4  10  20  35  56  81 108 139 178 220 262 313
#     4  10  22  38  55  77 109 145 176 215 268 318
#     4  10  20  36  56  78 107 142 177 214 263 319
#     4   9  19  35  54  78 108 141 175 217 269 315
#     4  10  20  34  56  82 108 139 177 220 262 311
#
# _framework density 23.902888000000001
#
# number of rings (size 3 to 8) (size 9 to 14) (size 15 to 20)
#    0.000    2.200    2.000    0.600    2.800    4.000 
#    0.000    1.000    0.000    3.600    0.000    0.000 
#    0.000    0.000    0.000    0.000    0.000    0.000 
#
# Total GULP energy -111792.347288 kJ/mol
# GULP energy per Si atom -5589.617364 kJ/mol
# Density = 2.384848 g / cm^3
# Si number density = 23.902888 Si / 1000 Ang^3
#
#
#
# Elastic Constant Matrix: (Units=GPa)
#
#
# Indices 1 2 3 4 5 6 
#
# 1 175.4463 5.8183 22.1397 0.0000 -35.1046 0.0000
# 2 5.8183 88.6764 -12.7007 0.0000 -3.5467 0.0000
# 3 22.1397 -12.7007 67.1995 0.0000 -28.7832 0.0000
# 4 0.0000 0.0000 0.0000 8.6863 0.0000 5.1492
# 5 -35.1046 -3.5467 -28.7832 0.0000 50.7278 0.0000
# 6 0.0000 0.0000 0.0000 5.1492 0.0000 -8.1458
#
#
#
# Elastic Compliance Matrix: (Units=1/GPa)
#
#
# Indices 1 2 3 4 5 6 
#
# 1 0.006628 -0.000315 -0.000381 0.000000 0.004349 0.000000
# 2 -0.000315 0.011895 0.003454 0.000000 0.002573 0.000000
# 3 -0.000381 0.003454 0.020675 0.000000 0.011709 0.000000
# 4 0.000000 0.000000 0.000000 0.083743 0.000000 0.052937
# 5 0.004349 0.002573 0.011709 0.000000 0.029546 0.000000
# 6 0.000000 0.000000 0.000000 0.052937 0.000000 -0.089300
#
#
# Mechanical properties :
#
#
# Convention : Reuss Voigt Hill
#
# Bulk Modulus (GPa) = 22.36396 40.20408 31.28402
# Shear Modulus (GPa) = 68.89342 31.32466 50.10904
#
# Velocity S-wave (km/s) = 5.37446 3.62401 4.58357
# Velocity P-wave (km/s) = 6.92023 5.86238 6.41315
#
# Compressibility (1/GPa) = 0.04471480
#
# Stress axis : x y z
#
# Youngs Moduli (GPa) = 150.86563 84.06657 48.36852
#
# Poissons Ratio (x) = 0.02652 0.01841
# Poissons Ratio (y) = 0.04760 -0.16708
# Poissons Ratio (z) = 0.05743 -0.29040
#
# Static dielectric constant tensor:
#      x y z
#    x 1.923430 0.000000 0.007440 
#    y 0.000000 1.891660 0.000000 
#    z 0.007440 0.000000 1.849830 
# 
# From -- ./inp_files/17953.got.cif
#   From: 2010.05.17/outbox.cif.g08.bks.cpg/sg10_9_cif.got.tgz:17953.got - 2010.06.03 11:33:40.
