data_PCOD9149149
_publ_section_title
;
Structure prediction by ZEFSAII (Michael W. Deem and Ramdas Pophale) SiO2 
 PCOD9149149
Probable space group: P 2/M
;
_chemical_formula_sum "Si O2"
_cell_formula_units_Z 32
_cell_length_a 14.873537
_cell_length_b 7.613585
_cell_length_c 12.833774
_cell_angle_alpha 90.000000
_cell_angle_beta 86.004317
_cell_angle_gamma 90.000000
_cell_volume 1449.776056
_symmetry_space_group_name_H-M "P 2/M"
_symmetry_group_IT_number 10
_symmetry_cell_setting 'monoclinic'
loop_
_space_group_symop_operation_xyz
x,y,z
-x,y,-z
-x,-y,-z
x,-y,z
loop_
_atom_site_type_symbol
_atom_site_label
_atom_site_fract_x
_atom_site_fract_y
_atom_site_fract_z
Si Si1 0.375816 0.295252 0.247656
Si Si2 0.248362 0.792372 0.873756
Si Si3 0.240768 0.210651 0.642167
Si Si4 0.456405 0.288477 0.892824
Si Si5 0.180173 0.710210 0.248334
Si Si6 0.601056 0.786981 0.516756
Si Si7 0.905420 0.788173 0.959265
Si Si8 0.100623 0.288827 0.473569
O O1 0.377742 0.500000 0.216267
O O2 0.470763 0.222151 0.198193
O O3 0.280866 0.219526 0.214678
O O4 0.371211 0.280450 0.372323
O O5 0.230114 0.718995 0.759540
O O6 0.354129 0.773378 0.889514
O O7 0.229610 0.000000 0.871029
O O8 0.179668 0.721311 0.965928
O O9 0.331248 0.274988 0.578032
O O10 0.160810 0.248710 0.568934
O O11 0.249295 0.000000 0.649798
O O12 0.450440 0.500000 0.887564
O O13 0.500000 0.240829 0.000000
O O14 0.189933 0.500000 0.258577
O O15 0.112345 0.742741 0.159408
O O16 0.144745 0.778373 0.362484
O O17 0.500000 0.731969 0.500000
O O18 0.603913 0.000000 0.520752
O O19 0.907090 0.000000 0.963719
O O20 0.000000 0.725319 0.000000
O O21 0.095908 0.500000 0.463986
O O22 0.000000 0.221519 0.500000
#
# Coordination Sequence:
#
# PCOD9149149 Si02
#       8
#     4   4   4   4   4   4   4   4
#     4  10  20  35  56  82 112 147 185 230 282 334
#     4  10  22  40  59  84 118 153 192 238 288 340
#     4  10  21  37  58  85 117 154 193 233 283 342
#     4  10  21  37  58  84 113 149 195 239 283 340
#     4  10  21  39  61  86 117 150 189 237 287 343
#     4  10  20  34  53  80 113 149 188 228 273 331
#     4  10  23  41  61  86 115 149 192 241 288 339
#     4  10  22  39  60  87 117 150 191 240 289 339
#
# _framework density 22.072372999999999
#
# number of rings (size 3 to 8) (size 9 to 14) (size 15 to 20)
#    0.000    2.000    1.250    1.500    1.750    5.500 
#    0.000    0.000    0.000    0.000    0.000    0.000 
#    0.000    0.000    0.000    0.000    0.000    0.000 
#
# Total GULP energy -178791.438510 kJ/mol
# GULP energy per Si atom -5587.232453 kJ/mol
# Density = 2.202214 g / cm^3
# Si number density = 22.072373 Si / 1000 Ang^3
#
#
#
# Elastic Constant Matrix: (Units=GPa)
#
#
# Indices 1 2 3 4 5 6 
#
# 1 129.1693 -5.6978 38.2840 0.0000 7.1606 0.0000
# 2 -5.6978 40.3257 -8.9508 0.0000 -9.8894 0.0000
# 3 38.2840 -8.9508 109.7177 0.0000 3.8260 0.0000
# 4 0.0000 0.0000 0.0000 19.1218 0.0000 5.8187
# 5 7.1606 -9.8894 3.8260 0.0000 38.6279 0.0000
# 6 0.0000 0.0000 0.0000 5.8187 0.0000 20.5831
#
#
#
# Elastic Compliance Matrix: (Units=1/GPa)
#
#
# Indices 1 2 3 4 5 6 
#
# 1 0.008704 0.000263 -0.002972 0.000000 -0.001252 0.000000
# 2 0.000263 0.026880 0.001869 0.000000 0.006648 0.000000
# 3 -0.002972 0.001869 0.010303 0.000000 0.000009 0.000000
# 4 0.000000 0.000000 0.000000 0.057218 0.000000 -0.016175
# 5 -0.001252 0.006648 0.000009 0.000000 0.027821 0.000000
# 6 0.000000 0.000000 0.000000 -0.016175 0.000000 0.053156
#
#
# Mechanical properties :
#
#
# Convention : Reuss Voigt Hill
#
# Bulk Modulus (GPa) = 22.61997 36.27595 29.44796
# Shear Modulus (GPa) = 24.93787 32.70506 28.82146
#
# Velocity S-wave (km/s) = 3.36493 3.85349 3.61747
# Velocity P-wave (km/s) = 5.03660 6.02244 5.55145
#
# Compressibility (1/GPa) = 0.04420872
#
# Stress axis : x y z
#
# Youngs Moduli (GPa) = 114.89524 37.20171 97.05490
#
# Poissons Ratio (x) = -0.00979 0.28843
# Poissons Ratio (y) = -0.03024 -0.18142
# Poissons Ratio (z) = 0.34145 -0.06954
#
# Static dielectric constant tensor:
#      x y z
#    x 1.801060 0.000000 -0.028270 
#    y 0.000000 1.826700 0.000000 
#    z -0.028270 0.000000 1.792730 
# 
# From -- ./inp_files/49878.got.cif
#   From: 2010.05.17/outbox.cif.g08.bks.cpg/sg10_25_cif.got.tgz:49878.got - 2010.06.03 11:33:40.
