data_PCOD9149756
_publ_section_title
;
Structure prediction by ZEFSAII (Michael W. Deem and Ramdas Pophale) SiO2 
 PCOD9149756
Probable space group: P 2/M
;
_chemical_formula_sum "Si O2"
_cell_formula_units_Z 24
_cell_length_a 14.492682
_cell_length_b 13.662047
_cell_length_c 9.600031
_cell_angle_alpha 90.000000
_cell_angle_beta 39.392559
_cell_angle_gamma 90.000000
_cell_volume 1206.307078
_symmetry_space_group_name_H-M "P 2/M"
_symmetry_group_IT_number 10
_symmetry_cell_setting 'monoclinic'
loop_
_space_group_symop_operation_xyz
x,y,z
-x,y,-z
-x,-y,-z
x,-y,z
loop_
_atom_site_type_symbol
_atom_site_label
_atom_site_fract_x
_atom_site_fract_y
_atom_site_fract_z
Si Si1 0.595778 0.296049 0.023713
Si Si2 0.197057 0.835843 0.350340
Si Si3 0.656672 0.388332 0.244557
Si Si4 0.174010 0.205610 0.833559
Si Si5 0.403989 0.887094 0.345056
Si Si6 0.078037 0.106005 0.205632
O O1 0.627282 0.366552 0.115537
O O2 0.525251 0.197151 0.176472
O O3 0.500000 0.326885 0.000000
O O4 0.745868 0.264840 0.777543
O O5 0.320973 0.886933 0.294342
O O6 0.154549 0.896767 0.264816
O O7 0.057425 0.823001 0.610500
O O8 0.500000 0.376107 0.500000
O O9 0.705567 0.500000 0.206315
O O10 0.765520 0.311161 0.189713
O O11 0.284374 0.156719 0.593397
O O12 0.181240 0.139846 0.963902
O O13 0.000000 0.206078 0.000000
O O14 0.447042 0.000000 0.329175
O O15 0.014683 0.000000 0.244582
#
# Coordination Sequence:
#
# PCOD9149756 Si02
#       6
#     4   4   4   4   4   4
#     4  10  22  40  64  93 124 160 205 260 312 364
#     4  10  20  35  55  84 126 166 207 241 289 360
#     4  11  24  47  71  90 117 157 213 270 327 376
#     4  12  24  40  63  91 128 166 209 259 309 363
#     4  11  22  36  57  91 132 169 207 245 295 363
#     4  11  21  33  56  86 123 172 212 239 291 368
#
# _framework density 19.895430000000001
#
# number of rings (size 3 to 8) (size 9 to 14) (size 15 to 20)
#    0.000    1.167    5.000    2.500    0.000    5.667 
#    0.000    0.833    0.000    2.000    0.000    0.000 
#    0.000    0.000    0.000    0.000    0.000    0.000 
#
# Total GULP energy -133779.218703 kJ/mol
# GULP energy per Si atom -5574.134113 kJ/mol
# Density = 1.985015 g / cm^3
# Si number density = 19.895430 Si / 1000 Ang^3
#
#
#
# Elastic Constant Matrix: (Units=GPa)
#
#
# Indices 1 2 3 4 5 6 
#
# 1 45.5781 14.8115 9.5810 0.0000 9.9233 0.0000
# 2 14.8115 57.1756 18.0576 0.0000 8.0402 0.0000
# 3 9.5810 18.0576 98.3614 0.0000 17.0997 0.0000
# 4 0.0000 0.0000 0.0000 17.1573 0.0000 5.3980
# 5 9.9233 8.0402 17.0997 0.0000 28.6643 0.0000
# 6 0.0000 0.0000 0.0000 5.3980 0.0000 24.3732
#
#
#
# Elastic Compliance Matrix: (Units=1/GPa)
#
#
# Indices 1 2 3 4 5 6 
#
# 1 0.025315 -0.005490 -0.000226 0.000000 -0.007089 0.000000
# 2 -0.005490 0.020085 -0.002793 0.000000 -0.002067 0.000000
# 3 -0.000226 -0.002793 0.011772 0.000000 -0.006161 0.000000
# 4 0.000000 0.000000 0.000000 0.062650 0.000000 -0.013875
# 5 -0.007089 -0.002067 -0.006161 0.000000 0.041596 0.000000
# 6 0.000000 0.000000 0.000000 -0.013875 0.000000 0.044102
#
#
# Mechanical properties :
#
#
# Convention : Reuss Voigt Hill
#
# Bulk Modulus (GPa) = 24.90314 31.77947 28.34131
# Shear Modulus (GPa) = 21.19339 24.61663 22.90501
#
# Velocity S-wave (km/s) = 3.26734 3.52134 3.39672
# Velocity P-wave (km/s) = 5.17477 5.70448 5.44607
#
# Compressibility (1/GPa) = 0.04015558
#
# Stress axis : x y z
#
# Youngs Moduli (GPa) = 39.50173 49.78849 84.94397
#
# Poissons Ratio (x) = 0.27333 0.01916
# Poissons Ratio (y) = 0.21686 0.23727
# Poissons Ratio (z) = 0.00891 0.13907
#
# Static dielectric constant tensor:
#      x y z
#    x 1.761500 0.000000 -0.016090 
#    y 0.000000 1.691490 0.000000 
#    z -0.016090 0.000000 1.710830 
# 
# From -- ./inp_files/29293.got.cif
#   From: 2010.05.17/outbox.cif.g08.bks.cpg/sg10_15_cif.got.tgz:29293.got - 2010.06.03 11:33:40.
