data_PCOD9149869
_publ_section_title
;
Structure prediction by ZEFSAII (Michael W. Deem and Ramdas Pophale) SiO2 
 PCOD9149869
Probable space group: P 2/M
;
_chemical_formula_sum "Si O2"
_cell_formula_units_Z 18
_cell_length_a 11.510811
_cell_length_b 11.079087
_cell_length_c 7.766435
_cell_angle_alpha 90.000000
_cell_angle_beta 121.094890
_cell_angle_gamma 90.000000
_cell_volume 848.133506
_symmetry_space_group_name_H-M "P 2/M"
_symmetry_group_IT_number 10
_symmetry_cell_setting 'monoclinic'
loop_
_space_group_symop_operation_xyz
x,y,z
-x,y,-z
-x,-y,-z
x,-y,z
loop_
_atom_site_type_symbol
_atom_site_label
_atom_site_fract_x
_atom_site_fract_y
_atom_site_fract_z
Si Si1 0.570449 0.180603 0.231027
Si Si2 0.000000 0.304679 0.500000
Si Si3 0.290817 0.141130 0.117552
Si Si4 0.848999 0.133192 0.628518
Si Si5 0.283945 0.366984 0.848912
O O1 0.452421 0.153543 0.275158
O O2 0.714381 0.131672 0.404296
O O3 0.608676 0.318932 0.211831
O O4 0.500000 0.132665 0.000000
O O5 0.956188 0.222221 0.627625
O O6 0.864104 0.373570 0.348767
O O7 0.203379 0.163594 0.221238
O O8 0.265331 0.000000 0.044270
O O9 0.271878 0.252707 0.970316
O O10 0.909167 0.000000 0.678639
O O11 0.318508 0.500000 0.944003
#
# Coordination Sequence:
#
# PCOD9149869 Si02
#       5
#     4   2   4   4   4
#     4   9  19  33  57  85 113 146 182 224 277 334
#     4  10  22  38  58  80 107 150 197 236 277 330
#     4  10  21  36  57  87 119 147 182 230 283 336
#     4  10  20  35  56  85 118 150 185 231 281 332
#     4  10  22  40  60  81 112 151 190 233 280 333
#
# _framework density 21.223072999999999
#
# number of rings (size 3 to 8) (size 9 to 14) (size 15 to 20)
#    0.000    2.222    0.000    2.000    0.000   20.000 
#    0.000    8.889    0.000   10.667    0.000    0.000 
#    0.000    0.000    0.000    0.000    0.000    0.000 
#
# Total GULP energy -100220.599410 kJ/mol
# GULP energy per Si atom -5567.811078 kJ/mol
# Density = 2.117477 g / cm^3
# Si number density = 21.223073 Si / 1000 Ang^3
#
#
#
# Elastic Constant Matrix: (Units=GPa)
#
#
# Indices 1 2 3 4 5 6 
#
# 1 91.1079 56.0348 -5.4640 0.0000 -8.2212 0.0000
# 2 56.0348 175.5534 28.8036 0.0000 -19.7492 0.0000
# 3 -5.4640 28.8036 34.3506 0.0000 -4.9856 0.0000
# 4 0.0000 0.0000 0.0000 -24.5199 0.0000 -13.1633
# 5 -8.2212 -19.7492 -4.9856 0.0000 38.7156 0.0000
# 6 0.0000 0.0000 0.0000 -13.1633 0.0000 -34.3611
#
#
#
# Elastic Compliance Matrix: (Units=1/GPa)
#
#
# Indices 1 2 3 4 5 6 
#
# 1 0.015207 -0.005969 0.007593 0.000000 0.001162 0.000000
# 2 -0.005969 0.009239 -0.008352 0.000000 0.002370 0.000000
# 3 0.007593 -0.008352 0.037642 0.000000 0.002199 0.000000
# 4 0.000000 0.000000 0.000000 -0.051342 0.000000 0.019668
# 5 0.001162 0.002370 0.002199 0.000000 0.027568 0.000000
# 6 0.000000 0.000000 0.000000 0.019668 0.000000 -0.036637
#
#
# Mechanical properties :
#
#
# Convention : Reuss Voigt Hill
#
# Bulk Modulus (GPa) = 20.56303 51.08453 35.82378
# Shear Modulus (GPa) = 159.51965 10.74272 85.13119
#
# Velocity S-wave (km/s) = 8.67908 2.25229 6.34032
# Velocity P-wave (km/s) = 10.49502 5.55754 8.39737
#
# Compressibility (1/GPa) = 0.04863098
#
# Stress axis : x y z
#
# Youngs Moduli (GPa) = 65.75719 108.24266 26.56610
#
# Poissons Ratio (x) = 0.64611 -0.20171
# Poissons Ratio (y) = 0.39251 0.22189
# Poissons Ratio (z) = -0.49929 0.90407
#
# Static dielectric constant tensor:
#      x y z
#    x 1.803580 0.000000 -0.004230 
#    y 0.000000 1.786610 0.000000 
#    z -0.004230 0.000000 1.817840 
# 
# From -- ./inp_files/23656.got.cif
#   From: 2010.05.17/outbox.cif.g08.bks.cpg/sg10_12_cif.got.tgz:23656.got - 2010.06.03 11:33:40.
