data_PCOD9149126
_publ_section_title
;
Structure prediction by ZEFSAII (Michael W. Deem and Ramdas Pophale) SiO2 
 PCOD9149126
Probable space group: P 2/M
;
_chemical_formula_sum "Si O2"
_cell_formula_units_Z 32
_cell_length_a 10.942180
_cell_length_b 17.840715
_cell_length_c 17.548008
_cell_angle_alpha 90.000000
_cell_angle_beta 31.100200
_cell_angle_gamma 90.000000
_cell_volume 1769.476488
_symmetry_space_group_name_H-M "P 2/M"
_symmetry_group_IT_number 10
_symmetry_cell_setting 'monoclinic'
loop_
_space_group_symop_operation_xyz
x,y,z
-x,y,-z
-x,-y,-z
x,-y,z
loop_
_atom_site_type_symbol
_atom_site_label
_atom_site_fract_x
_atom_site_fract_y
_atom_site_fract_z
Si Si1 0.117509 0.203204 0.321421
Si Si2 0.692186 0.685748 0.340929
Si Si3 0.936315 0.803726 0.820554
Si Si4 0.071000 0.412206 0.050686
Si Si5 0.442522 0.286999 0.877643
Si Si6 0.065537 0.914519 0.048238
Si Si7 0.393296 0.085458 0.279398
Si Si8 0.425455 0.781046 0.355512
O O1 0.124949 0.171322 0.231628
O O2 0.294419 0.274414 0.230897
O O3 0.218748 0.138488 0.323568
O O4 0.856435 0.229229 0.484719
O O5 0.500000 0.651445 0.500000
O O6 0.561864 0.739912 0.349966
O O7 0.863471 0.741051 0.295625
O O8 0.858196 0.625801 0.211157
O O9 0.722518 0.763757 0.980002
O O10 0.020415 0.867556 0.834010
O O11 0.096240 0.500000 0.053459
O O12 0.310466 0.366169 0.941471
O O13 0.000000 0.402947 0.000000
O O14 0.465137 0.253829 0.780260
O O15 0.351261 0.916451 0.898083
O O16 0.976286 0.000000 0.097187
O O17 0.000000 0.881470 0.000000
O O18 0.441372 0.129269 0.333151
O O19 0.311948 0.000000 0.332108
#
# Coordination Sequence:
#
# PCOD9149126 Si02
#       8
#     4   4   4   4   4   4   4   4
#     4  11  22  35  54  85 119 152 191 240 291 341
#     4  11  22  38  60  89 116 151 187 239 294 343
#     4  11  21  34  58  83 113 144 194 249 286 335
#     4  10  21  38  65  95 119 147 187 238 284 339
#     4  10  20  35  60  83 114 149 189 232 280 337
#     4  10  20  34  53  78 108 147 195 248 300 343
#     4  10  21  36  56  79 112 155 199 245 294 346
#     4  11  20  37  57  84 114 152 199 239 286 338
#
# _framework density 18.084446
#
# number of rings (size 3 to 8) (size 9 to 14) (size 15 to 20)
#    0.000    1.500    5.000    2.625    0.000    1.750 
#    0.000    1.250    0.000    9.000    0.000    0.000 
#    0.000    0.000    0.000    0.000    0.000    0.000 
#
# Total GULP energy -178389.275457 kJ/mol
# GULP energy per Si atom -5574.664858 kJ/mol
# Density = 1.804328 g / cm^3
# Si number density = 18.084446 Si / 1000 Ang^3
#
#
#
# Elastic Constant Matrix: (Units=GPa)
#
#
# Indices 1 2 3 4 5 6 
#
# 1 66.6709 36.2181 19.5733 0.0000 8.7475 0.0000
# 2 36.2181 118.6305 39.4794 0.0000 -1.0897 0.0000
# 3 19.5733 39.4794 102.1059 0.0000 -2.4023 0.0000
# 4 0.0000 0.0000 0.0000 14.1546 0.0000 -3.6001
# 5 8.7475 -1.0897 -2.4023 0.0000 32.6118 0.0000
# 6 0.0000 0.0000 0.0000 -3.6001 0.0000 21.2960
#
#
#
# Elastic Compliance Matrix: (Units=1/GPa)
#
#
# Indices 1 2 3 4 5 6 
#
# 1 0.019103 -0.005303 -0.001739 0.000000 -0.005429 0.000000
# 2 -0.005303 0.011147 -0.003257 0.000000 0.001555 0.000000
# 3 -0.001739 -0.003257 0.011415 0.000000 0.001199 0.000000
# 4 0.000000 0.000000 0.000000 0.073823 0.000000 0.012480
# 5 -0.005429 0.001555 0.001199 0.000000 0.032260 0.000000
# 6 0.000000 0.000000 0.000000 0.012480 0.000000 0.049067
#
#
# Mechanical properties :
#
#
# Convention : Reuss Voigt Hill
#
# Bulk Modulus (GPa) = 47.46999 53.10543 50.28771
# Shear Modulus (GPa) = 22.27824 26.42158 24.34991
#
# Velocity S-wave (km/s) = 3.51365 3.82646 3.67339
# Velocity P-wave (km/s) = 6.53965 6.99653 6.77195
#
# Compressibility (1/GPa) = 0.02106594
#
# Stress axis : x y z
#
# Youngs Moduli (GPa) = 52.34804 89.71251 87.60748
#
# Poissons Ratio (x) = 0.47577 0.15237
# Poissons Ratio (y) = 0.27761 0.28531
# Poissons Ratio (z) = 0.09104 0.29217
#
# Static dielectric constant tensor:
#      x y z
#    x 1.653530 0.000000 -0.013810 
#    y 0.000000 1.611800 0.000000 
#    z -0.013810 0.000000 1.654490 
# 
# From -- ./inp_files/77126.got.cif
#   From: 2010.05.17/outbox.cif.g08.bks.cpg/sg10_39_cif.got.tgz:77126.got - 2010.06.03 11:33:40.
