data_PCOD9149422
_publ_section_title
;
Structure prediction by ZEFSAII (Michael W. Deem and Ramdas Pophale) SiO2 
 PCOD9149422
Probable space group: P 2/M
;
_chemical_formula_sum "Si O2"
_cell_formula_units_Z 21
_cell_length_a 20.016570
_cell_length_b 7.455921
_cell_length_c 9.172719
_cell_angle_alpha 90.000000
_cell_angle_beta 136.649497
_cell_angle_gamma 90.000000
_cell_volume 939.731999
_symmetry_space_group_name_H-M "P 2/M"
_symmetry_group_IT_number 10
_symmetry_cell_setting 'monoclinic'
loop_
_space_group_symop_operation_xyz
x,y,z
-x,y,-z
-x,-y,-z
x,-y,z
loop_
_atom_site_type_symbol
_atom_site_label
_atom_site_fract_x
_atom_site_fract_y
_atom_site_fract_z
Si Si1 0.600548 0.292293 0.217625
Si Si2 0.216721 0.217543 0.673383
Si Si3 0.025279 0.219341 0.202758
Si Si4 0.150078 0.794658 0.880422
Si Si5 0.678094 0.301573 0.640410
Si Si6 0.500000 0.500000 0.500000
O O1 0.577810 0.500000 0.222740
O O2 0.680166 0.287297 0.217742
O O3 0.647083 0.213892 0.438527
O O4 0.500000 0.212737 0.000000
O O5 0.132170 0.269240 0.426444
O O6 0.223928 0.000000 0.686866
O O7 0.185759 0.283633 0.784086
O O8 0.021725 0.000000 0.196138
O O9 0.000000 0.278745 0.000000
O O10 0.944013 0.282898 0.188627
O O11 0.240160 0.792878 0.134974
O O12 0.123247 0.000000 0.802820
O O13 0.721406 0.500000 0.674445
O O14 0.580582 0.346253 0.576713
#
# Coordination Sequence:
#
# PCOD9149422 Si02
#       6
#     4   4   4   4   4   1
#     4  10  22  37  57  79 105 143 184 223 269 319
#     4  10  21  35  54  82 113 142 178 222 266 318
#     4   9  17  32  55  79 108 144 177 215 269 323
#     4  10  20  34  56  84 111 141 178 221 268 319
#     4   9  20  36  57  78 105 139 182 219 269 318
#     4   8  20  36  60  76 104 144 184 224 264 322
#
# _framework density 22.346798
#
# number of rings (size 3 to 8) (size 9 to 14) (size 15 to 20)
#    0.571    1.905    0.000    1.714    2.667    5.714 
#    0.000    1.429    0.000    5.714    0.000    0.000 
#    0.000    0.000    0.000    0.000    0.000    0.000 
#
# Total GULP energy -116943.690876 kJ/mol
# GULP energy per Si atom -5568.747185 kJ/mol
# Density = 2.229594 g / cm^3
# Si number density = 22.346798 Si / 1000 Ang^3
#
#
#
# Elastic Constant Matrix: (Units=GPa)
#
#
# Indices 1 2 3 4 5 6 
#
# 1 127.9308 -10.5735 56.2004 0.0000 24.3680 0.0000
# 2 -10.5735 63.1818 -1.5679 0.0000 0.4037 0.0000
# 3 56.2004 -1.5679 131.8405 0.0000 -1.8679 0.0000
# 4 0.0000 0.0000 0.0000 5.5327 0.0000 -0.5510
# 5 24.3680 0.4037 -1.8679 0.0000 34.4969 0.0000
# 6 0.0000 0.0000 0.0000 -0.5510 0.0000 13.1440
#
#
#
# Elastic Compliance Matrix: (Units=1/GPa)
#
#
# Indices 1 2 3 4 5 6 
#
# 1 0.011910 0.001920 -0.005178 0.000000 -0.008716 0.000000
# 2 0.001920 0.016143 -0.000649 0.000000 -0.001581 0.000000
# 3 -0.005178 -0.000649 0.009844 0.000000 0.004198 0.000000
# 4 0.000000 0.000000 0.000000 0.181501 0.000000 0.007609
# 5 -0.008716 -0.001581 0.004198 0.000000 0.035391 0.000000
# 6 0.000000 0.000000 0.000000 0.007609 0.000000 0.076399
#
#
# Mechanical properties :
#
#
# Convention : Reuss Voigt Hill
#
# Bulk Modulus (GPa) = 33.24019 45.67458 39.45738
# Shear Modulus (GPa) = 14.32546 29.22767 21.77657
#
# Velocity S-wave (km/s) = 2.53465 3.62043 3.12506
# Velocity P-wave (km/s) = 4.84488 6.16117 5.54224
#
# Compressibility (1/GPa) = 0.03008407
#
# Stress axis : x y z
#
# Youngs Moduli (GPa) = 83.96150 61.94747 101.58682
#
# Poissons Ratio (x) = -0.11896 0.52598
# Poissons Ratio (y) = -0.16124 0.06593
# Poissons Ratio (z) = 0.43473 0.04021
#
# Static dielectric constant tensor:
#      x y z
#    x 1.788850 0.000000 -0.031240 
#    y 0.000000 1.871520 0.000000 
#    z -0.031240 0.000000 1.817410 
# 
# From -- ./inp_files/34062.got.cif
#   From: 2010.05.17/outbox.cif.g08.bks.cpg/sg10_18_cif.got.tgz:34062.got - 2010.06.03 11:33:40.
