data_PCOD9149261
_publ_section_title
;
Structure prediction by ZEFSAII (Michael W. Deem and Ramdas Pophale) SiO2 
 PCOD9149261
Probable space group: P 2/M
;
_chemical_formula_sum "Si O2"
_cell_formula_units_Z 32
_cell_length_a 29.071653
_cell_length_b 9.081342
_cell_length_c 12.530611
_cell_angle_alpha 90.000000
_cell_angle_beta 150.232031
_cell_angle_gamma 90.000000
_cell_volume 1642.485062
_symmetry_space_group_name_H-M "P 2/M"
_symmetry_group_IT_number 10
_symmetry_cell_setting 'monoclinic'
loop_
_space_group_symop_operation_xyz
x,y,z
-x,y,-z
-x,-y,-z
x,-y,z
loop_
_atom_site_type_symbol
_atom_site_label
_atom_site_fract_x
_atom_site_fract_y
_atom_site_fract_z
Si Si1 0.053033 0.837159 0.717841
Si Si2 0.786095 0.331582 0.044518
Si Si3 0.000281 0.828957 0.840665
Si Si4 0.735708 0.826619 0.153039
Si Si5 0.183269 0.324725 0.473770
Si Si6 0.480151 0.175107 0.336910
Si Si7 0.217077 0.823949 0.324597
Si Si8 0.351321 0.326933 0.422889
O O1 0.128749 0.711709 0.859542
O O2 0.987911 0.815370 0.688038
O O3 0.000000 0.839131 0.500000
O O4 0.097443 0.000000 0.823238
O O5 0.792174 0.500000 0.092474
O O6 0.784870 0.226304 0.143610
O O7 0.697296 0.311961 0.790918
O O8 0.924112 0.728452 0.742272
O O9 0.983974 0.000000 0.838305
O O10 0.108634 0.795364 0.077108
O O11 0.771154 0.737173 0.326254
O O12 0.751868 0.000000 0.203034
O O13 0.626600 0.801814 0.909986
O O14 0.188716 0.500000 0.479909
O O15 0.231006 0.250236 0.467594
O O16 0.500000 0.221177 0.500000
O O17 0.547980 0.257912 0.392223
O O18 0.499509 0.000000 0.370834
O O19 0.286998 0.756180 0.378854
O O20 0.228424 0.000000 0.352288
O O21 0.355098 0.500000 0.456659
#
# Coordination Sequence:
#
# PCOD9149261 Si02
#       8
#     4   4   4   4   4   4   4   4
#     4  10  20  34  54  82 118 162 206 248 296 357
#     4  11  22  35  56  88 125 161 196 243 307 366
#     4  10  21  38  61  90 121 162 213 256 298 357
#     4  11  23  41  65  90 123 163 207 254 302 366
#     4  12  26  42  62  90 126 162 204 258 315 367
#     4  10  21  39  65  95 123 159 206 251 300 365
#     4  11  23  42  67  90 121 165 215 259 298 357
#     4  11  23  38  61  94 129 160 196 249 310 365
#
# _framework density 19.482672000000001
#
# number of rings (size 3 to 8) (size 9 to 14) (size 15 to 20)
#    0.000    1.250    2.500    3.750    0.000    6.500 
#    0.000    0.625    0.000    3.750    0.000    0.000 
#    0.000    0.000    0.000    0.000    0.000    0.000 
#
# Total GULP energy -178854.077687 kJ/mol
# GULP energy per Si atom -5589.189928 kJ/mol
# Density = 1.943833 g / cm^3
# Si number density = 19.482672 Si / 1000 Ang^3
#
#
#
# Elastic Constant Matrix: (Units=GPa)
#
#
# Indices 1 2 3 4 5 6 
#
# 1 129.4049 69.9342 36.2340 0.0000 -7.1457 0.0000
# 2 69.9342 93.8455 41.6230 0.0000 2.4322 0.0000
# 3 36.2340 41.6230 45.3704 0.0000 -0.3332 0.0000
# 4 0.0000 0.0000 0.0000 444.3651 0.0000 494.0646
# 5 -7.1457 2.4322 -0.3332 0.0000 28.5525 0.0000
# 6 0.0000 0.0000 0.0000 494.0646 0.0000 607.2866
#
#
#
# Elastic Compliance Matrix: (Units=1/GPa)
#
#
# Indices 1 2 3 4 5 6 
#
# 1 0.013583 -0.009158 -0.002415 0.000000 0.004151 0.000000
# 2 -0.009158 0.024226 -0.014945 0.000000 -0.004530 0.000000
# 3 -0.002415 -0.014945 0.037688 0.000000 0.001108 0.000000
# 4 0.000000 0.000000 0.000000 0.023577 0.000000 -0.019182
# 5 0.004151 -0.004530 0.001108 0.000000 0.036461 0.000000
# 6 0.000000 0.000000 0.000000 -0.019182 0.000000 0.017252
#
#
# Mechanical properties :
#
#
# Convention : Reuss Voigt Hill
#
# Bulk Modulus (GPa) = 44.52170 62.68926 53.60548
# Shear Modulus (GPa) = 23.44006 224.09614 123.76810
#
# Velocity S-wave (km/s) = 3.47237 10.73653 7.97905
# Velocity P-wave (km/s) = 6.24324 13.63613 10.60477
#
# Compressibility (1/GPa) = 0.02246096
#
# Stress axis : x y z
#
# Youngs Moduli (GPa) = 73.62401 41.27746 26.53369
#
# Poissons Ratio (x) = 0.37803 0.06408
# Poissons Ratio (y) = 0.67426 0.39654
# Poissons Ratio (z) = 0.17781 0.61687
#
# Static dielectric constant tensor:
#      x y z
#    x 1.672150 0.000000 -0.008490 
#    y 0.000000 1.661440 0.000000 
#    z -0.008490 0.000000 1.702170 
# 
# From -- ./inp_files/58286.got.cif
#   From: 2010.05.17/outbox.cif.g08.bks.cpg/sg10_30_cif.got.tgz:58286.got - 2010.06.03 11:33:40.
