data_PCOD9149056
_publ_section_title
;
Structure prediction by ZEFSAII (Michael W. Deem and Ramdas Pophale) SiO2 
 PCOD9149056
Probable space group: P 2/M
;
_chemical_formula_sum "Si O2"
_cell_formula_units_Z 28
_cell_length_a 18.248819
_cell_length_b 9.474753
_cell_length_c 22.009159
_cell_angle_alpha 90.000000
_cell_angle_beta 27.130013
_cell_angle_gamma 90.000000
_cell_volume 1735.328026
_symmetry_space_group_name_H-M "P 2/M"
_symmetry_group_IT_number 10
_symmetry_cell_setting 'monoclinic'
loop_
_space_group_symop_operation_xyz
x,y,z
-x,y,-z
-x,-y,-z
x,-y,z
loop_
_atom_site_type_symbol
_atom_site_label
_atom_site_fract_x
_atom_site_fract_y
_atom_site_fract_z
Si Si1 0.159113 0.662035 0.839191
Si Si2 0.340713 0.836608 0.800577
Si Si3 0.766212 0.830034 0.922735
Si Si4 0.467241 0.829485 0.229923
Si Si5 0.021696 0.161807 0.121821
Si Si6 0.306768 0.666641 0.144273
Si Si7 0.811989 0.167474 0.650482
O O1 0.202273 0.500000 0.797538
O O2 0.294899 0.745418 0.776161
O O3 0.105590 0.738516 0.816926
O O4 0.000000 0.665180 0.000000
O O5 0.480824 0.779431 0.741485
O O6 0.370605 0.000000 0.761705
O O7 0.182602 0.836768 0.960940
O O8 0.914949 0.799385 0.858072
O O9 0.765435 0.745509 0.861029
O O10 0.762147 0.000000 0.915688
O O11 0.604946 0.790643 0.079477
O O12 0.296472 0.790978 0.327650
O O13 0.474335 0.000000 0.229216
O O14 0.964328 0.000000 0.164750
O O15 0.270422 0.500000 0.170496
O O16 0.243124 0.741859 0.251615
O O17 0.500000 0.683118 0.000000
O O18 0.000000 0.185211 0.500000
O O19 0.781181 0.000000 0.684747
#
# Coordination Sequence:
#
# PCOD9149056 Si02
#       7
#     4   4   4   4   4   4   4
#     4   9  15  21  30  49  79 113 144 177 219 264
#     4   8  13  22  36  52  75 110 147 181 217 265
#     4   9  16  28  47  66  86 117 156 197 233 270
#     4   8  14  26  44  65  87 113 150 194 236 272
#     4   8  14  23  36  55  78 109 147 182 223 270
#     4  11  22  33  47  70  97 126 159 194 237 287
#     4  10  20  34  53  73  93 122 160 201 243 283
#
# _framework density 16.135278
#
# number of rings (size 3 to 8) (size 9 to 14) (size 15 to 20)
#    0.000    3.000    1.429    2.571    0.000    3.143 
#    0.000    2.857    0.000    0.000    0.000    0.000 
#    0.000    1.143    0.000   13.143    0.000    7.286 
#
# Total GULP energy -155884.090410 kJ/mol
# GULP energy per Si atom -5567.288943 kJ/mol
# Density = 1.609855 g / cm^3
# Si number density = 16.135278 Si / 1000 Ang^3
#
#
#
# Elastic Constant Matrix: (Units=GPa)
#
#
# Indices 1 2 3 4 5 6 
#
# 1 180.5103 89.1206 31.4989 0.0000 -16.0522 0.0000
# 2 89.1206 85.4859 27.8785 0.0000 -2.9122 0.0000
# 3 31.4989 27.8785 26.5475 0.0000 -6.5937 0.0000
# 4 0.0000 0.0000 0.0000 8.1106 0.0000 -0.0593
# 5 -16.0522 -2.9122 -6.5937 0.0000 11.1198 0.0000
# 6 0.0000 0.0000 0.0000 -0.0593 0.0000 -1.5050
#
#
#
# Elastic Compliance Matrix: (Units=1/GPa)
#
#
# Indices 1 2 3 4 5 6 
#
# 1 0.014085 -0.015380 0.004091 0.000000 0.018730 0.000000
# 2 -0.015380 0.035138 -0.025660 0.000000 -0.028215 0.000000
# 3 0.004091 -0.025660 0.069844 0.000000 0.040601 0.000000
# 4 0.000000 0.000000 0.000000 0.123259 0.000000 -0.004857
# 5 0.018730 -0.028215 0.040601 0.000000 0.133654 0.000000
# 6 0.000000 0.000000 0.000000 -0.004857 0.000000 -0.664257
#
#
# Mechanical properties :
#
#
# Convention : Reuss Voigt Hill
#
# Bulk Modulus (GPa) = 22.13792 65.50440 43.82116
# Shear Modulus (GPa) = -25.08492 13.14814 -5.96839
#
# Velocity S-wave (km/s) = -3.94720 2.85769 -1.92536
# Velocity P-wave (km/s) = 2.65026 7.18148 4.71963
#
# Compressibility (1/GPa) = 0.04517135
#
# Stress axis : x y z
#
# Youngs Moduli (GPa) = 70.99843 28.45883 14.31754
#
# Poissons Ratio (x) = 0.43769 -0.05858
# Poissons Ratio (y) = 1.09194 0.36738
# Poissons Ratio (z) = -0.29047 0.73024
#
# Static dielectric constant tensor:
#      x y z
#    x 1.565840 0.000000 -0.015210 
#    y 0.000000 1.531630 0.000000 
#    z -0.015210 0.000000 1.510670 
# 
# From -- ./inp_files/79228.got.cif
#   From: 2010.05.17/outbox.cif.g08.bks.cpg/sg10_40_cif.got.tgz:79228.got - 2010.06.03 11:33:40.
