data_PCOD9149974
_publ_section_title
;
Structure prediction by ZEFSAII (Michael W. Deem and Ramdas Pophale) SiO2 
 PCOD9149974
Probable space group: P 2/M
;
_chemical_formula_sum "Si O2"
_cell_formula_units_Z 32
_cell_length_a 20.529548
_cell_length_b 7.864308
_cell_length_c 26.443626
_cell_angle_alpha 90.000000
_cell_angle_beta 158.942124
_cell_angle_gamma 90.000000
_cell_volume 1534.020560
_symmetry_space_group_name_H-M "P 2/M"
_symmetry_group_IT_number 10
_symmetry_cell_setting 'monoclinic'
loop_
_space_group_symop_operation_xyz
x,y,z
-x,y,-z
-x,-y,-z
x,-y,z
loop_
_atom_site_type_symbol
_atom_site_label
_atom_site_fract_x
_atom_site_fract_y
_atom_site_fract_z
Si Si1 0.708356 0.205015 0.652249
Si Si2 0.074162 0.697132 0.651802
Si Si3 0.813463 0.704875 0.840499
Si Si4 0.609745 0.800431 0.186154
Si Si5 0.663647 0.293521 0.337172
Si Si6 0.880882 0.204654 0.673479
Si Si7 0.541849 0.294748 0.357784
Si Si8 0.766672 0.799332 0.127168
O O1 0.500000 0.267288 0.500000
O O2 0.795480 0.251719 0.768665
O O3 0.817784 0.268580 0.682639
O O4 0.701964 0.000000 0.644256
O O5 0.052230 0.500000 0.649401
O O6 0.206741 0.714144 0.700274
O O7 0.171205 0.780852 0.770114
O O8 0.873013 0.763906 0.495137
O O9 0.812725 0.500000 0.844307
O O10 0.635977 0.768984 0.741827
O O11 0.000000 0.768409 0.000000
O O12 0.586807 0.775787 0.229235
O O13 0.630454 0.000000 0.189529
O O14 0.432550 0.729640 0.029105
O O15 0.661500 0.500000 0.332715
O O16 0.558455 0.240043 0.311596
O O17 0.721755 0.243346 0.518428
O O18 0.071638 0.272026 0.790588
O O19 0.895821 0.000000 0.687355
O O20 0.536434 0.500000 0.353796
O O21 0.753284 0.000000 0.106170
#
# Coordination Sequence:
#
# PCOD9149974 Si02
#       8
#     4   4   4   4   4   4   4   4
#     4  10  20  35  57  86 115 146 188 234 279 330
#     4  11  22  38  61  86 112 147 191 234 281 336
#     4  10  22  38  57  85 119 153 189 230 280 336
#     4  11  24  39  56  83 117 150 187 231 283 339
#     4  10  22  39  58  83 113 147 189 236 282 333
#     4  10  20  36  59  84 113 147 188 235 281 331
#     4  10  20  37  59  82 113 149 188 233 280 332
#     4  10  22  39  58  83 115 149 187 234 283 335
#
# _framework density 20.860216999999999
#
# number of rings (size 3 to 8) (size 9 to 14) (size 15 to 20)
#    0.000    1.750    2.500    1.500    0.000    7.500 
#    0.000    0.000    0.000    0.000    0.000    0.000 
#    0.000    0.000    0.000    0.000    0.000    0.000 
#
# Total GULP energy -178817.398080 kJ/mol
# GULP energy per Si atom -5588.043690 kJ/mol
# Density = 2.081274 g / cm^3
# Si number density = 20.860217 Si / 1000 Ang^3
#
#
#
# Elastic Constant Matrix: (Units=GPa)
#
#
# Indices 1 2 3 4 5 6 
#
# 1 83.3808 -7.4491 -15.0821 0.0000 -2.5974 0.0000
# 2 -7.4491 21.1735 -0.6118 0.0000 6.5661 0.0000
# 3 -15.0821 -0.6118 41.1561 0.0000 -13.8768 0.0000
# 4 0.0000 0.0000 0.0000 19.3502 0.0000 -6.9204
# 5 -2.5974 6.5661 -13.8768 0.0000 32.2303 0.0000
# 6 0.0000 0.0000 0.0000 -6.9204 0.0000 20.7359
#
#
#
# Elastic Compliance Matrix: (Units=1/GPa)
#
#
# Indices 1 2 3 4 5 6 
#
# 1 0.013524 0.004051 0.005972 0.000000 0.002836 0.000000
# 2 0.004051 0.051984 -0.001408 0.000000 -0.010870 0.000000
# 3 0.005972 -0.001408 0.031263 0.000000 0.014228 0.000000
# 4 0.000000 0.000000 0.000000 0.058684 0.000000 0.019585
# 5 0.002836 -0.010870 0.014228 0.000000 0.039596 0.000000
# 6 0.000000 0.000000 0.000000 0.019585 0.000000 0.054762
#
#
# Mechanical properties :
#
#
# Convention : Reuss Voigt Hill
#
# Bulk Modulus (GPa) = 8.77180 11.04714 9.90947
# Shear Modulus (GPa) = 18.47869 25.72018 22.09944
#
# Velocity S-wave (km/s) = 2.97953 3.51519 3.25838
# Velocity P-wave (km/s) = 4.00636 4.66719 4.34935
#
# Compressibility (1/GPa) = 0.11400172
#
# Stress axis : x y z
#
# Youngs Moduli (GPa) = 73.94416 19.23663 31.98671
#
# Poissons Ratio (x) = -0.07793 -0.19104
# Poissons Ratio (y) = -0.29954 0.04503
# Poissons Ratio (z) = -0.44162 0.02708
#
# Static dielectric constant tensor:
#      x y z
#    x 1.731110 0.000000 0.026730 
#    y 0.000000 1.771390 0.000000 
#    z 0.026730 0.000000 1.725900 
# 
# From -- ./inp_files/86749.got.cif
#   From: 2010.05.17/outbox.cif.g08.bks.cpg/sg10_44_cif.got.tgz:86749.got - 2010.06.03 11:33:40.
