data_PCOD9149851
_publ_section_title
;
Structure prediction by ZEFSAII (Michael W. Deem and Ramdas Pophale) SiO2 
 PCOD9149851
Probable space group: P 2/M
;
_chemical_formula_sum "Si O2"
_cell_formula_units_Z 20
_cell_length_a 18.504118
_cell_length_b 7.774664
_cell_length_c 8.504715
_cell_angle_alpha 90.000000
_cell_angle_beta 129.765817
_cell_angle_gamma 90.000000
_cell_volume 940.474550
_symmetry_space_group_name_H-M "P 2/M"
_symmetry_group_IT_number 10
_symmetry_cell_setting 'monoclinic'
loop_
_space_group_symop_operation_xyz
x,y,z
-x,y,-z
-x,-y,-z
x,-y,z
loop_
_atom_site_type_symbol
_atom_site_label
_atom_site_fract_x
_atom_site_fract_y
_atom_site_fract_z
Si Si1 0.709428 0.790882 0.471075
Si Si2 0.063132 0.500000 0.871055
Si Si3 0.391464 0.209508 0.340310
Si Si4 0.691501 0.203317 0.106749
Si Si5 0.104187 0.807930 0.719208
Si Si6 0.862523 0.500000 0.678276
O O1 0.659328 0.744691 0.566109
O O2 0.656700 0.744496 0.232421
O O3 0.801099 0.672068 0.587687
O O4 0.725615 0.000000 0.492221
O O5 0.106519 0.667564 0.855279
O O6 0.950881 0.500000 0.683637
O O7 0.089931 0.500000 0.086947
O O8 0.500000 0.261785 0.500000
O O9 0.387971 0.000000 0.331615
O O10 0.347254 0.273962 0.113218
O O11 0.805053 0.224069 0.262889
O O12 0.671653 0.000000 0.071853
O O13 0.000000 0.801080 0.500000
O O14 0.117183 0.000000 0.801830
#
# Coordination Sequence:
#
# PCOD9149851 Si02
#       6
#     4   2   4   4   4   2
#     4  10  21  39  60  82 116 152 187 241 290 336
#     4  11  23  36  54  82 117 154 195 245 289 334
#     4   9  18  34  59  89 116 148 193 238 287 349
#     4   9  18  33  56  85 115 154 196 232 287 347
#     4  10  20  35  56  83 116 155 198 238 283 342
#     4  11  24  38  55  85 115 150 201 237 285 357
#
# _framework density 21.265861000000001
#
# number of rings (size 3 to 8) (size 9 to 14) (size 15 to 20)
#    0.000    2.200    0.000    2.700    0.000    6.400 
#    0.000    7.500    0.000    1.200    0.000    0.000 
#    0.000    0.000    0.000    0.000    0.000    0.000 
#
# Total GULP energy -111442.249982 kJ/mol
# GULP energy per Si atom -5572.112499 kJ/mol
# Density = 2.121746 g / cm^3
# Si number density = 21.265861 Si / 1000 Ang^3
#
#
#
# Elastic Constant Matrix: (Units=GPa)
#
#
# Indices 1 2 3 4 5 6 
#
# 1 89.8755 48.3254 60.1203 0.0000 -30.7295 0.0000
# 2 48.3254 55.6124 35.3975 0.0000 -8.8518 0.0000
# 3 60.1203 35.3975 129.8898 0.0000 -29.5747 0.0000
# 4 0.0000 0.0000 0.0000 14.7081 0.0000 3.8096
# 5 -30.7295 -8.8518 -29.5747 0.0000 34.9188 0.0000
# 6 0.0000 0.0000 0.0000 3.8096 0.0000 11.0380
#
#
#
# Elastic Compliance Matrix: (Units=1/GPa)
#
#
# Indices 1 2 3 4 5 6 
#
# 1 0.033113 -0.022676 -0.004734 0.000000 0.019383 0.000000
# 2 -0.022676 0.037294 -0.002551 0.000000 -0.012662 0.000000
# 3 -0.004734 -0.002551 0.011756 0.000000 0.005145 0.000000
# 4 0.000000 0.000000 0.000000 0.074664 0.000000 -0.025769
# 5 0.019383 -0.012662 0.005145 0.000000 0.046843 0.000000
# 6 0.000000 0.000000 0.000000 -0.025769 0.000000 0.099490
#
#
# Mechanical properties :
#
#
# Convention : Reuss Voigt Hill
#
# Bulk Modulus (GPa) = 44.95762 62.56265 53.76013
# Shear Modulus (GPa) = 13.49546 20.90196 17.19871
#
# Velocity S-wave (km/s) = 2.52187 3.13851 2.84693
# Velocity P-wave (km/s) = 5.44669 6.52815 6.01179
#
# Compressibility (1/GPa) = 0.02224317
#
# Stress axis : x y z
#
# Youngs Moduli (GPa) = 30.19989 26.81369 85.06043
#
# Poissons Ratio (x) = 0.60802 0.40264
# Poissons Ratio (y) = 0.68481 0.21697
# Poissons Ratio (z) = 0.14295 0.06840
#
# Static dielectric constant tensor:
#      x y z
#    x 1.804940 0.000000 -0.005750 
#    y 0.000000 1.732820 0.000000 
#    z -0.005750 0.000000 1.809900 
# 
# From -- ./inp_files/31706.got.cif
#   From: 2010.05.17/outbox.cif.g08.bks.cpg/sg10_16_cif.got.tgz:31706.got - 2010.06.03 11:33:40.
