data_PCOD9149803
_publ_section_title
;
Structure prediction by ZEFSAII (Michael W. Deem and Ramdas Pophale) SiO2 
 PCOD9149803
Probable space group: P 2/M
;
_chemical_formula_sum "Si O2"
_cell_formula_units_Z 32
_cell_length_a 26.903639
_cell_length_b 8.345102
_cell_length_c 21.511449
_cell_angle_alpha 90.000000
_cell_angle_beta 159.166708
_cell_angle_gamma 90.000000
_cell_volume 1717.652324
_symmetry_space_group_name_H-M "P 2/M"
_symmetry_group_IT_number 10
_symmetry_cell_setting 'monoclinic'
loop_
_space_group_symop_operation_xyz
x,y,z
-x,y,-z
-x,-y,-z
x,-y,z
loop_
_atom_site_type_symbol
_atom_site_label
_atom_site_fract_x
_atom_site_fract_y
_atom_site_fract_z
Si Si1 0.157152 0.694016 0.346551
Si Si2 0.657033 0.808354 0.690921
Si Si3 0.852821 0.191617 0.032545
Si Si4 0.158095 0.307808 0.205025
Si Si5 0.572302 0.693999 0.021053
Si Si6 0.445829 0.305013 0.742780
Si Si7 0.739825 0.308221 0.032567
Si Si8 0.141555 0.191426 0.698767
O O1 0.155091 0.500000 0.345061
O O2 0.174178 0.745046 0.294828
O O3 0.294707 0.750662 0.543832
O O4 0.009481 0.750134 0.200996
O O5 0.500000 0.743451 0.500000
O O6 0.739544 0.771760 0.724383
O O7 0.647201 0.000000 0.687517
O O8 0.746784 0.746382 0.854743
O O9 0.801428 0.242714 0.040576
O O10 0.853324 0.000000 0.030078
O O11 0.178729 0.500000 0.226406
O O12 0.000000 0.273504 0.000000
O O13 0.582266 0.500000 0.033211
O O14 0.726028 0.761478 0.188619
O O15 0.500000 0.746521 0.000000
O O16 0.480590 0.740790 0.853995
O O17 0.444448 0.500000 0.738600
O O18 0.579577 0.252850 0.858072
O O19 0.738375 0.500000 0.027451
O O20 0.827993 0.260165 0.196887
O O21 0.000000 0.249101 0.500000
O O22 0.134307 0.000000 0.696086
#
# Coordination Sequence:
#
# PCOD9149803 Si02
#       8
#     4   4   4   4   4   4   4   4
#     4  10  20  36  56  79 109 143 181 227 279 331
#     4  10  23  40  56  78 110 148 187 226 276 336
#     4  11  23  38  55  80 113 146 184 229 275 330
#     4  10  20  35  56  81 107 138 181 232 279 325
#     4   9  18  34  56  82 112 146 187 230 270 320
#     4   8  17  34  55  80 107 138 180 226 272 323
#     4  10  21  38  60  83 110 146 186 229 276 326
#     4  10  21  37  57  84 117 150 185 226 273 326
#
# _framework density 18.630078999999999
#
# number of rings (size 3 to 8) (size 9 to 14) (size 15 to 20)
#    0.000    2.250    1.250    1.875    1.750    3.750 
#    0.000    4.375    0.000    0.000    0.000    0.000 
#    0.000    0.000    0.000    0.000    0.000    0.000 
#
# Total GULP energy -178580.325966 kJ/mol
# GULP energy per Si atom -5580.635186 kJ/mol
# Density = 1.858768 g / cm^3
# Si number density = 18.630079 Si / 1000 Ang^3
#
#
#
# Elastic Constant Matrix: (Units=GPa)
#
#
# Indices 1 2 3 4 5 6 
#
# 1 157.5540 11.1763 84.7759 0.0000 -5.7883 0.0000
# 2 11.1763 13.2436 20.0356 0.0000 -2.7012 0.0000
# 3 84.7759 20.0356 179.5192 0.0000 -7.8540 0.0000
# 4 0.0000 0.0000 0.0000 74.4753 0.0000 18.6265
# 5 -5.7883 -2.7012 -7.8540 0.0000 9.0592 0.0000
# 6 0.0000 0.0000 0.0000 18.6265 0.0000 36.8884
#
#
#
# Elastic Compliance Matrix: (Units=1/GPa)
#
#
# Indices 1 2 3 4 5 6 
#
# 1 0.008557 -0.001030 -0.003846 0.000000 0.001826 0.000000
# 2 -0.001030 0.094237 -0.009179 0.000000 0.019483 0.000000
# 3 -0.003846 -0.009179 0.008506 0.000000 0.002181 0.000000
# 4 0.000000 0.000000 0.000000 0.015368 0.000000 -0.007760
# 5 0.001826 0.019483 0.002181 0.000000 0.119251 0.000000
# 6 0.000000 0.000000 0.000000 -0.007760 0.000000 0.031027
#
#
# Mechanical properties :
#
#
# Convention : Reuss Voigt Hill
#
# Bulk Modulus (GPa) = 12.02061 64.69915 38.35988
# Shear Modulus (GPa) = 15.02466 39.70650 27.36558
#
# Velocity S-wave (km/s) = 2.84293 4.62162 3.83677
# Velocity P-wave (km/s) = 4.15242 7.95505 6.34529
#
# Compressibility (1/GPa) = 0.08319044
#
# Stress axis : x y z
#
# Youngs Moduli (GPa) = 116.86940 10.61154 117.55842
#
# Poissons Ratio (x) = 0.01093 0.45211
# Poissons Ratio (y) = 0.12041 1.07903
# Poissons Ratio (z) = 0.44947 0.09740
#
# Static dielectric constant tensor:
#      x y z
#    x 1.580790 0.000000 -0.009580 
#    y 0.000000 1.648280 0.000000 
#    z -0.009580 0.000000 1.644450 
# 
# From -- ./inp_files/87059.got.cif
#   From: 2010.05.17/outbox.cif.g08.bks.cpg/sg10_44_cif.got.tgz:87059.got - 2010.06.03 11:33:40.
