data_PCOD9149486
_publ_section_title
;
Structure prediction by ZEFSAII (Michael W. Deem and Ramdas Pophale) SiO2 
 PCOD9149486
Probable space group: P 2/M
;
_chemical_formula_sum "Si O2"
_cell_formula_units_Z 24
_cell_length_a 15.607990
_cell_length_b 14.676072
_cell_length_c 13.833567
_cell_angle_alpha 90.000000
_cell_angle_beta 19.457668
_cell_angle_gamma 90.000000
_cell_volume 1055.550630
_symmetry_space_group_name_H-M "P 2/M"
_symmetry_group_IT_number 10
_symmetry_cell_setting 'monoclinic'
loop_
_space_group_symop_operation_xyz
x,y,z
-x,y,-z
-x,-y,-z
x,-y,z
loop_
_atom_site_type_symbol
_atom_site_label
_atom_site_fract_x
_atom_site_fract_y
_atom_site_fract_z
Si Si1 0.862800 0.653078 0.739110
Si Si2 0.269437 0.859991 0.171706
Si Si3 0.062946 0.111759 0.823141
Si Si4 0.390619 0.894709 0.823435
Si Si5 0.277099 0.388712 0.665143
Si Si6 0.694746 0.394049 0.588121
O O1 0.772912 0.752335 0.798737
O O2 0.000000 0.607845 0.500000
O O3 0.088052 0.657401 0.580033
O O4 0.595732 0.611203 0.061255
O O5 0.000000 0.895950 0.500000
O O6 0.500000 0.877877 0.000000
O O7 0.341189 0.894219 0.989486
O O8 0.338075 0.145891 0.495239
O O9 0.067415 0.000000 0.812295
O O10 0.000000 0.134467 0.000000
O O11 0.844826 0.147743 0.983755
O O12 0.401239 0.000000 0.780321
O O13 0.500000 0.355897 0.500000
O O14 0.284739 0.500000 0.658834
O O15 0.311741 0.363389 0.516384
O O16 0.000000 0.360587 0.000000
O O17 0.777363 0.500000 0.502570
#
# Coordination Sequence:
#
# PCOD9149486 Si02
#       6
#     4   4   4   4   4   4
#     4  11  23  39  56  78 110 149 185 220 277 341
#     4  11  23  40  59  78 108 151 188 222 277 340
#     4   9  17  31  53  83 117 148 180 222 274 329
#     4  10  20  34  57  87 112 142 188 235 272 312
#     4   9  17  31  52  79 109 138 170 211 263 321
#     4  11  22  36  59  87 110 139 183 232 273 315
#
# _framework density 22.736948999999999
#
# number of rings (size 3 to 8) (size 9 to 14) (size 15 to 20)
#    0.000    1.833    0.000    5.500    0.000    7.333 
#    0.000    0.000    0.000   10.000    0.000    0.000 
#    0.000    0.000    0.000    0.000    0.000    0.000 
#
# Total GULP energy -134204.664835 kJ/mol
# GULP energy per Si atom -5591.861035 kJ/mol
# Density = 2.268520 g / cm^3
# Si number density = 22.736949 Si / 1000 Ang^3
#
#
#
# Elastic Constant Matrix: (Units=GPa)
#
#
# Indices 1 2 3 4 5 6 
#
# 1 234.0297 -8.5821 127.9801 0.0000 -26.7084 0.0000
# 2 -8.5821 47.6723 0.8720 0.0000 -3.8169 0.0000
# 3 127.9801 0.8720 223.7625 0.0000 -18.4987 0.0000
# 4 0.0000 0.0000 0.0000 -17.3371 0.0000 68.0845
# 5 -26.7084 -3.8169 -18.4987 0.0000 44.8202 0.0000
# 6 0.0000 0.0000 0.0000 68.0845 0.0000 -18.4262
#
#
#
# Elastic Compliance Matrix: (Units=1/GPa)
#
#
# Indices 1 2 3 4 5 6 
#
# 1 0.006557 0.001451 -0.003544 0.000000 0.002568 0.000000
# 2 0.001451 0.021443 -0.000715 0.000000 0.002395 0.000000
# 3 -0.003544 -0.000715 0.006542 0.000000 0.000528 0.000000
# 4 0.000000 0.000000 0.000000 0.004269 0.000000 0.015775
# 5 0.002568 0.002395 0.000528 0.000000 0.024264 0.000000
# 6 0.000000 0.000000 0.000000 0.015775 0.000000 0.004017
#
#
# Mechanical properties :
#
#
# Convention : Reuss Voigt Hill
#
# Bulk Modulus (GPa) = 34.57131 82.88938 58.73035
# Shear Modulus (GPa) = 60.71653 27.49101 44.10377
#
# Velocity S-wave (km/s) = 5.17319 3.48097 4.40903
# Velocity P-wave (km/s) = 7.13585 7.25887 7.19762
#
# Compressibility (1/GPa) = 0.02892572
#
# Stress axis : x y z
#
# Youngs Moduli (GPa) = 152.50528 46.63611 152.85354
#
# Poissons Ratio (x) = -0.06766 0.54166
# Poissons Ratio (y) = -0.22127 0.10935
# Poissons Ratio (z) = 0.54043 0.03336
#
# Static dielectric constant tensor:
#      x y z
#    x 1.785750 0.000000 -0.000420 
#    y 0.000000 1.925260 0.000000 
#    z -0.000420 0.000000 1.823840 
# 
# From -- ./inp_files/52047.got.cif
#   From: 2010.05.17/outbox.cif.g08.bks.cpg/sg10_27_cif.got.tgz:52047.got - 2010.06.03 11:33:40.
