data_PCOD9149959
_publ_section_title
;
Structure prediction by ZEFSAII (Michael W. Deem and Ramdas Pophale) SiO2 
 PCOD9149959
Probable space group: P 2/M
;
_chemical_formula_sum "Si O2"
_cell_formula_units_Z 28
_cell_length_a 27.877349
_cell_length_b 8.404281
_cell_length_c 9.800165
_cell_angle_alpha 90.000000
_cell_angle_beta 139.462652
_cell_angle_gamma 90.000000
_cell_volume 1492.316982
_symmetry_space_group_name_H-M "P 2/M"
_symmetry_group_IT_number 10
_symmetry_cell_setting 'monoclinic'
loop_
_space_group_symop_operation_xyz
x,y,z
-x,y,-z
-x,-y,-z
x,-y,z
loop_
_atom_site_type_symbol
_atom_site_label
_atom_site_fract_x
_atom_site_fract_y
_atom_site_fract_z
Si Si1 0.052605 0.816176 0.730711
Si Si2 0.583139 0.307364 0.638488
Si Si3 0.071570 0.311982 0.071358
Si Si4 0.189592 0.316438 0.892139
Si Si5 0.760621 0.188959 0.524754
Si Si6 0.708642 0.309244 0.125048
Si Si7 0.313307 0.809768 0.349604
O O1 0.131718 0.802201 0.831641
O O2 0.000000 0.748139 0.500000
O O3 0.032766 0.000000 0.714397
O O4 0.055206 0.724499 0.877797
O O5 0.500000 0.266451 0.500000
O O6 0.588323 0.500000 0.638554
O O7 0.607970 0.231219 0.547897
O O8 0.639636 0.255145 0.882120
O O9 0.074576 0.500000 0.101942
O O10 0.154388 0.249828 0.282586
O O11 0.000000 0.247940 0.000000
O O12 0.163792 0.500000 0.839471
O O13 0.217225 0.273687 0.801463
O O14 0.260474 0.296476 0.140629
O O15 0.719804 0.242746 0.299215
O O16 0.710938 0.233582 0.549325
O O17 0.766195 0.000000 0.537566
O O18 0.703073 0.500000 0.121293
O O19 0.300429 0.000000 0.305242
#
# Coordination Sequence:
#
# PCOD9149959 Si02
#       7
#     4   4   4   4   4   4   4
#     4  11  24  39  56  82 113 147 189 238 294 350
#     4   9  19  38  63  90 118 150 191 237 285 342
#     4  11  25  42  60  83 112 152 199 246 296 346
#     4  10  20  36  58  81 107 146 193 241 285 335
#     4  11  23  38  58  84 117 155 194 238 289 349
#     4   9  20  36  57  86 115 147 191 237 284 339
#     4  10  20  35  57  85 114 148 190 232 283 344
#
# _framework density 18.762768999999999
#
# number of rings (size 3 to 8) (size 9 to 14) (size 15 to 20)
#    0.000    1.857    1.429    3.000    2.000    7.143 
#    0.000    0.714    0.000    4.286    0.000    0.000 
#    0.000    0.000    0.000    0.000    0.000    0.000 
#
# Total GULP energy -156066.386684 kJ/mol
# GULP energy per Si atom -5573.799524 kJ/mol
# Density = 1.872006 g / cm^3
# Si number density = 18.762769 Si / 1000 Ang^3
#
#
#
# Elastic Constant Matrix: (Units=GPa)
#
#
# Indices 1 2 3 4 5 6 
#
# 1 163.2147 33.3044 70.4969 0.0000 -8.3148 0.0000
# 2 33.3044 13.0323 7.8675 0.0000 -1.7672 0.0000
# 3 70.4969 7.8675 76.8322 0.0000 -9.9774 0.0000
# 4 0.0000 0.0000 0.0000 32.2977 0.0000 -9.3267
# 5 -8.3148 -1.7672 -9.9774 0.0000 30.5515 0.0000
# 6 0.0000 0.0000 0.0000 -9.3267 0.0000 29.4453
#
#
#
# Elastic Compliance Matrix: (Units=1/GPa)
#
#
# Indices 1 2 3 4 5 6 
#
# 1 0.023433 -0.050113 -0.016622 0.000000 -0.001950 0.000000
# 2 -0.050113 0.189086 0.027431 0.000000 0.006257 0.000000
# 3 -0.016622 0.027431 0.026187 0.000000 0.005615 0.000000
# 4 0.000000 0.000000 0.000000 0.034079 0.000000 0.010794
# 5 -0.001950 0.006257 0.005615 0.000000 0.034397 0.000000
# 6 0.000000 0.000000 0.000000 0.010794 0.000000 0.037380
#
#
# Mechanical properties :
#
#
# Convention : Reuss Voigt Hill
#
# Bulk Modulus (GPa) = 6.24619 52.93518 29.59068
# Shear Modulus (GPa) = 10.49238 27.88625 19.18932
#
# Velocity S-wave (km/s) = 2.36733 3.85938 3.20149
# Velocity P-wave (km/s) = 3.28765 6.93786 5.42874
#
# Compressibility (1/GPa) = 0.16009771
#
# Stress axis : x y z
#
# Youngs Moduli (GPa) = 42.67506 5.28861 38.18633
#
# Poissons Ratio (x) = 0.26503 0.63475
# Poissons Ratio (y) = 2.13857 -1.04749
# Poissons Ratio (z) = 0.70936 -0.14507
#
# Static dielectric constant tensor:
#      x y z
#    x 1.568110 0.000000 -0.175150 
#    y 0.000000 1.642510 0.000000 
#    z -0.175150 0.000000 1.338620 
# 
# From -- ./inp_files/37316.got.cif
#   From: 2010.05.17/outbox.cif.g08.bks.cpg/sg10_19_cif.got.tgz:37316.got - 2010.06.03 11:33:40.
