data_PCOD9149291
_publ_section_title
;
Structure prediction by ZEFSAII (Michael W. Deem and Ramdas Pophale) SiO2 
 PCOD9149291
Probable space group: P 2/M
;
_chemical_formula_sum "Si O2"
_cell_formula_units_Z 28
_cell_length_a 17.780748
_cell_length_b 7.385434
_cell_length_c 15.089211
_cell_angle_alpha 90.000000
_cell_angle_beta 35.172460
_cell_angle_gamma 90.000000
_cell_volume 1141.418291
_symmetry_space_group_name_H-M "P 2/M"
_symmetry_group_IT_number 10
_symmetry_cell_setting 'monoclinic'
loop_
_space_group_symop_operation_xyz
x,y,z
-x,y,-z
-x,-y,-z
x,-y,z
loop_
_atom_site_type_symbol
_atom_site_label
_atom_site_fract_x
_atom_site_fract_y
_atom_site_fract_z
Si Si1 0.585106 0.719742 0.288984
Si Si2 0.033072 0.711944 0.258881
Si Si3 0.747000 0.278943 0.818297
Si Si4 0.985048 0.794794 0.111675
Si Si5 0.765162 0.721448 0.597780
Si Si6 0.473933 0.721005 0.844315
Si Si7 0.303004 0.718801 0.638223
O O1 0.590216 0.500000 0.285247
O O2 0.600312 0.778684 0.173623
O O3 0.438221 0.770262 0.460948
O O4 0.682402 0.777888 0.273096
O O5 0.028702 0.500000 0.284365
O O6 0.053233 0.722537 0.134065
O O7 0.891035 0.785391 0.422697
O O8 0.145477 0.784699 0.214481
O O9 0.746731 0.500000 0.817583
O O10 0.775659 0.224568 0.690570
O O11 0.606553 0.223742 0.991901
O O12 0.829131 0.788067 0.276935
O O13 0.030221 0.000000 0.059975
O O14 0.000000 0.706264 0.000000
O O15 0.763359 0.500000 0.595444
O O16 0.623721 0.780282 0.699387
O O17 0.475459 0.500000 0.842041
O O18 0.296928 0.500000 0.640525
#
# Coordination Sequence:
#
# PCOD9149291 Si02
#       7
#     4   4   4   4   4   4   4
#     4   8  15  27  47  78 110 136 165 212 262 305
#     4  10  20  34  55  79 102 135 177 218 259 310
#     4   9  17  27  44  76 111 138 169 210 256 308
#     4  11  25  40  52  71 104 140 175 220 270 314
#     4   9  16  28  47  74 110 141 165 206 262 309
#     4   9  15  23  40  69 109 144 166 196 254 316
#     4   9  17  32  54  77 103 135 174 216 260 308
#
# _framework density 24.530885999999999
#
# number of rings (size 3 to 8) (size 9 to 14) (size 15 to 20)
#    0.000    2.714    0.000    3.000    2.000    6.857 
#    0.000    1.429    0.000    1.714    0.000    0.000 
#    0.000    3.714    0.000    0.000    0.000    0.000 
#
# Total GULP energy -156494.963625 kJ/mol
# GULP energy per Si atom -5589.105844 kJ/mol
# Density = 2.447505 g / cm^3
# Si number density = 24.530886 Si / 1000 Ang^3
#
#
#
# Elastic Constant Matrix: (Units=GPa)
#
#
# Indices 1 2 3 4 5 6 
#
# 1 123.6618 -3.9712 13.8831 0.0000 12.2601 0.0000
# 2 -3.9712 80.4210 2.4798 0.0000 -2.3215 0.0000
# 3 13.8831 2.4798 62.8869 0.0000 12.1968 0.0000
# 4 0.0000 0.0000 0.0000 -7.5939 0.0000 -23.3989
# 5 12.2601 -2.3215 12.1968 0.0000 40.0599 0.0000
# 6 0.0000 0.0000 0.0000 -23.3989 0.0000 -37.5444
#
#
#
# Elastic Compliance Matrix: (Units=1/GPa)
#
#
# Indices 1 2 3 4 5 6 
#
# 1 0.008475 0.000403 -0.001476 0.000000 -0.002121 0.000000
# 2 0.000403 0.012501 -0.000742 0.000000 0.000827 0.000000
# 3 -0.001476 -0.000742 0.017193 0.000000 -0.004826 0.000000
# 4 0.000000 0.000000 0.000000 0.143082 0.000000 -0.089173
# 5 -0.002121 0.000827 -0.004826 0.000000 0.027129 0.000000
# 6 0.000000 0.000000 0.000000 -0.089173 0.000000 0.028940
#
#
# Mechanical properties :
#
#
# Convention : Reuss Voigt Hill
#
# Bulk Modulus (GPa) = 28.95268 32.41702 30.68485
# Shear Modulus (GPa) = 19.80483 15.95618 17.88051
#
# Velocity S-wave (km/s) = 2.84446 2.55316 2.70274
# Velocity P-wave (km/s) = 4.75564 4.68348 4.71970
#
# Compressibility (1/GPa) = 0.03453912
#
# Stress axis : x y z
#
# Youngs Moduli (GPa) = 117.98760 79.99221 58.16470
#
# Poissons Ratio (x) = -0.03222 0.08582
# Poissons Ratio (y) = -0.04752 0.04318
# Poissons Ratio (z) = 0.17410 0.05938
#
# Static dielectric constant tensor:
#      x y z
#    x 1.905180 0.000000 0.011040 
#    y 0.000000 1.966020 0.000000 
#    z 0.011040 0.000000 1.926380 
# 
# From -- ./inp_files/68620.got.cif
#   From: 2010.05.17/outbox.cif.g08.bks.cpg/sg10_35_cif.got.tgz:68620.got - 2010.06.03 11:33:40.
