data_PCOD9149042
_publ_section_title
;
Structure prediction by ZEFSAII (Michael W. Deem and Ramdas Pophale) SiO2 
 PCOD9149042
Probable space group: P 2/M
;
_chemical_formula_sum "Si O2"
_cell_formula_units_Z 32
_cell_length_a 15.816579
_cell_length_b 7.959405
_cell_length_c 23.358828
_cell_angle_alpha 90.000000
_cell_angle_beta 31.043018
_cell_angle_gamma 90.000000
_cell_volume 1516.441828
_symmetry_space_group_name_H-M "P 2/M"
_symmetry_group_IT_number 10
_symmetry_cell_setting 'monoclinic'
loop_
_space_group_symop_operation_xyz
x,y,z
-x,y,-z
-x,-y,-z
x,-y,z
loop_
_atom_site_type_symbol
_atom_site_label
_atom_site_fract_x
_atom_site_fract_y
_atom_site_fract_z
Si Si1 0.472696 0.696679 0.825640
Si Si2 0.872788 0.205043 0.123073
Si Si3 0.496981 0.799302 0.683295
Si Si4 0.702454 0.198843 0.791406
Si Si5 0.127743 0.203533 0.064722
Si Si6 0.192999 0.299043 0.556092
Si Si7 0.868393 0.800252 0.809537
Si Si8 0.982043 0.691972 0.450478
O O1 0.498965 0.500000 0.816331
O O2 0.542517 0.748174 0.722618
O O3 0.545576 0.779599 0.841529
O O4 0.280776 0.740511 0.937751
O O5 0.688044 0.264548 0.220633
O O6 0.957951 0.254473 0.133382
O O7 0.867065 0.000000 0.124533
O O8 0.000000 0.258033 0.000000
O O9 0.615833 0.740359 0.562546
O O10 0.496406 0.000000 0.682772
O O11 0.732890 0.251722 0.840207
O O12 0.838970 0.306837 0.680025
O O13 0.742966 0.000000 0.766450
O O14 0.150532 0.270488 0.115847
O O15 0.129975 0.000000 0.064409
O O16 0.173917 0.500000 0.568271
O O17 0.055403 0.233412 0.679768
O O18 0.129684 0.226399 0.532098
O O19 0.849192 0.000000 0.825429
O O20 0.922485 0.500000 0.494194
O O21 0.000000 0.780894 0.500000
#
# Coordination Sequence:
#
# PCOD9149042 Si02
#       8
#     4   4   4   4   4   4   4   4
#     4  12  24  36  53  83 118 150 187 230 285 343
#     4   9  17  34  61  89 112 139 181 231 287 339
#     4  11  21  36  60  87 115 146 185 235 283 335
#     4  10  20  34  52  77 108 145 189 233 274 322
#     4  10  20  39  63  84 110 146 189 237 284 333
#     4  10  20  34  54  81 116 153 186 228 280 333
#     4   9  20  38  60  83 110 149 196 237 274 325
#     4   9  17  30  48  71 103 142 182 226 278 330
#
# _framework density 21.102029999999999
#
# number of rings (size 3 to 8) (size 9 to 14) (size 15 to 20)
#    0.000    2.000    1.250    3.000    0.000    3.250 
#    0.000    5.000    0.000    3.750    0.000    0.000 
#    0.000    0.000    0.000    0.000    0.000    0.000 
#
# Total GULP energy -178264.082601 kJ/mol
# GULP energy per Si atom -5570.752581 kJ/mol
# Density = 2.105400 g / cm^3
# Si number density = 21.102030 Si / 1000 Ang^3
#
#
#
# Elastic Constant Matrix: (Units=GPa)
#
#
# Indices 1 2 3 4 5 6 
#
# 1 77.1825 8.1831 8.6117 0.0000 -1.8862 0.0000
# 2 8.1831 30.6781 -19.6170 0.0000 2.4133 0.0000
# 3 8.6117 -19.6170 51.0008 0.0000 -8.9950 0.0000
# 4 0.0000 0.0000 0.0000 11.5988 0.0000 10.9388
# 5 -1.8862 2.4133 -8.9950 0.0000 35.1604 0.0000
# 6 0.0000 0.0000 0.0000 10.9388 0.0000 -11.9156
#
#
#
# Elastic Compliance Matrix: (Units=1/GPa)
#
#
# Indices 1 2 3 4 5 6 
#
# 1 0.014283 -0.007101 -0.005154 0.000000 -0.000065 0.000000
# 2 -0.007101 0.046820 0.019452 0.000000 0.001382 0.000000
# 3 -0.005154 0.019452 0.028983 0.000000 0.005803 0.000000
# 4 0.000000 0.000000 0.000000 0.046209 0.000000 0.042421
# 5 -0.000065 0.001382 0.005803 0.000000 0.029827 0.000000
# 6 0.000000 0.000000 0.000000 0.042421 0.000000 -0.044980
#
#
# Mechanical properties :
#
#
# Convention : Reuss Voigt Hill
#
# Bulk Modulus (GPa) = 9.57127 17.02412 13.29770
# Shear Modulus (GPa) = 35.31690 17.74761 26.53225
#
# Velocity S-wave (km/s) = 4.09543 2.90321 3.54973
# Velocity P-wave (km/s) = 5.18739 4.39582 4.80792
#
# Compressibility (1/GPa) = 0.10447930
#
# Stress axis : x y z
#
# Youngs Moduli (GPa) = 70.01507 21.35836 34.50268
#
# Poissons Ratio (x) = 0.15166 0.17784
# Poissons Ratio (y) = 0.49715 -0.67113
# Poissons Ratio (z) = 0.36088 -0.41545
#
# Static dielectric constant tensor:
#      x y z
#    x 2.061020 0.000000 -0.189450 
#    y 0.000000 1.767950 0.000000 
#    z -0.189450 0.000000 1.910030 
# 
# From -- ./inp_files/89560.got.cif
#   From: 2010.05.17/outbox.cif.g08.bks.cpg/sg10_45_cif.got.tgz:89560.got - 2010.06.03 11:33:40.
