data_PCOD9149153
_publ_section_title
;
Structure prediction by ZEFSAII (Michael W. Deem and Ramdas Pophale) SiO2 
 PCOD9149153
Probable space group: P 2/M
;
_chemical_formula_sum "Si O2"
_cell_formula_units_Z 28
_cell_length_a 5.026613
_cell_length_b 17.481450
_cell_length_c 15.105495
_cell_angle_alpha 90.000000
_cell_angle_beta 76.044672
_cell_angle_gamma 90.000000
_cell_volume 1288.179153
_symmetry_space_group_name_H-M "P 2/M"
_symmetry_group_IT_number 10
_symmetry_cell_setting 'monoclinic'
loop_
_space_group_symop_operation_xyz
x,y,z
-x,y,-z
-x,-y,-z
x,-y,z
loop_
_atom_site_type_symbol
_atom_site_label
_atom_site_fract_x
_atom_site_fract_y
_atom_site_fract_z
Si Si1 0.404890 0.187926 0.686386
Si Si2 0.061969 0.089067 0.225929
Si Si3 0.841274 0.696247 0.191528
Si Si4 0.378783 0.773175 0.106301
Si Si5 0.191358 0.317347 0.401644
Si Si6 0.728443 0.409997 0.341687
Si Si7 0.755447 0.911893 0.580831
O O1 0.174470 0.251844 0.717488
O O2 0.481726 0.137533 0.596336
O O3 0.250511 0.121095 0.756604
O O4 0.672734 0.244848 0.661090
O O5 0.251126 0.148560 0.156383
O O6 0.155276 0.093183 0.321972
O O7 0.078503 0.000000 0.197978
O O8 0.614781 0.737813 0.149354
O O9 0.754612 0.614473 0.235295
O O10 0.133778 0.710851 0.125348
O O11 0.500000 0.786466 0.000000
O O12 0.464345 0.366345 0.402172
O O13 0.000000 0.293974 0.500000
O O14 0.005177 0.377209 0.362693
O O15 0.704577 0.500000 0.354863
O O16 0.000000 0.885962 0.500000
O O17 0.699045 0.000000 0.566268
#
# Coordination Sequence:
#
# PCOD9149153 Si02
#       7
#     4   4   4   4   4   4   4
#     4  10  20  36  57  80 121 164 215 256 309 363
#     4  10  22  39  59  87 126 169 215 273 327 377
#     4  10  21  40  64  90 124 160 208 258 317 390
#     4  11  22  40  66  95 125 164 210 266 330 397
#     4  11  24  39  60  95 133 173 225 272 316 372
#     4  11  24  42  67  94 128 172 212 258 326 393
#     4  10  20  34  53  80 118 165 213 262 315 364
#
# _framework density 21.736107000000001
#
# number of rings (size 3 to 8) (size 9 to 14) (size 15 to 20)
#    0.000    1.571    1.429    3.857    4.000    2.571 
#    5.143    2.143    0.000    5.143    0.000    0.000 
#    0.000    0.000    0.000    0.000    0.000    0.000 
#
# Total GULP energy -155897.029323 kJ/mol
# GULP energy per Si atom -5567.751047 kJ/mol
# Density = 2.168664 g / cm^3
# Si number density = 21.736107 Si / 1000 Ang^3
#
#
#
# Elastic Constant Matrix: (Units=GPa)
#
#
# Indices 1 2 3 4 5 6 
#
# 1 141.7652 45.0463 54.1412 0.0000 -18.9748 0.0000
# 2 45.0463 114.9122 22.6253 0.0000 -0.3242 0.0000
# 3 54.1412 22.6253 130.7677 0.0000 -20.9772 0.0000
# 4 0.0000 0.0000 0.0000 14.7033 0.0000 -18.7787
# 5 -18.9748 -0.3242 -20.9772 0.0000 27.4486 0.0000
# 6 0.0000 0.0000 0.0000 -18.7787 0.0000 -46.8190
#
#
#
# Elastic Compliance Matrix: (Units=1/GPa)
#
#
# Indices 1 2 3 4 5 6 
#
# 1 0.009755 -0.003273 -0.002732 0.000000 0.004617 0.000000
# 2 -0.003273 0.010144 -0.000848 0.000000 -0.002791 0.000000
# 3 -0.002732 -0.000848 0.009825 0.000000 0.005610 0.000000
# 4 0.000000 0.000000 0.000000 0.044974 0.000000 -0.018039
# 5 0.004617 -0.002791 0.005610 0.000000 0.043878 0.000000
# 6 0.000000 0.000000 0.000000 -0.018039 0.000000 -0.014124
#
#
# Mechanical properties :
#
#
# Convention : Reuss Voigt Hill
#
# Bulk Modulus (GPa) = 62.42620 70.11897 66.27258
# Shear Modulus (GPa) = 40.48660 16.77541 28.63100
#
# Velocity S-wave (km/s) = 4.32052 2.78110 3.63328
# Velocity P-wave (km/s) = 7.32609 6.53008 6.93951
#
# Compressibility (1/GPa) = 0.01601892
#
# Stress axis : x y z
#
# Youngs Moduli (GPa) = 102.50791 98.57609 101.78298
#
# Poissons Ratio (x) = 0.32266 0.27807
# Poissons Ratio (y) = 0.33553 0.08628
# Poissons Ratio (z) = 0.28005 0.08356
#
# Static dielectric constant tensor:
#      x y z
#    x 1.931640 0.000000 0.062140 
#    y 0.000000 1.813470 0.000000 
#    z 0.062140 0.000000 1.844650 
# 
# From -- ./inp_files/59380.got.cif
#   From: 2010.05.17/outbox.cif.g08.bks.cpg/sg10_30_cif.got.tgz:59380.got - 2010.06.03 11:33:40.
