data_PCOD9149674
_publ_section_title
;
Structure prediction by ZEFSAII (Michael W. Deem and Ramdas Pophale) SiO2 
 PCOD9149674
Probable space group: P 2/M
;
_chemical_formula_sum "Si O2"
_cell_formula_units_Z 20
_cell_length_a 14.912738
_cell_length_b 7.307192
_cell_length_c 27.707336
_cell_angle_alpha 90.000000
_cell_angle_beta 22.771244
_cell_angle_gamma 90.000000
_cell_volume 1168.619063
_symmetry_space_group_name_H-M "P 2/M"
_symmetry_group_IT_number 10
_symmetry_cell_setting 'monoclinic'
loop_
_space_group_symop_operation_xyz
x,y,z
-x,y,-z
-x,-y,-z
x,-y,z
loop_
_atom_site_type_symbol
_atom_site_label
_atom_site_fract_x
_atom_site_fract_y
_atom_site_fract_z
Si Si1 0.648175 0.780090 0.271631
Si Si2 0.192511 0.221223 0.015427
Si Si3 0.469921 0.500000 0.433799
Si Si4 0.728542 0.778942 0.126956
Si Si5 0.885076 0.500000 0.305760
Si Si6 0.267119 0.780655 0.086423
O O1 0.495902 0.674397 0.385936
O O2 0.602327 0.721827 0.238740
O O3 0.626112 0.000000 0.286380
O O4 0.918937 0.732904 0.147759
O O5 0.320930 0.285294 0.902886
O O6 0.201645 0.000000 0.009661
O O7 0.286654 0.277440 0.020600
O O8 0.687097 0.500000 0.362944
O O9 0.243423 0.500000 0.579251
O O10 0.711956 0.000000 0.135128
O O11 0.000000 0.735343 0.000000
O O12 0.049726 0.674732 0.216437
O O13 0.230779 0.000000 0.105876
O O14 0.500000 0.738397 0.000000
#
# Coordination Sequence:
#
# PCOD9149674 Si02
#       6
#     4   4   2   4   2   4
#     4   9  16  29  46  67  98 130 157 191 235 286
#     4   8  13  25  45  70  98 122 151 196 241 285
#     4  11  22  32  48  70  97 136 169 188 233 290
#     4   7  11  21  41  66  94 125 149 184 241 287
#     4  11  23  36  47  69 101 130 164 205 235 275
#     4  10  20  35  55  74  94 126 164 201 244 285
#
# _framework density 17.114217
#
# number of rings (size 3 to 8) (size 9 to 14) (size 15 to 20)
#    0.000    3.000    2.000    2.700    0.000    0.800 
#    0.000    7.500    0.000    0.000    0.000    2.800 
#    0.000    8.000    0.000    0.000    0.000    0.000 
#
# Total GULP energy -111374.756198 kJ/mol
# GULP energy per Si atom -5568.737810 kJ/mol
# Density = 1.707526 g / cm^3
# Si number density = 17.114217 Si / 1000 Ang^3
#
#
#
# Elastic Constant Matrix: (Units=GPa)
#
#
# Indices 1 2 3 4 5 6 
#
# 1 151.3473 34.7486 76.0925 0.0000 40.2311 0.0000
# 2 34.7486 79.6890 32.6668 0.0000 13.5907 0.0000
# 3 76.0925 32.6668 83.8405 0.0000 33.4186 0.0000
# 4 0.0000 0.0000 0.0000 21.7479 0.0000 6.8287
# 5 40.2311 13.5907 33.4186 0.0000 36.5929 0.0000
# 6 0.0000 0.0000 0.0000 6.8287 0.0000 -111.7460
#
#
#
# Elastic Compliance Matrix: (Units=1/GPa)
#
#
# Indices 1 2 3 4 5 6 
#
# 1 0.012866 -0.000934 -0.009141 0.000000 -0.005451 0.000000
# 2 -0.000934 0.015005 -0.005011 0.000000 0.000030 0.000000
# 3 -0.009141 -0.005011 0.027404 0.000000 -0.013116 0.000000
# 4 0.000000 0.000000 0.000000 0.045116 0.000000 0.002757
# 5 -0.005451 0.000030 -0.013116 0.000000 0.045288 0.000000
# 6 0.000000 0.000000 0.000000 0.002757 0.000000 -0.008780
#
#
# Mechanical properties :
#
#
# Convention : Reuss Voigt Hill
#
# Bulk Modulus (GPa) = 39.83365 66.87698 53.35531
# Shear Modulus (GPa) = 28.50022 0.74355 14.62189
#
# Velocity S-wave (km/s) = 4.08523 0.65985 2.92613
# Velocity P-wave (km/s) = 6.75114 6.30414 6.53147
#
# Compressibility (1/GPa) = 0.02510440
#
# Stress axis : x y z
#
# Youngs Moduli (GPa) = 77.72210 66.64473 36.49115
#
# Poissons Ratio (x) = 0.06222 0.33356
# Poissons Ratio (y) = 0.07257 0.18285
# Poissons Ratio (z) = 0.71044 0.33395
#
# Static dielectric constant tensor:
#      x y z
#    x 1.617280 0.000000 0.038810 
#    y 0.000000 1.628030 0.000000 
#    z 0.038810 0.000000 1.532160 
# 
# From -- ./inp_files/34075.got.cif
#   From: 2010.05.17/outbox.cif.g08.bks.cpg/sg10_18_cif.got.tgz:34075.got - 2010.06.03 11:33:40.
