data_PCOD9149964
_publ_section_title
;
Structure prediction by ZEFSAII (Michael W. Deem and Ramdas Pophale) SiO2 
 PCOD9149964
Probable space group: P 2/M
;
_chemical_formula_sum "Si O2"
_cell_formula_units_Z 28
_cell_length_a 15.179734
_cell_length_b 7.606250
_cell_length_c 12.768793
_cell_angle_alpha 90.000000
_cell_angle_beta 120.550048
_cell_angle_gamma 90.000000
_cell_volume 1269.642087
_symmetry_space_group_name_H-M "P 2/M"
_symmetry_group_IT_number 10
_symmetry_cell_setting 'monoclinic'
loop_
_space_group_symop_operation_xyz
x,y,z
-x,y,-z
-x,-y,-z
x,-y,z
loop_
_atom_site_type_symbol
_atom_site_label
_atom_site_fract_x
_atom_site_fract_y
_atom_site_fract_z
Si Si1 0.016955 0.702891 0.685437
Si Si2 0.613730 0.295305 0.573799
Si Si3 0.773085 0.203224 0.289021
Si Si4 0.789369 0.702336 0.530825
Si Si5 0.309454 0.786949 0.151463
Si Si6 0.078157 0.212969 0.956492
Si Si7 0.608659 0.785275 0.019882
O O1 0.013186 0.500000 0.648189
O O2 0.109190 0.786336 0.675949
O O3 0.047252 0.713610 0.825432
O O4 0.903409 0.781994 0.605525
O O5 0.500000 0.216248 0.500000
O O6 0.603387 0.500000 0.534745
O O7 0.701444 0.217846 0.551155
O O8 0.651683 0.285284 0.715592
O O9 0.757608 0.294681 0.390619
O O10 0.701027 0.271484 0.151863
O O11 0.745794 0.000000 0.289042
O O12 0.802572 0.500000 0.574844
O O13 0.313515 0.000000 0.160531
O O14 0.192377 0.736779 0.058100
O O15 0.373414 0.729519 0.088557
O O16 0.075672 0.000000 0.945497
O O17 0.000000 0.265522 0.000000
O O18 0.610972 0.000000 0.019912
O O19 0.500000 0.729847 0.000000
#
# Coordination Sequence:
#
# PCOD9149964 Si02
#       7
#     4   4   4   4   4   4   4
#     4  11  22  37  58  84 118 157 193 234 288 351
#     4  10  23  42  61  83 117 156 194 241 289 338
#     4  11  22  38  62  89 117 151 194 241 291 344
#     4  10  23  41  58  82 119 157 194 237 288 344
#     4  10  20  37  60  86 116 147 188 239 287 341
#     4  10  20  35  57  85 118 151 188 240 289 334
#     4   9  19  36  58  85 117 149 183 235 295 342
#
# _framework density 22.053457999999999
#
# number of rings (size 3 to 8) (size 9 to 14) (size 15 to 20)
#    0.000    1.857    1.429    2.143    2.000    4.571 
#    0.000    0.000    0.000    2.143    0.000    0.000 
#    0.000    0.000    0.000    0.000    0.000    0.000 
#
# Total GULP energy -156517.725255 kJ/mol
# GULP energy per Si atom -5589.918759 kJ/mol
# Density = 2.200326 g / cm^3
# Si number density = 22.053458 Si / 1000 Ang^3
#
#
#
# Elastic Constant Matrix: (Units=GPa)
#
#
# Indices 1 2 3 4 5 6 
#
# 1 186.6733 2.8686 62.6512 0.0000 -16.1864 0.0000
# 2 2.8686 44.7802 -6.6320 0.0000 6.4467 0.0000
# 3 62.6512 -6.6320 107.2094 0.0000 -20.0249 0.0000
# 4 0.0000 0.0000 0.0000 22.5750 0.0000 -7.9118
# 5 -16.1864 6.4467 -20.0249 0.0000 30.4224 0.0000
# 6 0.0000 0.0000 0.0000 -7.9118 0.0000 6.5257
#
#
#
# Elastic Compliance Matrix: (Units=1/GPa)
#
#
# Indices 1 2 3 4 5 6 
#
# 1 0.006758 -0.001188 -0.003767 0.000000 0.001368 0.000000
# 2 -0.001188 0.023275 0.001248 0.000000 -0.004743 0.000000
# 3 -0.003767 0.001248 0.012750 0.000000 0.006124 0.000000
# 4 0.000000 0.000000 0.000000 0.077026 0.000000 0.093388
# 5 0.001368 -0.004743 0.006124 0.000000 0.038634 0.000000
# 6 0.000000 0.000000 0.000000 0.093388 0.000000 0.266466
#
#
# Mechanical properties :
#
#
# Convention : Reuss Voigt Hill
#
# Bulk Modulus (GPa) = 28.27326 50.71538 39.49432
# Shear Modulus (GPa) = 11.25838 30.55630 20.90734
#
# Velocity S-wave (km/s) = 2.26188 3.72634 3.08235
# Velocity P-wave (km/s) = 4.43505 6.44676 5.53310
#
# Compressibility (1/GPa) = 0.03536911
#
# Stress axis : x y z
#
# Youngs Moduli (GPa) = 147.96843 42.96461 78.43073
#
# Poissons Ratio (x) = 0.05103 0.29548
# Poissons Ratio (y) = 0.17575 -0.09789
# Poissons Ratio (z) = 0.55745 -0.05362
#
# Static dielectric constant tensor:
#      x y z
#    x 1.803710 0.000000 0.019360 
#    y 0.000000 1.889830 0.000000 
#    z 0.019360 0.000000 1.746980 
# 
# From -- ./inp_files/49352.got.cif
#   From: 2010.05.17/outbox.cif.g08.bks.cpg/sg10_25_cif.got.tgz:49352.got - 2010.06.03 11:33:40.
