data_PCOD9149802
_publ_section_title
;
Structure prediction by ZEFSAII (Michael W. Deem and Ramdas Pophale) SiO2 
 PCOD9149802
Probable space group: P 2/M
;
_chemical_formula_sum "Si O2"
_cell_formula_units_Z 28
_cell_length_a 29.862393
_cell_length_b 7.840215
_cell_length_c 10.225868
_cell_angle_alpha 90.000000
_cell_angle_beta 34.772727
_cell_angle_gamma 90.000000
_cell_volume 1365.442348
_symmetry_space_group_name_H-M "P 2/M"
_symmetry_group_IT_number 10
_symmetry_cell_setting 'monoclinic'
loop_
_space_group_symop_operation_xyz
x,y,z
-x,y,-z
-x,-y,-z
x,-y,z
loop_
_atom_site_type_symbol
_atom_site_label
_atom_site_fract_x
_atom_site_fract_y
_atom_site_fract_z
Si Si1 0.653955 0.706677 0.433200
Si Si2 0.484620 0.698582 0.879875
Si Si3 0.920610 0.302020 0.438519
Si Si4 0.147575 0.701029 0.662048
Si Si5 0.191042 0.202259 0.076354
Si Si6 0.086901 0.197455 0.085936
Si Si7 0.683476 0.290324 0.662604
O O1 0.651434 0.500000 0.439641
O O2 0.564654 0.770777 0.627057
O O3 0.680723 0.759078 0.515768
O O4 0.718833 0.764084 0.175026
O O5 0.480428 0.500000 0.849728
O O6 0.500000 0.700081 0.000000
O O7 0.397042 0.770513 0.076067
O O8 0.943218 0.500000 0.373090
O O9 0.902018 0.227770 0.339806
O O10 0.843023 0.285339 0.711830
O O11 0.994165 0.213217 0.331219
O O12 0.155515 0.500000 0.614269
O O13 0.235946 0.769565 0.466121
O O14 0.106005 0.719408 0.901016
O O15 0.138977 0.269322 0.078898
O O16 0.178224 0.000000 0.118625
O O17 0.108595 0.000000 0.020860
O O18 0.682507 0.500000 0.666005
#
# Coordination Sequence:
#
# PCOD9149802 Si02
#       7
#     4   4   4   4   4   4   4
#     4   9  15  27  51  78 103 133 169 208 254 301
#     4   7  11  20  41  76 106 128 160 203 251 299
#     4  11  24  38  54  77 103 134 175 216 257 306
#     4  10  20  35  56  81 106 134 170 212 256 305
#     4  11  23  37  53  75 105 138 174 213 256 307
#     4  11  23  38  56  77 102 134 173 214 259 310
#     4   8  13  25  48  77 107 132 160 206 257 298
#
# _framework density 20.506174999999999
#
# number of rings (size 3 to 8) (size 9 to 14) (size 15 to 20)
#    0.000    2.429    1.429    3.857    0.000    6.286 
#    0.000    0.000    0.000    5.571    0.000    6.000 
#    0.000    0.000    0.000    0.000    0.000    0.000 
#
# Total GULP energy -156188.948868 kJ/mol
# GULP energy per Si atom -5578.176745 kJ/mol
# Density = 2.045950 g / cm^3
# Si number density = 20.506175 Si / 1000 Ang^3
#
#
#
# Elastic Constant Matrix: (Units=GPa)
#
#
# Indices 1 2 3 4 5 6 
#
# 1 13.3292 7.3753 8.8941 0.0000 -0.2930 0.0000
# 2 7.3753 26.5420 -7.0383 0.0000 -0.2709 0.0000
# 3 8.8941 -7.0383 78.7244 0.0000 -18.0828 0.0000
# 4 0.0000 0.0000 0.0000 29.6272 0.0000 1.1537
# 5 -0.2930 -0.2709 -18.0828 0.0000 33.3083 0.0000
# 6 0.0000 0.0000 0.0000 1.1537 0.0000 5.0737
#
#
#
# Elastic Compliance Matrix: (Units=1/GPa)
#
#
# Indices 1 2 3 4 5 6 
#
# 1 0.104618 -0.033603 -0.016766 0.000000 -0.008455 0.000000
# 2 -0.033603 0.049567 0.009428 0.000000 0.005226 0.000000
# 3 -0.016766 0.009428 0.017621 0.000000 0.009495 0.000000
# 4 0.000000 0.000000 0.000000 0.034054 0.000000 -0.007744
# 5 -0.008455 0.005226 0.009495 0.000000 0.035146 0.000000
# 6 0.000000 0.000000 0.000000 -0.007744 0.000000 0.198854
#
#
# Mechanical properties :
#
#
# Convention : Reuss Voigt Hill
#
# Bulk Modulus (GPa) = 11.12038 15.22866 13.17452
# Shear Modulus (GPa) = 9.06265 20.89282 14.97773
#
# Velocity S-wave (km/s) = 2.10454 3.19541 2.70553
# Velocity P-wave (km/s) = 3.36751 4.58876 4.02473
#
# Compressibility (1/GPa) = 0.08992501
#
# Stress axis : x y z
#
# Youngs Moduli (GPa) = 9.55859 20.17481 56.75144
#
# Poissons Ratio (x) = 0.67793 0.95149
# Poissons Ratio (y) = 0.32119 -0.53507
# Poissons Ratio (z) = 0.16026 -0.19021
#
# Static dielectric constant tensor:
#      x y z
#    x 1.732690 0.000000 -0.027890 
#    y 0.000000 1.747440 0.000000 
#    z -0.027890 0.000000 1.742380 
# 
# From -- ./inp_files/36968.got.cif
#   From: 2010.05.17/outbox.cif.g08.bks.cpg/sg10_19_cif.got.tgz:36968.got - 2010.06.03 11:33:40.
