data_PCOD9149280
_publ_section_title
;
Structure prediction by ZEFSAII (Michael W. Deem and Ramdas Pophale) SiO2 
 PCOD9149280
Probable space group: P 2/M
;
_chemical_formula_sum "Si O2"
_cell_formula_units_Z 28
_cell_length_a 12.388311
_cell_length_b 14.007908
_cell_length_c 9.842061
_cell_angle_alpha 90.000000
_cell_angle_beta 125.624770
_cell_angle_gamma 90.000000
_cell_volume 1388.293597
_symmetry_space_group_name_H-M "P 2/M"
_symmetry_group_IT_number 10
_symmetry_cell_setting 'monoclinic'
loop_
_space_group_symop_operation_xyz
x,y,z
-x,y,-z
-x,-y,-z
x,-y,z
loop_
_atom_site_type_symbol
_atom_site_label
_atom_site_fract_x
_atom_site_fract_y
_atom_site_fract_z
Si Si1 0.917799 0.110329 0.078263
Si Si2 0.368071 0.807139 0.557693
Si Si3 0.873193 0.615087 0.322789
Si Si4 0.100096 0.113022 0.448144
Si Si5 0.279686 0.389315 0.525730
Si Si6 0.996462 0.614665 0.843933
Si Si7 0.649028 0.114796 0.759819
O O1 0.015558 0.153666 0.260364
O O2 0.896501 0.000000 0.108648
O O3 0.772931 0.150132 0.939573
O O4 0.000000 0.107472 0.000000
O O5 0.241199 0.834908 0.555986
O O6 0.379206 0.693200 0.555750
O O7 0.339079 0.848380 0.386075
O O8 0.505717 0.852393 0.706561
O O9 0.888241 0.500000 0.327692
O O10 0.752682 0.628527 0.338077
O O11 0.000000 0.652785 0.500000
O O12 0.890106 0.647717 0.179988
O O13 0.000000 0.120635 0.500000
O O14 0.129602 0.000000 0.448541
O O15 0.318374 0.500000 0.537237
O O16 0.145011 0.374325 0.337204
O O17 0.014347 0.500000 0.871070
O O18 0.000000 0.655393 0.000000
O O19 0.654940 0.000000 0.758721
#
# Coordination Sequence:
#
# PCOD9149280 Si02
#       7
#     4   4   4   4   4   4   4
#     4   9  16  32  58  85 113 147 182 220 274 336
#     4  11  20  33  55  83 112 149 194 231 282 333
#     4   7  11  22  41  62  90 133 176 218 267 321
#     4  10  20  34  54  87 125 150 177 226 283 335
#     4   9  18  31  46  69 105 145 189 232 274 333
#     4   8  13  24  43  68  99 137 181 231 284 326
#     4  10  20  36  60  86 112 144 187 233 279 343
#
# _framework density 20.168644
#
# number of rings (size 3 to 8) (size 9 to 14) (size 15 to 20)
#    0.000    2.857    1.429    3.429    0.000    1.714 
#    2.571    2.143    0.000    3.429    0.000    1.000 
#    0.000    1.143    0.000    1.143    0.000    0.000 
#
# Total GULP energy -156048.162658 kJ/mol
# GULP energy per Si atom -5573.148666 kJ/mol
# Density = 2.012274 g / cm^3
# Si number density = 20.168644 Si / 1000 Ang^3
#
#
#
# Elastic Constant Matrix: (Units=GPa)
#
#
# Indices 1 2 3 4 5 6 
#
# 1 75.5091 19.8613 34.4567 0.0000 5.2098 0.0000
# 2 19.8613 102.9453 5.4356 0.0000 3.4112 0.0000
# 3 34.4567 5.4356 69.0301 0.0000 -10.5822 0.0000
# 4 0.0000 0.0000 0.0000 6.6171 0.0000 5.9913
# 5 5.2098 3.4112 -10.5822 0.0000 36.2911 0.0000
# 6 0.0000 0.0000 0.0000 5.9913 0.0000 19.6001
#
#
#
# Elastic Compliance Matrix: (Units=1/GPa)
#
#
# Indices 1 2 3 4 5 6 
#
# 1 0.018987 -0.002953 -0.010070 0.000000 -0.005385 0.000000
# 2 -0.002953 0.010263 0.000610 0.000000 -0.000363 0.000000
# 3 -0.010070 0.000610 0.020599 0.000000 0.007395 0.000000
# 4 0.000000 0.000000 0.000000 0.208954 0.000000 -0.063872
# 5 -0.005385 -0.000363 0.007395 0.000000 0.030518 0.000000
# 6 0.000000 0.000000 0.000000 -0.063872 0.000000 0.070544
#
#
# Mechanical properties :
#
#
# Convention : Reuss Voigt Hill
#
# Bulk Modulus (GPa) = 39.96363 40.77684 40.37024
# Shear Modulus (GPa) = 12.72156 25.01707 18.86932
#
# Velocity S-wave (km/s) = 2.51422 3.52574 3.06204
# Velocity P-wave (km/s) = 5.31847 6.06929 5.70624
#
# Compressibility (1/GPa) = 0.02502275
#
# Stress axis : x y z
#
# Youngs Moduli (GPa) = 52.66741 97.43333 48.54688
#
# Poissons Ratio (x) = 0.28772 0.48889
# Poissons Ratio (y) = 0.15553 -0.02962
# Poissons Ratio (z) = 0.53038 -0.05946
#
# Static dielectric constant tensor:
#      x y z
#    x 1.694270 0.000000 -0.024640 
#    y 0.000000 1.782300 0.000000 
#    z -0.024640 0.000000 1.717960 
# 
# From -- ./inp_files/25429.got.cif
#   From: 2010.05.17/outbox.cif.g08.bks.cpg/sg10_13_cif.got.tgz:25429.got - 2010.06.03 11:33:40.
