data_PCOD9149990
_publ_section_title
;
Structure prediction by ZEFSAII (Michael W. Deem and Ramdas Pophale) SiO2 
 PCOD9149990
Probable space group: P 2/M
;
_chemical_formula_sum "Si O2"
_cell_formula_units_Z 18
_cell_length_a 11.568037
_cell_length_b 7.645567
_cell_length_c 18.092255
_cell_angle_alpha 90.000000
_cell_angle_beta 151.042370
_cell_angle_gamma 90.000000
_cell_volume 774.735408
_symmetry_space_group_name_H-M "P 2/M"
_symmetry_group_IT_number 10
_symmetry_cell_setting 'monoclinic'
loop_
_space_group_symop_operation_xyz
x,y,z
-x,y,-z
-x,-y,-z
x,-y,z
loop_
_atom_site_type_symbol
_atom_site_label
_atom_site_fract_x
_atom_site_fract_y
_atom_site_fract_z
Si Si1 0.000000 0.752224 0.000000
Si Si2 0.666329 0.209940 0.235245
Si Si3 0.086980 0.211486 0.363227
Si Si4 0.506193 0.698475 0.302827
Si Si5 0.878919 0.213060 0.091777
O O1 0.726791 0.818049 0.836283
O O2 0.038554 0.693204 0.936654
O O3 0.876517 0.274485 0.300228
O O4 0.666836 0.276472 0.319570
O O5 0.688059 0.000000 0.251497
O O6 0.403048 0.248403 0.055672
O O7 0.026829 0.265217 0.246406
O O8 0.336657 0.268380 0.537543
O O9 0.081805 0.000000 0.360880
O O10 0.413636 0.500000 0.250609
O O11 0.903713 0.000000 0.094585
#
# Coordination Sequence:
#
# PCOD9149990 Si02
#       5
#     2   4   4   4   4
#     4  10  22  40  56  74 105 148 191 228 271 320
#     4   9  18  35  59  85 113 144 177 217 270 328
#     4  10  20  35  57  87 116 140 174 223 276 325
#     4  11  23  38  56  78 109 148 187 227 270 320
#     4   9  18  34  59  86 111 142 180 223 268 322
#
# _framework density 23.233737999999999
#
# number of rings (size 3 to 8) (size 9 to 14) (size 15 to 20)
#    0.000    2.222    0.000    2.667    0.000    9.778 
#    0.000    8.889    0.000    6.667    0.000    0.000 
#    0.000    0.000    0.000    0.000    0.000    0.000 
#
# Total GULP energy -100354.374940 kJ/mol
# GULP energy per Si atom -5575.243052 kJ/mol
# Density = 2.318086 g / cm^3
# Si number density = 23.233738 Si / 1000 Ang^3
#
#
#
# Elastic Constant Matrix: (Units=GPa)
#
#
# Indices 1 2 3 4 5 6 
#
# 1 107.8395 24.1533 85.2734 0.0000 -1.1778 0.0000
# 2 24.1533 80.3633 27.0460 0.0000 -4.3074 0.0000
# 3 85.2734 27.0460 186.7198 0.0000 -45.7045 0.0000
# 4 0.0000 0.0000 0.0000 44.6602 0.0000 -73.1862
# 5 -1.1778 -4.3074 -45.7045 0.0000 36.1090 0.0000
# 6 0.0000 0.0000 0.0000 -73.1862 0.0000 113.2930
#
#
#
# Elastic Compliance Matrix: (Units=1/GPa)
#
#
# Indices 1 2 3 4 5 6 
#
# 1 0.019221 -0.002515 -0.012075 0.000000 -0.014957 0.000000
# 2 -0.002515 0.013447 -0.000618 0.000000 0.000740 0.000000
# 3 -0.012075 -0.000618 0.015714 0.000000 0.019422 0.000000
# 4 0.000000 0.000000 0.000000 -0.382075 0.000000 -0.246816
# 5 -0.014957 0.000740 0.019422 0.000000 0.051877 0.000000
# 6 0.000000 0.000000 0.000000 -0.246816 0.000000 -0.150614
#
#
# Mechanical properties :
#
#
# Convention : Reuss Voigt Hill
#
# Bulk Modulus (GPa) = 55.66121 71.98533 63.82327
# Shear Modulus (GPa) = -12.62544 54.70910 21.04183
#
# Velocity S-wave (km/s) = -2.33364 4.85782 3.01268
# Velocity P-wave (km/s) = 4.09242 7.90664 6.29535
#
# Compressibility (1/GPa) = 0.01796583
#
# Stress axis : x y z
#
# Youngs Moduli (GPa) = 52.02629 74.36578 63.63910
#
# Poissons Ratio (x) = 0.18702 0.76843
# Poissons Ratio (y) = 0.13084 0.03935
# Poissons Ratio (z) = 0.62821 0.04598
#
# Static dielectric constant tensor:
#      x y z
#    x 1.827980 0.000000 0.014180 
#    y 0.000000 2.047460 0.000000 
#    z 0.014180 0.000000 1.828750 
# 
# From -- ./inp_files/22469.got.cif
#   From: 2010.05.17/outbox.cif.g08.bks.cpg/sg10_12_cif.got.tgz:22469.got - 2010.06.03 11:33:40.
