data_PCOD9149628
_publ_section_title
;
Structure prediction by ZEFSAII (Michael W. Deem and Ramdas Pophale) SiO2 
 PCOD9149628
Probable space group: P 2/M
;
_chemical_formula_sum "Si O2"
_cell_formula_units_Z 28
_cell_length_a 21.144653
_cell_length_b 7.479269
_cell_length_c 15.925023
_cell_angle_alpha 90.000000
_cell_angle_beta 41.134478
_cell_angle_gamma 90.000000
_cell_volume 1656.733014
_symmetry_space_group_name_H-M "P 2/M"
_symmetry_group_IT_number 10
_symmetry_cell_setting 'monoclinic'
loop_
_space_group_symop_operation_xyz
x,y,z
-x,y,-z
-x,-y,-z
x,-y,z
loop_
_atom_site_type_symbol
_atom_site_label
_atom_site_fract_x
_atom_site_fract_y
_atom_site_fract_z
Si Si1 0.610065 0.710732 0.704892
Si Si2 0.261698 0.716563 0.578717
Si Si3 0.609252 0.787229 0.890671
Si Si4 0.608312 0.716059 0.391640
Si Si5 0.261663 0.716564 0.897986
Si Si6 0.113715 0.000000 0.987404
Si Si7 0.886274 0.000000 0.214855
Si Si8 0.610201 0.710788 0.074711
O O1 0.601074 0.500000 0.697761
O O2 0.683546 0.775254 0.560869
O O3 0.649370 0.733286 0.760196
O O4 0.499935 0.784829 0.810833
O O5 0.246765 0.500000 0.593039
O O6 0.333222 0.763413 0.583787
O O7 0.165614 0.826946 0.693324
O O8 0.605329 0.000000 0.894504
O O9 0.500000 0.713448 0.000000
O O10 0.649443 0.733587 0.940852
O O11 0.500000 0.785383 0.500000
O O12 0.602920 0.500000 0.397023
O O13 0.666724 0.763443 0.250160
O O14 0.246737 0.500000 0.913496
O O15 0.165597 0.826945 0.975458
O O16 0.316322 0.775210 0.928204
O O17 0.129318 0.000000 0.870678
O O18 0.999995 0.000000 0.115954
O O19 0.601263 0.500000 0.099637
#
# Coordination Sequence:
#
# PCOD9149628 Si02
#       8
#     4   4   4   4   4   2   2   4
#     4   9  17  30  49  73 105 143 176 207 246 297
#     4  10  20  35  54  77 103 136 173 210 257 307
#     4   9  17  27  41  69 107 144 177 208 240 284
#     4   9  16  29  49  74 107 139 166 198 240 296
#     4  10  20  35  54  77 103 136 173 210 257 307
#     4  11  24  40  56  75 100 131 173 224 269 311
#     4  11  24  40  56  75 100 131 173 224 269 311
#     4   9  17  30  49  73 105 143 176 207 246 297
#
# _framework density 16.900731
#
# number of rings (size 3 to 8) (size 9 to 14) (size 15 to 20)
#    0.000    2.429    1.429    1.286    2.000    5.714 
#    0.000    4.286    0.000    0.000    0.000    2.000 
#    0.000    4.571    0.000    0.000    0.000    0.000 
#
# Total GULP energy -156044.117896 kJ/mol
# GULP energy per Si atom -5573.004211 kJ/mol
# Density = 1.686226 g / cm^3
# Si number density = 16.900731 Si / 1000 Ang^3
#
#
#
# Elastic Constant Matrix: (Units=GPa)
#
#
# Indices 1 2 3 4 5 6 
#
# 1 122.4829 27.8761 92.1797 0.0000 16.7135 0.0000
# 2 27.8761 72.5989 32.1412 0.0000 -7.7239 0.0000
# 3 92.1797 32.1412 110.0225 0.0000 4.8920 0.0000
# 4 0.0000 0.0000 0.0000 -3.2683 0.0000 -31.0363
# 5 16.7135 -7.7239 4.8920 0.0000 31.4528 0.0000
# 6 0.0000 0.0000 0.0000 -31.0363 0.0000 -20.6084
#
#
#
# Elastic Compliance Matrix: (Units=1/GPa)
#
#
# Indices 1 2 3 4 5 6 
#
# 1 0.025125 -0.001928 -0.020011 0.000000 -0.010712 0.000000
# 2 -0.001928 0.016669 -0.003506 0.000000 0.005663 0.000000
# 3 -0.020011 -0.003506 0.026629 0.000000 0.005631 0.000000
# 4 0.000000 0.000000 0.000000 0.023003 0.000000 -0.034643
# 5 -0.010712 0.005663 0.005631 0.000000 0.038001 0.000000
# 6 0.000000 0.000000 0.000000 -0.034643 0.000000 0.003648
#
#
# Mechanical properties :
#
#
# Convention : Reuss Voigt Hill
#
# Bulk Modulus (GPa) = 57.03530 67.72202 62.37866
# Shear Modulus (GPa) = 26.34228 11.70904 19.02566
#
# Velocity S-wave (km/s) = 3.95225 2.63499 3.35883
# Velocity P-wave (km/s) = 7.39240 7.02958 7.21327
#
# Compressibility (1/GPa) = 0.01753300
#
# Stress axis : x y z
#
# Youngs Moduli (GPa) = 39.80127 59.99018 37.55361
#
# Poissons Ratio (x) = 0.11564 0.75148
# Poissons Ratio (y) = 0.07673 0.13168
# Poissons Ratio (z) = 0.79646 0.21035
#
# Static dielectric constant tensor:
#      x y z
#    x 1.574230 0.000000 0.026520 
#    y 0.000000 1.622300 0.000000 
#    z 0.026520 0.000000 1.559390 
# 
# From -- ./inp_files/28184.got.cif
#   From: 2010.05.17/outbox.cif.g08.bks.cpg/sg10_15_cif.got.tgz:28184.got - 2010.06.03 11:33:40.
