data_PCOD9149433
_publ_section_title
;
Structure prediction by ZEFSAII (Michael W. Deem and Ramdas Pophale) SiO2 
 PCOD9149433
Probable space group: P 2/M
;
_chemical_formula_sum "Si O2"
_cell_formula_units_Z 30
_cell_length_a 13.826047
_cell_length_b 12.944593
_cell_length_c 15.728258
_cell_angle_alpha 90.000000
_cell_angle_beta 33.130760
_cell_angle_gamma 90.000000
_cell_volume 1538.502625
_symmetry_space_group_name_H-M "P 2/M"
_symmetry_group_IT_number 10
_symmetry_cell_setting 'monoclinic'
loop_
_space_group_symop_operation_xyz
x,y,z
-x,y,-z
-x,-y,-z
x,-y,z
loop_
_atom_site_type_symbol
_atom_site_label
_atom_site_fract_x
_atom_site_fract_y
_atom_site_fract_z
Si Si1 0.107407 0.387299 0.182124
Si Si2 0.670955 0.381260 0.626184
Si Si3 0.000000 0.230222 0.000000
Si Si4 0.322353 0.328565 0.183053
Si Si5 0.139377 0.883999 0.320176
Si Si6 0.726125 0.383105 0.110739
Si Si7 0.117585 0.205915 0.625348
Si Si8 0.706067 0.121398 0.342537
O O1 0.027866 0.500000 0.228647
O O2 0.169508 0.372365 0.233280
O O3 0.983237 0.294117 0.247746
O O4 0.264878 0.380869 0.998810
O O5 0.726804 0.500000 0.564694
O O6 0.671870 0.375274 0.727839
O O7 0.480542 0.365938 0.721365
O O8 0.780316 0.281456 0.514973
O O9 0.863987 0.302984 0.047704
O O10 0.858546 0.168729 0.166226
O O11 0.282587 0.206435 0.220875
O O12 0.500000 0.347454 0.000000
O O13 0.000000 0.874311 0.500000
O O14 0.023788 0.862247 0.321239
O O15 0.212173 0.000000 0.267132
O O16 0.772942 0.500000 0.103315
O O17 0.227205 0.139309 0.610297
O O18 0.500000 0.161492 0.500000
O O19 0.696041 0.000000 0.328929
#
# Coordination Sequence:
#
# PCOD9149433 Si02
#       8
#     4   4   2   4   4   4   4   4
#     4  10  20  34  56  84 116 156 193 233 287 347
#     4  11  22  36  57  90 124 159 199 241 292 355
#     4  12  22  44  68  90 122 162 200 252 318 368
#     4  11  21  35  57  84 121 159 198 243 292 346
#     4  10  21  38  58  81 112 153 198 241 292 349
#     4  10  21  37  59  88 121 156 196 239 293 362
#     4  11  21  40  59  85 116 155 194 248 296 357
#     4  11  25  44  67  94 120 152 205 262 314 367
#
# _framework density 19.499479999999998
#
# number of rings (size 3 to 8) (size 9 to 14) (size 15 to 20)
#    0.000    1.333    4.000    2.400    0.000    0.800 
#    0.000    2.000    0.000    4.000    0.000    0.000 
#    0.000    0.000    0.000    0.000    0.000    0.000 
#
# Total GULP energy -167038.179610 kJ/mol
# GULP energy per Si atom -5567.939320 kJ/mol
# Density = 1.945510 g / cm^3
# Si number density = 19.499480 Si / 1000 Ang^3
#
#
#
# Elastic Constant Matrix: (Units=GPa)
#
#
# Indices 1 2 3 4 5 6 
#
# 1 66.6204 5.5472 6.6785 0.0000 0.0034 0.0000
# 2 5.5472 72.4446 10.3693 0.0000 2.2058 0.0000
# 3 6.6785 10.3693 68.8074 0.0000 5.5460 0.0000
# 4 0.0000 0.0000 0.0000 29.6729 0.0000 -6.7834
# 5 0.0034 2.2058 5.5460 0.0000 26.3569 0.0000
# 6 0.0000 0.0000 0.0000 -6.7834 0.0000 22.7271
#
#
#
# Elastic Compliance Matrix: (Units=1/GPa)
#
#
# Indices 1 2 3 4 5 6 
#
# 1 0.015229 -0.000983 -0.001360 0.000000 0.000366 0.000000
# 2 -0.000983 0.014186 -0.001980 0.000000 -0.000770 0.000000
# 3 -0.001360 -0.001980 0.015208 0.000000 -0.003034 0.000000
# 4 0.000000 0.000000 0.000000 0.036169 0.000000 0.010795
# 5 0.000366 -0.000770 -0.003034 0.000000 0.038644 0.000000
# 6 0.000000 0.000000 0.000000 0.010795 0.000000 0.047222
#
#
# Mechanical properties :
#
#
# Convention : Reuss Voigt Hill
#
# Bulk Modulus (GPa) = 27.79509 28.11805 27.95657
# Shear Modulus (GPa) = 26.69585 28.10318 27.39952
#
# Velocity S-wave (km/s) = 3.70409 3.80047 3.75259
# Velocity P-wave (km/s) = 5.70779 5.80597 5.75709
#
# Compressibility (1/GPa) = 0.03597758
#
# Stress axis : x y z
#
# Youngs Moduli (GPa) = 65.66633 70.49302 65.75361
#
# Poissons Ratio (x) = 0.06927 0.08940
# Poissons Ratio (y) = 0.06452 0.13021
# Poissons Ratio (z) = 0.08928 0.13960
#
# Static dielectric constant tensor:
#      x y z
#    x 1.662880 0.000000 0.009060 
#    y 0.000000 1.674690 0.000000 
#    z 0.009060 0.000000 1.753640 
# 
# From -- ./inp_files/78097.got.cif
#   From: 2010.05.17/outbox.cif.g08.bks.cpg/sg10_40_cif.got.tgz:78097.got - 2010.06.03 11:33:40.
