data_PCOD9149687
_publ_section_title
;
Structure prediction by ZEFSAII (Michael W. Deem and Ramdas Pophale) SiO2 
 PCOD9149687
Probable space group: P 2/M
;
_chemical_formula_sum "Si O2"
_cell_formula_units_Z 26
_cell_length_a 9.399789
_cell_length_b 15.242791
_cell_length_c 6.963423
_cell_angle_alpha 90.000000
_cell_angle_beta 104.622070
_cell_angle_gamma 90.000000
_cell_volume 965.398511
_symmetry_space_group_name_H-M "P 2/M"
_symmetry_group_IT_number 10
_symmetry_cell_setting 'monoclinic'
loop_
_space_group_symop_operation_xyz
x,y,z
-x,y,-z
-x,-y,-z
x,-y,z
loop_
_atom_site_type_symbol
_atom_site_label
_atom_site_fract_x
_atom_site_fract_y
_atom_site_fract_z
Si Si1 0.526992 0.847520 0.788245
Si Si2 0.000000 0.256758 0.500000
Si Si3 0.216043 0.601462 0.575409
Si Si4 0.473596 0.360213 0.211660
Si Si5 0.159263 0.395087 0.993532
Si Si6 0.219433 0.097815 0.595898
Si Si7 0.159111 0.100936 0.030962
O O1 0.504264 0.743772 0.772572
O O2 0.394256 0.890644 0.626979
O O3 0.500000 0.877137 0.000000
O O4 0.698744 0.863439 0.811469
O O5 0.895549 0.333489 0.565482
O O6 0.875517 0.180305 0.500531
O O7 0.171362 0.500000 0.538166
O O8 0.392528 0.603908 0.615873
O O9 0.196237 0.637564 0.790694
O O10 0.500000 0.392251 0.000000
O O11 0.300433 0.378250 0.176568
O O12 0.149068 0.500000 0.974090
O O13 0.000000 0.361502 0.000000
O O14 0.193681 0.102778 0.817464
O O15 0.173565 0.000000 0.517807
O O16 0.146201 0.000000 0.085824
O O17 0.000000 0.144922 0.000000
#
# Coordination Sequence:
#
# PCOD9149687 Si02
#       7
#     4   2   4   4   4   4   4
#     4   9  16  29  50  78 105 131 167 211 259 311
#     4  12  22  36  52  76 102 140 188 220 234 300
#     4  10  20  35  55  77 105 138 172 215 258 300
#     4   9  16  29  50  78 105 131 167 211 259 311
#     4   9  18  32  53  82 109 132 163 209 269 322
#     4  10  20  35  55  77 105 138 172 215 258 300
#     4   9  18  32  53  82 109 132 163 209 269 322
#
# _framework density 26.931882000000002
#
# number of rings (size 3 to 8) (size 9 to 14) (size 15 to 20)
#    0.000    2.462    1.538    1.385    2.154    4.308 
#    0.000    0.000    0.000    3.692    0.000    8.615 
#    0.000    0.000    0.000    0.000    0.000    0.000 
#
# Total GULP energy -145048.821718 kJ/mol
# GULP energy per Si atom -5578.800835 kJ/mol
# Density = 2.687058 g / cm^3
# Si number density = 26.931882 Si / 1000 Ang^3
#
#
#
# Elastic Constant Matrix: (Units=GPa)
#
#
# Indices 1 2 3 4 5 6 
#
# 1 226.4890 42.9145 61.0587 0.0000 50.9799 0.0000
# 2 42.9145 153.4225 15.6952 0.0000 31.5402 0.0000
# 3 61.0587 15.6952 117.7616 0.0000 24.8086 0.0000
# 4 0.0000 0.0000 0.0000 6.0773 0.0000 28.3793
# 5 50.9799 31.5402 24.8086 0.0000 53.6166 0.0000
# 6 0.0000 0.0000 0.0000 28.3793 0.0000 32.8966
#
#
#
# Elastic Compliance Matrix: (Units=1/GPa)
#
#
# Indices 1 2 3 4 5 6 
#
# 1 0.006111 -0.000568 -0.002149 0.000000 -0.004482 0.000000
# 2 -0.000568 0.007468 0.000123 0.000000 -0.003910 0.000000
# 3 -0.002149 0.000123 0.010165 0.000000 -0.002733 0.000000
# 4 0.000000 0.000000 0.000000 -0.054333 0.000000 0.046872
# 5 -0.004482 -0.003910 -0.002733 0.000000 0.026477 0.000000
# 6 0.000000 0.000000 0.000000 0.046872 0.000000 -0.010038
#
#
# Mechanical properties :
#
#
# Convention : Reuss Voigt Hill
#
# Bulk Modulus (GPa) = 53.88925 81.88998 67.88961
# Shear Modulus (GPa) = -1800.72421 43.71843 -878.50289
#
# Velocity S-wave (km/s) = -25.88577 4.03339 -18.08045
# Velocity P-wave (km/s) = 29.55297 7.22242 20.26345
#
# Compressibility (1/GPa) = 0.01855658
#
# Stress axis : x y z
#
# Youngs Moduli (GPa) = 163.64049 133.90369 98.37610
#
# Poissons Ratio (x) = 0.07607 0.21137
# Poissons Ratio (y) = 0.09297 -0.01209
# Poissons Ratio (z) = 0.35159 -0.01646
#
# Static dielectric constant tensor:
#      x y z
#    x 2.173660 0.000000 -0.109230 
#    y 0.000000 1.995480 0.000000 
#    z -0.109230 0.000000 2.046570 
# 
# From -- ./inp_files/36826.got.cif
#   From: 2010.05.17/outbox.cif.g08.bks.cpg/sg10_19_cif.got.tgz:36826.got - 2010.06.03 11:33:40.
