data_PCOD9149510
_publ_section_title
;
Structure prediction by ZEFSAII (Michael W. Deem and Ramdas Pophale) SiO2 
 PCOD9149510
Probable space group: P 2/M
;
_chemical_formula_sum "Si O2"
_cell_formula_units_Z 26
_cell_length_a 10.656042
_cell_length_b 9.364804
_cell_length_c 16.237186
_cell_angle_alpha 90.000000
_cell_angle_beta 54.863677
_cell_angle_gamma 90.000000
_cell_volume 1325.087433
_symmetry_space_group_name_H-M "P 2/M"
_symmetry_group_IT_number 10
_symmetry_cell_setting 'monoclinic'
loop_
_space_group_symop_operation_xyz
x,y,z
-x,y,-z
-x,-y,-z
x,-y,z
loop_
_atom_site_type_symbol
_atom_site_label
_atom_site_fract_x
_atom_site_fract_y
_atom_site_fract_z
Si Si1 0.412604 0.167815 0.708501
Si Si2 0.125451 0.330957 0.253877
Si Si3 0.323652 0.828707 0.043880
Si Si4 0.750229 0.828233 0.632428
Si Si5 0.500000 0.269389 0.500000
Si Si6 0.820660 0.342715 0.449658
Si Si7 0.174013 0.826627 0.925582
O O1 0.571843 0.216384 0.689404
O O2 0.429886 0.187156 0.604621
O O3 0.264462 0.228427 0.810951
O O4 0.408642 0.000000 0.725525
O O5 0.159742 0.500000 0.240227
O O6 0.206806 0.253473 0.147420
O O7 0.185184 0.254424 0.313979
O O8 0.941446 0.313964 0.331305
O O9 0.307222 0.000000 0.062187
O O10 0.500000 0.792414 0.000000
O O11 0.276470 0.796439 0.967656
O O12 0.828431 0.774842 0.518335
O O13 0.762003 0.000000 0.636326
O O14 0.647823 0.346616 0.481370
O O15 0.859154 0.500000 0.469669
O O16 0.162372 0.000000 0.924978
O O17 0.000000 0.772512 0.000000
#
# Coordination Sequence:
#
# PCOD9149510 Si02
#       7
#     4   4   4   4   2   4   4
#     4   9  18  33  53  82 118 146 184 240 295 346
#     4  11  23  37  57  84 117 152 190 241 295 350
#     4  10  21  38  60  86 114 151 198 248 298 349
#     4  10  20  36  58  85 114 150 192 240 292 346
#     4  10  20  34  58  82 109 156 197 236 287 350
#     4  10  22  38  55  80 117 155 194 238 291 353
#     4   9  18  32  53  81 113 151 190 236 293 348
#
# _framework density 19.621345999999999
#
# number of rings (size 3 to 8) (size 9 to 14) (size 15 to 20)
#    0.000    2.154    0.000    2.769    2.154    6.462 
#    0.000    0.000    0.000    2.308    0.000    0.000 
#    0.000    0.000    0.000    0.000    0.000    0.000 
#
# Total GULP energy -144944.683866 kJ/mol
# GULP energy per Si atom -5574.795533 kJ/mol
# Density = 1.957669 g / cm^3
# Si number density = 19.621346 Si / 1000 Ang^3
#
#
#
# Elastic Constant Matrix: (Units=GPa)
#
#
# Indices 1 2 3 4 5 6 
#
# 1 77.4096 12.5947 45.4127 0.0000 -8.1996 0.0000
# 2 12.5947 31.9902 26.4546 0.0000 -9.9161 0.0000
# 3 45.4127 26.4546 158.3701 0.0000 -23.1092 0.0000
# 4 0.0000 0.0000 0.0000 19.8581 0.0000 -5.9550
# 5 -8.1996 -9.9161 -23.1092 0.0000 25.5480 0.0000
# 6 0.0000 0.0000 0.0000 -5.9550 0.0000 7.3570
#
#
#
# Elastic Compliance Matrix: (Units=1/GPa)
#
#
# Indices 1 2 3 4 5 6 
#
# 1 0.015756 -0.002784 -0.004001 0.000000 0.000357 0.000000
# 2 -0.002784 0.039076 -0.004201 0.000000 0.010474 0.000000
# 3 -0.004001 -0.004201 0.008915 0.000000 0.005149 0.000000
# 4 0.000000 0.000000 0.000000 0.066499 0.000000 0.053827
# 5 0.000357 0.010474 0.005149 0.000000 0.047980 0.000000
# 6 0.000000 0.000000 0.000000 0.053827 0.000000 0.179495
#
#
# Mechanical properties :
#
#
# Convention : Reuss Voigt Hill
#
# Bulk Modulus (GPa) = 23.93735 48.52150 36.22942
# Shear Modulus (GPa) = 12.70273 22.77314 17.73793
#
# Velocity S-wave (km/s) = 2.54715 3.41050 3.00994
# Velocity P-wave (km/s) = 4.56911 6.34754 5.53028
#
# Compressibility (1/GPa) = 0.04177573
#
# Stress axis : x y z
#
# Youngs Moduli (GPa) = 63.46679 25.59112 112.17482
#
# Poissons Ratio (x) = 0.07124 0.44880
# Poissons Ratio (y) = 0.17669 0.47122
# Poissons Ratio (z) = 0.25393 0.10750
#
# Static dielectric constant tensor:
#      x y z
#    x 1.710490 0.000000 -0.024970 
#    y 0.000000 1.668650 0.000000 
#    z -0.024970 0.000000 1.718790 
# 
# From -- ./inp_files/60893.got.cif
#   From: 2010.05.17/outbox.cif.g08.bks.cpg/sg10_31_cif.got.tgz:60893.got - 2010.06.03 11:33:40.
