data_PCOD9149731
_publ_section_title
;
Structure prediction by ZEFSAII (Michael W. Deem and Ramdas Pophale) SiO2 
 PCOD9149731
Probable space group: P 2/M
;
_chemical_formula_sum "Si O2"
_cell_formula_units_Z 32
_cell_length_a 12.192784
_cell_length_b 7.742670
_cell_length_c 15.284852
_cell_angle_alpha 90.000000
_cell_angle_beta 92.385547
_cell_angle_gamma 90.000000
_cell_volume 1441.711386
_symmetry_space_group_name_H-M "P 2/M"
_symmetry_group_IT_number 10
_symmetry_cell_setting 'monoclinic'
loop_
_space_group_symop_operation_xyz
x,y,z
-x,y,-z
-x,-y,-z
x,-y,z
loop_
_atom_site_type_symbol
_atom_site_label
_atom_site_fract_x
_atom_site_fract_y
_atom_site_fract_z
Si Si1 0.948998 0.788601 0.590425
Si Si2 0.627134 0.288526 0.996095
Si Si3 0.433980 0.700353 0.327812
Si Si4 0.712234 0.796974 0.531836
Si Si5 0.259614 0.708961 0.181763
Si Si6 0.680831 0.709779 0.334104
Si Si7 0.010001 0.796224 0.216767
Si Si8 0.218309 0.295770 0.842062
O O1 0.822175 0.734387 0.583143
O O2 0.999740 0.726718 0.683455
O O3 0.000000 0.731598 0.500000
O O4 0.952614 0.000000 0.590543
O O5 0.625798 0.500000 0.996703
O O6 0.684368 0.236858 0.907300
O O7 0.500000 0.233692 0.000000
O O8 0.703651 0.227501 0.078691
O O9 0.444280 0.500000 0.303011
O O10 0.391553 0.711688 0.425539
O O11 0.339218 0.774229 0.262137
O O12 0.555261 0.773730 0.322207
O O13 0.724547 0.767186 0.429444
O O14 0.701180 0.000000 0.546397
O O15 0.257921 0.500000 0.184062
O O16 0.133725 0.763994 0.188906
O O17 0.681670 0.500000 0.335671
O O18 0.747189 0.772888 0.252183
O O19 0.912013 0.727374 0.153393
O O20 0.994032 0.000000 0.220687
O O21 0.239902 0.500000 0.840531
#
# Coordination Sequence:
#
# PCOD9149731 Si02
#       8
#     4   4   4   4   4   4   4   4
#     4   9  18  33  52  73 102 144 191 234 273 319
#     4   9  18  36  64  93 116 145 189 237 285 338
#     4  10  20  35  55  80 114 149 184 231 288 342
#     4  11  21  34  53  79 110 148 195 235 275 334
#     4  10  20  36  61  88 114 148 192 239 284 336
#     4  10  21  36  54  80 114 150 184 231 292 342
#     4  11  22  38  58  81 116 155 191 233 285 341
#     4  10  21  38  60  86 115 145 188 238 282 335
#
# _framework density 22.195844000000001
#
# number of rings (size 3 to 8) (size 9 to 14) (size 15 to 20)
#    0.000    2.000    1.250    2.625    0.000    7.000 
#    0.000    3.125    0.000    6.000    0.000    0.000 
#    0.000    0.000    0.000    0.000    0.000    0.000 
#
# Total GULP energy -178772.245175 kJ/mol
# GULP energy per Si atom -5586.632662 kJ/mol
# Density = 2.214532 g / cm^3
# Si number density = 22.195844 Si / 1000 Ang^3
#
#
#
# Elastic Constant Matrix: (Units=GPa)
#
#
# Indices 1 2 3 4 5 6 
#
# 1 87.0320 -4.6209 38.7703 0.0000 17.3601 0.0000
# 2 -4.6209 31.6863 -3.6796 0.0000 4.0548 0.0000
# 3 38.7703 -3.6796 117.1737 0.0000 12.9370 0.0000
# 4 0.0000 0.0000 0.0000 3.1796 0.0000 11.9344
# 5 17.3601 4.0548 12.9370 0.0000 40.6636 0.0000
# 6 0.0000 0.0000 0.0000 11.9344 0.0000 -113.2934
#
#
#
# Elastic Compliance Matrix: (Units=1/GPa)
#
#
# Indices 1 2 3 4 5 6 
#
# 1 0.014477 0.002279 -0.004157 0.000000 -0.005085 0.000000
# 2 0.002279 0.032551 0.000761 0.000000 -0.004461 0.000000
# 3 -0.004157 0.000761 0.010101 0.000000 -0.001515 0.000000
# 4 0.000000 0.000000 0.000000 0.225391 0.000000 0.023743
# 5 -0.005085 -0.004461 -0.001515 0.000000 0.027690 0.000000
# 6 0.000000 0.000000 0.000000 0.023743 0.000000 -0.006326
#
#
# Mechanical properties :
#
#
# Convention : Reuss Voigt Hill
#
# Bulk Modulus (GPa) = 18.21677 32.98128 25.59902
# Shear Modulus (GPa) = 15.41224 -0.19524 7.60850
#
# Velocity S-wave (km/s) = 2.63796 -0.29690 1.85347
# Velocity P-wave (km/s) = 4.18372 3.84369 4.01730
#
# Compressibility (1/GPa) = 0.05489449
#
# Stress axis : x y z
#
# Youngs Moduli (GPa) = 69.07356 30.72109 99.00028
#
# Poissons Ratio (x) = -0.07002 0.41156
# Poissons Ratio (y) = -0.15744 -0.07529
# Poissons Ratio (z) = 0.28715 -0.02336
#
# Static dielectric constant tensor:
#      x y z
#    x 1.809460 0.000000 0.011040 
#    y 0.000000 1.825500 0.000000 
#    z 0.011040 0.000000 1.811920 
# 
# From -- ./inp_files/63798.got.cif
#   From: 2010.05.17/outbox.cif.g08.bks.cpg/sg10_32_cif.got.tgz:63798.got - 2010.06.03 11:33:40.
