data_PCOD9149003
_publ_section_title
;
Structure prediction by ZEFSAII (Michael W. Deem and Ramdas Pophale) SiO2 
 PCOD9149003
Probable space group: P 2/M
;
_chemical_formula_sum "Si O2"
_cell_formula_units_Z 32
_cell_length_a 19.068095
_cell_length_b 14.434093
_cell_length_c 23.674803
_cell_angle_alpha 90.000000
_cell_angle_beta 18.045712
_cell_angle_gamma 90.000000
_cell_volume 2018.508063
_symmetry_space_group_name_H-M "P 2/M"
_symmetry_group_IT_number 10
_symmetry_cell_setting 'monoclinic'
loop_
_space_group_symop_operation_xyz
x,y,z
-x,y,-z
-x,-y,-z
x,-y,z
loop_
_atom_site_type_symbol
_atom_site_label
_atom_site_fract_x
_atom_site_fract_y
_atom_site_fract_z
Si Si1 0.197430 0.610740 0.493806
Si Si2 0.620110 0.105475 0.289671
Si Si3 0.802103 0.391480 0.197897
Si Si4 0.432495 0.389260 0.876270
Si Si5 0.019015 0.105475 0.890767
Si Si6 0.375760 0.293336 0.466544
Si Si7 0.677332 0.387519 0.911335
Si Si8 0.006547 0.293336 0.151149
O O1 0.208681 0.500000 0.496601
O O2 0.319741 0.626456 0.340132
O O3 0.339033 0.663544 0.433283
O O4 0.935140 0.639446 0.699286
O O5 0.439945 0.185160 0.417025
O O6 0.753249 0.121249 0.246751
O O7 0.533154 0.000000 0.356461
O O8 0.813213 0.111879 0.093394
O O9 0.760360 0.500000 0.239639
O O10 0.580415 0.343656 0.342402
O O11 0.889152 0.343658 0.188033
O O12 0.000000 0.381434 0.000000
O O13 0.387561 0.500000 0.907158
O O14 0.397452 0.360556 0.968125
O O15 0.249773 0.336455 0.977912
O O16 0.987937 0.185160 0.869034
O O17 0.025307 0.000000 0.864309
O O18 0.148633 0.308995 0.675684
O O19 0.673568 0.500000 0.913217
O O20 0.500000 0.354743 0.000000
#
# Coordination Sequence:
#
# PCOD9149003 Si02
#       8
#     4   4   4   4   4   4   4   4
#     4  10  20  34  52  74 103 138 171 207 251 297
#     4   9  18  33  51  68  90 125 169 214 257 300
#     4  11  23  35  46  63  90 131 179 215 246 293
#     4  10  20  34  52  74 103 138 171 207 251 297
#     4   9  18  33  51  68  90 125 169 214 257 300
#     4  12  22  32  48  71  99 132 170 212 254 296
#     4   9  18  34  54  77 104 131 164 205 248 303
#     4  12  22  32  48  71  99 132 170 212 254 296
#
# _framework density 15.853293000000001
#
# number of rings (size 3 to 8) (size 9 to 14) (size 15 to 20)
#    0.000    1.750    2.500    4.125    0.000    5.000 
#    0.000    3.750    0.000    0.000    0.000    0.000 
#    0.000    2.000    0.000    5.250    0.000    0.250 
#
# Total GULP energy -178615.270829 kJ/mol
# GULP energy per Si atom -5581.727213 kJ/mol
# Density = 1.581721 g / cm^3
# Si number density = 15.853293 Si / 1000 Ang^3
#
#
#
# Elastic Constant Matrix: (Units=GPa)
#
#
# Indices 1 2 3 4 5 6 
#
# 1 83.3334 24.2332 44.9406 0.0000 -6.1192 0.0000
# 2 24.2332 57.5533 30.1388 0.0000 2.3096 0.0000
# 3 44.9406 30.1388 84.5547 0.0000 6.6048 0.0000
# 4 0.0000 0.0000 0.0000 13.8555 0.0000 3.3006
# 5 -6.1192 2.3096 6.6048 0.0000 16.3373 0.0000
# 6 0.0000 0.0000 0.0000 3.3006 0.0000 5.4121
#
#
#
# Elastic Compliance Matrix: (Units=1/GPa)
#
#
# Indices 1 2 3 4 5 6 
#
# 1 0.019174 -0.003354 -0.009906 0.000000 0.011661 0.000000
# 2 -0.003354 0.021949 -0.005887 0.000000 -0.001979 0.000000
# 3 -0.009906 -0.005887 0.020048 0.000000 -0.010983 0.000000
# 4 0.000000 0.000000 0.000000 0.084441 0.000000 -0.051496
# 5 0.011661 -0.001979 -0.010983 0.000000 0.070297 0.000000
# 6 0.000000 0.000000 0.000000 -0.051496 0.000000 0.216174
#
#
# Mechanical properties :
#
#
# Convention : Reuss Voigt Hill
#
# Bulk Modulus (GPa) = 43.70995 47.11851 45.41423
# Shear Modulus (GPa) = 10.46019 15.52957 12.99488
#
# Velocity S-wave (km/s) = 2.57147 3.13322 2.86614
# Velocity P-wave (km/s) = 6.03722 6.54794 6.29776
#
# Compressibility (1/GPa) = 0.02287809
#
# Stress axis : x y z
#
# Youngs Moduli (GPa) = 52.15453 45.55955 49.88026
#
# Poissons Ratio (x) = 0.15279 0.49413
# Poissons Ratio (y) = 0.17490 0.29363
# Poissons Ratio (z) = 0.51666 0.26819
#
# Static dielectric constant tensor:
#      x y z
#    x 1.510600 0.000000 0.018410 
#    y 0.000000 1.520840 0.000000 
#    z 0.018410 0.000000 1.557700 
# 
# From -- ./inp_files/82808.got.cif
#   From: 2010.05.17/outbox.cif.g08.bks.cpg/sg10_42_cif.got.tgz:82808.got - 2010.06.03 11:33:40.
