data_PCOD9149634
_publ_section_title
;
Structure prediction by ZEFSAII (Michael W. Deem and Ramdas Pophale) SiO2 
 PCOD9149634
Probable space group: P 2/M
;
_chemical_formula_sum "Si O2"
_cell_formula_units_Z 32
_cell_length_a 16.476679
_cell_length_b 8.584687
_cell_length_c 26.617348
_cell_angle_alpha 90.000000
_cell_angle_beta 28.774379
_cell_angle_gamma 90.000000
_cell_volume 1812.301799
_symmetry_space_group_name_H-M "P 2/M"
_symmetry_group_IT_number 10
_symmetry_cell_setting 'monoclinic'
loop_
_space_group_symop_operation_xyz
x,y,z
-x,y,-z
-x,-y,-z
x,-y,z
loop_
_atom_site_type_symbol
_atom_site_label
_atom_site_fract_x
_atom_site_fract_y
_atom_site_fract_z
Si Si1 0.964382 0.811267 0.774916
Si Si2 0.850285 0.687836 0.044977
Si Si3 0.346871 0.810589 0.548866
Si Si4 0.091335 0.314731 0.303674
Si Si5 0.775943 0.187830 0.978133
Si Si6 0.467408 0.313366 0.274416
Si Si7 0.276778 0.813035 0.474610
Si Si8 0.392261 0.813337 0.207767
O O1 0.890190 0.743674 0.763679
O O2 0.866173 0.761057 0.878050
O O3 0.161814 0.765676 0.669260
O O4 0.957129 0.000000 0.775660
O O5 0.855156 0.500000 0.041018
O O6 0.664893 0.734181 0.165667
O O7 0.862742 0.748924 0.981427
O O8 0.000000 0.742800 0.000000
O O9 0.500000 0.753193 0.500000
O O10 0.355151 0.763863 0.485942
O O11 0.351594 0.000000 0.547044
O O12 0.077043 0.500000 0.312227
O O13 0.247029 0.260045 0.252870
O O14 0.917138 0.241497 0.418617
O O15 0.781970 0.000000 0.976501
O O16 0.579143 0.234242 0.087338
O O17 0.459461 0.500000 0.275419
O O18 0.376351 0.256806 0.373902
O O19 0.383046 0.241455 0.270458
O O20 0.280904 0.000000 0.469742
O O21 0.380486 0.000000 0.211795
#
# Coordination Sequence:
#
# PCOD9149634 Si02
#       8
#     4   4   4   4   4   4   4   4
#     4   9  18  34  53  75 105 138 172 212 259 305
#     4   9  19  35  53  75 108 146 177 210 257 309
#     4   8  15  29  50  75 102 132 167 207 250 298
#     4  11  22  36  54  77 104 135 172 211 256 311
#     4   9  19  34  54  78 103 135 176 221 261 303
#     4  10  20  35  54  77 106 138 175 216 256 304
#     4  10  20  35  55  78 105 137 172 213 262 309
#     4  10  20  36  55  76 103 134 172 216 263 309
#
# _framework density 17.657101999999998
#
# number of rings (size 3 to 8) (size 9 to 14) (size 15 to 20)
#    0.000    2.500    0.000    3.000    0.000    3.750 
#    0.000    6.250    0.000    9.375    0.000    0.000 
#    0.000    0.000    0.000    0.000    0.000    0.000 
#
# Total GULP energy -178540.486101 kJ/mol
# GULP energy per Si atom -5579.390191 kJ/mol
# Density = 1.761691 g / cm^3
# Si number density = 17.657102 Si / 1000 Ang^3
#
#
#
# Elastic Constant Matrix: (Units=GPa)
#
#
# Indices 1 2 3 4 5 6 
#
# 1 155.5662 13.4151 83.4371 0.0000 -6.0664 0.0000
# 2 13.4151 22.5262 10.0671 0.0000 1.9761 0.0000
# 3 83.4371 10.0671 100.9235 0.0000 28.2654 0.0000
# 4 0.0000 0.0000 0.0000 11.7309 0.0000 -7.4832
# 5 -6.0664 1.9761 28.2654 0.0000 31.1413 0.0000
# 6 0.0000 0.0000 0.0000 -7.4832 0.0000 10.5993
#
#
#
# Elastic Compliance Matrix: (Units=1/GPa)
#
#
# Indices 1 2 3 4 5 6 
#
# 1 0.020606 -0.003858 -0.023926 0.000000 0.025975 0.000000
# 2 -0.003858 0.047252 -0.000636 0.000000 -0.003173 0.000000
# 3 -0.023926 -0.000636 0.041628 0.000000 -0.042404 0.000000
# 4 0.000000 0.000000 0.000000 0.155094 0.000000 0.109498
# 5 0.025975 -0.003173 -0.042404 0.000000 0.075861 0.000000
# 6 0.000000 0.000000 0.000000 0.109498 0.000000 0.171652
#
#
# Mechanical properties :
#
#
# Convention : Reuss Voigt Hill
#
# Bulk Modulus (GPa) = 18.99376 54.76161 36.87768
# Shear Modulus (GPa) = 8.52540 22.16740 15.34640
#
# Velocity S-wave (km/s) = 2.19973 3.54706 2.95131
# Velocity P-wave (km/s) = 4.15115 6.91786 5.70477
#
# Compressibility (1/GPa) = 0.05264888
#
# Stress axis : x y z
#
# Youngs Moduli (GPa) = 48.52891 21.16295 24.02204
#
# Poissons Ratio (x) = 0.08164 0.57475
# Poissons Ratio (y) = 0.18721 0.01527
# Poissons Ratio (z) = 1.16110 0.01345
#
# Static dielectric constant tensor:
#      x y z
#    x 1.577940 0.000000 -0.006140 
#    y 0.000000 1.592300 0.000000 
#    z -0.006140 0.000000 1.588850 
# 
# From -- ./inp_files/66466.got.cif
#   From: 2010.05.17/outbox.cif.g08.bks.cpg/sg10_34_cif.got.tgz:66466.got - 2010.06.03 11:33:40.
