data_PCOD9149801
_publ_section_title
;
Structure prediction by ZEFSAII (Michael W. Deem and Ramdas Pophale) SiO2 
 PCOD9149801
Probable space group: P 2/M
;
_chemical_formula_sum "Si O2"
_cell_formula_units_Z 24
_cell_length_a 8.841965
_cell_length_b 20.417083
_cell_length_c 8.045855
_cell_angle_alpha 90.000000
_cell_angle_beta 124.747157
_cell_angle_gamma 90.000000
_cell_volume 1193.479262
_symmetry_space_group_name_H-M "P 2/M"
_symmetry_group_IT_number 10
_symmetry_cell_setting 'monoclinic'
loop_
_space_group_symop_operation_xyz
x,y,z
-x,y,-z
-x,-y,-z
x,-y,z
loop_
_atom_site_type_symbol
_atom_site_label
_atom_site_fract_x
_atom_site_fract_y
_atom_site_fract_z
Si Si1 0.964156 0.500000 0.676165
Si Si2 0.832536 0.000000 0.518183
Si Si3 0.806719 0.107223 0.786956
Si Si4 0.373222 0.500000 0.085121
Si Si5 0.553504 0.000000 0.731573
Si Si6 0.633714 0.355290 0.924646
Si Si7 0.205978 0.744211 0.214657
Si Si8 0.955809 0.640348 0.665604
O O1 0.870547 0.569122 0.654627
O O2 0.000000 0.500000 0.500000
O O3 0.159860 0.500000 0.893213
O O4 0.833264 0.936027 0.637540
O O5 0.000000 0.000000 0.500000
O O6 0.639573 0.000000 0.298940
O O7 0.671511 0.065309 0.820170
O O8 0.741661 0.181078 0.716611
O O9 0.000000 0.109637 0.000000
O O10 0.408715 0.427304 0.180495
O O11 0.500000 0.500000 0.000000
O O12 0.500000 0.000000 0.500000
O O13 0.844539 0.358622 0.122157
O O14 0.500000 0.345833 0.000000
O O15 0.647379 0.294455 0.807550
O O16 0.169953 0.698913 0.351295
O O17 0.000000 0.746013 0.000000
O O18 0.000000 0.644607 0.500000
#
# Coordination Sequence:
#
# PCOD9149801 Si02
#       8
#     2   2   4   2   2   4   4   4
#     4   8  14  25  43  63  88 122 162 205 247 287
#     4  10  20  35  56  81 102 123 158 204 240 282
#     4   9  17  34  54  72 100 137 162 190 240 296
#     4   8  14  25  45  65  88 122 162 209 253 285
#     4   8  16  33  54  73  96 125 155 188 230 284
#     4   9  17  31  47  68  95 127 167 209 249 292
#     4   9  18  31  49  72 100 131 163 199 244 291
#     4   9  17  30  46  67  94 127 165 206 248 292
#
# _framework density 20.109273999999999
#
# number of rings (size 3 to 8) (size 9 to 14) (size 15 to 20)
#    0.000    3.333    0.000    1.000    0.000    1.333 
#    0.000   15.833    0.000    0.000    0.000   11.667 
#    0.000    0.000    0.000    0.000    0.000    0.000 
#
# Total GULP energy -133636.653456 kJ/mol
# GULP energy per Si atom -5568.193894 kJ/mol
# Density = 2.006350 g / cm^3
# Si number density = 20.109274 Si / 1000 Ang^3
#
#
#
# Elastic Constant Matrix: (Units=GPa)
#
#
# Indices 1 2 3 4 5 6 
#
# 1 121.5468 83.8829 6.2825 0.0000 -5.7879 0.0000
# 2 83.8829 239.2216 22.2329 0.0000 -14.6537 0.0000
# 3 6.2825 22.2329 14.6377 0.0000 2.6562 0.0000
# 4 0.0000 0.0000 0.0000 10.8370 0.0000 -3.2407
# 5 -5.7879 -14.6537 2.6562 0.0000 21.4432 0.0000
# 6 0.0000 0.0000 0.0000 -3.2407 0.0000 5.7508
#
#
#
# Elastic Compliance Matrix: (Units=1/GPa)
#
#
# Indices 1 2 3 4 5 6 
#
# 1 0.010876 -0.003927 0.001279 0.000000 0.000094 0.000000
# 2 -0.003927 0.006715 -0.009364 0.000000 0.004689 0.000000
# 3 0.001279 -0.009364 0.085000 0.000000 -0.016583 0.000000
# 4 0.000000 0.000000 0.000000 0.110977 0.000000 0.062537
# 5 0.000094 0.004689 -0.016583 0.000000 0.051918 0.000000
# 6 0.000000 0.000000 0.000000 0.062537 0.000000 0.209129
#
#
# Mechanical properties :
#
#
# Convention : Reuss Voigt Hill
#
# Bulk Modulus (GPa) = 12.72797 66.68917 39.70857
# Shear Modulus (GPa) = 9.52696 25.14007 17.33352
#
# Velocity S-wave (km/s) = 2.17896 3.53961 2.93911
# Velocity P-wave (km/s) = 3.56001 7.06686 5.59527
#
# Compressibility (1/GPa) = 0.07856715
#
# Stress axis : x y z
#
# Youngs Moduli (GPa) = 91.94975 148.92915 11.76472
#
# Poissons Ratio (x) = 0.58479 -0.01505
# Poissons Ratio (y) = 0.36106 0.11017
# Poissons Ratio (z) = -0.11764 1.39460
#
# Static dielectric constant tensor:
#      x y z
#    x 1.717830 0.000000 0.022540 
#    y 0.000000 1.759840 0.000000 
#    z 0.022540 0.000000 1.750350 
# 
# From -- ./inp_files/19980.got.cif
#   From: 2010.05.17/outbox.cif.g08.bks.cpg/sg10_10_cif.got.tgz:19980.got - 2010.06.03 11:33:40.
