data_PCOD9149057
_publ_section_title
;
Structure prediction by ZEFSAII (Michael W. Deem and Ramdas Pophale) SiO2 
 PCOD9149057
Probable space group: P 2/M
;
_chemical_formula_sum "Si O2"
_cell_formula_units_Z 32
_cell_length_a 19.037651
_cell_length_b 8.609663
_cell_length_c 12.907799
_cell_angle_alpha 90.000000
_cell_angle_beta 61.902349
_cell_angle_gamma 90.000000
_cell_volume 1866.346443
_symmetry_space_group_name_H-M "P 2/M"
_symmetry_group_IT_number 10
_symmetry_cell_setting 'monoclinic'
loop_
_space_group_symop_operation_xyz
x,y,z
-x,y,-z
-x,-y,-z
x,-y,z
loop_
_atom_site_type_symbol
_atom_site_label
_atom_site_fract_x
_atom_site_fract_y
_atom_site_fract_z
Si Si1 0.680099 0.189562 0.486565
Si Si2 0.154967 0.316701 0.240096
Si Si3 0.494258 0.187828 0.321512
Si Si4 0.451135 0.313919 0.932417
Si Si5 0.330531 0.811200 0.733311
Si Si6 0.012145 0.177604 0.616049
Si Si7 0.281086 0.813804 0.993765
Si Si8 0.184510 0.811392 0.448969
O O1 0.589166 0.237213 0.571637
O O2 0.702585 0.240261 0.354608
O O3 0.740245 0.239454 0.535091
O O4 0.681464 0.000000 0.486539
O O5 0.163963 0.500000 0.238454
O O6 0.208289 0.250063 0.110666
O O7 0.182646 0.248085 0.332314
O O8 0.062220 0.272448 0.289813
O O9 0.503028 0.254131 0.200508
O O10 0.575948 0.232970 0.322814
O O11 0.494203 0.000000 0.317429
O O12 0.443929 0.500000 0.934381
O O13 0.500000 0.268804 0.000000
O O14 0.363457 0.240811 0.988939
O O15 0.328441 0.000000 0.735603
O O16 0.287369 0.760117 0.869097
O O17 0.102306 0.237131 0.563325
O O18 0.000000 0.173339 0.500000
O O19 0.007274 0.000000 0.657585
O O20 0.278482 0.000000 0.995890
O O21 0.182873 0.000000 0.445294
#
# Coordination Sequence:
#
# PCOD9149057 Si02
#       8
#     4   4   4   4   4   4   4   4
#     4   9  16  28  50  77 100 124 160 206 250 288
#     4  11  21  32  50  74 101 130 162 199 242 296
#     4   9  17  29  48  73  96 128 168 203 239 286
#     4  10  21  34  46  65  99 135 163 201 246 284
#     4   8  15  29  49  73  98 124 162 210 247 279
#     4   8  15  30  49  70  99 129 160 198 241 289
#     4  10  20  34  53  73  94 126 168 205 241 287
#     4   9  18  31  49  76 104 130 159 198 246 294
#
# _framework density 17.145797999999999
#
# number of rings (size 3 to 8) (size 9 to 14) (size 15 to 20)
#    0.000    2.750    0.000    3.750    1.750    4.750 
#    0.000    0.000    0.000   11.250    0.000    5.250 
#    0.000    0.000    0.000    0.000    0.000    0.000 
#
# Total GULP energy -178307.361689 kJ/mol
# GULP energy per Si atom -5572.105053 kJ/mol
# Density = 1.710677 g / cm^3
# Si number density = 17.145798 Si / 1000 Ang^3
#
#
#
# Elastic Constant Matrix: (Units=GPa)
#
#
# Indices 1 2 3 4 5 6 
#
# 1 59.1598 14.5362 56.4835 0.0000 -6.2552 0.0000
# 2 14.5362 22.2565 20.1173 0.0000 -7.2404 0.0000
# 3 56.4835 20.1173 99.2036 0.0000 -22.6487 0.0000
# 4 0.0000 0.0000 0.0000 -11.1690 0.0000 -2.6524
# 5 -6.2552 -7.2404 -22.6487 0.0000 22.3158 0.0000
# 6 0.0000 0.0000 0.0000 -2.6524 0.0000 7.2054
#
#
#
# Elastic Compliance Matrix: (Units=1/GPa)
#
#
# Indices 1 2 3 4 5 6 
#
# 1 0.042592 -0.009846 -0.026367 0.000000 -0.018016 0.000000
# 2 -0.009846 0.058557 -0.003334 0.000000 0.012856 0.000000
# 3 -0.026367 -0.003334 0.031023 0.000000 0.023013 0.000000
# 4 0.000000 0.000000 0.000000 -0.082336 0.000000 -0.030309
# 5 -0.018016 0.012856 0.023013 0.000000 0.067289 0.000000
# 6 0.000000 0.000000 0.000000 -0.030309 0.000000 0.127628
#
#
# Mechanical properties :
#
#
# Convention : Reuss Voigt Hill
#
# Bulk Modulus (GPa) = 18.84004 40.32153 29.58079
# Shear Modulus (GPa) = 14.63962 9.63597 12.13779
#
# Velocity S-wave (km/s) = 2.92521 2.37323 2.66356
# Velocity P-wave (km/s) = 4.73510 5.57472 5.17198
#
# Compressibility (1/GPa) = 0.05307845
#
# Stress axis : x y z
#
# Youngs Moduli (GPa) = 23.47864 17.07745 32.23416
#
# Poissons Ratio (x) = 0.16814 0.84992
# Poissons Ratio (y) = 0.23117 0.10746
# Poissons Ratio (z) = 0.61906 0.05693
#
# Static dielectric constant tensor:
#      x y z
#    x 1.587730 0.000000 -0.006050 
#    y 0.000000 1.576000 0.000000 
#    z -0.006050 0.000000 1.577890 
# 
# From -- ./inp_files/54765.got.cif
#   From: 2010.05.17/outbox.cif.g08.bks.cpg/sg10_28_cif.got.tgz:54765.got - 2010.06.03 11:33:40.
