data_PCOD9149450
_publ_section_title
;
Structure prediction by ZEFSAII (Michael W. Deem and Ramdas Pophale) SiO2 
 PCOD9149450
Probable space group: P 2/M
;
_chemical_formula_sum "Si O2"
_cell_formula_units_Z 28
_cell_length_a 15.497848
_cell_length_b 12.346130
_cell_length_c 8.639610
_cell_angle_alpha 90.000000
_cell_angle_beta 63.747550
_cell_angle_gamma 90.000000
_cell_volume 1482.579694
_symmetry_space_group_name_H-M "P 2/M"
_symmetry_group_IT_number 10
_symmetry_cell_setting 'monoclinic'
loop_
_space_group_symop_operation_xyz
x,y,z
-x,y,-z
-x,-y,-z
x,-y,z
loop_
_atom_site_type_symbol
_atom_site_label
_atom_site_fract_x
_atom_site_fract_y
_atom_site_fract_z
Si Si1 0.232448 0.625547 0.969343
Si Si2 0.914073 0.735974 0.676849
Si Si3 0.439193 0.877656 0.690048
Si Si4 0.735701 0.865633 0.665058
Si Si5 0.593833 0.266330 0.000415
Si Si6 0.959572 0.116727 0.203864
Si Si7 0.253195 0.803180 0.686252
O O1 0.222238 0.500000 0.939601
O O2 0.331623 0.651449 0.980437
O O3 0.236087 0.696914 0.807605
O O4 0.150325 0.660458 0.159300
O O5 0.838327 0.812788 0.641459
O O6 0.000000 0.687084 0.500000
O O7 0.976156 0.806026 0.746097
O O8 0.500000 0.831463 0.500000
O O9 0.450562 0.807657 0.830790
O O10 0.327614 0.872737 0.728335
O O11 0.471282 0.000000 0.690888
O O12 0.708784 0.810400 0.520844
O O13 0.737144 0.000000 0.658478
O O14 0.657041 0.816580 0.845879
O O15 0.500000 0.319527 0.000000
O O16 0.850413 0.147597 0.262570
O O17 0.963597 0.000000 0.277721
O O18 0.000000 0.112492 0.000000
#
# Coordination Sequence:
#
# PCOD9149450 Si02
#       7
#     4   4   4   4   4   4   4
#     4  10  24  45  63  82 111 152 205 258 301 342
#     4  11  22  38  59  88 124 154 200 242 293 350
#     4  10  20  34  56  86 123 162 194 228 284 358
#     4  11  22  35  59  92 130 162 188 232 291 359
#     4  10  22  39  61  89 120 151 193 246 299 356
#     4  11  21  34  57  86 123 162 194 231 282 351
#     4  11  21  37  57  83 116 156 202 241 285 344
#
# _framework density 18.885999999999999
#
# number of rings (size 3 to 8) (size 9 to 14) (size 15 to 20)
#    0.000    1.429    2.857    3.000    0.000    3.429 
#    0.000    4.286    0.000   14.571    0.000    0.000 
#    0.000    0.000    0.000    0.000    0.000    0.000 
#
# Total GULP energy -155923.417161 kJ/mol
# GULP energy per Si atom -5568.693470 kJ/mol
# Density = 1.884301 g / cm^3
# Si number density = 18.886000 Si / 1000 Ang^3
#
#
#
# Elastic Constant Matrix: (Units=GPa)
#
#
# Indices 1 2 3 4 5 6 
#
# 1 -173.4068 -226.4178 8.3094 0.0000 -56.2641 0.0000
# 2 -226.4178 -122.6929 48.5588 0.0000 -44.8009 0.0000
# 3 8.3094 48.5588 103.2454 0.0000 -1.9409 0.0000
# 4 0.0000 0.0000 0.0000 -10.9681 0.0000 5.0729
# 5 -56.2641 -44.8009 -1.9409 0.0000 21.0716 0.0000
# 6 0.0000 0.0000 0.0000 5.0729 0.0000 -4.7362
#
#
#
# Elastic Compliance Matrix: (Units=1/GPa)
#
#
# Indices 1 2 3 4 5 6 
#
# 1 0.005398 -0.007909 0.003246 0.000000 -0.002103 0.000000
# 2 -0.007909 0.007371 -0.002938 0.000000 -0.005718 0.000000
# 3 0.003246 -0.002938 0.010870 0.000000 0.003423 0.000000
# 4 0.000000 0.000000 0.000000 -0.180687 0.000000 -0.193535
# 5 -0.002103 -0.005718 0.003423 0.000000 0.029999 0.000000
# 6 0.000000 0.000000 0.000000 -0.193535 0.000000 -0.418439
#
#
# Mechanical properties :
#
#
# Convention : Reuss Voigt Hill
#
# Bulk Modulus (GPa) = 118.51869 -59.10593 29.70638
# Shear Modulus (GPa) = -9.47915 -0.48017 -4.97966
#
# Velocity S-wave (km/s) = -2.24277 -0.50478 -1.62555
# Velocity P-wave (km/s) = 7.49562 5.63062 3.49860
#
# Compressibility (1/GPa) = 0.00843749
#
# Stress axis : x y z
#
# Youngs Moduli (GPa) = 185.24920 135.67479 91.99335
#
# Poissons Ratio (x) = 1.07307 -0.29860
# Poissons Ratio (y) = 1.46516 0.27023
# Poissons Ratio (z) = -0.60130 0.39855
#
# Static dielectric constant tensor:
#      x y z
#    x 1.682260 0.000000 -0.089770 
#    y 0.000000 1.617140 0.000000 
#    z -0.089770 0.000000 1.945000 
# 
# From -- ./inp_files/28468.got.cif
#   From: 2010.05.17/outbox.cif.g08.bks.cpg/sg10_15_cif.got.tgz:28468.got - 2010.06.03 11:33:40.
