data_PCOD9149186
_publ_section_title
;
Structure prediction by ZEFSAII (Michael W. Deem and Ramdas Pophale) SiO2 
 PCOD9149186
Probable space group: P 2/M
;
_chemical_formula_sum "Si O2"
_cell_formula_units_Z 30
_cell_length_a 11.473090
_cell_length_b 7.997326
_cell_length_c 18.955395
_cell_angle_alpha 90.000000
_cell_angle_beta 116.402836
_cell_angle_gamma 90.000000
_cell_volume 1557.814148
_symmetry_space_group_name_H-M "P 2/M"
_symmetry_group_IT_number 10
_symmetry_cell_setting 'monoclinic'
loop_
_space_group_symop_operation_xyz
x,y,z
-x,y,-z
-x,-y,-z
x,-y,z
loop_
_atom_site_type_symbol
_atom_site_label
_atom_site_fract_x
_atom_site_fract_y
_atom_site_fract_z
Si Si1 0.022923 0.300609 0.160762
Si Si2 0.274797 0.803766 0.043970
Si Si3 0.743856 0.800946 0.122703
Si Si4 0.733182 0.699487 0.680991
Si Si5 0.538267 0.698716 0.184817
Si Si6 0.551310 0.298480 0.346083
Si Si7 0.000000 0.251771 0.000000
Si Si8 0.641900 0.198604 0.513787
O O1 0.035836 0.500000 0.145743
O O2 0.887236 0.277820 0.164838
O O3 0.144861 0.243697 0.240006
O O4 0.011872 0.196205 0.085239
O O5 0.401190 0.776874 0.124814
O O6 0.233551 0.000000 0.038311
O O7 0.306348 0.767273 0.970602
O O8 0.151498 0.691681 0.033314
O O9 0.645605 0.737380 0.155069
O O10 0.755298 0.000000 0.132759
O O11 0.730153 0.500000 0.687811
O O12 0.594031 0.764624 0.672076
O O13 0.740593 0.738524 0.599786
O O14 0.518053 0.500000 0.182473
O O15 0.579340 0.756561 0.274026
O O16 0.548306 0.500000 0.346538
O O17 0.650301 0.244764 0.434125
O O18 0.500000 0.267962 0.500000
O O19 0.639008 0.000000 0.518475
#
# Coordination Sequence:
#
# PCOD9149186 Si02
#       8
#     4   4   4   4   4   4   2   4
#     4  10  20  34  54  78 104 136 174 215 257 301
#     4  10  21  36  53  74 104 141 176 210 254 307
#     4  10  22  38  53  71 100 139 178 215 258 305
#     4   9  17  31  51  75 104 136 166 200 251 309
#     4  11  22  35  54  78 102 132 175 220 258 300
#     4   9  18  32  50  75 105 134 163 202 255 308
#     4  10  20  34  54  80 110 138 172 212 254 300
#     4   9  17  29  47  74 104 133 166 203 245 298
#
# _framework density 19.257753999999998
#
# number of rings (size 3 to 8) (size 9 to 14) (size 15 to 20)
#    0.000    2.267    0.000    2.800    0.000    9.600 
#    0.000    2.667    0.000    0.800    0.000    5.600 
#    0.000    0.000    0.000    0.000    0.000    0.000 
#
# Total GULP energy -167071.247395 kJ/mol
# GULP energy per Si atom -5569.041580 kJ/mol
# Density = 1.921392 g / cm^3
# Si number density = 19.257754 Si / 1000 Ang^3
#
#
#
# Elastic Constant Matrix: (Units=GPa)
#
#
# Indices 1 2 3 4 5 6 
#
# 1 77.6148 5.3894 55.6060 0.0000 -10.4745 0.0000
# 2 5.3894 42.4845 15.5237 0.0000 0.5475 0.0000
# 3 55.6060 15.5237 135.8821 0.0000 1.0241 0.0000
# 4 0.0000 0.0000 0.0000 18.7153 0.0000 2.6742
# 5 -10.4745 0.5475 1.0241 0.0000 25.3712 0.0000
# 6 0.0000 0.0000 0.0000 2.6742 0.0000 4.8549
#
#
#
# Elastic Compliance Matrix: (Units=1/GPa)
#
#
# Indices 1 2 3 4 5 6 
#
# 1 0.019934 0.000381 -0.008265 0.000000 0.008555 0.000000
# 2 0.000381 0.024575 -0.002962 0.000000 -0.000253 0.000000
# 3 -0.008265 -0.002962 0.011109 0.000000 -0.003797 0.000000
# 4 0.000000 0.000000 0.000000 0.057997 0.000000 -0.031945
# 5 0.008555 -0.000253 -0.003797 0.000000 0.043105 0.000000
# 6 0.000000 0.000000 0.000000 -0.031945 0.000000 0.223572
#
#
# Mechanical properties :
#
#
# Convention : Reuss Voigt Hill
#
# Bulk Modulus (GPa) = 29.47600 45.44661 37.46131
# Shear Modulus (GPa) = 12.09798 21.75245 16.92522
#
# Velocity S-wave (km/s) = 2.50914 3.36451 2.96780
# Velocity P-wave (km/s) = 4.87172 6.22444 5.58915
#
# Compressibility (1/GPa) = 0.03392591
#
# Stress axis : x y z
#
# Youngs Moduli (GPa) = 50.16591 40.69165 90.01972
#
# Poissons Ratio (x) = -0.01551 0.74405
# Poissons Ratio (y) = -0.01912 0.26661
# Poissons Ratio (z) = 0.41464 0.12051
#
# Static dielectric constant tensor:
#      x y z
#    x 1.650540 0.000000 -0.012770 
#    y 0.000000 1.747880 0.000000 
#    z -0.012770 0.000000 1.687280 
# 
# From -- ./inp_files/76250.got.cif
#   From: 2010.05.17/outbox.cif.g08.bks.cpg/sg10_39_cif.got.tgz:76250.got - 2010.06.03 11:33:40.
