data_PCOD9149855
_publ_section_title
;
Structure prediction by ZEFSAII (Michael W. Deem and Ramdas Pophale) SiO2 
 PCOD9149855
Probable space group: P 2/M
;
_chemical_formula_sum "Si O2"
_cell_formula_units_Z 22
_cell_length_a 20.379110
_cell_length_b 11.847750
_cell_length_c 20.056795
_cell_angle_alpha 90.000000
_cell_angle_beta 14.586235
_cell_angle_gamma 90.000000
_cell_volume 1219.556523
_symmetry_space_group_name_H-M "P 2/M"
_symmetry_group_IT_number 10
_symmetry_cell_setting 'monoclinic'
loop_
_space_group_symop_operation_xyz
x,y,z
-x,y,-z
-x,-y,-z
x,-y,z
loop_
_atom_site_type_symbol
_atom_site_label
_atom_site_fract_x
_atom_site_fract_y
_atom_site_fract_z
Si Si1 0.335104 0.500000 0.234856
Si Si2 0.816395 0.754137 0.826201
Si Si3 0.544174 0.137076 0.303343
Si Si4 0.000000 0.691101 0.500000
Si Si5 0.337657 0.135169 0.361035
Si Si6 0.860876 0.500000 0.790719
Si Si7 0.936084 0.862402 0.137895
O O1 0.229040 0.610391 0.302417
O O2 0.161983 0.500000 0.472245
O O3 0.638380 0.500000 0.951609
O O4 0.817892 0.627970 0.857467
O O5 0.891875 0.750301 0.673172
O O6 0.043765 0.825124 0.637931
O O7 0.535178 0.808418 0.114408
O O8 0.442006 0.170716 0.331354
O O9 0.340288 0.173221 0.560692
O O10 0.545935 0.000000 0.301504
O O11 0.833182 0.173139 0.039240
O O12 0.351131 0.000000 0.343091
O O13 0.933525 0.000000 0.139112
O O14 0.000000 0.825610 0.000000
#
# Coordination Sequence:
#
# PCOD9149855 Si02
#       7
#     2   4   4   2   4   2   4
#     4   9  18  32  54  78 104 120 148 201 272 355
#     4  11  22  36  56  76 100 128 169 222 263 313
#     4   9  17  29  44  62  92 132 170 197 227 287
#     4   9  20  34  53  78 100 126 163 217 276 308
#     4  11  23  38  52  70 101 148 185 200 232 301
#     4  10  20  35  56  84 100 120 155 211 284 317
#     4   9  15  24  42  68  93 120 158 205 248 279
#
# _framework density 18.039345000000001
#
# number of rings (size 3 to 8) (size 9 to 14) (size 15 to 20)
#    0.000    2.182    0.000    4.909    0.000   14.545 
#    0.000    2.727    0.000    0.000    0.000    0.000 
#    0.000    0.000    0.000   57.273    0.000   25.455 
#
# Total GULP energy -122577.728523 kJ/mol
# GULP energy per Si atom -5571.714933 kJ/mol
# Density = 1.799829 g / cm^3
# Si number density = 18.039345 Si / 1000 Ang^3
#
#
#
# Elastic Constant Matrix: (Units=GPa)
#
#
# Indices 1 2 3 4 5 6 
#
# 1 39.6764 -0.1769 -18.2666 0.0000 4.1151 0.0000
# 2 -0.1769 55.4312 3.3987 0.0000 3.7934 0.0000
# 3 -18.2666 3.3987 52.2399 0.0000 0.4951 0.0000
# 4 0.0000 0.0000 0.0000 13.0344 0.0000 -6.1406
# 5 4.1151 3.7934 0.4951 0.0000 24.1462 0.0000
# 6 0.0000 0.0000 0.0000 -6.1406 0.0000 -3.9995
#
#
#
# Elastic Compliance Matrix: (Units=1/GPa)
#
#
# Indices 1 2 3 4 5 6 
#
# 1 0.030745 -0.000193 0.010815 0.000000 -0.005431 0.000000
# 2 -0.000193 0.018308 -0.001232 0.000000 -0.002818 0.000000
# 3 0.010815 -0.001232 0.023024 0.000000 -0.002122 0.000000
# 4 0.000000 0.000000 0.000000 0.044519 0.000000 -0.068352
# 5 -0.005431 -0.002818 -0.002122 0.000000 0.042826 0.000000
# 6 0.000000 0.000000 0.000000 -0.068352 0.000000 -0.145087
#
#
# Mechanical properties :
#
#
# Convention : Reuss Voigt Hill
#
# Bulk Modulus (GPa) = 11.00640 13.02869 12.01754
# Shear Modulus (GPa) = 193.47723 17.46237 105.46980
#
# Velocity S-wave (km/s) = 10.36753 3.11467 7.65464
# Velocity P-wave (km/s) = 12.22411 4.49143 9.20874
#
# Compressibility (1/GPa) = 0.09085623
#
# Stress axis : x y z
#
# Youngs Moduli (GPa) = 32.52535 54.62046 43.43251
#
# Poissons Ratio (x) = 0.01056 -0.46971
# Poissons Ratio (y) = 0.00629 0.05351
# Poissons Ratio (z) = -0.35175 0.06729
#
# Static dielectric constant tensor:
#      x y z
#    x 1.641000 0.000000 0.022540 
#    y 0.000000 1.622550 0.000000 
#    z 0.022540 0.000000 1.632770 
# 
# From -- ./inp_files/78912.got.cif
#   From: 2010.05.17/outbox.cif.g08.bks.cpg/sg10_40_cif.got.tgz:78912.got - 2010.06.03 11:33:40.
