data_PCOD9149857
_publ_section_title
;
Structure prediction by ZEFSAII (Michael W. Deem and Ramdas Pophale) SiO2 
 PCOD9149857
Probable space group: P 2/M
;
_chemical_formula_sum "Si O2"
_cell_formula_units_Z 32
_cell_length_a 27.753052
_cell_length_b 7.498191
_cell_length_c 21.401592
_cell_angle_alpha 90.000000
_cell_angle_beta 18.617307
_cell_angle_gamma 90.000000
_cell_volume 1421.799064
_symmetry_space_group_name_H-M "P 2/M"
_symmetry_group_IT_number 10
_symmetry_cell_setting 'monoclinic'
loop_
_space_group_symop_operation_xyz
x,y,z
-x,y,-z
-x,-y,-z
x,-y,z
loop_
_atom_site_type_symbol
_atom_site_label
_atom_site_fract_x
_atom_site_fract_y
_atom_site_fract_z
Si Si1 0.965921 0.793104 0.861945
Si Si2 0.133049 0.781437 0.881890
Si Si3 0.530483 0.783010 0.533926
Si Si4 0.344541 0.710763 0.220482
Si Si5 0.736887 0.217849 0.044497
Si Si6 0.163627 0.784676 0.322608
Si Si7 0.627441 0.214598 0.046075
Si Si8 0.291932 0.710170 0.424221
O O1 0.145495 0.785243 0.638125
O O2 0.920206 0.000000 0.919914
O O3 0.900848 0.717437 0.006160
O O4 0.887651 0.721870 0.895228
O O5 0.300569 0.727869 0.655737
O O6 0.130858 0.000000 0.884809
O O7 0.000000 0.722669 0.000000
O O8 0.500000 0.726377 0.500000
O O9 0.402026 0.727674 0.740164
O O10 0.526410 0.000000 0.538493
O O11 0.369884 0.500000 0.198493
O O12 0.212834 0.733391 0.331703
O O13 0.307431 0.784374 0.334513
O O14 0.500000 0.785257 0.000000
O O15 0.709816 0.280322 0.007344
O O16 0.737207 0.000000 0.040128
O O17 0.000000 0.723493 0.500000
O O18 0.161585 0.000000 0.323908
O O19 0.290527 0.720620 0.117645
O O20 0.451157 0.259634 0.261996
O O21 0.638186 0.000000 0.031923
O O22 0.264468 0.500000 0.454198
#
# Coordination Sequence:
#
# PCOD9149857 Si02
#       8
#     4   4   4   4   4   4   4   4
#     4  10  20  35  56  84 114 146 182 225 279 331
#     4   9  17  27  45  79 115 142 177 225 272 323
#     4   9  14  25  44  71 108 143 175 218 270 316
#     4  10  21  40  61  79 104 144 190 229 268 320
#     4   9  18  31  51  80 114 145 178 225 276 328
#     4  10  22  37  57  87 118 143 176 226 279 329
#     4  10  21  37  56  82 112 145 182 223 275 330
#     4  11  24  40  57  79 110 147 187 230 273 324
#
# _framework density 22.506696999999999
#
# number of rings (size 3 to 8) (size 9 to 14) (size 15 to 20)
#    0.000    2.250    2.500    0.375    3.500    1.500 
#    0.000    0.625    0.000    0.375    0.000    0.875 
#    0.000    0.000    0.000    0.000    0.000    0.000 
#
# Total GULP energy -178805.385597 kJ/mol
# GULP energy per Si atom -5587.668300 kJ/mol
# Density = 2.245547 g / cm^3
# Si number density = 22.506697 Si / 1000 Ang^3
#
#
#
# Elastic Constant Matrix: (Units=GPa)
#
#
# Indices 1 2 3 4 5 6 
#
# 1 83.4412 -2.4643 -12.8816 0.0000 -20.1957 0.0000
# 2 -2.4643 56.7348 -9.8751 0.0000 6.6359 0.0000
# 3 -12.8816 -9.8751 60.7359 0.0000 -21.2064 0.0000
# 4 0.0000 0.0000 0.0000-1210.0566 0.0000 -588.5513
# 5 -20.1957 6.6359 -21.2064 0.0000 38.9077 0.0000
# 6 0.0000 0.0000 0.0000 -588.5513 0.0000 -282.1793
#
#
#
# Elastic Compliance Matrix: (Units=1/GPa)
#
#
# Indices 1 2 3 4 5 6 
#
# 1 0.016320 0.000613 0.008006 0.000000 0.012730 0.000000
# 2 0.000613 0.018269 0.002623 0.000000 -0.001368 0.000000
# 3 0.008006 0.002623 0.024557 0.000000 0.017093 0.000000
# 4 0.000000 0.000000 0.000000 0.057125 0.000000 -0.119148
# 5 0.012730 -0.001368 0.017093 0.000000 0.041859 0.000000
# 6 0.000000 0.000000 0.000000 -0.119148 0.000000 0.244966
#
#
# Mechanical properties :
#
#
# Convention : Reuss Voigt Hill
#
# Bulk Modulus (GPa) = 12.25049 16.71890 14.48470
# Shear Modulus (GPa) = 12.26024 -275.59010 -131.66493
#
# Velocity S-wave (km/s) = 2.33649 -11.07763 -7.65685
# Velocity P-wave (km/s) = 3.56844 12.49696 8.46877
#
# Compressibility (1/GPa) = 0.08162937
#
# Stress axis : x y z
#
# Youngs Moduli (GPa) = 61.27625 54.73749 40.72129
#
# Poissons Ratio (x) = -0.03357 -0.32600
# Poissons Ratio (y) = -0.03758 -0.10680
# Poissons Ratio (z) = -0.49056 -0.14357
#
# Static dielectric constant tensor:
#      x y z
#    x 1.811260 0.000000 0.004330 
#    y 0.000000 1.875310 0.000000 
#    z 0.004330 0.000000 1.801420 
# 
# From -- ./inp_files/86788.got.cif
#   From: 2010.05.17/outbox.cif.g08.bks.cpg/sg10_44_cif.got.tgz:86788.got - 2010.06.03 11:33:40.
