data_PCOD9149716
_publ_section_title
;
Structure prediction by ZEFSAII (Michael W. Deem and Ramdas Pophale) SiO2 
 PCOD9149716
Probable space group: P 2/M
;
_chemical_formula_sum "Si O2"
_cell_formula_units_Z 28
_cell_length_a 9.410999
_cell_length_b 8.924088
_cell_length_c 22.753736
_cell_angle_alpha 90.000000
_cell_angle_beta 140.509703
_cell_angle_gamma 90.000000
_cell_volume 1215.272236
_symmetry_space_group_name_H-M "P 2/M"
_symmetry_group_IT_number 10
_symmetry_cell_setting 'monoclinic'
loop_
_space_group_symop_operation_xyz
x,y,z
-x,y,-z
-x,-y,-z
x,-y,z
loop_
_atom_site_type_symbol
_atom_site_label
_atom_site_fract_x
_atom_site_fract_y
_atom_site_fract_z
Si Si1 0.415028 0.168520 0.055371
Si Si2 0.754570 0.667868 0.890989
Si Si3 0.127176 0.173588 0.674229
Si Si4 0.150314 0.325989 0.806191
Si Si5 0.669732 0.322645 0.500136
Si Si6 0.738132 0.328974 0.395223
Si Si7 0.929630 0.828328 0.838282
O O1 0.369895 0.210612 0.108856
O O2 0.601121 0.283144 0.092968
O O3 0.504309 0.000000 0.077371
O O4 0.177504 0.174589 0.947350
O O5 0.658278 0.500000 0.864850
O O6 0.786174 0.721799 0.834645
O O7 0.000000 0.660377 0.000000
O O8 0.153559 0.274733 0.740065
O O9 0.274290 0.224492 0.665433
O O10 0.872427 0.209720 0.574984
O O11 0.160271 0.000000 0.698168
O O12 0.104852 0.500000 0.797966
O O13 0.971567 0.233787 0.786895
O O14 0.500000 0.305804 0.500000
O O15 0.741995 0.500000 0.524018
O O16 0.596655 0.295423 0.409023
O O17 0.694110 0.500000 0.363245
O O18 0.000000 0.322980 0.500000
O O19 0.851776 0.000000 0.814197
#
# Coordination Sequence:
#
# PCOD9149716 Si02
#       7
#     4   4   4   4   4   4   4
#     4  10  20  35  55  79 107 140 181 229 279 329
#     4   9  17  31  52  77 103 133 173 218 263 316
#     4  11  22  36  54  78 110 144 180 220 267 321
#     4  12  24  37  54  76 106 143 185 231 278 329
#     4   9  18  35  60  87 113 141 174 213 258 312
#     4   8  15  31  55  80 106 137 172 207 248 304
#     4  10  20  35  55  79 108 142 181 227 280 331
#
# _framework density 23.040106999999999
#
# number of rings (size 3 to 8) (size 9 to 14) (size 15 to 20)
#    0.000    2.143    0.000    5.143    0.000    8.000 
#    0.000    1.429    0.000    1.714    0.000    0.000 
#    0.000    0.000    0.000    0.000    0.000    0.000 
#
# Total GULP energy -156515.742162 kJ/mol
# GULP energy per Si atom -5589.847934 kJ/mol
# Density = 2.298767 g / cm^3
# Si number density = 23.040107 Si / 1000 Ang^3
#
#
#
# Elastic Constant Matrix: (Units=GPa)
#
#
# Indices 1 2 3 4 5 6 
#
# 1 111.1092 14.9325 13.9058 0.0000 -30.7613 0.0000
# 2 14.9325 95.8799 5.4429 0.0000 -10.4799 0.0000
# 3 13.9058 5.4429 43.5489 0.0000 -14.4627 0.0000
# 4 0.0000 0.0000 0.0000 21.5742 0.0000 -5.2382
# 5 -30.7613 -10.4799 -14.4627 0.0000 36.3437 0.0000
# 6 0.0000 0.0000 0.0000 -5.2382 0.0000 30.7881
#
#
#
# Elastic Compliance Matrix: (Units=1/GPa)
#
#
# Indices 1 2 3 4 5 6 
#
# 1 0.011819 -0.000765 -0.000495 0.000000 0.009586 0.000000
# 2 -0.000765 0.010824 -0.000331 0.000000 0.002342 0.000000
# 3 -0.000495 -0.000331 0.026492 0.000000 0.010028 0.000000
# 4 0.000000 0.000000 0.000000 0.048349 0.000000 0.008226
# 5 0.009586 0.002342 0.010028 0.000000 0.040295 0.000000
# 6 0.000000 0.000000 0.000000 0.008226 0.000000 0.033880
#
#
# Mechanical properties :
#
#
# Convention : Reuss Voigt Hill
#
# Bulk Modulus (GPa) = 21.76085 35.45562 28.60823
# Shear Modulus (GPa) = 26.29408 32.15833 29.22620
#
# Velocity S-wave (km/s) = 3.38188 3.74003 3.56545
# Velocity P-wave (km/s) = 4.97139 5.83717 5.42159
#
# Compressibility (1/GPa) = 0.04595409
#
# Stress axis : x y z
#
# Youngs Moduli (GPa) = 84.61082 92.39072 37.74661
#
# Poissons Ratio (x) = 0.07066 0.01868
# Poissons Ratio (y) = 0.06471 0.01248
# Poissons Ratio (z) = 0.04187 0.03056
#
# Static dielectric constant tensor:
#      x y z
#    x 1.873240 0.000000 0.027240 
#    y 0.000000 1.777250 0.000000 
#    z 0.027240 0.000000 1.960820 
# 
# From -- ./inp_files/82258.got.cif
#   From: 2010.05.17/outbox.cif.g08.bks.cpg/sg10_42_cif.got.tgz:82258.got - 2010.06.03 11:33:40.
