data_PCOD9149259
_publ_section_title
;
Structure prediction by ZEFSAII (Michael W. Deem and Ramdas Pophale) SiO2 
 PCOD9149259
Probable space group: P 2/M
;
_chemical_formula_sum "Si O2"
_cell_formula_units_Z 28
_cell_length_a 15.483773
_cell_length_b 8.953755
_cell_length_c 18.739206
_cell_angle_alpha 90.000000
_cell_angle_beta 141.656944
_cell_angle_gamma 90.000000
_cell_volume 1611.695488
_symmetry_space_group_name_H-M "P 2/M"
_symmetry_group_IT_number 10
_symmetry_cell_setting 'monoclinic'
loop_
_space_group_symop_operation_xyz
x,y,z
-x,y,-z
-x,-y,-z
x,-y,z
loop_
_atom_site_type_symbol
_atom_site_label
_atom_site_fract_x
_atom_site_fract_y
_atom_site_fract_z
Si Si1 0.409153 0.677877 0.219864
Si Si2 0.888139 0.176945 0.743544
Si Si3 0.678288 0.821071 0.338729
Si Si4 0.621042 0.324778 0.636477
Si Si5 0.108232 0.828845 0.636687
Si Si6 0.914537 0.321029 0.016567
Si Si7 0.109696 0.677448 0.410476
O O1 0.429963 0.500000 0.223530
O O2 0.521596 0.766413 0.246970
O O3 0.431185 0.711424 0.318093
O O4 0.248438 0.712337 0.098809
O O5 0.751498 0.225915 0.698924
O O6 0.879766 0.254875 0.661269
O O7 0.017923 0.237271 0.873172
O O8 0.894050 0.000000 0.738898
O O9 0.748476 0.780949 0.308101
O O10 0.771074 0.745857 0.461047
O O11 0.689724 0.000000 0.352992
O O12 0.500000 0.308341 0.500000
O O13 0.665069 0.500000 0.666129
O O14 0.000000 0.830420 0.500000
O O15 0.037426 0.725632 0.649624
O O16 0.118788 0.000000 0.669682
O O17 0.929494 0.500000 0.035924
O O18 0.000000 0.281894 0.000000
O O19 0.124341 0.500000 0.417979
#
# Coordination Sequence:
#
# PCOD9149259 Si02
#       7
#     4   4   4   4   4   4   4
#     4  10  20  34  55  80 107 143 183 224 263 313
#     4  12  24  36  54  79 108 140 179 227 274 322
#     4  10  20  34  54  82 117 147 174 217 271 324
#     4  10  20  35  54  77 107 143 178 216 266 321
#     4   8  16  32  52  77 111 146 175 212 267 323
#     4  10  20  39  60  76 102 142 187 227 269 316
#     4  11  21  34  55  81 110 144 183 223 266 321
#
# _framework density 17.373007999999999
#
# number of rings (size 3 to 8) (size 9 to 14) (size 15 to 20)
#    0.000    1.857    1.429    4.714    0.000    6.000 
#    0.000    0.000    0.000    0.857    0.000    6.000 
#    0.000    0.000    0.000    0.000    0.000    0.000 
#
# Total GULP energy -156332.682273 kJ/mol
# GULP energy per Si atom -5583.310081 kJ/mol
# Density = 1.733347 g / cm^3
# Si number density = 17.373008 Si / 1000 Ang^3
#
#
#
# Elastic Constant Matrix: (Units=GPa)
#
#
# Indices 1 2 3 4 5 6 
#
# 1 80.5425 31.5993 7.5252 0.0000 29.1749 0.0000
# 2 31.5993 64.9297 19.9637 0.0000 12.5478 0.0000
# 3 7.5252 19.9637 34.8999 0.0000 16.2821 0.0000
# 4 0.0000 0.0000 0.0000 13.6307 0.0000 4.8657
# 5 29.1749 12.5478 16.2821 0.0000 22.1165 0.0000
# 6 0.0000 0.0000 0.0000 4.8657 0.0000 31.1603
#
#
#
# Elastic Compliance Matrix: (Units=1/GPa)
#
#
# Indices 1 2 3 4 5 6 
#
# 1 0.040422 -0.016523 0.032351 0.000000 -0.067765 0.000000
# 2 -0.016523 0.025697 -0.022091 0.000000 0.023481 0.000000
# 3 0.032351 -0.022091 0.073685 0.000000 -0.084388 0.000000
# 4 0.000000 0.000000 0.000000 0.077694 0.000000 -0.012132
# 5 -0.067765 0.023481 -0.084388 0.000000 0.183411 0.000000
# 6 0.000000 0.000000 0.000000 -0.012132 0.000000 0.033987
#
#
# Mechanical properties :
#
#
# Convention : Reuss Voigt Hill
#
# Bulk Modulus (GPa) = 7.85693 33.17206 20.51449
# Shear Modulus (GPa) = 10.20719 21.46710 15.83715
#
# Velocity S-wave (km/s) = 2.42653 3.51901 3.02254
# Velocity P-wave (km/s) = 3.51896 5.97048 4.90050
#
# Compressibility (1/GPa) = 0.12727622
#
# Stress axis : x y z
#
# Youngs Moduli (GPa) = 24.73875 38.91458 13.57131
#
# Poissons Ratio (x) = 0.64300 -0.43904
# Poissons Ratio (y) = 0.40877 0.29981
# Poissons Ratio (z) = -0.80031 0.85968
#
# Static dielectric constant tensor:
#      x y z
#    x 1.600020 0.000000 0.017680 
#    y 0.000000 1.580990 0.000000 
#    z 0.017680 0.000000 1.573930 
# 
# From -- ./inp_files/54955.got.cif
#   From: 2010.05.17/outbox.cif.g08.bks.cpg/sg10_28_cif.got.tgz:54955.got - 2010.06.03 11:33:40.
