data_PCOD9149025
_publ_section_title
;
Structure prediction by ZEFSAII (Michael W. Deem and Ramdas Pophale) SiO2 
 PCOD9149025
Probable space group: P 2/M
;
_chemical_formula_sum "Si O2"
_cell_formula_units_Z 32
_cell_length_a 5.444088
_cell_length_b 9.578916
_cell_length_c 29.602532
_cell_angle_alpha 90.000000
_cell_angle_beta 102.013266
_cell_angle_gamma 90.000000
_cell_volume 1509.918023
_symmetry_space_group_name_H-M "P 2/M"
_symmetry_group_IT_number 10
_symmetry_cell_setting 'monoclinic'
loop_
_space_group_symop_operation_xyz
x,y,z
-x,y,-z
-x,-y,-z
x,-y,z
loop_
_atom_site_type_symbol
_atom_site_label
_atom_site_fract_x
_atom_site_fract_y
_atom_site_fract_z
Si Si1 0.827984 0.654503 0.145724
Si Si2 0.586338 0.831557 0.367999
Si Si3 0.978762 0.831024 0.686118
Si Si4 0.487004 0.154667 0.194570
Si Si5 0.887587 0.845121 0.900967
Si Si6 0.279209 0.170483 0.525915
Si Si7 0.285516 0.662802 0.029092
Si Si8 0.199088 0.343739 0.241399
O O1 0.723852 0.500000 0.133744
O O2 0.657742 0.751559 0.169680
O O3 0.898825 0.732486 0.102439
O O4 0.067352 0.636992 0.187829
O O5 0.298925 0.797096 0.344622
O O6 0.658910 0.782269 0.420909
O O7 0.798571 0.791511 0.339680
O O8 0.595382 0.000000 0.369472
O O9 0.982080 0.738127 0.731412
O O10 0.987078 0.000000 0.694495
O O11 0.246268 0.136632 0.152607
O O12 0.419716 0.235711 0.237675
O O13 0.588964 0.000000 0.207690
O O14 0.702978 0.771913 0.929356
O O15 0.969091 0.000000 0.919044
O O16 0.500000 0.213498 0.500000
O O17 0.000000 0.213840 0.500000
O O18 0.279053 0.000000 0.526019
O O19 0.305321 0.500000 0.044017
O O20 0.500000 0.687819 0.000000
O O21 0.000000 0.681250 0.000000
O O22 0.268569 0.500000 0.259938
#
# Coordination Sequence:
#
# PCOD9149025 Si02
#       8
#     4   4   4   4   4   4   4   4
#     4  10  21  37  59  84 113 149 190 240 291 342
#     4   9  18  31  47  73 108 145 187 228 283 348
#     4  10  20  34  52  75 108 150 186 230 283 341
#     4  10  21  37  59  86 115 147 188 237 291 347
#     4  10  22  39  59  87 118 151 192 241 293 347
#     4   9  15  24  42  68 101 140 177 223 281 341
#     4  10  23  42  63  90 122 160 201 241 291 353
#     4  10  22  38  54  79 109 146 194 240 285 338
#
# _framework density 21.193204000000001
#
# number of rings (size 3 to 8) (size 9 to 14) (size 15 to 20)
#    0.000    2.250    0.000    2.250    3.500    6.500 
#    0.000    0.000    0.000    0.000    0.000    0.000 
#    0.000   10.000    0.000    0.000    0.000    0.000 
#
# Total GULP energy -178480.391985 kJ/mol
# GULP energy per Si atom -5577.512250 kJ/mol
# Density = 2.114497 g / cm^3
# Si number density = 21.193204 Si / 1000 Ang^3
#
#
#
# Elastic Constant Matrix: (Units=GPa)
#
#
# Indices 1 2 3 4 5 6 
#
# 1 113.5793 33.4035 48.0115 0.0000 -19.9515 0.0000
# 2 33.4035 130.7134 37.1955 0.0000 -31.4725 0.0000
# 3 48.0115 37.1955 107.9070 0.0000 -16.9662 0.0000
# 4 0.0000 0.0000 0.0000 20.8909 0.0000 -2.2487
# 5 -19.9515 -31.4725 -16.9662 0.0000 47.8064 0.0000
# 6 0.0000 0.0000 0.0000 -2.2487 0.0000 12.9471
#
#
#
# Elastic Compliance Matrix: (Units=1/GPa)
#
#
# Indices 1 2 3 4 5 6 
#
# 1 0.011379 -0.001081 -0.004295 0.000000 0.002513 0.000000
# 2 -0.001081 0.009779 -0.002064 0.000000 0.005254 0.000000
# 3 -0.004295 -0.002064 0.012068 0.000000 0.001131 0.000000
# 4 0.000000 0.000000 0.000000 0.048780 0.000000 0.008472
# 5 0.002513 0.005254 0.001131 0.000000 0.025827 0.000000
# 6 0.000000 0.000000 0.000000 0.008472 0.000000 0.078709
#
#
# Mechanical properties :
#
#
# Convention : Reuss Voigt Hill
#
# Bulk Modulus (GPa) = 54.50693 65.49118 59.99906
# Shear Modulus (GPa) = 24.09210 31.90150 27.99680
#
# Velocity S-wave (km/s) = 3.37528 3.88399 3.63854
# Velocity P-wave (km/s) = 6.40038 7.14723 6.78409
#
# Compressibility (1/GPa) = 0.01834629
#
# Stress axis : x y z
#
# Youngs Moduli (GPa) = 87.87769 102.26154 82.86552
#
# Poissons Ratio (x) = 0.11050 0.35595
# Poissons Ratio (y) = 0.09496 0.17102
# Poissons Ratio (z) = 0.37748 0.21105
#
# Static dielectric constant tensor:
#      x y z
#    x 1.837480 0.000000 0.065200 
#    y 0.000000 1.824630 0.000000 
#    z 0.065200 0.000000 1.790940 
# 
# From -- ./inp_files/94339.got.cif
#   From: 2010.05.17/outbox.cif.g08.bks.cpg/sg10_48_cif.got.tgz:94339.got - 2010.06.03 11:33:40.
