data_PCOD9149844
_publ_section_title
;
Structure prediction by ZEFSAII (Michael W. Deem and Ramdas Pophale) SiO2 
 PCOD9149844
Probable space group: P 2/M
;
_chemical_formula_sum "Si O2"
_cell_formula_units_Z 24
_cell_length_a 8.241711
_cell_length_b 16.887449
_cell_length_c 12.260547
_cell_angle_alpha 90.000000
_cell_angle_beta 50.801655
_cell_angle_gamma 90.000000
_cell_volume 1322.428205
_symmetry_space_group_name_H-M "P 2/M"
_symmetry_group_IT_number 10
_symmetry_cell_setting 'monoclinic'
loop_
_space_group_symop_operation_xyz
x,y,z
-x,y,-z
-x,-y,-z
x,-y,z
loop_
_atom_site_type_symbol
_atom_site_label
_atom_site_fract_x
_atom_site_fract_y
_atom_site_fract_z
Si Si1 0.509867 0.000000 0.127118
Si Si2 0.847804 0.836991 0.459772
Si Si3 0.016546 0.000000 0.363563
Si Si4 0.622541 0.703873 0.054381
Si Si5 0.904998 0.259233 0.222525
Si Si6 0.424583 0.158602 0.773574
Si Si7 0.220057 0.589021 0.840854
O O1 0.603414 0.923197 0.148905
O O2 0.500000 0.000000 0.000000
O O3 0.262240 0.000000 0.248737
O O4 0.879285 0.768785 0.357410
O O5 0.613747 0.846464 0.606318
O O6 0.000000 0.826716 0.500000
O O7 0.911839 0.918672 0.371199
O O8 0.000000 0.000000 0.500000
O O9 0.855795 0.733085 0.920665
O O10 0.500000 0.680230 0.000000
O O11 0.513560 0.777145 0.161092
O O12 0.631455 0.631537 0.134792
O O13 0.776113 0.196918 0.201773
O O14 0.808378 0.346387 0.242067
O O15 0.277896 0.500000 0.784308
O O16 0.000000 0.585147 0.000000
#
# Coordination Sequence:
#
# PCOD9149844 Si02
#       7
#     2   4   2   4   4   4   4
#     4  12  24  37  58  86 115 157 192 240 281 325
#     4  11  20  36  60  78 112 150 195 234 276 338
#     4  10  20  39  53  81 111 149 196 231 281 318
#     4  10  20  35  56  83 115 145 192 239 278 337
#     4  10  22  36  57  87 111 149 190 232 286 338
#     4  11  21  37  54  80 115 149 190 233 284 334
#     4   8  16  34  57  83 117 148 179 227 285 343
#
# _framework density 18.148433000000001
#
# number of rings (size 3 to 8) (size 9 to 14) (size 15 to 20)
#    0.000    1.833    3.333    3.500    2.333    1.000 
#    0.000    3.333    0.000    8.500    0.000    0.000 
#    0.000    0.000    0.000    0.000    0.000    0.000 
#
# Total GULP energy -133737.891893 kJ/mol
# GULP energy per Si atom -5572.412162 kJ/mol
# Density = 1.810713 g / cm^3
# Si number density = 18.148433 Si / 1000 Ang^3
#
#
#
# Elastic Constant Matrix: (Units=GPa)
#
#
# Indices 1 2 3 4 5 6 
#
# 1 70.2950 50.5567 24.5624 0.0000 4.9967 0.0000
# 2 50.5567 169.1206 28.7034 0.0000 23.0132 0.0000
# 3 24.5624 28.7034 48.4846 0.0000 14.2951 0.0000
# 4 0.0000 0.0000 0.0000 32.4179 0.0000 -0.5432
# 5 4.9967 23.0132 14.2951 0.0000 30.5728 0.0000
# 6 0.0000 0.0000 0.0000 -0.5432 0.0000 10.6748
#
#
#
# Elastic Compliance Matrix: (Units=1/GPa)
#
#
# Indices 1 2 3 4 5 6 
#
# 1 0.020821 -0.005383 -0.008760 0.000000 0.004745 0.000000
# 2 -0.005383 0.008332 -0.000714 0.000000 -0.005058 0.000000
# 3 -0.008760 -0.000714 0.028888 0.000000 -0.011538 0.000000
# 4 0.000000 0.000000 0.000000 0.030873 0.000000 0.001571
# 5 0.004745 -0.005058 -0.011538 0.000000 0.041135 0.000000
# 6 0.000000 0.000000 0.000000 0.001571 0.000000 0.093758
#
#
# Mechanical properties :
#
#
# Convention : Reuss Voigt Hill
#
# Bulk Modulus (GPa) = 35.30393 55.06059 45.18226
# Shear Modulus (GPa) = 19.01402 27.00495 23.00948
#
# Velocity S-wave (km/s) = 3.24032 3.86165 3.56455
# Velocity P-wave (km/s) = 5.78746 7.09140 6.47235
#
# Compressibility (1/GPa) = 0.02832546
#
# Stress axis : x y z
#
# Youngs Moduli (GPa) = 48.02833 120.02498 34.61694
#
# Poissons Ratio (x) = 0.64611 0.30325
# Poissons Ratio (y) = 0.25854 0.02472
# Poissons Ratio (z) = 0.42074 0.08570
#
# Static dielectric constant tensor:
#      x y z
#    x 1.642660 0.000000 -0.002950 
#    y 0.000000 1.665510 0.000000 
#    z -0.002950 0.000000 1.608040 
# 
# From -- ./inp_files/19329.got.cif
#   From: 2010.05.17/outbox.cif.g08.bks.cpg/sg10_10_cif.got.tgz:19329.got - 2010.06.03 11:33:40.
