data_PCOD9149480
_publ_section_title
;
Structure prediction by ZEFSAII (Michael W. Deem and Ramdas Pophale) SiO2 
 PCOD9149480
Probable space group: P 2/M
;
_chemical_formula_sum "Si O2"
_cell_formula_units_Z 20
_cell_length_a 8.872294
_cell_length_b 23.392560
_cell_length_c 7.752143
_cell_angle_alpha 90.000000
_cell_angle_beta 34.983269
_cell_angle_gamma 90.000000
_cell_volume 922.455832
_symmetry_space_group_name_H-M "P 2/M"
_symmetry_group_IT_number 10
_symmetry_cell_setting 'monoclinic'
loop_
_space_group_symop_operation_xyz
x,y,z
-x,y,-z
-x,-y,-z
x,-y,z
loop_
_atom_site_type_symbol
_atom_site_label
_atom_site_fract_x
_atom_site_fract_y
_atom_site_fract_z
Si Si1 0.381141 0.935567 0.421109
Si Si2 0.126555 0.871932 0.189135
Si Si3 0.945256 0.370999 0.847109
Si Si4 0.769214 0.254413 0.854956
Si Si5 0.552645 0.435370 0.659153
O O1 0.500000 0.938620 0.500000
O O2 0.117203 0.898506 0.684400
O O3 0.315860 0.000000 0.422552
O O4 0.608607 0.908016 0.088958
O O5 0.203412 0.806516 0.075939
O O6 0.000000 0.873412 0.500000
O O7 0.824482 0.309437 0.919055
O O8 0.222219 0.389681 0.505897
O O9 0.724589 0.416891 0.002953
O O10 0.000000 0.373756 0.000000
O O11 0.000000 0.255583 0.500000
O O12 0.500000 0.256569 0.000000
O O13 0.500000 0.434053 0.500000
O O14 0.629974 0.500000 0.629988
#
# Coordination Sequence:
#
# PCOD9149480 Si02
#       5
#     4   4   4   4   4
#     4  11  24  41  62  91 125 156 189 240 303 351
#     4  11  23  41  63  88 117 158 206 241 283 350
#     4  10  20  34  57  86 109 142 193 235 277 339
#     4  11  23  41  60  81 116 154 188 235 293 341
#     4   9  17  31  53  82 114 144 181 234 285 331
#
# _framework density 21.681253999999999
#
# number of rings (size 3 to 8) (size 9 to 14) (size 15 to 20)
#    0.000    1.600    0.000    6.000    0.000    8.000 
#    0.000    2.000    0.000   12.000    0.000    0.000 
#    0.000    0.000    0.000    0.000    0.000    0.000 
#
# Total GULP energy -111707.474851 kJ/mol
# GULP energy per Si atom -5585.373743 kJ/mol
# Density = 2.163191 g / cm^3
# Si number density = 21.681254 Si / 1000 Ang^3
#
#
#
# Elastic Constant Matrix: (Units=GPa)
#
#
# Indices 1 2 3 4 5 6 
#
# 1 46.1383 41.7832 31.4909 0.0000 -32.2507 0.0000
# 2 41.7832 151.8041 38.4735 0.0000 -33.9727 0.0000
# 3 31.4909 38.4735 117.3193 0.0000 -39.2948 0.0000
# 4 0.0000 0.0000 0.0000 36.5036 0.0000 -12.8375
# 5 -32.2507 -33.9727 -39.2948 0.0000 45.1005 0.0000
# 6 0.0000 0.0000 0.0000 -12.8375 0.0000 17.5411
#
#
#
# Elastic Compliance Matrix: (Units=1/GPa)
#
#
# Indices 1 2 3 4 5 6 
#
# 1 0.048553 -0.006639 -0.001273 0.000000 0.028610 0.000000
# 2 -0.006639 0.008891 -0.000679 0.000000 0.001359 0.000000
# 3 -0.001273 -0.000679 0.012161 0.000000 0.009174 0.000000
# 4 0.000000 0.000000 0.000000 0.036889 0.000000 0.026997
# 5 0.028610 0.001359 0.009174 0.000000 0.051647 0.000000
# 6 0.000000 0.000000 0.000000 0.026997 0.000000 0.076767
#
#
# Mechanical properties :
#
#
# Convention : Reuss Voigt Hill
#
# Bulk Modulus (GPa) = 19.07523 59.86187 39.46855
# Shear Modulus (GPa) = 18.54854 33.39664 25.97259
#
# Velocity S-wave (km/s) = 2.92808 3.92898 3.46486
# Velocity P-wave (km/s) = 4.49986 6.94640 5.85240
#
# Compressibility (1/GPa) = 0.05242400
#
# Stress axis : x y z
#
# Youngs Moduli (GPa) = 20.59593 112.47663 82.23246
#
# Poissons Ratio (x) = 0.74670 0.10469
# Poissons Ratio (y) = 0.13673 0.05580
# Poissons Ratio (z) = 0.02622 0.07633
#
# Static dielectric constant tensor:
#      x y z
#    x 1.813660 0.000000 0.021000 
#    y 0.000000 1.818670 0.000000 
#    z 0.021000 0.000000 1.749020 
# 
# From -- ./inp_files/4831.got.cif
#   From: 2010.05.17/outbox.cif.g08.bks.cpg/sg10_3_cif.got.tgz:4831.got - 2010.06.03 11:33:40.
