data_PCOD9149121
_publ_section_title
;
Structure prediction by ZEFSAII (Michael W. Deem and Ramdas Pophale) SiO2 
 PCOD9149121
Probable space group: P 2/M
;
_chemical_formula_sum "Si O2"
_cell_formula_units_Z 32
_cell_length_a 25.229403
_cell_length_b 15.580387
_cell_length_c 8.301320
_cell_angle_alpha 90.000000
_cell_angle_beta 31.057744
_cell_angle_gamma 90.000000
_cell_volume 1683.446494
_symmetry_space_group_name_H-M "P 2/M"
_symmetry_group_IT_number 10
_symmetry_cell_setting 'monoclinic'
loop_
_space_group_symop_operation_xyz
x,y,z
-x,y,-z
-x,-y,-z
x,-y,z
loop_
_atom_site_type_symbol
_atom_site_label
_atom_site_fract_x
_atom_site_fract_y
_atom_site_fract_z
Si Si1 0.246325 0.400400 0.822162
Si Si2 0.802016 0.905296 0.919938
Si Si3 0.562215 0.397008 0.493827
Si Si4 0.619490 0.899704 0.154855
Si Si5 0.864319 0.240823 0.006314
Si Si6 0.748825 0.242746 0.644029
Si Si7 0.941094 0.821741 0.316775
Si Si8 0.637597 0.403126 0.821488
O O1 0.216308 0.500000 0.930330
O O2 0.324358 0.365862 0.756487
O O3 0.156278 0.333522 0.019359
O O4 0.315576 0.401057 0.478632
O O5 0.884637 0.897113 0.559972
O O6 0.807166 0.000000 0.979352
O O7 0.690234 0.892587 0.130638
O O8 0.831786 0.831928 0.966086
O O9 0.500000 0.364559 0.500000
O O10 0.574151 0.500000 0.444788
O O11 0.482845 0.383336 0.847409
O O12 0.500000 0.881631 0.500000
O O13 0.627932 0.000000 0.079899
O O14 0.670230 0.832022 0.900274
O O15 0.791603 0.230471 0.352178
O O16 0.978476 0.224888 0.775687
O O17 0.847387 0.238274 0.503412
O O18 0.696190 0.334909 0.778106
O O19 0.000000 0.848682 0.000000
O O20 0.651475 0.500000 0.847512
#
# Coordination Sequence:
#
# PCOD9149121 Si02
#       8
#     4   4   4   4   4   4   4   4
#     4   9  18  33  50  69 100 140 174 206 251 305
#     4  10  21  36  56  81 105 132 167 209 259 308
#     4   9  17  28  44  69  98 128 168 216 257 295
#     4   9  19  37  57  76 103 139 174 208 252 310
#     4  10  20  34  53  78 106 134 172 219 258 299
#     4   9  19  34  53  76 103 138 174 211 258 306
#     4   9  19  36  55  76 104 135 169 211 256 304
#     4   9  17  30  48  71 100 134 171 210 254 304
#
# _framework density 19.008624999999999
#
# number of rings (size 3 to 8) (size 9 to 14) (size 15 to 20)
#    0.000    2.750    0.000    0.750    0.000    6.750 
#    0.000    5.000    0.000    7.500    0.000    0.000 
#    0.000    0.000    0.000    0.000    0.000    0.000 
#
# Total GULP energy -178363.267280 kJ/mol
# GULP energy per Si atom -5573.852102 kJ/mol
# Density = 1.896536 g / cm^3
# Si number density = 19.008625 Si / 1000 Ang^3
#
#
#
# Elastic Constant Matrix: (Units=GPa)
#
#
# Indices 1 2 3 4 5 6 
#
# 1 96.2720 59.4759 40.4228 0.0000 -19.2011 0.0000
# 2 59.4759 104.1110 36.7642 0.0000 -18.6623 0.0000
# 3 40.4228 36.7642 74.2507 0.0000 -26.5167 0.0000
# 4 0.0000 0.0000 0.0000 11.9760 0.0000 5.0101
# 5 -19.2011 -18.6623 -26.5167 0.0000 23.7069 0.0000
# 6 0.0000 0.0000 0.0000 5.0101 0.0000 20.8152
#
#
#
# Elastic Compliance Matrix: (Units=1/GPa)
#
#
# Indices 1 2 3 4 5 6 
#
# 1 0.017927 -0.008050 -0.004748 0.000000 0.002872 0.000000
# 2 -0.008050 0.015554 -0.002122 0.000000 0.003350 0.000000
# 3 -0.004748 -0.002122 0.025200 0.000000 0.022670 0.000000
# 4 0.000000 0.000000 0.000000 0.092850 0.000000 -0.022348
# 5 0.002872 0.003350 0.022670 0.000000 0.072502 0.000000
# 6 0.000000 0.000000 0.000000 -0.022348 0.000000 0.053421
#
#
# Mechanical properties :
#
#
# Convention : Reuss Voigt Hill
#
# Bulk Modulus (GPa) = 34.67453 60.88442 47.77947
# Shear Modulus (GPa) = 15.77755 20.49768 18.13761
#
# Velocity S-wave (km/s) = 2.88413 3.28736 3.09233
# Velocity P-wave (km/s) = 5.41960 6.81971 6.15957
#
# Compressibility (1/GPa) = 0.02883961
#
# Stress axis : x y z
#
# Youngs Moduli (GPa) = 55.78301 64.29350 39.68301
#
# Poissons Ratio (x) = 0.51753 0.18842
# Poissons Ratio (y) = 0.44903 0.08422
# Poissons Ratio (z) = 0.26487 0.13646
#
# Static dielectric constant tensor:
#      x y z
#    x 1.682830 0.000000 0.022720 
#    y 0.000000 1.644700 0.000000 
#    z 0.022720 0.000000 1.683600 
# 
# From -- ./inp_files/37713.got.cif
#   From: 2010.05.17/outbox.cif.g08.bks.cpg/sg10_19_cif.got.tgz:37713.got - 2010.06.03 11:33:40.
