data_PCOD9149301
_publ_section_title
;
Structure prediction by ZEFSAII (Michael W. Deem and Ramdas Pophale) SiO2 
 PCOD9149301
Probable space group: P 2/M
;
_chemical_formula_sum "Si O2"
_cell_formula_units_Z 32
_cell_length_a 12.813056
_cell_length_b 7.410943
_cell_length_c 30.403456
_cell_angle_alpha 90.000000
_cell_angle_beta 150.198802
_cell_angle_gamma 90.000000
_cell_volume 1434.824026
_symmetry_space_group_name_H-M "P 2/M"
_symmetry_group_IT_number 10
_symmetry_cell_setting 'monoclinic'
loop_
_space_group_symop_operation_xyz
x,y,z
-x,y,-z
-x,-y,-z
x,-y,z
loop_
_atom_site_type_symbol
_atom_site_label
_atom_site_fract_x
_atom_site_fract_y
_atom_site_fract_z
Si Si1 0.226903 0.792365 0.848422
Si Si2 0.930006 0.218078 0.117355
Si Si3 0.668626 0.719496 0.500332
Si Si4 0.602486 0.781760 0.925554
Si Si5 0.204667 0.718404 0.356686
Si Si6 0.216476 0.709465 0.098167
Si Si7 0.623455 0.289374 0.751277
Si Si8 0.791456 0.720987 0.449355
O O1 0.192539 0.714445 0.884421
O O2 0.402180 0.716031 0.879963
O O3 0.001536 0.787633 0.742558
O O4 0.292710 0.000000 0.879656
O O5 0.170756 0.277040 0.203890
O O6 0.930167 0.000000 0.118739
O O7 0.807740 0.273279 0.028593
O O8 0.668777 0.500000 0.500734
O O9 0.423623 0.773417 0.413919
O O10 0.778269 0.774842 0.585984
O O11 0.775104 0.778876 0.494168
O O12 0.621036 0.717052 0.882591
O O13 0.598021 0.000000 0.921965
O O14 0.195926 0.500000 0.352215
O O15 0.169087 0.500000 0.090965
O O16 0.307655 0.789830 0.176395
O O17 0.000000 0.790885 0.000000
O O18 0.575787 0.500000 0.741512
O O19 0.417161 0.216017 0.652417
O O20 0.790563 0.500000 0.449734
O O21 0.000000 0.777102 0.500000
#
# Coordination Sequence:
#
# PCOD9149301 Si02
#       8
#     4   4   4   4   4   4   4   4
#     4  10  21  35  50  75 108 135 168 216 262 303
#     4  10  20  35  55  75 100 136 176 214 255 305
#     4   8  15  29  49  72  98 127 167 213 248 293
#     4  10  21  36  54  74 100 139 179 212 251 306
#     4   9  17  31  52  75  98 130 168 208 255 305
#     4  10  20  35  53  77 109 135 164 214 265 304
#     4  10  20  34  55  80 105 135 170 213 261 304
#     4   9  17  29  47  73 102 131 165 205 250 301
#
# _framework density 22.302387
#
# number of rings (size 3 to 8) (size 9 to 14) (size 15 to 20)
#    0.000    2.500    1.250    1.875    0.000    5.250 
#    0.000    3.750    0.000    3.375    0.000    0.000 
#    0.000    0.000    0.000    0.000    0.000    0.000 
#
# Total GULP energy -178768.225726 kJ/mol
# GULP energy per Si atom -5586.507054 kJ/mol
# Density = 2.225163 g / cm^3
# Si number density = 22.302387 Si / 1000 Ang^3
#
#
#
# Elastic Constant Matrix: (Units=GPa)
#
#
# Indices 1 2 3 4 5 6 
#
# 1 161.4568 -3.2025 14.5863 0.0000 0.1076 0.0000
# 2 -3.2025 73.8739 -3.3707 0.0000 -4.1495 0.0000
# 3 14.5863 -3.3707 16.3132 0.0000 1.5852 0.0000
# 4 0.0000 0.0000 0.0000 11.0018 0.0000 5.4223
# 5 0.1076 -4.1495 1.5852 0.0000 26.6925 0.0000
# 6 0.0000 0.0000 0.0000 5.4223 0.0000 11.8815
#
#
#
# Elastic Compliance Matrix: (Units=1/GPa)
#
#
# Indices 1 2 3 4 5 6 
#
# 1 0.006741 0.000035 -0.006053 0.000000 0.000338 0.000000
# 2 0.000035 0.013769 0.002621 0.000000 0.001985 0.000000
# 3 -0.006053 0.002621 0.067602 0.000000 -0.003583 0.000000
# 4 0.000000 0.000000 0.000000 0.117270 0.000000 -0.053518
# 5 0.000338 0.001985 -0.003583 0.000000 0.037984 0.000000
# 6 0.000000 0.000000 0.000000 -0.053518 0.000000 0.108588
#
#
# Mechanical properties :
#
#
# Convention : Reuss Voigt Hill
#
# Bulk Modulus (GPa) = 12.29741 29.74113 21.01927
# Shear Modulus (GPa) = 12.95828 26.15722 19.55775
#
# Velocity S-wave (km/s) = 2.41306 3.42840 2.96452
# Velocity P-wave (km/s) = 3.64551 5.38853 4.60032
#
# Compressibility (1/GPa) = 0.08131793
#
# Stress axis : x y z
#
# Youngs Moduli (GPa) = 148.34800 72.62608 14.79248
#
# Poissons Ratio (x) = -0.00254 0.08954
# Poissons Ratio (y) = -0.00519 -0.03877
# Poissons Ratio (z) = 0.89794 -0.19034
#
# Static dielectric constant tensor:
#      x y z
#    x 1.807870 0.000000 -0.009070 
#    y 0.000000 1.857650 0.000000 
#    z -0.009070 0.000000 1.783270 
# 
# From -- ./inp_files/58185.got.cif
#   From: 2010.05.17/outbox.cif.g08.bks.cpg/sg10_30_cif.got.tgz:58185.got - 2010.06.03 11:33:40.
