data_PCOD9149660
_publ_section_title
;
Structure prediction by ZEFSAII (Michael W. Deem and Ramdas Pophale) SiO2 
 PCOD9149660
Probable space group: P 2/M
;
_chemical_formula_sum "Si O2"
_cell_formula_units_Z 25
_cell_length_a 14.849500
_cell_length_b 12.605425
_cell_length_c 12.874617
_cell_angle_alpha 90.000000
_cell_angle_beta 151.394087
_cell_angle_gamma 90.000000
_cell_volume 1153.830136
_symmetry_space_group_name_H-M "P 2/M"
_symmetry_group_IT_number 10
_symmetry_cell_setting 'monoclinic'
loop_
_space_group_symop_operation_xyz
x,y,z
-x,y,-z
-x,-y,-z
x,-y,z
loop_
_atom_site_type_symbol
_atom_site_label
_atom_site_fract_x
_atom_site_fract_y
_atom_site_fract_z
Si Si1 0.814195 0.622848 0.631162
Si Si2 0.500000 0.500000 0.500000
Si Si3 0.933860 0.809194 0.043137
Si Si4 0.031286 0.878940 0.692742
Si Si5 0.234990 0.694901 0.641168
Si Si6 0.607120 0.678870 0.754302
Si Si7 0.320744 0.701202 0.948033
O O1 0.789820 0.500000 0.639902
O O2 0.840860 0.627729 0.533172
O O3 0.616536 0.682218 0.452455
O O4 0.971004 0.692471 0.845637
O O5 0.624898 0.591621 0.685086
O O6 0.993346 0.871019 0.207065
O O7 0.711588 0.785157 0.824737
O O8 0.000000 0.852935 0.000000
O O9 0.870707 0.807147 0.477200
O O10 0.031858 0.000000 0.660442
O O11 0.223745 0.815701 0.863756
O O12 0.457679 0.708577 0.848409
O O13 0.223227 0.652379 0.747115
O O14 0.694347 0.646584 0.954872
#
# Coordination Sequence:
#
# PCOD9149660 Si02
#       7
#     4   1   4   4   4   4   4
#     4  10  20  35  54  81 112 146 188 225 268 324
#     4  12  20  32  54  78 104 142 190 218 260 308
#     4  10  22  37  56  79 111 148 183 232 281 320
#     4  10  21  37  59  83 110 143 184 231 281 334
#     4   9  19  36  56  80 113 146 180 226 275 326
#     4  10  21  35  52  78 111 143 182 232 264 317
#     4   9  19  37  55  78 114 144 178 224 278 326
#
# _framework density 21.666965999999999
#
# number of rings (size 3 to 8) (size 9 to 14) (size 15 to 20)
#    0.000    2.240    0.800    1.440    1.120    2.560 
#    1.440    3.200    0.000    2.880    0.000   11.200 
#    0.000    0.000    0.000    0.000    0.000    0.000 
#
# Total GULP energy -139177.048054 kJ/mol
# GULP energy per Si atom -5567.081922 kJ/mol
# Density = 2.161765 g / cm^3
# Si number density = 21.666966 Si / 1000 Ang^3
#
#
#
# Elastic Constant Matrix: (Units=GPa)
#
#
# Indices 1 2 3 4 5 6 
#
# 1 92.2614 -4.1484 23.6163 0.0000 -29.9932 0.0000
# 2 -4.1484 45.8032 23.2585 0.0000 -3.6649 0.0000
# 3 23.6163 23.2585 81.9485 0.0000 -16.7006 0.0000
# 4 0.0000 0.0000 0.0000 -8.1636 0.0000 2.7026
# 5 -29.9932 -3.6649 -16.7006 0.0000 45.2101 0.0000
# 6 0.0000 0.0000 0.0000 2.7026 0.0000 9.5806
#
#
#
# Elastic Compliance Matrix: (Units=1/GPa)
#
#
# Indices 1 2 3 4 5 6 
#
# 1 0.014786 0.003851 -0.003559 0.000000 0.008807 0.000000
# 2 0.003851 0.026530 -0.008306 0.000000 0.001637 0.000000
# 3 -0.003559 -0.008306 0.016186 0.000000 0.002944 0.000000
# 4 0.000000 0.000000 0.000000 -0.112033 0.000000 0.031604
# 5 0.008807 0.001637 0.002944 0.000000 0.029182 0.000000
# 6 0.000000 0.000000 0.000000 0.031604 0.000000 0.095462
#
#
# Mechanical properties :
#
#
# Convention : Reuss Voigt Hill
#
# Bulk Modulus (GPa) = 24.11155 33.94065 29.02610
# Shear Modulus (GPa) = 50.01687 21.14453 35.58070
#
# Velocity S-wave (km/s) = 4.80983 3.12731 4.05676
# Velocity P-wave (km/s) = 6.48062 5.36086 5.94715
#
# Compressibility (1/GPa) = 0.04147390
#
# Stress axis : x y z
#
# Youngs Moduli (GPa) = 67.63160 37.69317 61.78190
#
# Poissons Ratio (x) = -0.14517 0.21991
# Poissons Ratio (y) = -0.26047 0.51315
# Poissons Ratio (z) = 0.24073 0.31307
#
# Static dielectric constant tensor:
#      x y z
#    x 1.558950 0.000000 0.011130 
#    y 0.000000 1.702380 0.000000 
#    z 0.011130 0.000000 1.799570 
# 
# From -- ./inp_files/51728.got.cif
#   From: 2010.05.17/outbox.cif.g08.bks.cpg/sg10_26_cif.got.tgz:51728.got - 2010.06.03 11:33:40.
