data_PCOD9149230
_publ_section_title
;
Structure prediction by ZEFSAII (Michael W. Deem and Ramdas Pophale) SiO2 
 PCOD9149230
Probable space group: P 2/M
;
_chemical_formula_sum "Si O2"
_cell_formula_units_Z 32
_cell_length_a 13.130677
_cell_length_b 7.437566
_cell_length_c 15.498904
_cell_angle_alpha 90.000000
_cell_angle_beta 59.223522
_cell_angle_gamma 90.000000
_cell_volume 1300.463184
_symmetry_space_group_name_H-M "P 2/M"
_symmetry_group_IT_number 10
_symmetry_cell_setting 'monoclinic'
loop_
_space_group_symop_operation_xyz
x,y,z
-x,y,-z
-x,-y,-z
x,-y,z
loop_
_atom_site_type_symbol
_atom_site_label
_atom_site_fract_x
_atom_site_fract_y
_atom_site_fract_z
Si Si1 0.159187 0.796183 0.028140
Si Si2 0.595132 0.217270 0.765717
Si Si3 0.936753 0.288221 0.440479
Si Si4 0.034345 0.783402 0.760028
Si Si5 0.332284 0.202505 0.451311
Si Si6 0.691011 0.219693 0.354860
Si Si7 0.365864 0.707824 0.065039
Si Si8 0.656828 0.219298 0.180164
O O1 0.050173 0.713044 0.127568
O O2 0.266729 0.801387 0.050852
O O3 0.124153 0.000000 0.019996
O O4 0.221621 0.716203 0.916318
O O5 0.638839 0.283822 0.653768
O O6 0.661543 0.283908 0.821212
O O7 0.456624 0.269449 0.827336
O O8 0.604220 0.000000 0.762976
O O9 0.913296 0.500000 0.461053
O O10 0.810367 0.194225 0.484333
O O11 0.000000 0.224082 0.500000
O O12 0.005011 0.263502 0.320430
O O13 0.170706 0.725618 0.709971
O O14 0.032211 0.000000 0.766336
O O15 0.362957 0.283749 0.531115
O O16 0.384091 0.000000 0.427416
O O17 0.636203 0.274944 0.287696
O O18 0.688010 0.000000 0.360109
O O19 0.368228 0.500000 0.037088
O O20 0.500000 0.783014 0.000000
O O21 0.662069 0.000000 0.177855
#
# Coordination Sequence:
#
# PCOD9149230 Si02
#       8
#     4   4   4   4   4   4   4   4
#     4  10  20  34  54  81 109 140 177 217 262 313
#     4  10  20  34  54  81 109 140 177 217 262 313
#     4  10  21  35  51  73 102 137 178 222 264 312
#     4   9  19  34  53  78 107 138 174 216 263 313
#     4   9  19  34  53  78 107 138 174 216 263 313
#     4   8  15  31  52  78 110 139 171 215 262 310
#     4  11  23  37  53  74 105 144 179 221 268 310
#     4   9  17  30  53  81 109 140 174 215 261 310
#
# _framework density 24.606619999999999
#
# number of rings (size 3 to 8) (size 9 to 14) (size 15 to 20)
#    0.000    2.500    1.250    1.500    1.750    3.500 
#    0.000    5.000    0.000    6.000    0.000    8.750 
#    0.000    0.000    0.000    0.000    0.000    0.000 
#
# Total GULP energy -178756.034440 kJ/mol
# GULP energy per Si atom -5586.126076 kJ/mol
# Density = 2.455061 g / cm^3
# Si number density = 24.606620 Si / 1000 Ang^3
#
#
#
# Elastic Constant Matrix: (Units=GPa)
#
#
# Indices 1 2 3 4 5 6 
#
# 1 46.4231 -4.2011 -2.9454 0.0000 18.0129 0.0000
# 2 -4.2011 89.4425 -2.0403 0.0000 -1.3788 0.0000
# 3 -2.9454 -2.0403 135.5211 0.0000 16.2098 0.0000
# 4 0.0000 0.0000 0.0000 29.1831 0.0000 36.3500
# 5 18.0129 -1.3788 16.2098 0.0000 44.2433 0.0000
# 6 0.0000 0.0000 0.0000 36.3500 0.0000 20.8773
#
#
#
# Elastic Compliance Matrix: (Units=1/GPa)
#
#
# Indices 1 2 3 4 5 6 
#
# 1 0.026158 0.001098 0.001940 0.000000 -0.011326 0.000000
# 2 0.001098 0.011234 0.000214 0.000000 -0.000175 0.000000
# 3 0.001940 0.000214 0.007863 0.000000 -0.003664 0.000000
# 4 0.000000 0.000000 0.000000 -0.029320 0.000000 0.051049
# 5 -0.011326 -0.000175 -0.003664 0.000000 0.028550 0.000000
# 6 0.000000 0.000000 0.000000 0.051049 0.000000 -0.040984
#
#
# Mechanical properties :
#
#
# Convention : Reuss Voigt Hill
#
# Bulk Modulus (GPa) = 19.32022 28.11254 23.71638
# Shear Modulus (GPa) = 350.85752 37.56564 194.21158
#
# Velocity S-wave (km/s) = 11.95392 3.91147 8.89370
# Velocity P-wave (km/s) = 14.08534 5.64350 10.72954
#
# Compressibility (1/GPa) = 0.05175923
#
# Stress axis : x y z
#
# Youngs Moduli (GPa) = 38.22874 89.01440 127.18545
#
# Poissons Ratio (x) = -0.09776 -0.24672
# Poissons Ratio (y) = -0.04199 -0.02722
# Poissons Ratio (z) = -0.07416 -0.01905
#
# Static dielectric constant tensor:
#      x y z
#    x 1.915390 0.000000 -0.004010 
#    y 0.000000 1.948270 0.000000 
#    z -0.004010 0.000000 2.005840 
# 
# From -- ./inp_files/66500.got.cif
#   From: 2010.05.17/outbox.cif.g08.bks.cpg/sg10_34_cif.got.tgz:66500.got - 2010.06.03 11:33:40.
