data_PCOD9149719
_publ_section_title
;
Structure prediction by ZEFSAII (Michael W. Deem and Ramdas Pophale) SiO2 
 PCOD9149719
Probable space group: P 2/M
;
_chemical_formula_sum "Si O2"
_cell_formula_units_Z 28
_cell_length_a 28.967351
_cell_length_b 9.020649
_cell_length_c 9.113386
_cell_angle_alpha 90.000000
_cell_angle_beta 140.226907
_cell_angle_gamma 90.000000
_cell_volume 1523.476756
_symmetry_space_group_name_H-M "P 2/M"
_symmetry_group_IT_number 10
_symmetry_cell_setting 'monoclinic'
loop_
_space_group_symop_operation_xyz
x,y,z
-x,y,-z
-x,-y,-z
x,-y,z
loop_
_atom_site_type_symbol
_atom_site_label
_atom_site_fract_x
_atom_site_fract_y
_atom_site_fract_z
Si Si1 0.849061 0.330176 0.790469
Si Si2 0.298186 0.177265 0.595416
Si Si3 0.006108 0.169717 0.836138
Si Si4 0.573059 0.175782 0.585361
Si Si5 0.298515 0.320869 0.918831
Si Si6 0.426652 0.675036 0.728231
Si Si7 0.862016 0.669729 0.465473
O O1 0.837072 0.500000 0.805963
O O2 0.779673 0.230480 0.654446
O O3 0.856453 0.329118 0.630317
O O4 0.924263 0.266729 0.033605
O O5 0.305968 0.248452 0.776354
O O6 0.361630 0.243244 0.651818
O O7 0.301523 0.000000 0.612181
O O8 0.930456 0.231744 0.592169
O O9 0.017231 0.000000 0.820865
O O10 0.000000 0.174257 0.000000
O O11 0.500000 0.194756 0.500000
O O12 0.562786 0.250019 0.402919
O O13 0.587265 0.000000 0.606689
O O14 0.639189 0.256047 0.827802
O O15 0.302604 0.500000 0.916445
O O16 0.217840 0.283829 0.779840
O O17 0.410627 0.500000 0.674253
O O18 0.500000 0.690196 0.000000
O O19 0.875202 0.500000 0.453130
#
# Coordination Sequence:
#
# PCOD9149719 Si02
#       7
#     4   4   4   4   4   4   4
#     4   9  16  27  43  65  98 138 178 218 263 316
#     4  11  21  34  54  80 111 143 179 225 274 321
#     4   9  15  22  36  62  96 133 173 217 265 313
#     4  11  24  40  59  84 112 141 175 219 270 319
#     4  10  20  35  55  79 109 145 184 223 267 322
#     4  11  24  41  61  83 108 141 180 219 263 320
#     4   8  15  26  41  64  96 135 175 216 262 311
#
# _framework density 18.379013
#
# number of rings (size 3 to 8) (size 9 to 14) (size 15 to 20)
#    0.000    2.143    0.000    5.143    0.000   10.286 
#    0.000    0.000    0.000    0.000    0.000    1.000 
#    0.000    8.000    0.000    0.000    0.000    0.000 
#
# Total GULP energy -156282.732293 kJ/mol
# GULP energy per Si atom -5581.526153 kJ/mol
# Density = 1.833718 g / cm^3
# Si number density = 18.379013 Si / 1000 Ang^3
#
#
#
# Elastic Constant Matrix: (Units=GPa)
#
#
# Indices 1 2 3 4 5 6 
#
# 1 66.6993 61.0066 52.0411 0.0000 11.7791 0.0000
# 2 61.0066 148.6451 81.6261 0.0000 20.1871 0.0000
# 3 52.0411 81.6261 118.6483 0.0000 24.7151 0.0000
# 4 0.0000 0.0000 0.0000 20.7000 0.0000 4.2198
# 5 11.7791 20.1871 24.7151 0.0000 23.9977 0.0000
# 6 0.0000 0.0000 0.0000 4.2198 0.0000 23.0966
#
#
#
# Elastic Compliance Matrix: (Units=1/GPa)
#
#
# Indices 1 2 3 4 5 6 
#
# 1 0.027024 -0.007361 -0.006768 0.000000 -0.000102 0.000000
# 2 -0.007361 0.012880 -0.005256 0.000000 -0.001809 0.000000
# 3 -0.006768 -0.005256 0.017059 0.000000 -0.009826 0.000000
# 4 0.000000 0.000000 0.000000 0.050178 0.000000 -0.009168
# 5 -0.000102 -0.001809 -0.009826 0.000000 0.053363 0.000000
# 6 0.000000 0.000000 0.000000 -0.009168 0.000000 0.044971
#
#
# Mechanical properties :
#
#
# Convention : Reuss Voigt Hill
#
# Bulk Modulus (GPa) = 54.96091 80.37114 67.66602
# Shear Modulus (GPa) = 19.97532 22.84679 21.41106
#
# Velocity S-wave (km/s) = 3.30032 3.52958 3.41687
# Velocity P-wave (km/s) = 6.67023 7.77402 7.24318
#
# Compressibility (1/GPa) = 0.01819475
#
# Stress axis : x y z
#
# Youngs Moduli (GPa) = 37.00466 77.63862 58.61864
#
# Poissons Ratio (x) = 0.57147 0.39672
# Poissons Ratio (y) = 0.27238 0.30809
# Poissons Ratio (z) = 0.25044 0.40805
#
# Static dielectric constant tensor:
#      x y z
#    x 1.621060 0.000000 -0.000400 
#    y 0.000000 1.613200 0.000000 
#    z -0.000400 0.000000 1.638270 
# 
# From -- ./inp_files/37276.got.cif
#   From: 2010.05.17/outbox.cif.g08.bks.cpg/sg10_19_cif.got.tgz:37276.got - 2010.06.03 11:33:40.
