data_PCOD9149469
_publ_section_title
;
Structure prediction by ZEFSAII (Michael W. Deem and Ramdas Pophale) SiO2 
 PCOD9149469
Probable space group: P 2/M
;
_chemical_formula_sum "Si O2"
_cell_formula_units_Z 32
_cell_length_a 23.403882
_cell_length_b 7.522479
_cell_length_c 14.542610
_cell_angle_alpha 90.000000
_cell_angle_beta 146.793366
_cell_angle_gamma 90.000000
_cell_volume 1402.175409
_symmetry_space_group_name_H-M "P 2/M"
_symmetry_group_IT_number 10
_symmetry_cell_setting 'monoclinic'
loop_
_space_group_symop_operation_xyz
x,y,z
-x,y,-z
-x,-y,-z
x,-y,z
loop_
_atom_site_type_symbol
_atom_site_label
_atom_site_fract_x
_atom_site_fract_y
_atom_site_fract_z
Si Si1 0.508830 0.290290 0.757589
Si Si2 0.987876 0.218072 0.377815
Si Si3 0.271180 0.287992 0.449510
Si Si4 0.401339 0.785480 0.926307
Si Si5 0.823385 0.791884 0.014343
Si Si6 0.596607 0.798220 0.684125
Si Si7 0.192738 0.786662 0.545709
Si Si8 0.101244 0.284687 0.078935
O O1 0.503509 0.500000 0.729994
O O2 0.390386 0.222254 0.614368
O O3 0.561351 0.198296 0.741953
O O4 0.577015 0.264662 0.940176
O O5 0.086622 0.276855 0.449785
O O6 0.000000 0.272892 0.500000
O O7 0.883816 0.279117 0.184614
O O8 0.986276 0.000000 0.375300
O O9 0.277681 0.500000 0.448514
O O10 0.210436 0.254063 0.462617
O O11 0.203625 0.221866 0.272461
O O12 0.293811 0.720362 0.737668
O O13 0.400072 0.000000 0.919403
O O14 0.500000 0.721323 0.000000
O O15 0.803604 0.000000 0.006895
O O16 0.710989 0.712717 0.836422
O O17 0.895494 0.777670 0.021458
O O18 0.500000 0.712500 0.500000
O O19 0.606898 0.000000 0.660127
O O20 0.191450 0.000000 0.551819
O O21 0.101165 0.500000 0.077114
O O22 0.000000 0.227810 0.000000
#
# Coordination Sequence:
#
# PCOD9149469 Si02
#       8
#     4   4   4   4   4   4   4   4
#     4  11  23  36  55  82 112 148 187 226 277 335
#     4   9  19  35  56  82 110 142 182 228 277 327
#     4  10  21  36  54  80 113 146 178 222 276 330
#     4  10  20  35  55  82 112 144 184 231 280 331
#     4  10  21  37  59  85 111 144 186 233 279 323
#     4  10  22  39  59  84 114 148 187 232 280 330
#     4  10  20  34  57  83 108 144 186 228 276 326
#     4  10  21  37  58  82 111 148 183 220 276 334
#
# _framework density 22.821680000000001
#
# number of rings (size 3 to 8) (size 9 to 14) (size 15 to 20)
#    0.000    2.000    1.250    1.875    1.750    2.750 
#    0.000    0.000    0.000    0.750    0.000    0.000 
#    0.000    0.000    0.000    0.000    0.000    0.000 
#
# Total GULP energy -178886.894693 kJ/mol
# GULP energy per Si atom -5590.215459 kJ/mol
# Density = 2.276974 g / cm^3
# Si number density = 22.821680 Si / 1000 Ang^3
#
#
#
# Elastic Constant Matrix: (Units=GPa)
#
#
# Indices 1 2 3 4 5 6 
#
# 1 98.9622 -11.5373 34.4116 0.0000 -8.3945 0.0000
# 2 -11.5373 62.7777 5.8451 0.0000 5.9302 0.0000
# 3 34.4116 5.8451 149.2043 0.0000 -12.1449 0.0000
# 4 0.0000 0.0000 0.0000 -10.0844 0.0000 -7.2416
# 5 -8.3945 5.9302 -12.1449 0.0000 43.3953 0.0000
# 6 0.0000 0.0000 0.0000 -7.2416 0.0000 36.8615
#
#
#
# Elastic Compliance Matrix: (Units=1/GPa)
#
#
# Indices 1 2 3 4 5 6 
#
# 1 0.011372 0.002224 -0.002615 0.000000 0.001164 0.000000
# 2 0.002224 0.016674 -0.001347 0.000000 -0.002225 0.000000
# 3 -0.002615 -0.001347 0.007503 0.000000 0.001778 0.000000
# 4 0.000000 0.000000 0.000000 -0.086903 0.000000 -0.017073
# 5 0.001164 -0.002225 0.001778 0.000000 0.024071 0.000000
# 6 0.000000 0.000000 0.000000 -0.017073 0.000000 0.023775
#
#
# Mechanical properties :
#
#
# Convention : Reuss Voigt Hill
#
# Bulk Modulus (GPa) = 31.18085 40.93144 36.05615
# Shear Modulus (GPa) = 469.10020 32.84948 250.97484
#
# Velocity S-wave (km/s) = 14.35258 3.79806 10.49814
# Velocity P-wave (km/s) = 16.98100 6.09983 12.75857
#
# Compressibility (1/GPa) = 0.03207097
#
# Stress axis : x y z
#
# Youngs Moduli (GPa) = 87.93382 59.97535 133.28243
#
# Poissons Ratio (x) = -0.13336 0.34856
# Poissons Ratio (y) = -0.19552 0.17955
# Poissons Ratio (z) = 0.22996 0.08080
#
# Static dielectric constant tensor:
#      x y z
#    x 1.810020 0.000000 0.008180 
#    y 0.000000 1.866250 0.000000 
#    z 0.008180 0.000000 1.880180 
# 
# From -- ./inp_files/71495.got.cif
#   From: 2010.05.17/outbox.cif.g08.bks.cpg/sg10_36_cif.got.tgz:71495.got - 2010.06.03 11:33:40.
