data_PCOD9149722
_publ_section_title
;
Structure prediction by ZEFSAII (Michael W. Deem and Ramdas Pophale) SiO2 
 PCOD9149722
Probable space group: P 2/M
;
_chemical_formula_sum "Si O2"
_cell_formula_units_Z 28
_cell_length_a 8.620093
_cell_length_b 8.229319
_cell_length_c 26.515333
_cell_angle_alpha 90.000000
_cell_angle_beta 141.065962
_cell_angle_gamma 90.000000
_cell_volume 1182.024785
_symmetry_space_group_name_H-M "P 2/M"
_symmetry_group_IT_number 10
_symmetry_cell_setting 'monoclinic'
loop_
_space_group_symop_operation_xyz
x,y,z
-x,y,-z
-x,-y,-z
x,-y,z
loop_
_atom_site_type_symbol
_atom_site_label
_atom_site_fract_x
_atom_site_fract_y
_atom_site_fract_z
Si Si1 0.325396 0.184036 0.886742
Si Si2 0.568682 0.687380 0.447267
Si Si3 0.274499 0.317248 0.091796
Si Si4 0.439773 0.813627 0.656177
Si Si5 0.040391 0.689305 0.623216
Si Si6 0.884275 0.195651 0.838364
Si Si7 0.965471 0.690085 0.716411
O O1 0.550076 0.255696 0.909903
O O2 0.167171 0.252736 0.895460
O O3 0.107893 0.197432 0.790562
O O4 0.395604 0.000000 0.916631
O O5 0.514889 0.500000 0.445802
O O6 0.676211 0.709894 0.418686
O O7 0.301276 0.758668 0.366760
O O8 0.763113 0.744240 0.537631
O O9 0.360331 0.500000 0.124138
O O10 0.230870 0.235462 0.135836
O O11 0.000000 0.317456 0.000000
O O12 0.233079 0.804453 0.646123
O O13 0.687616 0.746188 0.745894
O O14 0.476108 0.000000 0.649871
O O15 0.056921 0.500000 0.610177
O O16 0.098775 0.687543 0.696654
O O17 0.893419 0.000000 0.836971
O O18 0.950971 0.500000 0.730293
#
# Coordination Sequence:
#
# PCOD9149722 Si02
#       7
#     4   4   4   4   4   4   4
#     4  11  23  42  68  97 131 169 211 258 310 374
#     4  10  20  35  55  79 112 154 201 255 310 365
#     4  11  26  46  69 101 135 164 202 253 307 370
#     4  11  22  37  55  81 116 153 202 254 302 362
#     4  10  21  35  52  79 114 155 204 257 313 367
#     4  10  23  43  67  95 129 171 213 256 309 374
#     4  10  20  36  59  85 114 154 205 257 309 364
#
# _framework density 23.688165000000001
#
# number of rings (size 3 to 8) (size 9 to 14) (size 15 to 20)
#    0.000    1.571    1.429    3.000    0.000   10.857 
#    0.000    2.857    0.000    2.571    0.000    0.000 
#    0.000    0.000    0.000    0.000    0.000    0.000 
#
# Total GULP energy -156024.375320 kJ/mol
# GULP energy per Si atom -5572.299119 kJ/mol
# Density = 2.363425 g / cm^3
# Si number density = 23.688165 Si / 1000 Ang^3
#
#
#
# Elastic Constant Matrix: (Units=GPa)
#
#
# Indices 1 2 3 4 5 6 
#
# 1 108.4665 30.6527 25.9594 0.0000 13.2851 0.0000
# 2 30.6527 46.6581 3.7814 0.0000 -4.2655 0.0000
# 3 25.9594 3.7814 57.1913 0.0000 -1.7112 0.0000
# 4 0.0000 0.0000 0.0000 29.7121 0.0000 0.8327
# 5 13.2851 -4.2655 -1.7112 0.0000 47.6762 0.0000
# 6 0.0000 0.0000 0.0000 0.8327 0.0000 31.8036
#
#
#
# Elastic Compliance Matrix: (Units=1/GPa)
#
#
# Indices 1 2 3 4 5 6 
#
# 1 0.013741 -0.009001 -0.005787 0.000000 -0.004842 0.000000
# 2 -0.009001 0.027614 0.002411 0.000000 0.005065 0.000000
# 3 -0.005787 0.002411 0.020029 0.000000 0.002547 0.000000
# 4 0.000000 0.000000 0.000000 0.033681 0.000000 -0.000882
# 5 -0.004842 0.005065 0.002547 0.000000 0.022869 0.000000
# 6 0.000000 0.000000 0.000000 -0.000882 0.000000 0.031466
#
#
# Mechanical properties :
#
#
# Convention : Reuss Voigt Hill
#
# Bulk Modulus (GPa) = 27.29993 37.01144 32.15569
# Shear Modulus (GPa) = 26.82944 31.96654 29.39799
#
# Velocity S-wave (km/s) = 3.36908 3.67750 3.52666
# Velocity P-wave (km/s) = 5.16565 5.80434 5.49429
#
# Compressibility (1/GPa) = 0.03663013
#
# Stress axis : x y z
#
# Youngs Moduli (GPa) = 72.77380 36.21414 49.92846
#
# Poissons Ratio (x) = 0.32597 0.28893
# Poissons Ratio (y) = 0.65505 -0.12040
# Poissons Ratio (z) = 0.42114 -0.08733
#
# Static dielectric constant tensor:
#      x y z
#    x 2.098870 0.000000 0.018130 
#    y 0.000000 1.877260 0.000000 
#    z 0.018130 0.000000 1.897750 
# 
# From -- ./inp_files/92059.got.cif
#   From: 2010.05.17/outbox.cif.g08.bks.cpg/sg10_47_cif.got.tgz:92059.got - 2010.06.03 11:33:40.
