data_PCOD9149102
_publ_section_title
;
Structure prediction by ZEFSAII (Michael W. Deem and Ramdas Pophale) SiO2 
 PCOD9149102
Probable space group: P 2/M
;
_chemical_formula_sum "Si O2"
_cell_formula_units_Z 28
_cell_length_a 34.807176
_cell_length_b 9.443098
_cell_length_c 29.257749
_cell_angle_alpha 90.000000
_cell_angle_beta 170.411182
_cell_angle_gamma 90.000000
_cell_volume 1601.907532
_symmetry_space_group_name_H-M "P 2/M"
_symmetry_group_IT_number 10
_symmetry_cell_setting 'monoclinic'
loop_
_space_group_symop_operation_xyz
x,y,z
-x,y,-z
-x,-y,-z
x,-y,z
loop_
_atom_site_type_symbol
_atom_site_label
_atom_site_fract_x
_atom_site_fract_y
_atom_site_fract_z
Si Si1 0.625235 0.337160 0.692440
Si Si2 0.942214 0.829147 0.219094
Si Si3 0.591213 0.833276 0.405741
Si Si4 0.210787 0.337161 0.277992
Si Si5 0.981402 0.166724 0.795929
Si Si6 0.202528 0.328629 0.702523
Si Si7 0.739071 0.671327 0.334698
O O1 0.500000 0.281150 0.500000
O O2 0.694715 0.500000 0.764423
O O3 0.434794 0.337414 0.508712
O O4 0.839194 0.249251 0.961838
O O5 0.005299 0.789835 0.241067
O O6 0.100561 0.748533 0.440779
O O7 0.965017 0.000000 0.251021
O O8 0.673568 0.789826 0.909332
O O9 0.725971 0.750749 0.603328
O O10 0.729002 0.813207 0.520608
O O11 0.593688 0.000000 0.420382
O O12 0.153808 0.500000 0.223513
O O13 0.000000 0.281143 0.000000
O O14 0.039773 0.000000 0.866470
O O15 0.194480 0.500000 0.694475
O O16 0.182289 0.289619 0.624933
O O17 0.000000 0.278487 0.500000
O O18 0.469058 0.289622 0.026402
O O19 0.754855 0.500000 0.356798
#
# Coordination Sequence:
#
# PCOD9149102 Si02
#       7
#     4   4   4   4   4   4   4
#     4  10  20  34  53  77 104 132 166 215 274 327
#     4  10  21  37  53  74 110 144 174 220 270 312
#     4  10  21  37  55  74  99 137 180 218 262 318
#     4  10  20  34  53  77 104 132 166 215 274 327
#     4  10  21  37  55  74  99 137 180 218 262 318
#     4   8  15  31  54  80 112 142 172 216 260 300
#     4   9  18  32  54  82 106 138 182 216 252 310
#
# _framework density 17.479161000000001
#
# number of rings (size 3 to 8) (size 9 to 14) (size 15 to 20)
#    0.000    2.429    1.429    1.714    0.000    4.571 
#    0.000    1.429    0.000    0.857    0.000    0.000 
#    0.000    0.000    0.000    0.000    0.000    0.000 
#
# Total GULP energy -156109.233581 kJ/mol
# GULP energy per Si atom -5575.329771 kJ/mol
# Density = 1.743938 g / cm^3
# Si number density = 17.479161 Si / 1000 Ang^3
#
#
#
# Elastic Constant Matrix: (Units=GPa)
#
#
# Indices 1 2 3 4 5 6 
#
# 1 130.3913 43.8249 95.8890 0.0000 -0.6055 0.0000
# 2 43.8249 26.4541 50.7990 0.0000 -6.5273 0.0000
# 3 95.8890 50.7990 147.2177 0.0000 -15.1816 0.0000
# 4 0.0000 0.0000 0.0000 57.6160 0.0000 -8.6486
# 5 -0.6055 -6.5273 -15.1816 0.0000 31.1809 0.0000
# 6 0.0000 0.0000 0.0000 -8.6486 0.0000 48.3527
#
#
#
# Elastic Compliance Matrix: (Units=1/GPa)
#
#
# Indices 1 2 3 4 5 6 
#
# 1 0.019596 -0.024616 -0.005014 0.000000 -0.007214 0.000000
# 2 -0.024616 0.143671 -0.032101 0.000000 0.013968 0.000000
# 3 -0.005014 -0.032101 0.021512 0.000000 0.003657 0.000000
# 4 0.000000 0.000000 0.000000 0.017835 0.000000 0.003190
# 5 -0.007214 0.013968 0.003657 0.000000 0.036635 0.000000
# 6 0.000000 0.000000 0.000000 0.003190 0.000000 0.021252
#
#
# Mechanical properties :
#
#
# Convention : Reuss Voigt Hill
#
# Bulk Modulus (GPa) = 16.30861 76.12100 46.21480
# Shear Modulus (GPa) = 12.36387 34.99993 23.68190
#
# Velocity S-wave (km/s) = 2.66249 4.47965 3.68484
# Velocity P-wave (km/s) = 4.33617 8.39050 6.67843
#
# Compressibility (1/GPa) = 0.06131731
#
# Stress axis : x y z
#
# Youngs Moduli (GPa) = 51.02968 6.96033 46.48510
#
# Poissons Ratio (x) = 0.17134 0.23306
# Poissons Ratio (y) = 1.25617 1.49223
# Poissons Ratio (z) = 0.25585 0.22344
#
# Static dielectric constant tensor:
#      x y z
#    x 1.606210 0.000000 0.026190 
#    y 0.000000 1.587800 0.000000 
#    z 0.026190 0.000000 1.578190 
# 
# From -- ./inp_files/91450.got.cif
#   From: 2010.05.17/outbox.cif.g08.bks.cpg/sg10_46_cif.got.tgz:91450.got - 2010.06.03 11:33:40.
