data_PCOD9149460
_publ_section_title
;
Structure prediction by ZEFSAII (Michael W. Deem and Ramdas Pophale) SiO2 
 PCOD9149460
Probable space group: P 2/M
;
_chemical_formula_sum "Si O2"
_cell_formula_units_Z 28
_cell_length_a 9.557663
_cell_length_b 10.887869
_cell_length_c 17.186740
_cell_angle_alpha 90.000000
_cell_angle_beta 50.309411
_cell_angle_gamma 90.000000
_cell_volume 1376.256081
_symmetry_space_group_name_H-M "P 2/M"
_symmetry_group_IT_number 10
_symmetry_cell_setting 'monoclinic'
loop_
_space_group_symop_operation_xyz
x,y,z
-x,y,-z
-x,-y,-z
x,-y,z
loop_
_atom_site_type_symbol
_atom_site_label
_atom_site_fract_x
_atom_site_fract_y
_atom_site_fract_z
Si Si1 0.037934 0.361490 0.395498
Si Si2 0.419069 0.864138 0.615054
Si Si3 0.688734 0.798048 0.912101
Si Si4 0.352852 0.645266 0.744182
Si Si5 0.055186 0.356247 0.069411
Si Si6 0.025564 0.868358 0.689366
Si Si7 0.562833 0.638271 0.814776
O O1 0.973117 0.500000 0.396196
O O2 0.962984 0.249769 0.370539
O O3 0.253249 0.359556 0.301891
O O4 0.000000 0.344529 0.500000
O O5 0.500000 0.852610 0.500000
O O6 0.453077 0.742187 0.652953
O O7 0.202453 0.867977 0.680325
O O8 0.476777 0.000000 0.625545
O O9 0.794059 0.730831 0.945423
O O10 0.846309 0.863099 0.806431
O O11 0.611243 0.700623 0.877696
O O12 0.500000 0.865597 0.000000
O O13 0.402899 0.500000 0.716284
O O14 0.407718 0.685193 0.812243
O O15 0.134587 0.652588 0.815356
O O16 0.110671 0.500000 0.052403
O O17 0.000000 0.327698 0.000000
O O18 0.025388 0.000000 0.646109
O O19 0.513063 0.500000 0.850483
#
# Coordination Sequence:
#
# PCOD9149460 Si02
#       7
#     4   4   4   4   4   4   4
#     4   9  19  35  57  86 120 155 193 241 296 351
#     4  10  22  40  61  84 115 156 198 244 298 354
#     4  11  21  36  59  84 116 161 197 239 297 353
#     4  10  20  36  58  87 120 152 195 248 293 346
#     4  10  20  34  56  88 121 154 196 244 294 352
#     4  10  22  40  59  85 119 154 198 248 293 350
#     4   9  19  34  53  83 121 154 190 239 295 352
#
# _framework density 20.345051999999999
#
# number of rings (size 3 to 8) (size 9 to 14) (size 15 to 20)
#    0.000    2.143    1.429    1.286    2.000    4.286 
#    0.000    2.857    0.000    3.429    0.000    0.000 
#    0.000    0.000    0.000    0.000    0.000    0.000 
#
# Total GULP energy -156028.660829 kJ/mol
# GULP energy per Si atom -5572.452172 kJ/mol
# Density = 2.029875 g / cm^3
# Si number density = 20.345052 Si / 1000 Ang^3
#
#
#
# Elastic Constant Matrix: (Units=GPa)
#
#
# Indices 1 2 3 4 5 6 
#
# 1 63.9574 34.6375 3.8985 0.0000 14.1223 0.0000
# 2 34.6375 134.8890 42.7141 0.0000 30.9001 0.0000
# 3 3.8985 42.7141 77.1618 0.0000 12.2074 0.0000
# 4 0.0000 0.0000 0.0000 41.9530 0.0000 -34.7948
# 5 14.1223 30.9001 12.2074 0.0000 18.5317 0.0000
# 6 0.0000 0.0000 0.0000 -34.7948 0.0000 41.6182
#
#
#
# Elastic Compliance Matrix: (Units=1/GPa)
#
#
# Indices 1 2 3 4 5 6 
#
# 1 0.019760 -0.003332 0.002623 0.000000 -0.011230 0.000000
# 2 -0.003332 0.013697 -0.004691 0.000000 -0.017209 0.000000
# 3 0.002623 -0.004691 0.016190 0.000000 -0.004841 0.000000
# 4 0.000000 0.000000 0.000000 0.077743 0.000000 0.064997
# 5 -0.011230 -0.017209 -0.004841 0.000000 0.094403 0.000000
# 6 0.000000 0.000000 0.000000 0.064997 0.000000 0.078368
#
#
# Mechanical properties :
#
#
# Convention : Reuss Voigt Hill
#
# Bulk Modulus (GPa) = 25.74279 48.72316 37.23298
# Shear Modulus (GPa) = 15.43635 33.40443 24.42039
#
# Velocity S-wave (km/s) = 2.75749 4.05643 3.46831
# Velocity P-wave (km/s) = 4.77691 6.77789 5.86339
#
# Compressibility (1/GPa) = 0.03884582
#
# Stress axis : x y z
#
# Youngs Moduli (GPa) = 50.60800 73.00964 61.76611
#
# Poissons Ratio (x) = 0.24327 -0.16200
# Poissons Ratio (y) = 0.16863 0.28976
# Poissons Ratio (z) = -0.13273 0.34250
#
# Static dielectric constant tensor:
#      x y z
#    x 1.717570 0.000000 -0.026720 
#    y 0.000000 1.741110 0.000000 
#    z -0.026720 0.000000 1.781610 
# 
# From -- ./inp_files/61141.got.cif
#   From: 2010.05.17/outbox.cif.g08.bks.cpg/sg10_31_cif.got.tgz:61141.got - 2010.06.03 11:33:40.
