data_PCOD9149238
_publ_section_title
;
Structure prediction by ZEFSAII (Michael W. Deem and Ramdas Pophale) SiO2 
 PCOD9149238
Probable space group: P 2/M
;
_chemical_formula_sum "Si O2"
_cell_formula_units_Z 32
_cell_length_a 11.452118
_cell_length_b 12.830476
_cell_length_c 13.106189
_cell_angle_alpha 90.000000
_cell_angle_beta 62.848514
_cell_angle_gamma 90.000000
_cell_volume 1713.558439
_symmetry_space_group_name_H-M "P 2/M"
_symmetry_group_IT_number 10
_symmetry_cell_setting 'monoclinic'
loop_
_space_group_symop_operation_xyz
x,y,z
-x,y,-z
-x,-y,-z
x,-y,z
loop_
_atom_site_type_symbol
_atom_site_label
_atom_site_fract_x
_atom_site_fract_y
_atom_site_fract_z
Si Si1 0.462318 0.619523 0.250769
Si Si2 0.048975 0.879201 0.364181
Si Si3 0.103906 0.620582 0.097978
Si Si4 0.744561 0.728352 0.798214
Si Si5 0.276350 0.261128 0.859492
Si Si6 0.356579 0.621415 0.516234
Si Si7 0.865829 0.245791 0.284554
Si Si8 0.359566 0.117246 0.000429
O O1 0.466770 0.500000 0.213986
O O2 0.390532 0.691944 0.197282
O O3 0.609865 0.656758 0.215000
O O4 0.373841 0.625097 0.387565
O O5 0.158671 0.787540 0.317239
O O6 0.000000 0.881242 0.500000
O O7 0.940669 0.838886 0.324821
O O8 0.089483 0.000000 0.323969
O O9 0.083083 0.500000 0.081012
O O10 0.197899 0.632604 0.159817
O O11 0.973854 0.677306 0.191153
O O12 0.170985 0.680509 0.975389
O O13 0.729974 0.817190 0.888769
O O14 0.212632 0.210376 0.785002
O O15 0.350346 0.174784 0.897033
O O16 0.500000 0.654892 0.500000
O O17 0.337592 0.500000 0.554439
O O18 0.238313 0.690477 0.605411
O O19 0.314241 0.000000 0.007628
O O20 0.500000 0.117647 0.000000
#
# Coordination Sequence:
#
# PCOD9149238 Si02
#       8
#     4   4   4   4   4   4   4   4
#     4  11  21  34  56  85 119 155 191 232 282 339
#     4  10  22  41  64  85 109 147 193 241 295 344
#     4  10  22  36  55  83 118 157 195 232 277 336
#     4  10  20  37  57  84 112 149 193 239 283 333
#     4  11  22  36  55  86 119 152 189 235 287 339
#     4  10  20  34  54  81 113 152 189 223 274 339
#     4  11  22  38  60  84 117 150 191 238 284 337
#     4  10  20  36  56  79 109 146 188 231 280 336
#
# _framework density 18.674589000000001
#
# number of rings (size 3 to 8) (size 9 to 14) (size 15 to 20)
#    0.000    1.625    2.500    2.625    0.000    2.500 
#    0.000    1.875    0.000   10.875    0.000    0.000 
#    0.000    0.000    0.000    0.000    0.000    0.000 
#
# Total GULP energy -178357.674924 kJ/mol
# GULP energy per Si atom -5573.677341 kJ/mol
# Density = 1.863208 g / cm^3
# Si number density = 18.674589 Si / 1000 Ang^3
#
#
#
# Elastic Constant Matrix: (Units=GPa)
#
#
# Indices 1 2 3 4 5 6 
#
# 1 70.8132 21.1049 14.6103 0.0000 10.2922 0.0000
# 2 21.1049 92.3747 26.9240 0.0000 11.0821 0.0000
# 3 14.6103 26.9240 67.9449 0.0000 0.3049 0.0000
# 4 0.0000 0.0000 0.0000 17.4446 0.0000 1.2408
# 5 10.2922 11.0821 0.3049 0.0000 31.4796 0.0000
# 6 0.0000 0.0000 0.0000 1.2408 0.0000 18.2142
#
#
#
# Elastic Compliance Matrix: (Units=1/GPa)
#
#
# Indices 1 2 3 4 5 6 
#
# 1 0.015981 -0.002412 -0.002461 0.000000 -0.004352 0.000000
# 2 -0.002412 0.013203 -0.004696 0.000000 -0.003814 0.000000
# 3 -0.002461 -0.004696 0.017098 0.000000 0.002292 0.000000
# 4 0.000000 0.000000 0.000000 0.057603 0.000000 -0.003924
# 5 -0.004352 -0.003814 0.002292 0.000000 0.034510 0.000000
# 6 0.000000 0.000000 0.000000 -0.003924 0.000000 0.055170
#
#
# Mechanical properties :
#
#
# Convention : Reuss Voigt Hill
#
# Bulk Modulus (GPa) = 36.84150 39.60126 38.22138
# Shear Modulus (GPa) = 22.54795 24.66059 23.60427
#
# Velocity S-wave (km/s) = 3.47856 3.63787 3.55910
# Velocity P-wave (km/s) = 5.99206 6.23678 6.11564
#
# Compressibility (1/GPa) = 0.02714331
#
# Stress axis : x y z
#
# Youngs Moduli (GPa) = 62.57521 75.74167 58.48761
#
# Poissons Ratio (x) = 0.18266 0.14395
# Poissons Ratio (y) = 0.15091 0.27466
# Poissons Ratio (z) = 0.15401 0.35569
#
# Static dielectric constant tensor:
#      x y z
#    x 1.695050 0.000000 -0.007600 
#    y 0.000000 1.635980 0.000000 
#    z -0.007600 0.000000 1.670980 
# 
# From -- ./inp_files/46976.got.cif
#   From: 2010.05.17/outbox.cif.g08.bks.cpg/sg10_24_cif.got.tgz:46976.got - 2010.06.03 11:33:40.
