data_PCOD9149386
_publ_section_title
;
Structure prediction by ZEFSAII (Michael W. Deem and Ramdas Pophale) SiO2 
 PCOD9149386
Probable space group: P 2/M
;
_chemical_formula_sum "Si O2"
_cell_formula_units_Z 20
_cell_length_a 10.976371
_cell_length_b 11.338778
_cell_length_c 13.325602
_cell_angle_alpha 90.000000
_cell_angle_beta 145.723514
_cell_angle_gamma 90.000000
_cell_volume 934.037836
_symmetry_space_group_name_H-M "P 2/M"
_symmetry_group_IT_number 10
_symmetry_cell_setting 'monoclinic'
loop_
_space_group_symop_operation_xyz
x,y,z
-x,y,-z
-x,-y,-z
x,-y,z
loop_
_atom_site_type_symbol
_atom_site_label
_atom_site_fract_x
_atom_site_fract_y
_atom_site_fract_z
Si Si1 0.011593 0.863244 0.387388
Si Si2 0.967077 0.626124 0.857544
Si Si3 0.488369 0.863692 0.743858
Si Si4 0.266528 0.869081 0.288544
Si Si5 0.670097 0.297412 0.037897
O O1 0.839931 0.779764 0.217851
O O2 0.000000 0.855109 0.500000
O O3 0.261874 0.831246 0.536696
O O4 0.974026 0.000000 0.333371
O O5 0.853482 0.500000 0.756205
O O6 0.185759 0.627543 0.940828
O O7 0.854952 0.751767 0.760178
O O8 0.000000 0.625667 0.000000
O O9 0.680732 0.855580 0.794066
O O10 0.464417 0.000000 0.757037
O O11 0.535406 0.787653 0.872765
O O12 0.500000 0.873489 0.500000
O O13 0.164788 0.000000 0.235419
O O14 0.500000 0.353866 0.000000
#
# Coordination Sequence:
#
# PCOD9149386 Si02
#       5
#     4   4   4   4   4
#     4  10  20  34  55  91 135 170 210 264 323 395
#     4  11  25  45  66  93 130 172 221 273 327 389
#     4  10  20  35  57  92 131 168 209 263 326 390
#     4  10  21  40  67  98 133 168 212 273 334 390
#     4  12  23  38  64  89 122 172 221 266 325 383
#
# _framework density 21.412409
#
# number of rings (size 3 to 8) (size 9 to 14) (size 15 to 20)
#    0.000    1.400    4.000    1.800    0.000    5.200 
#    0.000    0.000    0.000    0.600    0.000    0.000 
#    0.000    0.000    0.000    0.000    0.000    0.000 
#
# Total GULP energy -111662.052585 kJ/mol
# GULP energy per Si atom -5583.102629 kJ/mol
# Density = 2.136367 g / cm^3
# Si number density = 21.412409 Si / 1000 Ang^3
#
#
#
# Elastic Constant Matrix: (Units=GPa)
#
#
# Indices 1 2 3 4 5 6 
#
# 1 150.9290 47.9729 17.2869 0.0000 0.8906 0.0000
# 2 47.9729 146.2349 54.2776 0.0000 15.0774 0.0000
# 3 17.2869 54.2776 63.8046 0.0000 -0.4512 0.0000
# 4 0.0000 0.0000 0.0000 -28.3694 0.0000 -49.8436
# 5 0.8906 15.0774 -0.4512 0.0000 32.4208 0.0000
# 6 0.0000 0.0000 0.0000 -49.8436 0.0000 -109.3638
#
#
#
# Elastic Compliance Matrix: (Units=1/GPa)
#
#
# Indices 1 2 3 4 5 6 
#
# 1 0.007428 -0.002627 0.000230 0.000000 0.001021 0.000000
# 2 -0.002627 0.011718 -0.009296 0.000000 -0.005507 0.000000
# 3 0.000230 -0.009296 0.023551 0.000000 0.004644 0.000000
# 4 0.000000 0.000000 0.000000 -0.176909 0.000000 0.080628
# 5 0.001021 -0.005507 0.004644 0.000000 0.033442 0.000000
# 6 0.000000 0.000000 0.000000 0.080628 0.000000 -0.045891
#
#
# Mechanical properties :
#
#
# Convention : Reuss Voigt Hill
#
# Bulk Modulus (GPa) = 51.78372 66.67149 59.22761
# Shear Modulus (GPa) = -42.79491 -4.96706 -23.88098
#
# Velocity S-wave (km/s) = -4.47542 -1.52471 -3.34321
# Velocity P-wave (km/s) = 1.57144 5.30139 3.58018
#
# Compressibility (1/GPa) = 0.01931109
#
# Stress axis : x y z
#
# Youngs Moduli (GPa) = 134.61781 85.33694 42.46095
#
# Poissons Ratio (x) = 0.22422 -0.00976
# Poissons Ratio (y) = 0.35370 0.39470
# Poissons Ratio (z) = -0.03093 0.79326
#
# Static dielectric constant tensor:
#      x y z
#    x 1.867820 0.000000 0.035660 
#    y 0.000000 1.765800 0.000000 
#    z 0.035660 0.000000 1.764070 
# 
# From -- ./inp_files/50945.got.cif
#   From: 2010.05.17/outbox.cif.g08.bks.cpg/sg10_26_cif.got.tgz:50945.got - 2010.06.03 11:33:40.
