data_PCOD9149058
_publ_section_title
;
Structure prediction by ZEFSAII (Michael W. Deem and Ramdas Pophale) SiO2 
 PCOD9149058
Probable space group: P 2/M
;
_chemical_formula_sum "Si O2"
_cell_formula_units_Z 28
_cell_length_a 21.535373
_cell_length_b 7.342725
_cell_length_c 23.703493
_cell_angle_alpha 90.000000
_cell_angle_beta 19.251389
_cell_angle_gamma 90.000000
_cell_volume 1235.830141
_symmetry_space_group_name_H-M "P 2/M"
_symmetry_group_IT_number 10
_symmetry_cell_setting 'monoclinic'
loop_
_space_group_symop_operation_xyz
x,y,z
-x,y,-z
-x,-y,-z
x,-y,z
loop_
_atom_site_type_symbol
_atom_site_label
_atom_site_fract_x
_atom_site_fract_y
_atom_site_fract_z
Si Si1 0.467211 0.222057 0.463110
Si Si2 0.633306 0.794691 0.713886
Si Si3 0.657627 0.711297 0.821594
Si Si4 0.780342 0.222841 0.923638
Si Si5 0.853280 0.778137 0.077285
Si Si6 0.952634 0.777936 0.204863
Si Si7 0.957414 0.779571 0.654834
O O1 0.500000 0.276831 0.500000
O O2 0.644040 0.280412 0.273773
O O3 0.263333 0.281174 0.616130
O O4 0.466441 0.000000 0.463797
O O5 0.655354 0.802361 0.762872
O O6 0.828246 0.711901 0.525194
O O7 0.626298 0.000000 0.696436
O O8 0.427551 0.713136 0.880476
O O9 0.613346 0.500000 0.849148
O O10 0.853870 0.724220 0.686343
O O11 0.500000 0.785113 0.000000
O O12 0.939215 0.278213 0.831634
O O13 0.835655 0.279405 0.813094
O O14 0.773318 0.000000 0.928905
O O15 0.852580 0.000000 0.077681
O O16 0.000000 0.722870 0.000000
O O17 0.930220 0.720523 0.950720
O O18 0.950380 0.000000 0.206796
O O19 0.963449 0.000000 0.649418
#
# Coordination Sequence:
#
# PCOD9149058 Si02
#       7
#     4   4   4   4   4   4   4
#     4   9  14  20  31  47  69  99 137 183 233 278
#     4  10  20  34  53  73  96 129 165 197 241 294
#     4  11  22  35  54  79 101 124 159 202 247 287
#     4   9  18  31  44  61  88 120 158 204 238 276
#     4   9  14  20  31  47  69  99 137 183 233 278
#     4   9  16  24  35  52  75 106 146 192 236 271
#     4  10  20  34  53  73  96 129 165 197 241 294
#
# _framework density 22.656835000000001
#
# number of rings (size 3 to 8) (size 9 to 14) (size 15 to 20)
#    0.000    2.429    2.857    0.857    0.000    4.000 
#    0.000    5.714    0.000    0.000    0.000    0.000 
#    0.000    0.000    0.000    0.000    0.000    5.714 
#
# Total GULP energy -156488.401111 kJ/mol
# GULP energy per Si atom -5588.871468 kJ/mol
# Density = 2.260527 g / cm^3
# Si number density = 22.656835 Si / 1000 Ang^3
#
#
#
# Elastic Constant Matrix: (Units=GPa)
#
#
# Indices 1 2 3 4 5 6 
#
# 1 81.5356 -8.0573 27.8950 0.0000 -30.1017 0.0000
# 2 -8.0573 89.2713 -1.4476 0.0000 0.3562 0.0000
# 3 27.8950 -1.4476 174.9736 0.0000 -29.6039 0.0000
# 4 0.0000 0.0000 0.0000 -17.8348 0.0000 0.2455
# 5 -30.1017 0.3562 -29.6039 0.0000 39.9289 0.0000
# 6 0.0000 0.0000 0.0000 0.2455 0.0000 31.4155
#
#
#
# Elastic Compliance Matrix: (Units=1/GPa)
#
#
# Indices 1 2 3 4 5 6 
#
# 1 0.017251 0.001497 -0.000617 0.000000 0.012534 0.000000
# 2 0.001497 0.011333 0.000033 0.000000 0.001052 0.000000
# 3 -0.000617 0.000033 0.006558 0.000000 0.004396 0.000000
# 4 0.000000 0.000000 0.000000 -0.056064 0.000000 0.000438
# 5 0.012534 0.001052 0.004396 0.000000 0.037744 0.000000
# 6 0.000000 0.000000 0.000000 0.000438 0.000000 0.031828
#
#
# Mechanical properties :
#
#
# Convention : Reuss Voigt Hill
#
# Bulk Modulus (GPa) = 27.05044 42.50675 34.77860
# Shear Modulus (GPa) = 84.53518 32.52794 58.53156
#
# Velocity S-wave (km/s) = 6.11491 3.79315 5.08823
# Velocity P-wave (km/s) = 7.86265 6.16326 7.06424
#
# Compressibility (1/GPa) = 0.03696797
#
# Stress axis : x y z
#
# Youngs Moduli (GPa) = 57.96706 88.23584 152.49393
#
# Poissons Ratio (x) = -0.13209 0.09411
# Poissons Ratio (y) = -0.08678 -0.00505
# Poissons Ratio (z) = 0.03577 -0.00292
#
# Static dielectric constant tensor:
#      x y z
#    x 1.766580 0.000000 -0.006570 
#    y 0.000000 1.896420 0.000000 
#    z -0.006570 0.000000 1.834340 
# 
# From -- ./inp_files/90343.got.cif
#   From: 2010.05.17/outbox.cif.g08.bks.cpg/sg10_46_cif.got.tgz:90343.got - 2010.06.03 11:33:40.
