data_PCOD9149814
_publ_section_title
;
Structure prediction by ZEFSAII (Michael W. Deem and Ramdas Pophale) SiO2 
 PCOD9149814
Probable space group: P 2/M
;
_chemical_formula_sum "Si O2"
_cell_formula_units_Z 28
_cell_length_a 15.185228
_cell_length_b 9.196045
_cell_length_c 11.240645
_cell_angle_alpha 90.000000
_cell_angle_beta 115.894713
_cell_angle_gamma 90.000000
_cell_volume 1412.089285
_symmetry_space_group_name_H-M "P 2/M"
_symmetry_group_IT_number 10
_symmetry_cell_setting 'monoclinic'
loop_
_space_group_symop_operation_xyz
x,y,z
-x,y,-z
-x,-y,-z
x,-y,z
loop_
_atom_site_type_symbol
_atom_site_label
_atom_site_fract_x
_atom_site_fract_y
_atom_site_fract_z
Si Si1 0.805392 0.831084 0.867367
Si Si2 0.679864 0.672399 0.127791
Si Si3 0.402442 0.672552 0.658099
Si Si4 0.409513 0.831054 0.141937
Si Si5 0.058843 0.671624 0.412170
Si Si6 0.761699 0.174149 0.575187
Si Si7 0.888001 0.673872 0.135618
O O1 0.694948 0.822047 0.853610
O O2 0.798582 0.779990 0.727900
O O3 0.834989 0.000000 0.885628
O O4 0.873179 0.743926 0.998206
O O5 0.666525 0.500000 0.096238
O O6 0.653698 0.697402 0.249186
O O7 0.791555 0.709949 0.157960
O O8 0.609771 0.761466 0.998645
O O9 0.407817 0.500000 0.640846
O O10 0.508681 0.741773 0.739776
O O11 0.340121 0.751888 0.520125
O O12 0.437787 0.000000 0.149363
O O13 0.084176 0.500000 0.413416
O O14 0.155678 0.767110 0.465172
O O15 0.000000 0.685467 0.500000
O O16 0.985019 0.717318 0.263409
O O17 0.752723 0.000000 0.567396
O O18 0.889824 0.500000 0.125288
#
# Coordination Sequence:
#
# PCOD9149814 Si02
#       7
#     4   4   4   4   4   4   4
#     4   9  21  40  57  77 110 148 183 226 278 324
#     4   9  18  34  55  81 112 144 179 221 273 330
#     4  11  22  36  55  80 112 148 184 228 281 329
#     4  10  20  35  56  81 110 145 185 228 274 327
#     4  10  21  39  61  86 116 146 177 219 275 330
#     4  11  24  40  57  79 109 146 188 230 272 324
#     4   9  18  34  59  84 107 142 184 223 265 323
#
# _framework density 19.828773000000002
#
# number of rings (size 3 to 8) (size 9 to 14) (size 15 to 20)
#    0.000    2.143    0.000    2.571    0.000    8.857 
#    0.000    8.571    0.000    0.000    0.000    0.000 
#    0.000    0.000    0.000    0.000    0.000    0.000 
#
# Total GULP energy -156448.111905 kJ/mol
# GULP energy per Si atom -5587.432568 kJ/mol
# Density = 1.978364 g / cm^3
# Si number density = 19.828773 Si / 1000 Ang^3
#
#
#
# Elastic Constant Matrix: (Units=GPa)
#
#
# Indices 1 2 3 4 5 6 
#
# 1 14.4312 14.0280 8.2773 0.0000 6.8134 0.0000
# 2 14.0280 42.4506 39.3366 0.0000 9.5167 0.0000
# 3 8.2773 39.3366 102.1929 0.0000 19.7255 0.0000
# 4 0.0000 0.0000 0.0000 86.0711 0.0000 64.2637
# 5 6.8134 9.5167 19.7255 0.0000 32.3761 0.0000
# 6 0.0000 0.0000 0.0000 64.2637 0.0000 98.2861
#
#
#
# Elastic Compliance Matrix: (Units=1/GPa)
#
#
# Indices 1 2 3 4 5 6 
#
# 1 0.114164 -0.044065 0.011165 0.000000 -0.017875 0.000000
# 2 -0.044065 0.053801 -0.017994 0.000000 0.004422 0.000000
# 3 0.011165 -0.017994 0.017271 0.000000 -0.007583 0.000000
# 4 0.000000 0.000000 0.000000 0.022700 0.000000 -0.014842
# 5 -0.017875 0.004422 -0.007583 0.000000 0.037969 0.000000
# 6 0.000000 0.000000 0.000000 -0.014842 0.000000 0.019879
#
#
# Mechanical properties :
#
#
# Convention : Reuss Voigt Hill
#
# Bulk Modulus (GPa) = 11.98343 31.37317 21.67830
# Shear Modulus (GPa) = 12.64587 49.84216 31.24402
#
# Velocity S-wave (km/s) = 2.52812 5.01905 3.97380
# Velocity P-wave (km/s) = 3.81817 7.03166 5.65785
#
# Compressibility (1/GPa) = 0.08344858
#
# Stress axis : x y z
#
# Youngs Moduli (GPa) = 8.75937 18.58713 57.90046
#
# Poissons Ratio (x) = 0.81904 -0.64646
# Poissons Ratio (y) = 0.38598 1.04184
# Poissons Ratio (z) = -0.09780 0.33445
#
# Static dielectric constant tensor:
#      x y z
#    x 1.708150 0.000000 -0.010170 
#    y 0.000000 1.661430 0.000000 
#    z -0.010170 0.000000 1.685480 
# 
# From -- ./inp_files/49608.got.cif
#   From: 2010.05.17/outbox.cif.g08.bks.cpg/sg10_25_cif.got.tgz:49608.got - 2010.06.03 11:33:40.
