data_PCOD9149985
_publ_section_title
;
Structure prediction by ZEFSAII (Michael W. Deem and Ramdas Pophale) SiO2 
 PCOD9149985
Probable space group: P 2/M
;
_chemical_formula_sum "Si O2"
_cell_formula_units_Z 32
_cell_length_a 17.466549
_cell_length_b 14.014097
_cell_length_c 12.211117
_cell_angle_alpha 90.000000
_cell_angle_beta 149.296070
_cell_angle_gamma 90.000000
_cell_volume 1526.195050
_symmetry_space_group_name_H-M "P 2/M"
_symmetry_group_IT_number 10
_symmetry_cell_setting 'monoclinic'
loop_
_space_group_symop_operation_xyz
x,y,z
-x,y,-z
-x,-y,-z
x,-y,z
loop_
_atom_site_type_symbol
_atom_site_label
_atom_site_fract_x
_atom_site_fract_y
_atom_site_fract_z
Si Si1 0.225232 0.890126 0.292025
Si Si2 0.669995 0.384788 0.707380
Si Si3 0.057999 0.218582 0.454149
Si Si4 0.383059 0.744590 0.773831
Si Si5 0.174491 0.113821 0.974309
Si Si6 0.184807 0.308271 0.334957
Si Si7 0.467461 0.110430 0.204239
Si Si8 0.934608 0.387862 0.178622
O O1 0.153020 0.803909 0.272074
O O2 0.399581 0.886573 0.541783
O O3 0.173875 0.000000 0.250786
O O4 0.203978 0.867372 0.138338
O O5 0.500000 0.348598 0.500000
O O6 0.667210 0.500000 0.701402
O O7 0.751520 0.349745 0.698419
O O8 0.769006 0.358434 0.934862
O O9 0.236224 0.217974 0.657638
O O10 0.000000 0.185672 0.500000
O O11 0.975200 0.158028 0.259078
O O12 0.997236 0.325244 0.354752
O O13 0.310990 0.685370 0.585162
O O14 0.474736 0.828528 0.826592
O O15 0.500000 0.695797 0.000000
O O16 0.166606 0.000000 0.955264
O O17 0.315006 0.145578 0.072491
O O18 0.042035 0.362136 0.207799
O O19 0.448401 0.000000 0.148761
O O20 0.938869 0.500000 0.205535
#
# Coordination Sequence:
#
# PCOD9149985 Si02
#       8
#     4   4   4   4   4   4   4   4
#     4   9  18  33  56  89 124 154 190 233 280 339
#     4  10  21  36  58  90 120 147 185 232 283 342
#     4  11  24  40  60  83 112 150 195 244 293 344
#     4  10  22  38  55  78 107 145 193 239 284 336
#     4  10  20  35  57  86 121 157 193 236 281 333
#     4  10  20  35  61  87 115 154 190 232 288 344
#     4   9  18  34  57  83 113 153 196 236 281 332
#     4  10  22  41  63  87 116 149 188 234 289 351
#
# _framework density 20.967175999999998
#
# number of rings (size 3 to 8) (size 9 to 14) (size 15 to 20)
#    0.000    2.125    0.000    2.625    0.000    9.750 
#    0.000    3.750    0.000   25.125    0.000    0.000 
#    0.000    0.000    0.000    0.000    0.000    0.000 
#
# Total GULP energy -178800.928034 kJ/mol
# GULP energy per Si atom -5587.529001 kJ/mol
# Density = 2.091945 g / cm^3
# Si number density = 20.967176 Si / 1000 Ang^3
#
#
#
# Elastic Constant Matrix: (Units=GPa)
#
#
# Indices 1 2 3 4 5 6 
#
# 1 60.1262 5.4842 31.4552 0.0000 -4.6858 0.0000
# 2 5.4842 45.6872 19.0199 0.0000 -2.3736 0.0000
# 3 31.4552 19.0199 121.5179 0.0000 5.2721 0.0000
# 4 0.0000 0.0000 0.0000 16.1696 0.0000 4.6460
# 5 -4.6858 -2.3736 5.2721 0.0000 30.5155 0.0000
# 6 0.0000 0.0000 0.0000 4.6460 0.0000 20.9109
#
#
#
# Elastic Compliance Matrix: (Units=1/GPa)
#
#
# Indices 1 2 3 4 5 6 
#
# 1 0.019695 0.000036 -0.005275 0.000000 0.003938 0.000000
# 2 0.000036 0.023600 -0.003812 0.000000 0.002500 0.000000
# 3 -0.005275 -0.003812 0.010317 0.000000 -0.002889 0.000000
# 4 0.000000 0.000000 0.000000 0.066062 0.000000 -0.014678
# 5 0.003938 0.002500 -0.002889 0.000000 0.034069 0.000000
# 6 0.000000 0.000000 0.000000 -0.014678 0.000000 0.051083
#
#
# Mechanical properties :
#
#
# Convention : Reuss Voigt Hill
#
# Bulk Modulus (GPa) = 28.15985 37.69444 32.92714
# Shear Modulus (GPa) = 21.29813 24.94399 23.12106
#
# Velocity S-wave (km/s) = 3.19060 3.45290 3.32434
# Velocity P-wave (km/s) = 5.19931 5.82353 5.52025
#
# Compressibility (1/GPa) = 0.03551155
#
# Stress axis : x y z
#
# Youngs Moduli (GPa) = 50.77514 42.37223 96.93192
#
# Poissons Ratio (x) = -0.00154 0.51127
# Poissons Ratio (y) = -0.00184 0.36948
# Poissons Ratio (z) = 0.26782 0.16151
#
# Static dielectric constant tensor:
#      x y z
#    x 1.727370 0.000000 0.013700 
#    y 0.000000 1.766990 0.000000 
#    z 0.013700 0.000000 1.769510 
# 
# From -- ./inp_files/54061.got.cif
#   From: 2010.05.17/outbox.cif.g08.bks.cpg/sg10_28_cif.got.tgz:54061.got - 2010.06.03 11:33:40.
