data_PCOD9149961
_publ_section_title
;
Structure prediction by ZEFSAII (Michael W. Deem and Ramdas Pophale) SiO2 
 PCOD9149961
Probable space group: P 2/M
;
_chemical_formula_sum "Si O2"
_cell_formula_units_Z 32
_cell_length_a 10.672171
_cell_length_b 9.120702
_cell_length_c 28.153490
_cell_angle_alpha 90.000000
_cell_angle_beta 30.001162
_cell_angle_gamma 90.000000
_cell_volume 1370.245991
_symmetry_space_group_name_H-M "P 2/M"
_symmetry_group_IT_number 10
_symmetry_cell_setting 'monoclinic'
loop_
_space_group_symop_operation_xyz
x,y,z
-x,y,-z
-x,-y,-z
x,-y,z
loop_
_atom_site_type_symbol
_atom_site_label
_atom_site_fract_x
_atom_site_fract_y
_atom_site_fract_z
Si Si1 0.277317 0.170913 0.015951
Si Si2 0.527651 0.672929 0.851274
Si Si3 0.747461 0.667161 0.364932
Si Si4 0.252704 0.829314 0.864469
Si Si5 0.787857 0.332325 0.513102
Si Si6 0.016274 0.173030 0.353256
Si Si7 0.542205 0.166161 0.675590
Si Si8 0.997017 0.831491 0.201540
O O1 0.013254 0.182737 0.074236
O O2 0.204234 0.208268 0.094119
O O3 0.350308 0.000000 0.991317
O O4 0.471949 0.264103 0.921779
O O5 0.559718 0.500000 0.841683
O O6 0.296131 0.721921 0.893697
O O7 0.755591 0.751183 0.749341
O O8 0.790375 0.500000 0.367077
O O9 0.479036 0.671945 0.427486
O O10 0.783411 0.776808 0.396715
O O11 0.949127 0.717954 0.259243
O O12 0.462803 0.798549 0.755295
O O13 0.279905 0.000000 0.871070
O O14 0.873174 0.500000 0.486207
O O15 0.968525 0.233892 0.421638
O O16 0.719827 0.272125 0.587480
O O17 0.046444 0.000000 0.344166
O O18 0.271546 0.164654 0.737614
O O19 0.640695 0.000000 0.641395
O O20 0.040325 0.000000 0.204088
#
# Coordination Sequence:
#
# PCOD9149961 Si02
#       8
#     4   4   4   4   4   4   4   4
#     4   9  18  35  59  84 111 144 182 222 263 314
#     4  12  25  38  53  77 111 145 181 228 277 324
#     4  10  20  35  57  85 115 142 171 216 272 323
#     4   9  18  35  59  84 111 144 182 222 263 314
#     4  10  20  35  57  85 115 142 171 216 272 323
#     4  12  25  40  57  75 103 145 189 228 265 316
#     4   8  15  30  54  83 111 140 177 218 259 310
#     4   8  15  30  54  83 111 140 177 218 259 310
#
# _framework density 23.353472
#
# number of rings (size 3 to 8) (size 9 to 14) (size 15 to 20)
#    0.000    2.250    0.000    5.250    0.000    6.000 
#    0.000    3.750    0.000    7.500    0.000    0.000 
#    0.000    0.000    0.000    0.000    0.000    0.000 
#
# Total GULP energy -179108.717989 kJ/mol
# GULP energy per Si atom -5597.147437 kJ/mol
# Density = 2.330032 g / cm^3
# Si number density = 23.353472 Si / 1000 Ang^3
#
#
#
# Elastic Constant Matrix: (Units=GPa)
#
#
# Indices 1 2 3 4 5 6 
#
# 1 75.0294 33.8113 20.3330 0.0000 11.1787 0.0000
# 2 33.8113 152.3257 92.5236 0.0000 34.4617 0.0000
# 3 20.3330 92.5236 159.0567 0.0000 21.4679 0.0000
# 4 0.0000 0.0000 0.0000 -44.2493 0.0000 -57.8179
# 5 11.1787 34.4617 21.4679 0.0000 48.0498 0.0000
# 6 0.0000 0.0000 0.0000 -57.8179 0.0000 -29.2786
#
#
#
# Elastic Compliance Matrix: (Units=1/GPa)
#
#
# Indices 1 2 3 4 5 6 
#
# 1 0.014878 -0.003029 0.000036 0.000000 -0.001305 0.000000
# 2 -0.003029 0.012005 -0.005884 0.000000 -0.005276 0.000000
# 3 0.000036 -0.005884 0.009723 0.000000 -0.000133 0.000000
# 4 0.000000 0.000000 0.000000 0.014301 0.000000 -0.028240
# 5 -0.001305 -0.005276 -0.000133 0.000000 0.024959 0.000000
# 6 0.000000 0.000000 0.000000 -0.028240 0.000000 0.021613
#
#
# Mechanical properties :
#
#
# Convention : Reuss Voigt Hill
#
# Bulk Modulus (GPa) = 53.04439 75.52751 64.28595
# Shear Modulus (GPa) = 41.14691 10.88730 26.01710
#
# Velocity S-wave (km/s) = 4.20207 2.16150 3.34137
# Velocity P-wave (km/s) = 6.80487 6.21616 6.51717
#
# Compressibility (1/GPa) = 0.01885213
#
# Stress axis : x y z
#
# Youngs Moduli (GPa) = 67.21432 83.29928 102.84913
#
# Poissons Ratio (x) = 0.25233 -0.00374
# Poissons Ratio (y) = 0.20361 0.60515
# Poissons Ratio (z) = -0.00244 0.49012
#
# Static dielectric constant tensor:
#      x y z
#    x 1.996650 0.000000 -0.064280 
#    y 0.000000 1.781230 0.000000 
#    z -0.064280 0.000000 1.907390 
# 
# From -- ./inp_files/94956.got.cif
#   From: 2010.05.17/outbox.cif.g08.bks.cpg/sg10_48_cif.got.tgz:94956.got - 2010.06.03 11:33:40.
