data_PCOD9149401
_publ_section_title
;
Structure prediction by ZEFSAII (Michael W. Deem and Ramdas Pophale) SiO2 
 PCOD9149401
Probable space group: P 2/M
;
_chemical_formula_sum "Si O2"
_cell_formula_units_Z 28
_cell_length_a 15.461975
_cell_length_b 7.498031
_cell_length_c 19.649123
_cell_angle_alpha 90.000000
_cell_angle_beta 31.982893
_cell_angle_gamma 90.000000
_cell_volume 1206.583814
_symmetry_space_group_name_H-M "P 2/M"
_symmetry_group_IT_number 10
_symmetry_cell_setting 'monoclinic'
loop_
_space_group_symop_operation_xyz
x,y,z
-x,y,-z
-x,-y,-z
x,-y,z
loop_
_atom_site_type_symbol
_atom_site_label
_atom_site_fract_x
_atom_site_fract_y
_atom_site_fract_z
Si Si1 0.293865 0.293350 0.940143
Si Si2 0.092300 0.284076 0.617372
Si Si3 0.598089 0.208974 0.369134
Si Si4 0.561932 0.297091 0.662951
Si Si5 0.130339 0.210084 0.358572
Si Si6 0.486861 0.783585 0.086984
Si Si7 0.940230 0.716185 0.204069
O O1 0.280073 0.500000 0.927267
O O2 0.437519 0.209745 0.798999
O O3 0.360830 0.285006 0.971817
O O4 0.112477 0.217731 0.059818
O O5 0.098767 0.500000 0.615016
O O6 0.260576 0.217371 0.470542
O O7 0.945107 0.230879 0.666384
O O8 0.080969 0.223546 0.703248
O O9 0.500000 0.278742 0.500000
O O10 0.534272 0.300072 0.344030
O O11 0.787429 0.230130 0.260306
O O12 0.559360 0.000000 0.387283
O O13 0.593408 0.500000 0.665456
O O14 0.315245 0.280121 0.234047
O O15 0.000000 0.285863 0.500000
O O16 0.144699 0.000000 0.364172
O O17 0.489170 0.000000 0.087366
O O18 0.500000 0.728941 0.000000
O O19 0.945072 0.500000 0.202569
#
# Coordination Sequence:
#
# PCOD9149401 Si02
#       7
#     4   4   4   4   4   4   4
#     4  10  22  38  58  86 114 146 189 233 279 331
#     4  10  20  34  56  82 106 142 187 228 275 328
#     4  11  23  38  59  88 114 143 188 231 274 331
#     4  10  21  38  59  83 115 150 184 229 284 334
#     4  10  21  35  52  77 109 144 182 227 279 329
#     4  10  21  37  56  79 111 152 190 227 279 336
#     4  10  21  38  59  83 113 146 183 228 279 331
#
# _framework density 23.206012000000001
#
# number of rings (size 3 to 8) (size 9 to 14) (size 15 to 20)
#    0.000    1.857    1.429    2.143    0.000    4.571 
#    0.000    2.857    0.000    0.000    0.000    0.000 
#    0.000    0.000    0.000    0.000    0.000    0.000 
#
# Total GULP energy -156568.679887 kJ/mol
# GULP energy per Si atom -5591.738567 kJ/mol
# Density = 2.315319 g / cm^3
# Si number density = 23.206012 Si / 1000 Ang^3
#
#
#
# Elastic Constant Matrix: (Units=GPa)
#
#
# Indices 1 2 3 4 5 6 
#
# 1 56.6655 -16.9400 -8.2585 0.0000 -16.2327 0.0000
# 2 -16.9400 69.7024 6.7198 0.0000 7.3987 0.0000
# 3 -8.2585 6.7198 102.0928 0.0000 -18.7465 0.0000
# 4 0.0000 0.0000 0.0000 -2.1661 0.0000 -12.0914
# 5 -16.2327 7.3987 -18.7465 0.0000 45.6933 0.0000
# 6 0.0000 0.0000 0.0000 -12.0914 0.0000 33.5077
#
#
#
# Elastic Compliance Matrix: (Units=1/GPa)
#
#
# Indices 1 2 3 4 5 6 
#
# 1 0.021680 0.004102 0.003002 0.000000 0.008269 0.000000
# 2 0.004102 0.015592 -0.000963 0.000000 -0.001463 0.000000
# 3 0.003002 -0.000963 0.011167 0.000000 0.005804 0.000000
# 4 0.000000 0.000000 0.000000 -0.153154 0.000000 -0.055266
# 5 0.008269 -0.001463 0.005804 0.000000 0.027441 0.000000
# 6 0.000000 0.000000 0.000000 -0.055266 0.000000 0.009901
#
#
# Mechanical properties :
#
#
# Convention : Reuss Voigt Hill
#
# Bulk Modulus (GPa) = 16.46884 21.27815 18.87350
# Shear Modulus (GPa) = -84.15340 31.86959 -26.14190
#
# Velocity S-wave (km/s) = -6.02846 3.70987 -3.36000
# Velocity P-wave (km/s) = 6.42995 5.24786 2.62719
#
# Compressibility (1/GPa) = 0.06072072
#
# Stress axis : x y z
#
# Youngs Moduli (GPa) = 46.12525 64.13693 89.54970
#
# Poissons Ratio (x) = -0.26307 -0.26885
# Poissons Ratio (y) = -0.18919 0.08624
# Poissons Ratio (z) = -0.13848 0.06176
#
# Static dielectric constant tensor:
#      x y z
#    x 1.806310 0.000000 0.032010 
#    y 0.000000 1.869550 0.000000 
#    z 0.032010 0.000000 1.895230 
# 
# From -- ./inp_files/37272.got.cif
#   From: 2010.05.17/outbox.cif.g08.bks.cpg/sg10_19_cif.got.tgz:37272.got - 2010.06.03 11:33:40.
