data_PCOD9149526
_publ_section_title
;
Structure prediction by ZEFSAII (Michael W. Deem and Ramdas Pophale) SiO2 
 PCOD9149526
Probable space group: P 2/M
;
_chemical_formula_sum "Si O2"
_cell_formula_units_Z 26
_cell_length_a 18.190145
_cell_length_b 16.831244
_cell_length_c 5.068307
_cell_angle_alpha 90.000000
_cell_angle_beta 130.276368
_cell_angle_gamma 90.000000
_cell_volume 1183.866824
_symmetry_space_group_name_H-M "P 2/M"
_symmetry_group_IT_number 10
_symmetry_cell_setting 'monoclinic'
loop_
_space_group_symop_operation_xyz
x,y,z
-x,y,-z
-x,-y,-z
x,-y,z
loop_
_atom_site_type_symbol
_atom_site_label
_atom_site_fract_x
_atom_site_fract_y
_atom_site_fract_z
Si Si1 0.923665 0.410885 0.030451
Si Si2 0.608406 0.833293 0.360499
Si Si3 0.429802 0.000000 0.583237
Si Si4 0.705908 0.413452 0.361618
Si Si5 0.759767 0.242681 0.365485
Si Si6 0.568698 0.338577 0.417837
Si Si7 0.892053 0.744064 0.190217
O O1 0.955434 0.500000 0.164145
O O2 0.903608 0.352064 0.225849
O O3 0.820039 0.419171 0.656828
O O4 0.000000 0.375277 0.000000
O O5 0.627736 0.917110 0.544405
O O6 0.681848 0.819072 0.292042
O O7 0.608006 0.752019 0.530265
O O8 0.500000 0.837098 0.000000
O O9 0.500000 0.000000 0.500000
O O10 0.500000 0.000000 0.000000
O O11 0.670835 0.500000 0.180223
O O12 0.701848 0.327318 0.210694
O O13 0.654753 0.396387 0.525659
O O14 0.816979 0.226949 0.232537
O O15 0.841873 0.244699 0.788305
O O16 0.500000 0.360975 0.500000
O O17 0.500000 0.340103 0.000000
O O18 0.000000 0.775473 0.500000
#
# Coordination Sequence:
#
# PCOD9149526 Si02
#       7
#     4   4   2   4   4   4   4
#     4   9  18  33  52  75 104 137 176 230 291 336
#     4   9  20  37  58  86 117 145 175 216 268 329
#     4  10  20  34  58  88 117 148 177 212 266 332
#     4   9  19  34  51  72 100 136 179 222 263 314
#     4  10  22  36  55  80 109 144 182 224 278 323
#     4  10  21  36  53  73 102 139 176 216 259 304
#     4  11  21  36  55  78 105 141 187 232 271 323
#
# _framework density 21.961931
#
# number of rings (size 3 to 8) (size 9 to 14) (size 15 to 20)
#    0.000    2.308    0.000    2.769    0.000   15.077 
#    0.000    3.077    0.000    0.000    0.000    3.231 
#    0.000    0.000    0.000    0.000    0.000    0.000 
#
# Total GULP energy -145074.470609 kJ/mol
# GULP energy per Si atom -5579.787331 kJ/mol
# Density = 2.191194 g / cm^3
# Si number density = 21.961931 Si / 1000 Ang^3
#
#
#
# Elastic Constant Matrix: (Units=GPa)
#
#
# Indices 1 2 3 4 5 6 
#
# 1 162.9256 39.2605 25.5295 0.0000 11.2623 0.0000
# 2 39.2605 103.9722 7.8524 0.0000 3.1184 0.0000
# 3 25.5295 7.8524 68.4310 0.0000 -1.8157 0.0000
# 4 0.0000 0.0000 0.0000 12.7348 0.0000 -9.5476
# 5 11.2623 3.1184 -1.8157 0.0000 38.0753 0.0000
# 6 0.0000 0.0000 0.0000 -9.5476 0.0000 1.5045
#
#
#
# Elastic Compliance Matrix: (Units=1/GPa)
#
#
# Indices 1 2 3 4 5 6 
#
# 1 0.007271 -0.002496 -0.002481 0.000000 -0.002064 0.000000
# 2 -0.002496 0.010587 -0.000287 0.000000 -0.000142 0.000000
# 3 -0.002481 -0.000287 0.015612 0.000000 0.001502 0.000000
# 4 0.000000 0.000000 0.000000 -0.020896 0.000000 -0.132610
# 5 -0.002064 -0.000142 0.001502 0.000000 0.026958 0.000000
# 6 0.000000 0.000000 0.000000 -0.132610 0.000000 -0.176878
#
#
# Mechanical properties :
#
#
# Convention : Reuss Voigt Hill
#
# Bulk Modulus (GPa) = 43.59165 53.40149 48.49657
# Shear Modulus (GPa) = -41.95623 27.97534 -6.99045
#
# Velocity S-wave (km/s) = -4.37556 3.57292 -1.78603
# Velocity P-wave (km/s) = 2.37394 6.43345 4.22810
#
# Compressibility (1/GPa) = 0.02294017
#
# Stress axis : x y z
#
# Youngs Moduli (GPa) = 137.53798 94.45990 64.05491
#
# Poissons Ratio (x) = 0.23579 0.15891
# Poissons Ratio (y) = 0.34332 0.01840
# Poissons Ratio (z) = 0.34121 0.02714
#
# Static dielectric constant tensor:
#      x y z
#    x 1.817850 0.000000 -0.011190 
#    y 0.000000 1.865350 0.000000 
#    z -0.011190 0.000000 1.942200 
# 
# From -- ./inp_files/9725.got.cif
#   From: 2010.05.17/outbox.cif.g08.bks.cpg/sg10_5_cif.got.tgz:9725.got - 2010.06.03 11:33:40.
