data_PCOD9149783
_publ_section_title
;
Structure prediction by ZEFSAII (Michael W. Deem and Ramdas Pophale) SiO2 
 PCOD9149783
Probable space group: P 2/M
;
_chemical_formula_sum "Si O2"
_cell_formula_units_Z 24
_cell_length_a 15.934275
_cell_length_b 8.456920
_cell_length_c 9.562475
_cell_angle_alpha 90.000000
_cell_angle_beta 90.171113
_cell_angle_gamma 90.000000
_cell_volume 1288.584510
_symmetry_space_group_name_H-M "P 2/M"
_symmetry_group_IT_number 10
_symmetry_cell_setting 'monoclinic'
loop_
_space_group_symop_operation_xyz
x,y,z
-x,y,-z
-x,-y,-z
x,-y,z
loop_
_atom_site_type_symbol
_atom_site_label
_atom_site_fract_x
_atom_site_fract_y
_atom_site_fract_z
Si Si1 0.579509 0.810861 0.408822
Si Si2 0.076053 0.691537 0.098327
Si Si3 0.263899 0.689296 0.415031
Si Si4 0.419823 0.691384 0.907724
Si Si5 0.736281 0.307828 0.908721
Si Si6 0.080457 0.189058 0.412575
O O1 0.500000 0.753353 0.500000
O O2 0.664522 0.757174 0.485484
O O3 0.575185 0.749067 0.250749
O O4 0.576984 0.000000 0.405553
O O5 0.074388 0.500000 0.107555
O O6 0.169277 0.737525 0.047406
O O7 0.066994 0.760165 0.252689
O O8 0.000000 0.742976 0.000000
O O9 0.268695 0.500000 0.416905
O O10 0.276790 0.742423 0.253000
O O11 0.170095 0.739964 0.457647
O O12 0.418795 0.500000 0.905176
O O13 0.500000 0.740875 0.000000
O O14 0.335975 0.747285 0.987432
O O15 0.733220 0.500000 0.907661
O O16 0.000000 0.244038 0.500000
O O17 0.085988 0.000000 0.422950
#
# Coordination Sequence:
#
# PCOD9149783 Si02
#       6
#     4   4   4   4   4   4
#     4  11  24  39  55  80 115 149 180 219 270 327
#     4   9  18  33  53  77 106 141 183 226 266 316
#     4  10  20  37  61  83 106 141 186 231 272 319
#     4  10  20  35  56  80 106 138 179 224 267 317
#     4   8  16  32  53  78 104 132 173 225 273 312
#     4  10  21  36  54  80 115 149 181 222 274 329
#
# _framework density 18.62509
#
# number of rings (size 3 to 8) (size 9 to 14) (size 15 to 20)
#    0.000    2.333    0.000    3.500    0.000    6.000 
#    0.000    5.833    0.000    0.000    0.000    0.000 
#    0.000    0.000    0.000    0.000    0.000    0.000 
#
# Total GULP energy -133954.323183 kJ/mol
# GULP energy per Si atom -5581.430133 kJ/mol
# Density = 1.858270 g / cm^3
# Si number density = 18.625090 Si / 1000 Ang^3
#
#
#
# Elastic Constant Matrix: (Units=GPa)
#
#
# Indices 1 2 3 4 5 6 
#
# 1 186.6939 24.0346 123.2167 0.0000 -6.5809 0.0000
# 2 24.0346 15.9196 20.5592 0.0000 -1.1125 0.0000
# 3 123.2167 20.5592 131.6066 0.0000 -1.7054 0.0000
# 4 0.0000 0.0000 0.0000 37.6880 0.0000 -12.7862
# 5 -6.5809 -1.1125 -1.7054 0.0000 42.6769 0.0000
# 6 0.0000 0.0000 0.0000 -12.7862 0.0000 22.1160
#
#
#
# Elastic Compliance Matrix: (Units=1/GPa)
#
#
# Indices 1 2 3 4 5 6 
#
# 1 0.014489 -0.005351 -0.012709 0.000000 0.001587 0.000000
# 2 -0.005351 0.080771 -0.007595 0.000000 0.000977 0.000000
# 3 -0.012709 -0.007595 0.020666 0.000000 -0.001332 0.000000
# 4 0.000000 0.000000 0.000000 0.033008 0.000000 0.019083
# 5 0.001587 0.000977 -0.001332 0.000000 0.023649 0.000000
# 6 0.000000 0.000000 0.000000 0.019083 0.000000 0.056249
#
#
# Mechanical properties :
#
#
# Convention : Reuss Voigt Hill
#
# Bulk Modulus (GPa) = 15.47594 74.42677 44.95136
# Shear Modulus (GPa) = 16.57380 31.59015 24.08198
#
# Velocity S-wave (km/s) = 2.98630 4.12285 3.59971
# Velocity P-wave (km/s) = 4.49643 7.91903 6.43929
#
# Compressibility (1/GPa) = 0.06461641
#
# Stress axis : x y z
#
# Youngs Moduli (GPa) = 69.01865 12.38061 48.38831
#
# Poissons Ratio (x) = 0.06625 0.61495
# Poissons Ratio (y) = 0.36933 0.36752
# Poissons Ratio (z) = 0.87714 0.09403
#
# Static dielectric constant tensor:
#      x y z
#    x 1.647980 0.000000 -0.013900 
#    y 0.000000 1.633520 0.000000 
#    z -0.013900 0.000000 1.606710 
# 
# From -- ./inp_files/27200.got.cif
#   From: 2010.05.17/outbox.cif.g08.bks.cpg/sg10_14_cif.got.tgz:27200.got - 2010.06.03 11:33:40.
