data_PCOD9149769
_publ_section_title
;
Structure prediction by ZEFSAII (Michael W. Deem and Ramdas Pophale) SiO2 
 PCOD9149769
Probable space group: P 2/M
;
_chemical_formula_sum "Si O2"
_cell_formula_units_Z 28
_cell_length_a 10.384429
_cell_length_b 7.517896
_cell_length_c 14.504445
_cell_angle_alpha 90.000000
_cell_angle_beta 104.670010
_cell_angle_gamma 90.000000
_cell_volume 1095.434293
_symmetry_space_group_name_H-M "P 2/M"
_symmetry_group_IT_number 10
_symmetry_cell_setting 'monoclinic'
loop_
_space_group_symop_operation_xyz
x,y,z
-x,y,-z
-x,-y,-z
x,-y,z
loop_
_atom_site_type_symbol
_atom_site_label
_atom_site_fract_x
_atom_site_fract_y
_atom_site_fract_z
Si Si1 0.244160 0.283741 0.216697
Si Si2 0.823342 0.303039 0.501485
Si Si3 0.375134 0.219614 0.914849
Si Si4 0.709700 0.801969 0.286507
Si Si5 0.582419 0.701314 0.595818
Si Si6 0.144972 0.794123 0.002371
Si Si7 0.994231 0.283139 0.691637
O O1 0.248248 0.500000 0.217367
O O2 0.373894 0.222831 0.298308
O O3 0.230624 0.215699 0.111522
O O4 0.109679 0.229590 0.247941
O O5 0.863567 0.500000 0.481271
O O6 0.737580 0.245692 0.397829
O O7 0.722517 0.316442 0.569054
O O8 0.945698 0.218554 0.580720
O O9 0.378044 0.286421 0.809578
O O10 0.372721 0.000000 0.913850
O O11 0.500000 0.272088 0.000000
O O12 0.239133 0.281856 0.940121
O O13 0.858490 0.790190 0.270893
O O14 0.658985 0.000000 0.283484
O O15 0.500000 0.794286 0.500000
O O16 0.525739 0.500000 0.599780
O O17 0.120287 0.000000 0.973120
O O18 0.000000 0.713404 0.000000
O O19 0.998702 0.500000 0.691740
#
# Coordination Sequence:
#
# PCOD9149769 Si02
#       7
#     4   4   4   4   4   4   4
#     4   9  18  32  52  78 103 129 165 209 255 301
#     4   9  18  32  50  73 102 135 165 195 245 312
#     4   9  20  38  54  70 101 143 177 207 256 318
#     4  11  21  32  51  75  97 128 172 216 250 289
#     4   8  15  30  51  73  99 132 166 198 240 302
#     4  10  20  35  56  79 101 131 174 218 259 305
#     4   9  18  33  51  73 105 139 164 193 248 317
#
# _framework density 25.560638999999998
#
# number of rings (size 3 to 8) (size 9 to 14) (size 15 to 20)
#    0.000    2.714    0.000    3.429    0.000    5.429 
#    0.000    3.571    0.000    3.857    0.000    0.000 
#    0.000    0.000    0.000    0.000    0.000    0.000 
#
# Total GULP energy -156144.404207 kJ/mol
# GULP energy per Si atom -5576.585865 kJ/mol
# Density = 2.550246 g / cm^3
# Si number density = 25.560639 Si / 1000 Ang^3
#
#
#
# Elastic Constant Matrix: (Units=GPa)
#
#
# Indices 1 2 3 4 5 6 
#
# 1 58.0913 1.3873 19.1163 0.0000 -0.8568 0.0000
# 2 1.3873 66.6237 -1.3375 0.0000 -0.7158 0.0000
# 3 19.1163 -1.3375 193.4725 0.0000 10.2535 0.0000
# 4 0.0000 0.0000 0.0000 27.7504 0.0000 -1.3466
# 5 -0.8568 -0.7158 10.2535 0.0000 48.1584 0.0000
# 6 0.0000 0.0000 0.0000 -1.3466 0.0000 7.5865
#
#
#
# Elastic Compliance Matrix: (Units=1/GPa)
#
#
# Indices 1 2 3 4 5 6 
#
# 1 0.017827 -0.000400 -0.001801 0.000000 0.000695 0.000000
# 2 -0.000400 0.015023 0.000133 0.000000 0.000188 0.000000
# 3 -0.001801 0.000133 0.005410 0.000000 -0.001182 0.000000
# 4 0.000000 0.000000 0.000000 0.036349 0.000000 0.006452
# 5 0.000695 0.000188 -0.001182 0.000000 0.021032 0.000000
# 6 0.000000 0.000000 0.000000 0.006452 0.000000 0.132958
#
#
# Mechanical properties :
#
#
# Convention : Reuss Voigt Hill
#
# Bulk Modulus (GPa) = 29.30426 39.61329 34.45878
# Shear Modulus (GPa) = 20.48281 36.63384 28.55832
#
# Velocity S-wave (km/s) = 2.83387 3.78989 3.34620
# Velocity P-wave (km/s) = 4.71140 5.88918 5.33290
#
# Compressibility (1/GPa) = 0.03412473
#
# Stress axis : x y z
#
# Youngs Moduli (GPa) = 56.09557 66.56599 184.83596
#
# Poissons Ratio (x) = 0.02662 0.33288
# Poissons Ratio (y) = 0.02243 -0.02466
# Poissons Ratio (z) = 0.10103 -0.00888
#
# Static dielectric constant tensor:
#      x y z
#    x 2.067700 0.000000 0.027440 
#    y 0.000000 1.975240 0.000000 
#    z 0.027440 0.000000 2.069220 
# 
# From -- ./inp_files/63517.got.cif
#   From: 2010.05.17/outbox.cif.g08.bks.cpg/sg10_32_cif.got.tgz:63517.got - 2010.06.03 11:33:40.
