data_PCOD9149545
_publ_section_title
;
Structure prediction by ZEFSAII (Michael W. Deem and Ramdas Pophale) SiO2 
 PCOD9149545
Probable space group: P 2/M
;
_chemical_formula_sum "Si O2"
_cell_formula_units_Z 32
_cell_length_a 17.744985
_cell_length_b 14.139106
_cell_length_c 11.673508
_cell_angle_alpha 90.000000
_cell_angle_beta 148.820272
_cell_angle_gamma 90.000000
_cell_volume 1516.343359
_symmetry_space_group_name_H-M "P 2/M"
_symmetry_group_IT_number 10
_symmetry_cell_setting 'monoclinic'
loop_
_space_group_symop_operation_xyz
x,y,z
-x,y,-z
-x,-y,-z
x,-y,z
loop_
_atom_site_type_symbol
_atom_site_label
_atom_site_fract_x
_atom_site_fract_y
_atom_site_fract_z
Si Si1 0.560363 0.206968 0.324862
Si Si2 0.783051 0.387982 0.975389
Si Si3 0.663607 0.389171 0.578558
Si Si4 0.890738 0.391783 0.686030
Si Si5 0.057821 0.112400 0.816139
Si Si6 0.767710 0.778701 0.400480
Si Si7 0.761399 0.215156 0.120022
Si Si8 0.662568 0.113359 0.670757
O O1 0.567691 0.314711 0.382912
O O2 0.619965 0.196529 0.274415
O O3 0.666145 0.149591 0.546068
O O4 0.395546 0.173280 0.118051
O O5 0.768480 0.500000 0.986524
O O6 0.774719 0.316000 0.070936
O O7 0.940903 0.374525 0.121454
O O8 0.674029 0.367786 0.727357
O O9 0.622199 0.500000 0.512528
O O10 0.822769 0.377857 0.724190
O O11 0.863403 0.500000 0.623108
O O12 0.801599 0.326723 0.485144
O O13 0.114613 0.147354 0.767077
O O14 0.901100 0.160076 0.626030
O O15 0.045732 0.000000 0.809140
O O16 0.191759 0.145232 0.072968
O O17 0.765270 0.780573 0.261297
O O18 0.500000 0.145312 0.500000
O O19 0.662401 0.000000 0.677309
#
# Coordination Sequence:
#
# PCOD9149545 Si02
#       8
#     4   4   4   4   4   4   4   4
#     4  11  24  40  65  90 125 168 205 251 313 367
#     4  10  20  34  59  93 124 160 206 259 310 361
#     4   9  19  35  57  89 129 163 200 251 313 374
#     4   9  18  35  58  87 123 164 204 252 312 367
#     4  11  24  43  68  94 122 157 200 258 318 366
#     4  11  25  42  60  90 125 168 216 255 292 359
#     4  12  24  41  61  88 128 168 212 252 302 366
#     4  10  21  41  68  96 123 152 195 253 319 378
#
# _framework density 21.103401000000002
#
# number of rings (size 3 to 8) (size 9 to 14) (size 15 to 20)
#    0.000    1.625    2.500    1.875    0.000    4.500 
#    0.000    3.750    0.000    6.000    0.000    0.000 
#    0.000    0.000    0.000    0.000    0.000    0.000 
#
# Total GULP energy -178614.115843 kJ/mol
# GULP energy per Si atom -5581.691120 kJ/mol
# Density = 2.105537 g / cm^3
# Si number density = 21.103401 Si / 1000 Ang^3
#
#
#
# Elastic Constant Matrix: (Units=GPa)
#
#
# Indices 1 2 3 4 5 6 
#
# 1 71.3962 2.6906 20.3272 0.0000 -6.9670 0.0000
# 2 2.6906 16.8319 11.8925 0.0000 3.5536 0.0000
# 3 20.3272 11.8925 60.6766 0.0000 -4.3886 0.0000
# 4 0.0000 0.0000 0.0000 8.7056 0.0000 1.9660
# 5 -6.9670 3.5536 -4.3886 0.0000 41.1853 0.0000
# 6 0.0000 0.0000 0.0000 1.9660 0.0000 12.1474
#
#
#
# Elastic Compliance Matrix: (Units=1/GPa)
#
#
# Indices 1 2 3 4 5 6 
#
# 1 0.015671 0.000782 -0.005257 0.000000 0.002023 0.000000
# 2 0.000782 0.071344 -0.014795 0.000000 -0.007600 0.000000
# 3 -0.005257 -0.014795 0.021334 0.000000 0.002661 0.000000
# 4 0.000000 0.000000 0.000000 0.119226 0.000000 -0.019296
# 5 0.002023 -0.007600 0.002661 0.000000 0.025562 0.000000
# 6 0.000000 0.000000 0.000000 -0.019296 0.000000 0.085445
#
#
# Mechanical properties :
#
#
# Convention : Reuss Voigt Hill
#
# Bulk Modulus (GPa) = 14.32472 24.30280 19.31376
# Shear Modulus (GPa) = 12.48778 20.00730 16.24754
#
# Velocity S-wave (km/s) = 2.43522 3.08240 2.77772
# Velocity P-wave (km/s) = 3.83531 4.92030 4.41129
#
# Compressibility (1/GPa) = 0.06980941
#
# Stress axis : x y z
#
# Youngs Moduli (GPa) = 63.81219 14.01665 46.87331
#
# Poissons Ratio (x) = -0.01096 0.24641
# Poissons Ratio (y) = -0.04990 0.69349
# Poissons Ratio (z) = 0.33545 0.20737
#
# Static dielectric constant tensor:
#      x y z
#    x 1.795180 0.000000 0.014520 
#    y 0.000000 1.757370 0.000000 
#    z 0.014520 0.000000 1.764220 
# 
# From -- ./inp_files/54055.got.cif
#   From: 2010.05.17/outbox.cif.g08.bks.cpg/sg10_28_cif.got.tgz:54055.got - 2010.06.03 11:33:40.
