data_PCOD9149799
_publ_section_title
;
Structure prediction by ZEFSAII (Michael W. Deem and Ramdas Pophale) SiO2 
 PCOD9149799
Probable space group: P 2/M
;
_chemical_formula_sum "Si O2"
_cell_formula_units_Z 24
_cell_length_a 8.748092
_cell_length_b 11.174560
_cell_length_c 23.376398
_cell_angle_alpha 90.000000
_cell_angle_beta 148.950913
_cell_angle_gamma 90.000000
_cell_volume 1178.635005
_symmetry_space_group_name_H-M "P 2/M"
_symmetry_group_IT_number 10
_symmetry_cell_setting 'monoclinic'
loop_
_space_group_symop_operation_xyz
x,y,z
-x,y,-z
-x,-y,-z
x,-y,z
loop_
_atom_site_type_symbol
_atom_site_label
_atom_site_fract_x
_atom_site_fract_y
_atom_site_fract_z
Si Si1 0.689754 0.500000 0.831696
Si Si2 0.848850 0.356688 0.615671
Si Si3 0.122099 0.137614 0.166099
Si Si4 0.610182 0.500000 0.945118
Si Si5 0.367319 0.134899 0.083222
Si Si6 0.193797 0.277664 0.838391
Si Si7 0.612377 0.740006 0.271647
O O1 0.615849 0.500000 0.876846
O O2 0.535118 0.616324 0.757266
O O3 0.039032 0.500000 0.930475
O O4 0.500000 0.335591 0.500000
O O5 0.903212 0.500000 0.627078
O O6 0.969580 0.314291 0.715917
O O7 0.044987 0.284790 0.631827
O O8 0.470810 0.161482 0.267549
O O9 0.986119 0.238025 0.163797
O O10 0.073454 0.000000 0.168604
O O11 0.942762 0.152111 0.048470
O O12 0.434444 0.385496 0.913849
O O13 0.616577 0.159465 0.115703
O O14 0.466017 0.226705 0.163369
O O15 0.382404 0.000000 0.110213
#
# Coordination Sequence:
#
# PCOD9149799 Si02
#       7
#     2   4   4   2   4   4   4
#     4  11  20  33  56  87 119 148 186 236 293 335
#     4  10  20  40  66  86 109 144 193 246 298 352
#     4  11  24  37  56  86 122 162 195 230 278 340
#     4  11  20  33  54  84 119 152 183 227 290 349
#     4  10  20  35  56  80 115 165 206 228 263 333
#     4  11  20  38  56  84 122 152 189 237 287 342
#     4  11  20  37  58  86 119 150 196 244 284 340
#
# _framework density 20.362537
#
# number of rings (size 3 to 8) (size 9 to 14) (size 15 to 20)
#    0.000    1.333    5.000    3.000    2.333    3.333 
#    0.000    4.167    0.000   21.000    0.000    0.000 
#    0.000    0.000    0.000    0.000    0.000    0.000 
#
# Total GULP energy -133899.946754 kJ/mol
# GULP energy per Si atom -5579.164448 kJ/mol
# Density = 2.031619 g / cm^3
# Si number density = 20.362537 Si / 1000 Ang^3
#
#
#
# Elastic Constant Matrix: (Units=GPa)
#
#
# Indices 1 2 3 4 5 6 
#
# 1 97.2784 43.3602 32.4296 0.0000 35.5140 0.0000
# 2 43.3602 96.7930 29.5586 0.0000 18.8752 0.0000
# 3 32.4296 29.5586 90.9397 0.0000 40.8419 0.0000
# 4 0.0000 0.0000 0.0000 17.0701 0.0000 5.8999
# 5 35.5140 18.8752 40.8419 0.0000 33.3943 0.0000
# 6 0.0000 0.0000 0.0000 5.8999 0.0000 37.1640
#
#
#
# Elastic Compliance Matrix: (Units=1/GPa)
#
#
# Indices 1 2 3 4 5 6 
#
# 1 0.020327 -0.005977 0.006401 0.000000 -0.026067 0.000000
# 2 -0.005977 0.013508 -0.003738 0.000000 0.003293 0.000000
# 3 0.006401 -0.003738 0.026706 0.000000 -0.037356 0.000000
# 4 0.000000 0.000000 0.000000 0.061983 0.000000 -0.009840
# 5 -0.026067 0.003293 -0.037356 0.000000 0.101493 0.000000
# 6 0.000000 0.000000 0.000000 -0.009840 0.000000 0.028470
#
#
# Mechanical properties :
#
#
# Convention : Reuss Voigt Hill
#
# Bulk Modulus (GPa) = 18.54866 55.07867 36.81367
# Shear Modulus (GPa) = 18.04496 29.50319 23.77408
#
# Velocity S-wave (km/s) = 2.98011 3.81057 3.42064
# Velocity P-wave (km/s) = 4.57935 6.81677 5.80684
#
# Compressibility (1/GPa) = 0.05391225
#
# Stress axis : x y z
#
# Youngs Moduli (GPa) = 49.19678 74.02871 37.44516
#
# Poissons Ratio (x) = 0.44248 -0.23970
# Poissons Ratio (y) = 0.29406 0.13998
# Poissons Ratio (z) = -0.31492 0.27674
#
# Static dielectric constant tensor:
#      x y z
#    x 1.804010 0.000000 0.002620 
#    y 0.000000 1.722590 0.000000 
#    z 0.002620 0.000000 1.699100 
# 
# From -- ./inp_files/88138.got.cif
#   From: 2010.05.17/outbox.cif.g08.bks.cpg/sg10_45_cif.got.tgz:88138.got - 2010.06.03 11:33:40.
