data_PCOD9149599
_publ_section_title
;
Structure prediction by ZEFSAII (Michael W. Deem and Ramdas Pophale) SiO2 
 PCOD9149599
Probable space group: P 2/M
;
_chemical_formula_sum "Si O2"
_cell_formula_units_Z 32
_cell_length_a 21.043866
_cell_length_b 13.907801
_cell_length_c 17.879799
_cell_angle_alpha 90.000000
_cell_angle_beta 20.115186
_cell_angle_gamma 90.000000
_cell_volume 1799.656609
_symmetry_space_group_name_H-M "P 2/M"
_symmetry_group_IT_number 10
_symmetry_cell_setting 'monoclinic'
loop_
_space_group_symop_operation_xyz
x,y,z
-x,y,-z
-x,-y,-z
x,-y,z
loop_
_atom_site_type_symbol
_atom_site_label
_atom_site_fract_x
_atom_site_fract_y
_atom_site_fract_z
Si Si1 0.579441 0.890592 0.828371
Si Si2 0.068848 0.613284 0.138525
Si Si3 0.128298 0.383467 0.791123
Si Si4 0.005318 0.896199 0.403904
Si Si5 0.484767 0.308545 0.852804
Si Si6 0.693235 0.388152 0.749812
Si Si7 0.486831 0.613758 0.686409
Si Si8 0.919888 0.689901 0.707158
O O1 0.799996 0.888404 0.597069
O O2 0.518525 0.800381 0.845085
O O3 0.529078 0.000000 0.859273
O O4 0.500000 0.878627 0.000000
O O5 0.032536 0.500000 0.187967
O O6 0.051358 0.657957 0.239559
O O7 0.942465 0.651073 0.211624
O O8 0.283083 0.625035 0.878345
O O9 0.109035 0.500000 0.811930
O O10 0.345643 0.362717 0.553994
O O11 0.000000 0.347454 0.000000
O O12 0.000000 0.892104 0.500000
O O13 0.110694 0.803544 0.260539
O O14 0.083520 0.000000 0.296824
O O15 0.639541 0.372358 0.722493
O O16 0.498504 0.323808 0.749052
O O17 0.278321 0.348616 0.101791
O O18 0.715386 0.500000 0.743472
O O19 0.889344 0.335921 0.546141
O O20 0.500000 0.351595 0.000000
O O21 0.504349 0.500000 0.688251
#
# Coordination Sequence:
#
# PCOD9149599 Si02
#       8
#     4   4   4   4   4   4   4   4
#     4  10  20  35  53  75 102 129 165 215 268 315
#     4   9  18  32  48  71 101 133 168 203 245 295
#     4   9  17  29  48  72  98 132 168 202 243 291
#     4  10  21  35  53  76 100 129 167 214 264 312
#     4  11  21  34  54  74  97 133 170 208 259 310
#     4  11  24  37  48  67  96 130 172 219 257 293
#     4   9  18  31  47  70 101 133 165 202 242 292
#     4  11  22  34  56  73  98 135 173 211 259 313
#
# _framework density 17.781169999999999
#
# number of rings (size 3 to 8) (size 9 to 14) (size 15 to 20)
#    0.000    2.000    1.250    2.625    1.750    4.500 
#    0.000    3.750    0.000    0.000    0.000    0.000 
#    0.000    2.000    0.000    5.500    0.000    0.250 
#
# Total GULP energy -178433.163759 kJ/mol
# GULP energy per Si atom -5576.036367 kJ/mol
# Density = 1.774070 g / cm^3
# Si number density = 17.781170 Si / 1000 Ang^3
#
#
#
# Elastic Constant Matrix: (Units=GPa)
#
#
# Indices 1 2 3 4 5 6 
#
# 1 25.1751 5.4598 15.9281 0.0000 -11.2813 0.0000
# 2 5.4598 66.4835 18.1069 0.0000 -1.6939 0.0000
# 3 15.9281 18.1069 101.1129 0.0000 -11.6832 0.0000
# 4 0.0000 0.0000 0.0000 -1.5514 0.0000 0.3585
# 5 -11.2813 -1.6939 -11.6832 0.0000 25.6614 0.0000
# 6 0.0000 0.0000 0.0000 0.3585 0.0000 -9.5066
#
#
#
# Elastic Compliance Matrix: (Units=1/GPa)
#
#
# Indices 1 2 3 4 5 6 
#
# 1 0.052968 -0.002314 -0.005549 0.000000 0.020607 0.000000
# 2 -0.002314 0.015915 -0.002619 0.000000 -0.001159 0.000000
# 3 -0.005549 -0.002619 0.011538 0.000000 0.002641 0.000000
# 4 0.000000 0.000000 0.000000 -0.650254 0.000000 -0.024523
# 5 0.020607 -0.001159 0.002641 0.000000 0.049154 0.000000
# 6 0.000000 0.000000 0.000000 -0.024523 0.000000 -0.106114
#
#
# Mechanical properties :
#
#
# Convention : Reuss Voigt Hill
#
# Bulk Modulus (GPa) = 16.81851 30.19569 23.50710
# Shear Modulus (GPa) = -8.53229 13.13914 2.30342
#
# Velocity S-wave (km/s) = -2.19292 2.72129 1.13940
# Velocity P-wave (km/s) = 1.75136 5.18580 3.87039
#
# Compressibility (1/GPa) = 0.05945830
#
# Stress axis : x y z
#
# Youngs Moduli (GPa) = 18.87916 62.83296 86.66838
#
# Poissons Ratio (x) = 0.14538 0.48089
# Poissons Ratio (y) = 0.04368 0.22703
# Poissons Ratio (z) = 0.10475 0.16459
#
# Static dielectric constant tensor:
#      x y z
#    x 1.632600 0.000000 -0.018520 
#    y 0.000000 1.607820 0.000000 
#    z -0.018520 0.000000 1.684660 
# 
# From -- ./inp_files/79710.got.cif
#   From: 2010.05.17/outbox.cif.g08.bks.cpg/sg10_40_cif.got.tgz:79710.got - 2010.06.03 11:33:40.
