data_PCOD9149198
_publ_section_title
;
Structure prediction by ZEFSAII (Michael W. Deem and Ramdas Pophale) SiO2 
 PCOD9149198
Probable space group: P 2/M
;
_chemical_formula_sum "Si O2"
_cell_formula_units_Z 32
_cell_length_a 26.241525
_cell_length_b 9.580084
_cell_length_c 22.503227
_cell_angle_alpha 90.000000
_cell_angle_beta 163.822472
_cell_angle_gamma 90.000000
_cell_volume 1576.183660
_symmetry_space_group_name_H-M "P 2/M"
_symmetry_group_IT_number 10
_symmetry_cell_setting 'monoclinic'
loop_
_space_group_symop_operation_xyz
x,y,z
-x,y,-z
-x,-y,-z
x,-y,z
loop_
_atom_site_type_symbol
_atom_site_label
_atom_site_fract_x
_atom_site_fract_y
_atom_site_fract_z
Si Si1 0.972665 0.159419 0.401556
Si Si2 0.270157 0.339563 0.579776
Si Si3 0.882658 0.658401 0.810911
Si Si4 0.854805 0.842439 0.663989
Si Si5 0.736435 0.157560 0.927250
Si Si6 0.150925 0.339566 0.841306
Si Si7 0.473856 0.341595 0.402107
Si Si8 0.614878 0.159417 0.185986
O O1 0.174191 0.154031 0.598380
O O2 0.000000 0.205653 0.500000
O O3 0.856541 0.261095 0.230031
O O4 0.900007 0.000000 0.320740
O O5 0.323199 0.500000 0.630271
O O6 0.268619 0.252312 0.517187
O O7 0.390439 0.261097 0.763930
O O8 0.059306 0.340398 0.368614
O O9 0.940039 0.500000 0.857849
O O10 0.893229 0.764200 0.768548
O O11 0.673487 0.653191 0.596970
O O12 0.000000 0.699353 0.000000
O O13 0.784590 0.000000 0.593651
O O14 0.049608 0.852769 0.849215
O O15 0.642585 0.235801 0.767267
O O16 0.666469 0.000000 0.857411
O O17 0.728514 0.252309 0.977082
O O18 0.209064 0.500000 0.901994
O O19 0.500000 0.300661 0.500000
O O20 0.395592 0.500000 0.313399
O O21 0.558529 0.000000 0.137793
O O22 0.500000 0.205661 0.000000
#
# Coordination Sequence:
#
# PCOD9149198 Si02
#       8
#     4   4   4   4   4   4   4   4
#     4   9  17  30  48  70  97 129 165 205 250 301
#     4   9  17  30  50  74  99 130 169 211 253 300
#     4  10  21  37  57  80 106 137 172 210 254 304
#     4  10  20  34  54  79 105 135 172 213 257 306
#     4  10  20  34  54  79 105 135 172 213 257 306
#     4   9  17  30  50  74  99 130 169 211 253 300
#     4  10  21  37  57  80 106 137 172 210 254 304
#     4   9  17  30  48  70  97 129 165 205 250 301
#
# _framework density 20.302202999999999
#
# number of rings (size 3 to 8) (size 9 to 14) (size 15 to 20)
#    0.000    2.500    0.000    2.250    0.000    7.000 
#    0.000    1.250    0.000    4.500    0.000    0.000 
#    0.000    0.000    0.000    0.000    0.000    0.000 
#
# Total GULP energy -178669.065653 kJ/mol
# GULP energy per Si atom -5583.408302 kJ/mol
# Density = 2.025599 g / cm^3
# Si number density = 20.302203 Si / 1000 Ang^3
#
#
#
# Elastic Constant Matrix: (Units=GPa)
#
#
# Indices 1 2 3 4 5 6 
#
# 1 72.2831 74.9765 27.5792 0.0000 -40.0079 0.0000
# 2 74.9765 185.2337 84.2845 0.0000 -72.1781 0.0000
# 3 27.5792 84.2845 83.1238 0.0000 -44.0458 0.0000
# 4 0.0000 0.0000 0.0000 27.7996 0.0000 -14.6335
# 5 -40.0079 -72.1781 -44.0458 0.0000 56.2462 0.0000
# 6 0.0000 0.0000 0.0000 -14.6335 0.0000 25.9112
#
#
#
# Elastic Compliance Matrix: (Units=1/GPa)
#
#
# Indices 1 2 3 4 5 6 
#
# 1 0.028670 -0.009628 0.007707 0.000000 0.014074 0.000000
# 2 -0.009628 0.016260 -0.010025 0.000000 0.006168 0.000000
# 3 0.007707 -0.010025 0.026880 0.000000 0.013667 0.000000
# 4 0.000000 0.000000 0.000000 0.051189 0.000000 0.028909
# 5 0.014074 0.006168 0.013667 0.000000 0.046406 0.000000
# 6 0.000000 0.000000 0.000000 0.028909 0.000000 0.054920
#
#
# Mechanical properties :
#
#
# Convention : Reuss Voigt Hill
#
# Bulk Modulus (GPa) = 20.86855 79.36902 50.11878
# Shear Modulus (GPa) = 18.92581 32.24477 25.58529
#
# Velocity S-wave (km/s) = 3.05652 3.98960 3.55381
# Velocity P-wave (km/s) = 4.77050 7.77182 6.44821
#
# Compressibility (1/GPa) = 0.04791900
#
# Stress axis : x y z
#
# Youngs Moduli (GPa) = 34.88005 61.49957 37.20246
#
# Poissons Ratio (x) = 0.59209 -0.28672
# Poissons Ratio (y) = 0.33581 0.37296
# Poissons Ratio (z) = -0.26882 0.61653
#
# Static dielectric constant tensor:
#      x y z
#    x 1.721250 0.000000 0.030480 
#    y 0.000000 1.714680 0.000000 
#    z 0.030480 0.000000 1.717320 
# 
# From -- ./inp_files/86947.got.cif
#   From: 2010.05.17/outbox.cif.g08.bks.cpg/sg10_44_cif.got.tgz:86947.got - 2010.06.03 11:33:40.
