data_PCOD9149303
_publ_section_title
;
Structure prediction by ZEFSAII (Michael W. Deem and Ramdas Pophale) SiO2 
 PCOD9149303
Probable space group: P 2/M
;
_chemical_formula_sum "Si O2"
_cell_formula_units_Z 28
_cell_length_a 24.100816
_cell_length_b 7.610770
_cell_length_c 21.302841
_cell_angle_alpha 90.000000
_cell_angle_beta 160.937446
_cell_angle_gamma 90.000000
_cell_volume 1276.187205
_symmetry_space_group_name_H-M "P 2/M"
_symmetry_group_IT_number 10
_symmetry_cell_setting 'monoclinic'
loop_
_space_group_symop_operation_xyz
x,y,z
-x,y,-z
-x,-y,-z
x,-y,z
loop_
_atom_site_type_symbol
_atom_site_label
_atom_site_fract_x
_atom_site_fract_y
_atom_site_fract_z
Si Si1 0.480307 0.285011 0.407045
Si Si2 0.132703 0.710747 0.970146
Si Si3 0.994754 0.197971 0.293741
Si Si4 0.085109 0.700068 0.652732
Si Si5 0.480883 0.298126 0.048438
Si Si6 0.357892 0.696302 0.655348
Si Si7 0.251976 0.715372 0.410362
O O1 0.500000 0.229488 0.500000
O O2 0.478680 0.500000 0.404417
O O3 0.640753 0.231634 0.535702
O O4 0.299940 0.225832 0.185113
O O5 0.130994 0.500000 0.973919
O O6 0.140725 0.755718 0.904678
O O7 0.946075 0.771744 0.795612
O O8 0.940247 0.214322 0.307061
O O9 0.158085 0.316119 0.456175
O O10 0.051331 0.000000 0.342334
O O11 0.016668 0.500000 0.585037
O O12 0.000000 0.782028 0.500000
O O13 0.283121 0.692797 0.850725
O O14 0.551287 0.500000 0.118847
O O15 0.564825 0.215769 0.200047
O O16 0.500000 0.216647 0.000000
O O17 0.436101 0.500000 0.734964
O O18 0.356517 0.774200 0.584210
O O19 0.249689 0.500000 0.410205
#
# Coordination Sequence:
#
# PCOD9149303 Si02
#       7
#     4   4   4   4   4   4   4
#     4   9  17  28  48  81 113 137 169 219 275 325
#     4   9  18  33  54  76 104 141 178 220 268 318
#     4  11  22  35  52  75 105 139 176 221 267 314
#     4  10  20  34  55  80 105 136 174 216 264 320
#     4   9  17  29  50  78 102 128 168 217 261 306
#     4   9  17  32  53  74  98 132 175 220 264 314
#     4   8  15  27  45  73 104 135 171 213 263 318
#
# _framework density 21.940356000000001
#
# number of rings (size 3 to 8) (size 9 to 14) (size 15 to 20)
#    0.000    2.714    0.000    3.000    2.000    3.143 
#    0.000    3.571    0.000    2.143    0.000    4.000 
#    0.000    0.000    0.000    0.000    0.000    0.000 
#
# Total GULP energy -156129.724829 kJ/mol
# GULP energy per Si atom -5576.061601 kJ/mol
# Density = 2.189042 g / cm^3
# Si number density = 21.940356 Si / 1000 Ang^3
#
#
#
# Elastic Constant Matrix: (Units=GPa)
#
#
# Indices 1 2 3 4 5 6 
#
# 1 188.2158 6.1491 68.7389 0.0000 -24.0060 0.0000
# 2 6.1491 56.2658 6.6796 0.0000 -0.4859 0.0000
# 3 68.7389 6.6796 120.6212 0.0000 -33.7951 0.0000
# 4 0.0000 0.0000 0.0000 -4.2455 0.0000 -0.7073
# 5 -24.0060 -0.4859 -33.7951 0.0000 34.9694 0.0000
# 6 0.0000 0.0000 0.0000 -0.7073 0.0000 -15.0287
#
#
#
# Elastic Compliance Matrix: (Units=1/GPa)
#
#
# Indices 1 2 3 4 5 6 
#
# 1 0.006755 -0.000315 -0.003475 0.000000 0.001275 0.000000
# 2 -0.000315 0.017929 -0.001103 0.000000 -0.001033 0.000000
# 3 -0.003475 -0.001103 0.013246 0.000000 0.010400 0.000000
# 4 0.000000 0.000000 0.000000 -0.237407 0.000000 0.011174
# 5 0.001275 -0.001033 0.010400 0.000000 0.039508 0.000000
# 6 0.000000 0.000000 0.000000 0.011174 0.000000 -0.067065
#
#
# Mechanical properties :
#
#
# Convention : Reuss Voigt Hill
#
# Bulk Modulus (GPa) = 35.53067 58.69311 47.11189
# Shear Modulus (GPa) = -24.05368 22.04140 -1.00614
#
# Velocity S-wave (km/s) = -3.31467 3.17299 -0.67792
# Velocity P-wave (km/s) = 1.25699 6.34296 4.57237
#
# Compressibility (1/GPa) = 0.02814470
#
# Stress axis : x y z
#
# Youngs Moduli (GPa) = 148.03843 55.77497 75.49682
#
# Poissons Ratio (x) = 0.01755 0.26235
# Poissons Ratio (y) = 0.04659 0.08326
# Poissons Ratio (z) = 0.51443 0.06151
#
# Static dielectric constant tensor:
#      x y z
#    x 1.975090 0.000000 0.018500 
#    y 0.000000 1.832480 0.000000 
#    z 0.018500 0.000000 1.808990 
# 
# From -- ./inp_files/86552.got.cif
#   From: 2010.05.17/outbox.cif.g08.bks.cpg/sg10_44_cif.got.tgz:86552.got - 2010.06.03 11:33:40.
