data_PCOD9149864
_publ_section_title
;
Structure prediction by ZEFSAII (Michael W. Deem and Ramdas Pophale) SiO2 
 PCOD9149864
Probable space group: P 2/M
;
_chemical_formula_sum "Si O2"
_cell_formula_units_Z 22
_cell_length_a 8.604075
_cell_length_b 16.168466
_cell_length_c 8.276767
_cell_angle_alpha 90.000000
_cell_angle_beta 86.961661
_cell_angle_gamma 90.000000
_cell_volume 1149.801348
_symmetry_space_group_name_H-M "P 2/M"
_symmetry_group_IT_number 10
_symmetry_cell_setting 'monoclinic'
loop_
_space_group_symop_operation_xyz
x,y,z
-x,y,-z
-x,-y,-z
x,-y,z
loop_
_atom_site_type_symbol
_atom_site_label
_atom_site_fract_x
_atom_site_fract_y
_atom_site_fract_z
Si Si1 0.566881 0.407330 0.174850
Si Si2 0.154599 0.090804 0.101802
Si Si3 0.087914 0.246440 0.335042
Si Si4 0.500000 0.850330 0.000000
Si Si5 0.937007 0.591363 0.184570
Si Si6 0.446084 0.749314 0.335650
O O1 0.509454 0.500000 0.212396
O O2 0.752390 0.406705 0.170670
O O3 0.519639 0.339897 0.306014
O O4 0.500000 0.385417 0.000000
O O5 0.112158 0.169376 0.213908
O O6 0.166826 0.000000 0.182761
O O7 0.327547 0.105496 0.011976
O O8 0.000000 0.086390 0.000000
O O9 0.264598 0.268616 0.362191
O O10 0.000000 0.218715 0.500000
O O11 0.000816 0.327719 0.271606
O O12 0.489614 0.799326 0.169651
O O13 0.979637 0.500000 0.252103
O O14 0.000000 0.595021 0.000000
O O15 0.500000 0.790369 0.500000
#
# Coordination Sequence:
#
# PCOD9149864 Si02
#       6
#     4   4   4   2   4   4
#     4  10  20  35  56  84 122 164 210 262 312 369
#     4  10  23  42  69  96 122 167 213 259 323 384
#     4  11  24  39  61  90 126 166 202 264 317 376
#     4  10  23  42  67  94 130 164 203 268 318 386
#     4  10  21  36  58  88 122 165 210 256 311 373
#     4  11  23  38  61  92 120 164 214 253 320 377
#
# _framework density 19.133738000000001
#
# number of rings (size 3 to 8) (size 9 to 14) (size 15 to 20)
#    0.000    1.636    0.909    3.000    7.636    3.273 
#    0.000    0.000    0.000    2.727    0.000    0.000 
#    0.000    0.000    0.000    0.000    0.000    0.000 
#
# Total GULP energy -122489.733426 kJ/mol
# GULP energy per Si atom -5567.715156 kJ/mol
# Density = 1.909019 g / cm^3
# Si number density = 19.133738 Si / 1000 Ang^3
#
#
#
# Elastic Constant Matrix: (Units=GPa)
#
#
# Indices 1 2 3 4 5 6 
#
# 1 118.3608 50.8440 37.1989 0.0000 -11.3467 0.0000
# 2 50.8440 103.3235 35.8857 0.0000 -3.7414 0.0000
# 3 37.1989 35.8857 77.7927 0.0000 -7.0111 0.0000
# 4 0.0000 0.0000 0.0000 -21.2441 0.0000 18.1991
# 5 -11.3467 -3.7414 -7.0111 0.0000 33.0225 0.0000
# 6 0.0000 0.0000 0.0000 18.1991 0.0000 28.8762
#
#
#
# Elastic Compliance Matrix: (Units=1/GPa)
#
#
# Indices 1 2 3 4 5 6 
#
# 1 0.011680 -0.004518 -0.003248 0.000000 0.002812 0.000000
# 2 -0.004518 0.013273 -0.004044 0.000000 -0.000907 0.000000
# 3 -0.003248 -0.004044 0.016446 0.000000 0.001918 0.000000
# 4 0.000000 0.000000 0.000000 -0.030568 0.000000 0.019265
# 5 0.002812 -0.000907 0.001918 0.000000 0.031553 0.000000
# 6 0.000000 0.000000 0.000000 0.019265 0.000000 0.022489
#
#
# Mechanical properties :
#
#
# Convention : Reuss Voigt Hill
#
# Bulk Modulus (GPa) = 56.24394 60.81490 58.52942
# Shear Modulus (GPa) = 52.95582 19.83415 36.39499
#
# Velocity S-wave (km/s) = 5.26657 3.22313 4.36608
# Velocity P-wave (km/s) = 8.15115 6.76051 7.48819
#
# Compressibility (1/GPa) = 0.01777969
#
# Stress axis : x y z
#
# Youngs Moduli (GPa) = 85.61965 75.33955 60.80463
#
# Poissons Ratio (x) = 0.34035 0.19747
# Poissons Ratio (y) = 0.38680 0.24592
# Poissons Ratio (z) = 0.27805 0.30471
#
# Static dielectric constant tensor:
#      x y z
#    x 1.643920 0.000000 0.034660 
#    y 0.000000 1.706400 0.000000 
#    z 0.034660 0.000000 1.666620 
# 
# From -- ./inp_files/18558.got.cif
#   From: 2010.05.17/outbox.cif.g08.bks.cpg/sg10_10_cif.got.tgz:18558.got - 2010.06.03 11:33:40.
