data_PCOD9149274
_publ_section_title
;
Structure prediction by ZEFSAII (Michael W. Deem and Ramdas Pophale) SiO2 
 PCOD9149274
Probable space group: P 2/M
;
_chemical_formula_sum "Si O2"
_cell_formula_units_Z 20
_cell_length_a 9.470538
_cell_length_b 7.720655
_cell_length_c 27.961724
_cell_angle_alpha 90.000000
_cell_angle_beta 148.202508
_cell_angle_gamma 90.000000
_cell_volume 1077.299021
_symmetry_space_group_name_H-M "P 2/M"
_symmetry_group_IT_number 10
_symmetry_cell_setting 'monoclinic'
loop_
_space_group_symop_operation_xyz
x,y,z
-x,y,-z
-x,-y,-z
x,-y,z
loop_
_atom_site_type_symbol
_atom_site_label
_atom_site_fract_x
_atom_site_fract_y
_atom_site_fract_z
Si Si1 0.852235 0.195672 0.708069
Si Si2 0.098231 0.500000 0.606624
Si Si3 0.305015 0.790953 0.081121
Si Si4 0.199462 0.205022 0.712124
Si Si5 0.645867 0.700728 0.088775
Si Si6 0.440252 0.500000 0.610111
O O1 0.624992 0.333632 0.653620
O O2 0.000874 0.233049 0.700283
O O3 0.086093 0.208537 0.815268
O O4 0.748264 0.000000 0.676441
O O5 0.127401 0.331419 0.648466
O O6 0.321994 0.500000 0.629571
O O7 0.811940 0.500000 0.498107
O O8 0.503356 0.752717 0.182262
O O9 0.437159 0.711394 0.072200
O O10 0.310793 0.000000 0.076843
O O11 0.000000 0.735743 0.000000
O O12 0.188881 0.000000 0.697129
O O13 0.715544 0.500000 0.099447
O O14 0.500000 0.773345 0.000000
#
# Coordination Sequence:
#
# PCOD9149274 Si02
#       6
#     4   2   4   4   4   2
#     4  10  21  40  65  87 116 154 196 245 286 340
#     4  11  25  41  62  83 120 155 180 247 300 353
#     4   9  19  35  54  82 118 154 195 235 277 335
#     4   9  20  39  62  89 115 152 201 240 286 341
#     4  10  20  34  54  85 120 152 193 235 277 337
#     4  11  25  43  58  89 118 147 196 233 302 363
#
# _framework density 18.564947
#
# number of rings (size 3 to 8) (size 9 to 14) (size 15 to 20)
#    0.000    2.200    1.000    2.400    4.200    6.800 
#    0.000    6.000    0.000    0.000    0.000    0.000 
#    0.000    0.000    0.000    0.000    0.000    0.000 
#
# Total GULP energy -111667.207240 kJ/mol
# GULP energy per Si atom -5583.360362 kJ/mol
# Density = 1.852269 g / cm^3
# Si number density = 18.564947 Si / 1000 Ang^3
#
#
#
# Elastic Constant Matrix: (Units=GPa)
#
#
# Indices 1 2 3 4 5 6 
#
# 1 84.5375 71.2134 85.9983 0.0000 -4.3830 0.0000
# 2 71.2134 103.7516 70.3512 0.0000 0.6578 0.0000
# 3 85.9983 70.3512 116.3075 0.0000 -1.3550 0.0000
# 4 0.0000 0.0000 0.0000 -132.7978 0.0000 107.9938
# 5 -4.3830 0.6578 -1.3550 0.0000 38.7022 0.0000
# 6 0.0000 0.0000 0.0000 107.9938 0.0000 -40.4894
#
#
#
# Elastic Compliance Matrix: (Units=1/GPa)
#
#
# Indices 1 2 3 4 5 6 
#
# 1 0.068744 -0.021727 -0.037607 0.000000 0.006838 0.000000
# 2 -0.021727 0.023223 0.001986 0.000000 -0.002786 0.000000
# 3 -0.037607 0.001986 0.035168 0.000000 -0.003062 0.000000
# 4 0.000000 0.000000 0.000000 0.006441 0.000000 0.017181
# 5 0.006838 -0.002786 -0.003062 0.000000 0.026553 0.000000
# 6 0.000000 0.000000 0.000000 0.017181 0.000000 0.021127
#
#
# Mechanical properties :
#
#
# Convention : Reuss Voigt Hill
#
# Bulk Modulus (GPa) = 80.40546 84.41360 82.40953
# Shear Modulus (GPa) = 16.66121 -21.78141 -2.56010
#
# Velocity S-wave (km/s) = 2.99901 -3.42900 -1.17558
# Velocity P-wave (km/s) = 7.44288 5.46724 6.53020
#
# Compressibility (1/GPa) = 0.01243697
#
# Stress axis : x y z
#
# Youngs Moduli (GPa) = 14.54681 43.06151 28.43492
#
# Poissons Ratio (x) = 0.93561 1.06936
# Poissons Ratio (y) = 0.31606 -0.05647
# Poissons Ratio (z) = 0.54707 -0.08552
#
# Static dielectric constant tensor:
#      x y z
#    x 1.608920 0.000000 -0.006040 
#    y 0.000000 1.641620 0.000000 
#    z -0.006040 0.000000 1.629110 
# 
# From -- ./inp_files/33685.got.cif
#   From: 2010.05.17/outbox.cif.g08.bks.cpg/sg10_17_cif.got.tgz:33685.got - 2010.06.03 11:33:40.
