data_PCOD9149067
_publ_section_title
;
Structure prediction by ZEFSAII (Michael W. Deem and Ramdas Pophale) SiO2 
 PCOD9149067
Probable space group: P 2/M
;
_chemical_formula_sum "Si O2"
_cell_formula_units_Z 28
_cell_length_a 12.571573
_cell_length_b 8.701298
_cell_length_c 19.743171
_cell_angle_alpha 90.000000
_cell_angle_beta 131.309479
_cell_angle_gamma 90.000000
_cell_volume 1622.258636
_symmetry_space_group_name_H-M "P 2/M"
_symmetry_group_IT_number 10
_symmetry_cell_setting 'monoclinic'
loop_
_space_group_symop_operation_xyz
x,y,z
-x,y,-z
-x,-y,-z
x,-y,z
loop_
_atom_site_type_symbol
_atom_site_label
_atom_site_fract_x
_atom_site_fract_y
_atom_site_fract_z
Si Si1 0.076057 0.814884 0.190643
Si Si2 0.397997 0.315299 0.894818
Si Si3 0.900738 0.813126 0.397904
Si Si4 0.315820 0.679215 0.196044
Si Si5 0.915494 0.185940 0.251149
Si Si6 0.579153 0.816646 0.243734
Si Si7 0.862404 0.172697 0.990362
O O1 0.209718 0.741218 0.209261
O O2 0.040862 0.771380 0.252467
O O3 0.091013 0.000000 0.191085
O O4 0.931323 0.774969 0.089160
O O5 0.396312 0.500000 0.892859
O O6 0.237065 0.253761 0.833976
O O7 0.448281 0.254722 0.842279
O O8 0.500000 0.266306 0.000000
O O9 0.947078 0.768115 0.341632
O O10 0.736139 0.767806 0.333158
O O11 0.000000 0.755850 0.500000
O O12 0.904180 0.000000 0.401579
O O13 0.337810 0.500000 0.214228
O O14 0.463306 0.766310 0.249605
O O15 0.239451 0.714364 0.091968
O O16 0.901375 0.000000 0.242800
O O17 0.578257 0.000000 0.235651
O O18 0.800438 0.000000 0.970281
O O19 0.000000 0.159772 0.000000
#
# Coordination Sequence:
#
# PCOD9149067 Si02
#       7
#     4   4   4   4   4   4   4
#     4   9  18  32  48  69  98 133 174 209 241 291
#     4  10  21  34  47  70 103 135 166 207 252 291
#     4   8  15  31  56  82 101 118 154 211 263 302
#     4  11  21  31  46  70 101 134 170 210 251 292
#     4   9  18  32  52  77 100 131 169 204 248 303
#     4  10  20  34  53  74  98 132 170 205 249 303
#     4   8  15  28  43  61  88 128 172 206 235 275
#
# _framework density 17.259886000000002
#
# number of rings (size 3 to 8) (size 9 to 14) (size 15 to 20)
#    0.000    2.714    0.000    3.857    2.000    4.286 
#    0.000    0.000    0.000   11.571    0.000    6.000 
#    0.000    0.000    0.000    0.000    0.000    0.000 
#
# Total GULP energy -156003.793005 kJ/mol
# GULP energy per Si atom -5571.564036 kJ/mol
# Density = 1.722060 g / cm^3
# Si number density = 17.259886 Si / 1000 Ang^3
#
#
#
# Elastic Constant Matrix: (Units=GPa)
#
#
# Indices 1 2 3 4 5 6 
#
# 1 127.0431 27.4970 58.1549 0.0000 -6.3564 0.0000
# 2 27.4970 36.1942 23.0990 0.0000 -2.2206 0.0000
# 3 58.1549 23.0990 117.5195 0.0000 -10.7259 0.0000
# 4 0.0000 0.0000 0.0000 -12.5054 0.0000 1.0913
# 5 -6.3564 -2.2206 -10.7259 0.0000 13.2937 0.0000
# 6 0.0000 0.0000 0.0000 1.0913 0.0000 13.2704
#
#
#
# Elastic Compliance Matrix: (Units=1/GPa)
#
#
# Indices 1 2 3 4 5 6 
#
# 1 0.011107 -0.005635 -0.004307 0.000000 0.000894 0.000000
# 2 -0.005635 0.034451 -0.003998 0.000000 -0.000165 0.000000
# 3 -0.004307 -0.003998 0.012066 0.000000 0.007008 0.000000
# 4 0.000000 0.000000 0.000000 -0.079396 0.000000 0.006529
# 5 0.000894 -0.000165 0.007008 0.000000 0.081278 0.000000
# 6 0.000000 0.000000 0.000000 0.006529 0.000000 0.074819
#
#
# Mechanical properties :
#
#
# Convention : Reuss Voigt Hill
#
# Bulk Modulus (GPa) = 33.62017 55.36207 44.49112
# Shear Modulus (GPa) = 29.04937 14.27880 21.66408
#
# Velocity S-wave (km/s) = 4.10696 2.87937 3.54668
# Velocity P-wave (km/s) = 6.48155 6.57264 6.52726
#
# Compressibility (1/GPa) = 0.02974405
#
# Stress axis : x y z
#
# Youngs Moduli (GPa) = 90.03040 29.02686 82.87577
#
# Poissons Ratio (x) = 0.16355 0.35698
# Poissons Ratio (y) = 0.50728 0.33136
# Poissons Ratio (z) = 0.38780 0.11606
#
# Static dielectric constant tensor:
#      x y z
#    x 1.608500 0.000000 -0.010230 
#    y 0.000000 1.579110 0.000000 
#    z -0.010230 0.000000 1.595040 
# 
# From -- ./inp_files/83408.got.cif
#   From: 2010.05.17/outbox.cif.g08.bks.cpg/sg10_42_cif.got.tgz:83408.got - 2010.06.03 11:33:40.
