data_PCOD9149606
_publ_section_title
;
Structure prediction by ZEFSAII (Michael W. Deem and Ramdas Pophale) SiO2 
 PCOD9149606
Probable space group: P 2/M
;
_chemical_formula_sum "Si O2"
_cell_formula_units_Z 30
_cell_length_a 12.085751
_cell_length_b 14.234641
_cell_length_c 15.581850
_cell_angle_alpha 90.000000
_cell_angle_beta 28.219762
_cell_angle_gamma 90.000000
_cell_volume 1267.555250
_symmetry_space_group_name_H-M "P 2/M"
_symmetry_group_IT_number 10
_symmetry_cell_setting 'monoclinic'
loop_
_space_group_symop_operation_xyz
x,y,z
-x,y,-z
-x,-y,-z
x,-y,z
loop_
_atom_site_type_symbol
_atom_site_label
_atom_site_fract_x
_atom_site_fract_y
_atom_site_fract_z
Si Si1 0.772615 0.898372 0.793661
Si Si2 0.000000 0.136682 0.000000
Si Si3 0.110031 0.754695 0.573845
Si Si4 0.463261 0.605156 0.277876
Si Si5 0.157874 0.306198 0.075336
Si Si6 0.502172 0.885668 0.601276
Si Si7 0.715795 0.388934 0.288371
Si Si8 0.775725 0.097733 0.984987
O O1 0.916879 0.815004 0.655010
O O2 0.794278 0.000000 0.736661
O O3 0.500000 0.879345 0.000000
O O4 0.870215 0.907143 0.824064
O O5 0.270674 0.163044 0.799667
O O6 0.034505 0.091877 0.070454
O O7 0.257828 0.680184 0.420271
O O8 0.291391 0.828212 0.493819
O O9 0.967463 0.701643 0.747405
O O10 0.369659 0.500000 0.345784
O O11 0.643990 0.617850 0.076556
O O12 0.617760 0.619954 0.259315
O O13 0.291706 0.207175 0.965953
O O14 0.942833 0.327015 0.156598
O O15 0.500000 0.873272 0.500000
O O16 0.503363 0.000000 0.617070
O O17 0.500000 0.366671 0.500000
O O18 0.777213 0.500000 0.259434
O O19 0.629923 0.000000 0.094386
#
# Coordination Sequence:
#
# PCOD9149606 Si02
#       8
#     4   2   4   4   4   4   4   4
#     4   9  19  40  68  94 124 163 210 261 311 366
#     4  12  23  36  54  82 131 176 203 240 290 362
#     4  11  23  36  59  90 117 151 204 260 307 368
#     4  11  24  38  55  81 115 159 207 257 310 367
#     4  11  22  35  56  77 115 163 205 247 300 365
#     4  11  23  36  54  84 126 172 211 246 296 371
#     4  10  20  35  53  76 111 159 212 256 296 356
#     4  10  21  34  54  88 122 161 204 243 296 362
#
# _framework density 23.667608000000001
#
# number of rings (size 3 to 8) (size 9 to 14) (size 15 to 20)
#    0.000    1.467    1.333    4.800    5.600    5.333 
#    0.000    0.667    0.000    8.000    0.000   25.200 
#    0.000    0.000    0.000    0.000    0.000    0.000 
#
# Total GULP energy -167167.528435 kJ/mol
# GULP energy per Si atom -5572.250948 kJ/mol
# Density = 2.361374 g / cm^3
# Si number density = 23.667608 Si / 1000 Ang^3
#
#
#
# Elastic Constant Matrix: (Units=GPa)
#
#
# Indices 1 2 3 4 5 6 
#
# 1 29.7685 -0.0141 14.5245 0.0000 7.7911 0.0000
# 2 -0.0141 151.4174 62.9229 0.0000 -17.9224 0.0000
# 3 14.5245 62.9229 170.5328 0.0000 5.5244 0.0000
# 4 0.0000 0.0000 0.0000 -37.2564 0.0000 -15.5884
# 5 7.7911 -17.9224 5.5244 0.0000 25.8090 0.0000
# 6 0.0000 0.0000 0.0000 -15.5884 0.0000 7.4653
#
#
#
# Elastic Compliance Matrix: (Units=1/GPa)
#
#
# Indices 1 2 3 4 5 6 
#
# 1 0.037822 -0.000110 -0.002828 0.000000 -0.010889 0.000000
# 2 -0.000110 0.008877 -0.003491 0.000000 0.006945 0.000000
# 3 -0.002828 -0.003491 0.007496 0.000000 -0.003175 0.000000
# 4 0.000000 0.000000 0.000000 -0.014325 0.000000 -0.029913
# 5 -0.010889 0.006945 -0.003175 0.000000 0.047536 0.000000
# 6 0.000000 0.000000 0.000000 -0.029913 0.000000 0.071492
#
#
# Mechanical properties :
#
#
# Convention : Reuss Voigt Hill
#
# Bulk Modulus (GPa) = 24.19159 56.28725 40.23942
# Shear Modulus (GPa) = 26.94918 17.48926 22.21922
#
# Velocity S-wave (km/s) = 3.37805 2.72132 3.06731
# Velocity P-wave (km/s) = 5.04565 5.80587 5.43906
#
# Compressibility (1/GPa) = 0.04133669
#
# Stress axis : x y z
#
# Youngs Moduli (GPa) = 26.43956 112.65059 133.40788
#
# Poissons Ratio (x) = 0.01240 0.37728
# Poissons Ratio (y) = 0.00291 0.46573
# Poissons Ratio (z) = 0.07477 0.39327
#
# Static dielectric constant tensor:
#      x y z
#    x 1.939110 0.000000 -0.000350 
#    y 0.000000 2.014880 0.000000 
#    z -0.000350 0.000000 1.918090 
# 
# From -- ./inp_files/85339.got.cif
#   From: 2010.05.17/outbox.cif.g08.bks.cpg/sg10_43_cif.got.tgz:85339.got - 2010.06.03 11:33:40.
