data_PCOD9149612
_publ_section_title
;
Structure prediction by ZEFSAII (Michael W. Deem and Ramdas Pophale) SiO2 
 PCOD9149612
Probable space group: P 2/M
;
_chemical_formula_sum "Si O2"
_cell_formula_units_Z 32
_cell_length_a 11.402120
_cell_length_b 7.532905
_cell_length_c 29.660667
_cell_angle_alpha 90.000000
_cell_angle_beta 150.671365
_cell_angle_gamma 90.000000
_cell_volume 1247.854515
_symmetry_space_group_name_H-M "P 2/M"
_symmetry_group_IT_number 10
_symmetry_cell_setting 'monoclinic'
loop_
_space_group_symop_operation_xyz
x,y,z
-x,y,-z
-x,-y,-z
x,-y,z
loop_
_atom_site_type_symbol
_atom_site_label
_atom_site_fract_x
_atom_site_fract_y
_atom_site_fract_z
Si Si1 0.793476 0.201785 0.400547
Si Si2 0.705376 0.293612 0.036681
Si Si3 0.493621 0.783536 0.219658
Si Si4 0.749746 0.714896 0.559891
Si Si5 0.994778 0.787416 0.215933
Si Si6 0.239732 0.205933 0.775124
Si Si7 0.035336 0.291755 0.961838
Si Si8 0.532451 0.708910 0.395918
O O1 0.696504 0.281913 0.322161
O O2 0.575433 0.198572 0.362882
O O3 0.000000 0.288897 0.500000
O O4 0.869370 0.000000 0.416094
O O5 0.643864 0.500000 0.008857
O O6 0.933432 0.285307 0.146363
O O7 0.779402 0.216559 0.012927
O O8 0.500000 0.211548 0.000000
O O9 0.562192 0.719435 0.192460
O O10 0.233265 0.723465 0.147447
O O11 0.498182 0.000000 0.221778
O O12 0.500000 0.767702 0.500000
O O13 0.762066 0.500000 0.565741
O O14 0.714353 0.769497 0.495947
O O15 0.986524 0.785048 0.663387
O O16 0.261106 0.738456 0.320231
O O17 0.811217 0.717578 0.192602
O O18 0.979137 0.000000 0.209198
O O19 0.299557 0.000000 0.801651
O O20 0.092700 0.500000 0.986388
O O21 0.000000 0.211374 0.000000
O O22 0.565969 0.500000 0.400916
#
# Coordination Sequence:
#
# PCOD9149612 Si02
#       8
#     4   4   4   4   4   4   4   4
#     4  10  21  38  60  85 118 160 203 249 302 364
#     4  10  23  43  67  94 124 157 196 244 303 367
#     4  10  22  40  61  88 122 159 204 251 302 361
#     4  10  20  35  53  80 117 157 202 249 300 356
#     4  11  23  38  59  89 121 155 199 248 301 359
#     4  10  22  38  58  86 120 159 204 251 299 357
#     4  10  23  43  66  94 124 158 202 249 302 366
#     4  11  22  36  57  83 117 156 199 250 300 357
#
# _framework density 25.644013999999999
#
# number of rings (size 3 to 8) (size 9 to 14) (size 15 to 20)
#    0.000    1.750    1.250    2.250    1.750    7.000 
#    0.000    0.000    0.000    0.000    0.000    0.000 
#    0.000    0.000    0.000    0.000    0.000    0.000 
#
# Total GULP energy -179026.386223 kJ/mol
# GULP energy per Si atom -5594.574569 kJ/mol
# Density = 2.558565 g / cm^3
# Si number density = 25.644014 Si / 1000 Ang^3
#
#
#
# Elastic Constant Matrix: (Units=GPa)
#
#
# Indices 1 2 3 4 5 6 
#
# 1 195.4909 16.0389 27.6589 0.0000 -7.6939 0.0000
# 2 16.0389 94.0650 5.2224 0.0000 -2.3474 0.0000
# 3 27.6589 5.2224 93.4520 0.0000 -8.7908 0.0000
# 4 0.0000 0.0000 0.0000 24.8782 0.0000 7.4247
# 5 -7.6939 -2.3474 -8.7908 0.0000 48.6229 0.0000
# 6 0.0000 0.0000 0.0000 7.4247 0.0000 9.0801
#
#
#
# Elastic Compliance Matrix: (Units=1/GPa)
#
#
# Indices 1 2 3 4 5 6 
#
# 1 0.005418 -0.000827 -0.001506 0.000000 0.000545 0.000000
# 2 -0.000827 0.010798 -0.000328 0.000000 0.000331 0.000000
# 3 -0.001506 -0.000328 0.011334 0.000000 0.001795 0.000000
# 4 0.000000 0.000000 0.000000 0.053171 0.000000 -0.043477
# 5 0.000545 0.000331 0.001795 0.000000 0.020993 0.000000
# 6 0.000000 0.000000 0.000000 -0.043477 0.000000 0.145682
#
#
# Mechanical properties :
#
#
# Convention : Reuss Voigt Hill
#
# Bulk Modulus (GPa) = 44.98592 53.42759 49.20675
# Shear Modulus (GPa) = 19.22147 38.78877 29.00512
#
# Velocity S-wave (km/s) = 2.74076 3.89342 3.36678
# Velocity P-wave (km/s) = 5.25321 6.41024 5.86035
#
# Compressibility (1/GPa) = 0.02222918
#
# Stress axis : x y z
#
# Youngs Moduli (GPa) = 184.58124 92.60685 88.23353
#
# Poissons Ratio (x) = 0.07654 0.13288
# Poissons Ratio (y) = 0.15256 0.02891
# Poissons Ratio (z) = 0.27798 0.03034
#
# Static dielectric constant tensor:
#      x y z
#    x 2.078390 0.000000 0.009330 
#    y 0.000000 1.945150 0.000000 
#    z 0.009330 0.000000 2.016430 
# 
# From -- ./inp_files/95034.got.cif
#   From: 2010.05.17/outbox.cif.g08.bks.cpg/sg10_48_cif.got.tgz:95034.got - 2010.06.03 11:33:40.
