data_PCOD9149592
_publ_section_title
;
Structure prediction by ZEFSAII (Michael W. Deem and Ramdas Pophale) SiO2 
 PCOD9149592
Probable space group: P 2/M
;
_chemical_formula_sum "Si O2"
_cell_formula_units_Z 24
_cell_length_a 11.869517
_cell_length_b 8.877239
_cell_length_c 9.968553
_cell_angle_alpha 90.000000
_cell_angle_beta 71.558891
_cell_angle_gamma 90.000000
_cell_volume 996.434530
_symmetry_space_group_name_H-M "P 2/M"
_symmetry_group_IT_number 10
_symmetry_cell_setting 'monoclinic'
loop_
_space_group_symop_operation_xyz
x,y,z
-x,y,-z
-x,-y,-z
x,-y,z
loop_
_atom_site_type_symbol
_atom_site_label
_atom_site_fract_x
_atom_site_fract_y
_atom_site_fract_z
Si Si1 0.736995 0.178174 0.099412
Si Si2 0.904411 0.322917 0.229693
Si Si3 0.379706 0.171178 0.130045
Si Si4 0.726828 0.178741 0.512017
Si Si5 0.087843 0.828118 0.337503
Si Si6 0.498880 0.673471 0.689001
O O1 0.858596 0.243142 0.112603
O O2 0.626341 0.251400 0.223391
O O3 0.732054 0.000000 0.123894
O O4 0.717904 0.202089 0.947606
O O5 0.899566 0.500000 0.213650
O O6 0.808038 0.268263 0.377203
O O7 0.029327 0.274631 0.247227
O O8 0.422097 0.308596 0.206089
O O9 0.366371 0.000000 0.196909
O O10 0.500000 0.150691 0.000000
O O11 0.592391 0.238144 0.558393
O O12 0.786812 0.204942 0.637580
O O13 0.735193 0.000000 0.480621
O O14 0.000000 0.823335 0.500000
O O15 0.087200 0.000000 0.288327
O O16 0.482020 0.500000 0.658594
#
# Coordination Sequence:
#
# PCOD9149592 Si02
#       6
#     4   4   4   4   4   4
#     4  10  20  35  53  72  99 135 171 201 237 293
#     4  11  21  32  50  77 105 129 160 205 254 294
#     4   8  16  32  52  71  93 128 170 203 235 287
#     4  10  20  35  53  72  99 135 171 201 237 293
#     4   8  16  32  52  71  93 128 170 203 235 287
#     4  11  21  32  50  77 105 129 160 205 254 294
#
# _framework density 24.085878999999998
#
# number of rings (size 3 to 8) (size 9 to 14) (size 15 to 20)
#    0.000    2.333    0.000    6.000    0.000    8.000 
#    0.000    3.333    0.000    1.000    0.000    7.000 
#    0.000    0.000    0.000    0.000    0.000    0.000 
#
# Total GULP energy -134078.119085 kJ/mol
# GULP energy per Si atom -5586.588295 kJ/mol
# Density = 2.403106 g / cm^3
# Si number density = 24.085879 Si / 1000 Ang^3
#
#
#
# Elastic Constant Matrix: (Units=GPa)
#
#
# Indices 1 2 3 4 5 6 
#
# 1 141.2250 53.5952 14.9924 0.0000 24.3846 0.0000
# 2 53.5952 120.3400 19.8136 0.0000 21.2317 0.0000
# 3 14.9924 19.8136 56.1749 0.0000 30.4109 0.0000
# 4 0.0000 0.0000 0.0000 69.7146 0.0000 1.6208
# 5 24.3846 21.2317 30.4109 0.0000 52.4374 0.0000
# 6 0.0000 0.0000 0.0000 1.6208 0.0000 27.3137
#
#
#
# Elastic Compliance Matrix: (Units=1/GPa)
#
#
# Indices 1 2 3 4 5 6 
#
# 1 0.008876 -0.003506 0.000486 0.000000 -0.002990 0.000000
# 2 -0.003506 0.010452 -0.001957 0.000000 -0.001467 0.000000
# 3 0.000486 -0.001957 0.026318 0.000000 -0.014697 0.000000
# 4 0.000000 0.000000 0.000000 0.014364 0.000000 -0.000852
# 5 -0.002990 -0.001467 -0.014697 0.000000 0.029578 0.000000
# 6 0.000000 0.000000 0.000000 -0.000852 0.000000 0.036662
#
#
# Mechanical properties :
#
#
# Convention : Reuss Voigt Hill
#
# Bulk Modulus (GPa) = 28.01568 54.94917 41.48243
# Shear Modulus (GPa) = 33.76071 45.18238 39.47154
#
# Velocity S-wave (km/s) = 3.74796 4.33585 4.05258
# Velocity P-wave (km/s) = 5.51239 6.92311 6.25763
#
# Compressibility (1/GPa) = 0.03569430
#
# Stress axis : x y z
#
# Youngs Moduli (GPa) = 112.66429 95.67508 37.99626
#
# Poissons Ratio (x) = 0.33539 -0.01848
# Poissons Ratio (y) = 0.39495 0.07435
# Poissons Ratio (z) = -0.05479 0.18722
#
# Static dielectric constant tensor:
#      x y z
#    x 2.027450 0.000000 -0.160160 
#    y 0.000000 1.800510 0.000000 
#    z -0.160160 0.000000 2.317040 
# 
# From -- ./inp_files/45183.got.cif
#   From: 2010.05.17/outbox.cif.g08.bks.cpg/sg10_23_cif.got.tgz:45183.got - 2010.06.03 11:33:40.
