data_PCOD9149500
_publ_section_title
;
Structure prediction by ZEFSAII (Michael W. Deem and Ramdas Pophale) SiO2 
 PCOD9149500
Probable space group: P 2/M
;
_chemical_formula_sum "Si O2"
_cell_formula_units_Z 16
_cell_length_a 11.018637
_cell_length_b 15.509456
_cell_length_c 10.698173
_cell_angle_alpha 90.000000
_cell_angle_beta 152.540780
_cell_angle_gamma 90.000000
_cell_volume 843.034508
_symmetry_space_group_name_H-M "P 2/M"
_symmetry_group_IT_number 10
_symmetry_cell_setting 'monoclinic'
loop_
_space_group_symop_operation_xyz
x,y,z
-x,y,-z
-x,-y,-z
x,-y,z
loop_
_atom_site_type_symbol
_atom_site_label
_atom_site_fract_x
_atom_site_fract_y
_atom_site_fract_z
Si Si1 0.724912 0.400959 0.810785
Si Si2 0.484029 0.248802 0.218858
Si Si3 0.802684 0.095861 0.934371
Si Si4 0.969384 0.826756 0.333200
O O1 0.500000 0.400522 0.500000
O O2 0.764510 0.500000 0.889171
O O3 0.620911 0.337847 0.822447
O O4 0.000000 0.371020 0.000000
O O5 0.789919 0.238479 0.471311
O O6 0.305189 0.222906 0.937047
O O7 0.405729 0.173332 0.246958
O O8 0.958146 0.105807 0.208564
O O9 0.686141 0.000000 0.819690
O O10 0.000000 0.108058 0.000000
O O11 0.000000 0.863292 0.500000
#
# Coordination Sequence:
#
# PCOD9149500 Si02
#       4
#     4   4   4   4
#     4  10  20  34  57  89 119 146 184 232 284 340
#     4  10  21  35  60  80 114 149 185 232 286 322
#     4   9  21  37  57  87 114 146 187 233 286 336
#     4  10  22  38  57  80 111 156 194 228 274 333
#
# _framework density 18.979056
#
# number of rings (size 3 to 8) (size 9 to 14) (size 15 to 20)
#    1.500    0.750    0.000    3.000    3.500    1.500 
#    0.000    3.750    0.000    4.500    0.000    0.000 
#    0.000    0.000    0.000    0.000    0.000    0.000 
#
# Total GULP energy -89085.698625 kJ/mol
# GULP energy per Si atom -5567.856164 kJ/mol
# Density = 1.893586 g / cm^3
# Si number density = 18.979056 Si / 1000 Ang^3
#
#
#
# Elastic Constant Matrix: (Units=GPa)
#
#
# Indices 1 2 3 4 5 6 
#
# 1 85.1491 23.6862 15.5190 0.0000 -7.7624 0.0000
# 2 23.6862 57.1205 1.0680 0.0000 -0.9446 0.0000
# 3 15.5190 1.0680 57.6775 0.0000 8.6520 0.0000
# 4 0.0000 0.0000 0.0000 23.3717 0.0000 -18.4268
# 5 -7.7624 -0.9446 8.6520 0.0000 43.5603 0.0000
# 6 0.0000 0.0000 0.0000 -18.4268 0.0000 -27.4504
#
#
#
# Elastic Compliance Matrix: (Units=1/GPa)
#
#
# Indices 1 2 3 4 5 6 
#
# 1 0.014454 -0.005859 -0.004275 0.000000 0.003298 0.000000
# 2 -0.005859 0.019897 0.001340 0.000000 -0.000879 0.000000
# 3 -0.004275 0.001340 0.019144 0.000000 -0.004535 0.000000
# 4 0.000000 0.000000 0.000000 0.027979 0.000000 -0.018782
# 5 0.003298 -0.000879 -0.004535 0.000000 0.024426 0.000000
# 6 0.000000 0.000000 0.000000 -0.018782 0.000000 -0.023822
#
#
# Mechanical properties :
#
#
# Convention : Reuss Voigt Hill
#
# Bulk Modulus (GPa) = 27.85098 31.16594 29.50846
# Shear Modulus (GPa) = 44.78896 18.54126 31.66511
#
# Velocity S-wave (km/s) = 4.86317 3.12898 4.08907
# Velocity P-wave (km/s) = 6.80002 5.43240 6.15432
#
# Compressibility (1/GPa) = 0.03590538
#
# Stress axis : x y z
#
# Youngs Moduli (GPa) = 69.18618 50.25921 52.23685
#
# Poissons Ratio (x) = 0.29447 0.22332
# Poissons Ratio (y) = 0.40537 -0.06999
# Poissons Ratio (z) = 0.29578 -0.06734
#
# Static dielectric constant tensor:
#      x y z
#    x 1.651680 0.000000 -0.014790 
#    y 0.000000 1.645870 0.000000 
#    z -0.014790 0.000000 1.687610 
# 
# From -- ./inp_files/19152.got.cif
#   From: 2010.05.17/outbox.cif.g08.bks.cpg/sg10_10_cif.got.tgz:19152.got - 2010.06.03 11:33:40.
