data_PCOD9149299
_publ_section_title
;
Structure prediction by ZEFSAII (Michael W. Deem and Ramdas Pophale) SiO2 
 PCOD9149299
Probable space group: P 2/M
;
_chemical_formula_sum "Si O2"
_cell_formula_units_Z 28
_cell_length_a 22.673683
_cell_length_b 16.216272
_cell_length_c 11.385364
_cell_angle_alpha 90.000000
_cell_angle_beta 22.214964
_cell_angle_gamma 90.000000
_cell_volume 1582.729452
_symmetry_space_group_name_H-M "P 2/M"
_symmetry_group_IT_number 10
_symmetry_cell_setting 'monoclinic'
loop_
_space_group_symop_operation_xyz
x,y,z
-x,y,-z
-x,-y,-z
x,-y,z
loop_
_atom_site_type_symbol
_atom_site_label
_atom_site_fract_x
_atom_site_fract_y
_atom_site_fract_z
Si Si1 0.165035 0.347464 0.745472
Si Si2 0.236112 0.811344 0.764466
Si Si3 0.433509 0.273482 0.804188
Si Si4 0.184827 0.091162 0.640798
Si Si5 0.157704 0.263519 0.134501
Si Si6 0.680933 0.593497 0.309096
Si Si7 0.333143 0.754375 0.250520
O O1 0.154106 0.259764 0.835497
O O2 0.249530 0.403046 0.686350
O O3 0.267654 0.322791 0.444453
O O4 0.000000 0.376176 0.000000
O O5 0.412052 0.782735 0.469573
O O6 0.246574 0.887723 0.657913
O O7 0.148243 0.806550 0.050597
O O8 0.512464 0.361434 0.626162
O O9 0.306432 0.247604 0.943529
O O10 0.352966 0.269694 0.079438
O O11 0.232643 0.163953 0.463603
O O12 0.235481 0.000000 0.508861
O O13 0.000000 0.091470 0.000000
O O14 0.000000 0.270480 0.500000
O O15 0.205481 0.348300 0.978379
O O16 0.672948 0.500000 0.282509
O O17 0.500000 0.773785 0.000000
#
# Coordination Sequence:
#
# PCOD9149299 Si02
#       7
#     4   4   4   4   4   4   4
#     4   9  18  31  53  77 104 139 177 213 264 313
#     4   9  17  35  52  77 107 142 177 216 252 308
#     4  10  20  34  55  80 103 138 182 216 261 313
#     4  10  21  34  54  84 117 145 165 204 268 316
#     4  10  22  34  57  82  97 132 188 229 259 307
#     4  10  21  38  53  71 108 144 172 219 276 321
#     4  11  17  33  56  83 105 135 178 223 248 306
#
# _framework density 17.690957000000001
#
# number of rings (size 3 to 8) (size 9 to 14) (size 15 to 20)
#    0.000    2.429    4.286    3.429    6.000    2.000 
#    0.000    1.429    0.000    3.000    0.000    0.000 
#    0.000    0.000    0.000    0.000    0.000    0.000 
#
# Total GULP energy -155899.772161 kJ/mol
# GULP energy per Si atom -5567.849006 kJ/mol
# Density = 1.765069 g / cm^3
# Si number density = 17.690957 Si / 1000 Ang^3
#
#
#
# Elastic Constant Matrix: (Units=GPa)
#
#
# Indices 1 2 3 4 5 6 
#
# 1 79.6423 -5.3274 25.4797 0.0000 13.3239 0.0000
# 2 -5.3274 36.1174 15.4274 0.0000 4.4604 0.0000
# 3 25.4797 15.4274 84.5431 0.0000 20.1890 0.0000
# 4 0.0000 0.0000 0.0000 16.9989 0.0000 0.1462
# 5 13.3239 4.4604 20.1890 0.0000 41.5439 0.0000
# 6 0.0000 0.0000 0.0000 0.1462 0.0000 4.7607
#
#
#
# Elastic Compliance Matrix: (Units=1/GPa)
#
#
# Indices 1 2 3 4 5 6 
#
# 1 0.014825 0.004512 -0.004571 0.000000 -0.003018 0.000000
# 2 0.004512 0.031416 -0.006722 0.000000 -0.001554 0.000000
# 3 -0.004571 -0.006722 0.015736 0.000000 -0.005460 0.000000
# 4 0.000000 0.000000 0.000000 0.058843 0.000000 -0.001807
# 5 -0.003018 -0.001554 -0.005460 0.000000 0.027859 0.000000
# 6 0.000000 0.000000 0.000000 -0.001807 0.000000 0.210108
#
#
# Mechanical properties :
#
#
# Convention : Reuss Voigt Hill
#
# Bulk Modulus (GPa) = 20.65417 30.16246 25.40832
# Shear Modulus (GPa) = 12.87046 23.64224 18.25635
#
# Velocity S-wave (km/s) = 2.70018 3.65965 3.21590
# Velocity P-wave (km/s) = 4.62835 5.91135 5.30875
#
# Compressibility (1/GPa) = 0.04841637
#
# Stress axis : x y z
#
# Youngs Moduli (GPa) = 67.45314 31.83099 63.54804
#
# Poissons Ratio (x) = -0.14361 0.29046
# Poissons Ratio (y) = -0.30433 0.42714
# Poissons Ratio (z) = 0.30830 0.21395
#
# Static dielectric constant tensor:
#      x y z
#    x 1.633740 0.000000 0.000090 
#    y 0.000000 1.619180 0.000000 
#    z 0.000090 0.000000 1.675650 
# 
# From -- ./inp_files/57075.got.cif
#   From: 2010.05.17/outbox.cif.g08.bks.cpg/sg10_29_cif.got.tgz:57075.got - 2010.06.03 11:33:40.
