data_PCOD9149337
_publ_section_title
;
Structure prediction by ZEFSAII (Michael W. Deem and Ramdas Pophale) SiO2 
 PCOD9149337
Probable space group: P 2/M
;
_chemical_formula_sum "Si O2"
_cell_formula_units_Z 28
_cell_length_a 16.423384
_cell_length_b 7.811745
_cell_length_c 20.736440
_cell_angle_alpha 90.000000
_cell_angle_beta 149.616962
_cell_angle_gamma 90.000000
_cell_volume 1345.566555
_symmetry_space_group_name_H-M "P 2/M"
_symmetry_group_IT_number 10
_symmetry_cell_setting 'monoclinic'
loop_
_space_group_symop_operation_xyz
x,y,z
-x,y,-z
-x,-y,-z
x,-y,z
loop_
_atom_site_type_symbol
_atom_site_label
_atom_site_fract_x
_atom_site_fract_y
_atom_site_fract_z
Si Si1 0.058210 0.202637 0.231181
Si Si2 0.903165 0.201173 0.373487
Si Si3 0.639817 0.707254 0.645067
Si Si4 0.152577 0.300092 0.438659
Si Si5 0.545951 0.790016 0.103269
Si Si6 0.514969 0.294314 0.697916
Si Si7 0.300057 0.206385 0.045598
O O1 0.189731 0.233832 0.265895
O O2 0.119828 0.282293 0.340217
O O3 0.045784 0.000000 0.234601
O O4 0.882176 0.267927 0.090191
O O5 0.724768 0.272245 0.242313
O O6 0.000000 0.277009 0.500000
O O7 0.011766 0.215980 0.384084
O O8 0.879483 0.000000 0.371157
O O9 0.500000 0.762711 0.500000
O O10 0.640846 0.500000 0.645800
O O11 0.595738 0.767635 0.686650
O O12 0.150013 0.500000 0.453906
O O13 0.330683 0.229676 0.576593
O O14 0.416426 0.733838 0.067578
O O15 0.546028 0.000000 0.103460
O O16 0.500000 0.736264 0.000000
O O17 0.502811 0.500000 0.684034
O O18 0.621100 0.253863 0.832516
O O19 0.295583 0.000000 0.040058
#
# Coordination Sequence:
#
# PCOD9149337 Si02
#       7
#     4   4   4   4   4   4   4
#     4  11  23  38  60  90 118 147 192 242 290 342
#     4  10  20  34  55  83 112 146 193 243 291 343
#     4  10  20  40  63  84 116 154 195 235 283 346
#     4  11  22  38  59  84 116 155 197 240 290 346
#     4   9  17  33  56  78 108 150 190 230 282 339
#     4  10  22  39  60  84 114 155 195 235 284 348
#     4  10  22  39  59  86 119 153 190 240 294 346
#
# _framework density 20.809076999999998
#
# number of rings (size 3 to 8) (size 9 to 14) (size 15 to 20)
#    0.000    1.857    1.429    2.571    0.000    7.429 
#    0.000    3.571    0.000    1.714    0.000    0.000 
#    0.000    0.000    0.000    0.000    0.000    0.000 
#
# Total GULP energy -156484.382938 kJ/mol
# GULP energy per Si atom -5588.727962 kJ/mol
# Density = 2.076171 g / cm^3
# Si number density = 20.809077 Si / 1000 Ang^3
#
#
#
# Elastic Constant Matrix: (Units=GPa)
#
#
# Indices 1 2 3 4 5 6 
#
# 1 130.3921 -9.3868 73.6113 0.0000 9.8899 0.0000
# 2 -9.3868 23.5095 1.1965 0.0000 -0.4717 0.0000
# 3 73.6113 1.1965 183.9826 0.0000 14.4479 0.0000
# 4 0.0000 0.0000 0.0000 20.7836 0.0000 3.4283
# 5 9.8899 -0.4717 14.4479 0.0000 41.1735 0.0000
# 6 0.0000 0.0000 0.0000 3.4283 0.0000 37.5151
#
#
#
# Elastic Compliance Matrix: (Units=1/GPa)
#
#
# Indices 1 2 3 4 5 6 
#
# 1 0.010371 0.004329 -0.004099 0.000000 -0.001003 0.000000
# 2 0.004329 0.044372 -0.002035 0.000000 0.000183 0.000000
# 3 -0.004099 -0.002035 0.007212 0.000000 -0.001569 0.000000
# 4 0.000000 0.000000 0.000000 0.048851 0.000000 -0.004464
# 5 -0.001003 0.000183 -0.001569 0.000000 0.025081 0.000000
# 6 0.000000 0.000000 0.000000 -0.004464 0.000000 0.027064
#
#
# Mechanical properties :
#
#
# Convention : Reuss Voigt Hill
#
# Bulk Modulus (GPa) = 17.13932 52.08067 34.61000
# Shear Modulus (GPa) = 26.88054 38.05866 32.46960
#
# Velocity S-wave (km/s) = 3.59802 4.28126 3.95442
# Velocity P-wave (km/s) = 5.05127 7.03712 6.12521
#
# Compressibility (1/GPa) = 0.05834538
#
# Stress axis : x y z
#
# Youngs Moduli (GPa) = 96.42434 22.53683 138.66411
#
# Poissons Ratio (x) = -0.09757 0.56835
# Poissons Ratio (y) = -0.41745 0.28219
# Poissons Ratio (z) = 0.39522 0.04586
#
# Static dielectric constant tensor:
#      x y z
#    x 1.643610 0.000000 0.111970 
#    y 0.000000 1.768880 0.000000 
#    z 0.111970 0.000000 1.542520 
# 
# From -- ./inp_files/37299.got.cif
#   From: 2010.05.17/outbox.cif.g08.bks.cpg/sg10_19_cif.got.tgz:37299.got - 2010.06.03 11:33:40.
