data_PCOD9149061
_publ_section_title
;
Structure prediction by ZEFSAII (Michael W. Deem and Ramdas Pophale) SiO2 
 PCOD9149061
Probable space group: P 2/M
;
_chemical_formula_sum "Si O2"
_cell_formula_units_Z 30
_cell_length_a 21.115416
_cell_length_b 15.629526
_cell_length_c 21.273724
_cell_angle_alpha 90.000000
_cell_angle_beta 166.303228
_cell_angle_gamma 90.000000
_cell_volume 1662.418026
_symmetry_space_group_name_H-M "P 2/M"
_symmetry_group_IT_number 10
_symmetry_cell_setting 'monoclinic'
loop_
_space_group_symop_operation_xyz
x,y,z
-x,y,-z
-x,-y,-z
x,-y,z
loop_
_atom_site_type_symbol
_atom_site_label
_atom_site_fract_x
_atom_site_fract_y
_atom_site_fract_z
Si Si1 0.587695 0.661705 0.272106
Si Si2 0.002643 0.352157 0.149045
Si Si3 0.956195 0.901614 0.609338
Si Si4 0.466213 0.099771 0.898284
Si Si5 0.267624 0.399415 0.724648
Si Si6 0.433394 0.397333 0.364008
Si Si7 0.698767 0.500000 0.937302
Si Si8 0.058613 0.246607 0.796068
O O1 0.647652 0.648133 0.256728
O O2 0.470709 0.574995 0.188976
O O3 0.860483 0.687127 0.569872
O O4 0.360090 0.732312 0.065747
O O5 0.975145 0.266023 0.162982
O O6 0.308608 0.374812 0.429228
O O7 0.827660 0.353588 0.916859
O O8 0.868530 0.425512 0.062634
O O9 0.752228 0.864510 0.360535
O O10 0.970455 0.844906 0.685184
O O11 0.880733 0.000000 0.549790
O O12 0.247738 0.900445 0.858984
O O13 0.379693 0.000000 0.825081
O O14 0.500000 0.139573 0.000000
O O15 0.220380 0.500000 0.662458
O O16 0.000000 0.366237 0.500000
O O17 0.500000 0.396066 0.000000
O O18 0.500000 0.375044 0.500000
O O19 0.391165 0.500000 0.320440
#
# Coordination Sequence:
#
# PCOD9149061 Si02
#       8
#     4   4   4   4   4   4   2   4
#     4  11  22  37  53  75 102 132 180 223 267 319
#     4  11  21  35  54  78 110 141 182 215 249 302
#     4  10  20  37  56  76 107 139 173 218 281 330
#     4   9  17  31  55  80 100 130 171 212 264 342
#     4  10  20  36  53  69  91 128 177 224 270 314
#     4  11  21  35  54  80 113 147 181 212 245 300
#     4  10  20  34  53  74 100 144 174 206 262 302
#     4  11  24  36  54  79 108 136 174 228 257 317
#
# _framework density 18.046002999999999
#
# number of rings (size 3 to 8) (size 9 to 14) (size 15 to 20)
#    0.000    1.600    2.000    4.000    0.000    4.800 
#    0.000    6.667    0.000    0.000    0.000    0.000 
#    0.000    3.200    0.000    0.000    0.000    0.000 
#
# Total GULP energy -167074.970424 kJ/mol
# GULP energy per Si atom -5569.165681 kJ/mol
# Density = 1.800493 g / cm^3
# Si number density = 18.046003 Si / 1000 Ang^3
#
#
#
# Elastic Constant Matrix: (Units=GPa)
#
#
# Indices 1 2 3 4 5 6 
#
# 1 59.3586 18.0360 -2.9878 0.0000 -8.9925 0.0000
# 2 18.0360 45.7414 -8.6256 0.0000 -14.4223 0.0000
# 3 -2.9878 -8.6256 58.3523 0.0000 -15.0291 0.0000
# 4 0.0000 0.0000 0.0000 26.7892 0.0000 -9.8168
# 5 -8.9925 -14.4223 -15.0291 0.0000 31.4821 0.0000
# 6 0.0000 0.0000 0.0000 -9.8168 0.0000 15.5207
#
#
#
# Elastic Compliance Matrix: (Units=1/GPa)
#
#
# Indices 1 2 3 4 5 6 
#
# 1 0.019315 -0.006569 0.000757 0.000000 0.002870 0.000000
# 2 -0.006569 0.031275 0.008544 0.000000 0.016530 0.000000
# 3 0.000757 0.008544 0.022237 0.000000 0.014746 0.000000
# 4 0.000000 0.000000 0.000000 0.048591 0.000000 0.030733
# 5 0.002870 0.016530 0.014746 0.000000 0.047196 0.000000
# 6 0.000000 0.000000 0.000000 0.030733 0.000000 0.083869
#
#
# Mechanical properties :
#
#
# Convention : Reuss Voigt Hill
#
# Bulk Modulus (GPa) = 12.77253 19.58862 16.18058
# Shear Modulus (GPa) = 18.30730 25.22704 21.76717
#
# Velocity S-wave (km/s) = 3.18854 3.74295 3.47681
# Velocity P-wave (km/s) = 4.54410 5.43672 5.01033
#
# Compressibility (1/GPa) = 0.07829300
#
# Stress axis : x y z
#
# Youngs Moduli (GPa) = 51.77200 31.97422 44.97011
#
# Poissons Ratio (x) = 0.21003 -0.03405
# Poissons Ratio (y) = 0.34007 -0.38423
# Poissons Ratio (z) = -0.03920 -0.27319
#
# Static dielectric constant tensor:
#      x y z
#    x 1.626590 0.000000 -0.027840 
#    y 0.000000 1.646050 0.000000 
#    z -0.027840 0.000000 1.631830 
# 
# From -- ./inp_files/91066.got.cif
#   From: 2010.05.17/outbox.cif.g08.bks.cpg/sg10_46_cif.got.tgz:91066.got - 2010.06.03 11:33:40.
