data_PCOD9149147
_publ_section_title
;
Structure prediction by ZEFSAII (Michael W. Deem and Ramdas Pophale) SiO2 
 PCOD9149147
Probable space group: P 2/M
;
_chemical_formula_sum "Si O2"
_cell_formula_units_Z 32
_cell_length_a 8.878816
_cell_length_b 18.775733
_cell_length_c 12.952300
_cell_angle_alpha 90.000000
_cell_angle_beta 52.360251
_cell_angle_gamma 90.000000
_cell_volume 1709.820965
_symmetry_space_group_name_H-M "P 2/M"
_symmetry_group_IT_number 10
_symmetry_cell_setting 'monoclinic'
loop_
_space_group_symop_operation_xyz
x,y,z
-x,y,-z
-x,-y,-z
x,-y,z
loop_
_atom_site_type_symbol
_atom_site_label
_atom_site_fract_x
_atom_site_fract_y
_atom_site_fract_z
Si Si1 0.301801 0.323813 0.143247
Si Si2 0.480591 0.325468 0.628201
Si Si3 0.564637 0.204287 0.763934
Si Si4 0.178347 0.163526 0.874713
Si Si5 0.946000 0.679693 0.136758
Si Si6 0.213854 0.081787 0.444062
Si Si7 0.217310 0.414983 0.380632
Si Si8 0.285620 0.080095 0.630191
O O1 0.329748 0.247880 0.190554
O O2 0.271745 0.380016 0.248299
O O3 0.120985 0.328132 0.142448
O O4 0.500000 0.336908 0.000000
O O5 0.500000 0.306495 0.500000
O O6 0.531749 0.258958 0.681664
O O7 0.261184 0.348044 0.740786
O O8 0.632961 0.384871 0.598471
O O9 0.347955 0.182586 0.882377
O O10 0.673114 0.135147 0.676770
O O11 0.092748 0.236198 0.863880
O O12 0.267224 0.121109 0.743145
O O13 0.000000 0.124436 0.000000
O O14 0.000000 0.651150 0.000000
O O15 0.192604 0.113775 0.568293
O O16 0.000000 0.074811 0.500000
O O17 0.295341 0.000000 0.413282
O O18 0.226824 0.500000 0.371688
O O19 0.000000 0.394168 0.500000
O O20 0.500000 0.077323 0.500000
O O21 0.211759 0.000000 0.674876
#
# Coordination Sequence:
#
# PCOD9149147 Si02
#       8
#     4   4   4   4   4   4   4   4
#     4  11  22  40  64  88 118 155 198 240 293 355
#     4  10  21  35  58  89 119 155 198 242 289 340
#     4  10  22  35  57  85 116 150 195 245 296 346
#     4  10  20  34  53  80 113 145 185 239 294 346
#     4  10  21  37  57  83 118 148 186 243 293 341
#     4  10  22  37  54  79 113 152 198 248 299 354
#     4  10  22  41  62  90 127 161 197 236 283 344
#     4  10  20  35  55  76 104 148 193 240 292 348
#
# _framework density 18.715409000000001
#
# number of rings (size 3 to 8) (size 9 to 14) (size 15 to 20)
#    0.000    1.875    1.250    3.750    5.250    2.750 
#    0.000    0.625    0.000    1.875    0.000    0.000 
#    0.000    0.000    0.000    0.000    0.000    0.000 
#
# Total GULP energy -178355.842526 kJ/mol
# GULP energy per Si atom -5573.620079 kJ/mol
# Density = 1.867281 g / cm^3
# Si number density = 18.715409 Si / 1000 Ang^3
#
#
#
# Elastic Constant Matrix: (Units=GPa)
#
#
# Indices 1 2 3 4 5 6 
#
# 1 140.9589 19.5315 44.8792 0.0000 -6.6954 0.0000
# 2 19.5315 51.9350 29.8001 0.0000 -11.8455 0.0000
# 3 44.8792 29.8001 108.8200 0.0000 -13.1462 0.0000
# 4 0.0000 0.0000 0.0000 15.2334 0.0000 -1.8249
# 5 -6.6954 -11.8455 -13.1462 0.0000 32.8346 0.0000
# 6 0.0000 0.0000 0.0000 -1.8249 0.0000 19.0757
#
#
#
# Elastic Compliance Matrix: (Units=1/GPa)
#
#
# Indices 1 2 3 4 5 6 
#
# 1 0.008247 -0.001369 -0.003029 0.000000 -0.000025 0.000000
# 2 -0.001369 0.024267 -0.005314 0.000000 0.006348 0.000000
# 3 -0.003029 -0.005314 0.012177 0.000000 0.002340 0.000000
# 4 0.000000 0.000000 0.000000 0.066406 0.000000 0.006353
# 5 -0.000025 0.006348 0.002340 0.000000 0.033678 0.000000
# 6 0.000000 0.000000 0.000000 0.006353 0.000000 0.053030
#
#
# Mechanical properties :
#
#
# Convention : Reuss Voigt Hill
#
# Bulk Modulus (GPa) = 39.57891 54.45951 47.01921
# Shear Modulus (GPa) = 22.15803 27.26229 24.71016
#
# Velocity S-wave (km/s) = 3.44458 3.82078 3.63755
# Velocity P-wave (km/s) = 6.08390 6.97327 6.54371
#
# Compressibility (1/GPa) = 0.02526598
#
# Stress axis : x y z
#
# Youngs Moduli (GPa) = 121.25179 41.20890 82.12324
#
# Poissons Ratio (x) = 0.05642 0.24879
# Poissons Ratio (y) = 0.16600 0.43639
# Poissons Ratio (z) = 0.36733 0.21898
#
# Static dielectric constant tensor:
#      x y z
#    x 1.128420 0.000000 -0.055000 
#    y 0.000000 1.650220 0.000000 
#    z -0.055000 0.000000 1.677810 
# 
# From -- ./inp_files/43601.got.cif
#   From: 2010.05.17/outbox.cif.g08.bks.cpg/sg10_22_cif.got.tgz:43601.got - 2010.06.03 11:33:40.
