data_PCOD9149073
_publ_section_title
;
Structure prediction by ZEFSAII (Michael W. Deem and Ramdas Pophale) SiO2 
 PCOD9149073
Probable space group: P 2/M
;
_chemical_formula_sum "Si O2"
_cell_formula_units_Z 32
_cell_length_a 20.935204
_cell_length_b 9.338838
_cell_length_c 23.588197
_cell_angle_alpha 90.000000
_cell_angle_beta 156.686479
_cell_angle_gamma 90.000000
_cell_volume 1825.152392
_symmetry_space_group_name_H-M "P 2/M"
_symmetry_group_IT_number 10
_symmetry_cell_setting 'monoclinic'
loop_
_space_group_symop_operation_xyz
x,y,z
-x,y,-z
-x,-y,-z
x,-y,z
loop_
_atom_site_type_symbol
_atom_site_label
_atom_site_fract_x
_atom_site_fract_y
_atom_site_fract_z
Si Si1 0.831516 0.334956 0.898176
Si Si2 0.323928 0.668431 0.940568
Si Si3 0.963279 0.828830 0.231944
Si Si4 0.666195 0.171023 0.665920
Si Si5 0.801525 0.166961 0.266888
Si Si6 0.005849 0.830347 0.134875
Si Si7 0.846191 0.165195 0.504418
Si Si8 0.312821 0.667200 0.719364
O O1 0.787239 0.500000 0.870567
O O2 0.703400 0.252765 0.754576
O O3 0.874595 0.256668 0.991811
O O4 0.000000 0.330626 0.000000
O O5 0.290497 0.500000 0.904565
O O6 0.500300 0.682827 0.111188
O O7 0.190094 0.739905 0.871733
O O8 0.308894 0.750459 0.868612
O O9 0.001441 0.798672 0.197874
O O10 0.109247 0.797756 0.394530
O O11 0.930177 0.000000 0.211308
O O12 0.500000 0.212641 0.500000
O O13 0.817863 0.199485 0.747963
O O14 0.661757 0.000000 0.672932
O O15 0.785734 0.243586 0.314122
O O16 0.982055 0.174421 0.388597
O O17 0.757299 0.000000 0.235426
O O18 0.975977 0.000000 0.102855
O O19 0.725606 0.267998 0.373290
O O20 0.791696 0.000000 0.457102
O O21 0.269624 0.500000 0.686642
#
# Coordination Sequence:
#
# PCOD9149073 Si02
#       8
#     4   4   4   4   4   4   4   4
#     4   9  17  29  47  73 103 133 165 199 237 282
#     4  10  21  35  50  71 100 129 160 203 249 295
#     4   9  19  36  55  73  93 125 170 210 245 289
#     4   9  17  30  50  77 108 137 164 199 245 291
#     4  10  20  34  53  75  97 125 163 203 246 297
#     4   9  17  32  54  75  97 129 169 208 242 285
#     4   9  19  34  50  70  97 127 162 204 246 291
#     4  11  22  33  48  73 101 128 160 199 248 301
#
# _framework density 17.532782000000001
#
# number of rings (size 3 to 8) (size 9 to 14) (size 15 to 20)
#    0.000    2.500    0.000    3.000    0.000    9.750 
#    0.000    1.250    0.000    3.000    0.000    0.000 
#    0.000    0.000    0.000    0.000    0.000    0.000 
#
# Total GULP energy -178526.881695 kJ/mol
# GULP energy per Si atom -5578.965053 kJ/mol
# Density = 1.749288 g / cm^3
# Si number density = 17.532782 Si / 1000 Ang^3
#
#
#
# Elastic Constant Matrix: (Units=GPa)
#
#
# Indices 1 2 3 4 5 6 
#
# 1 65.0815 41.4873 39.6305 0.0000 -33.0774 0.0000
# 2 41.4873 88.9819 71.5661 0.0000 -24.7772 0.0000
# 3 39.6305 71.5661 118.5106 0.0000 -34.3425 0.0000
# 4 0.0000 0.0000 0.0000 32.9468 0.0000 -10.8139
# 5 -33.0774 -24.7772 -34.3425 0.0000 28.7069 0.0000
# 6 0.0000 0.0000 0.0000 -10.8139 0.0000 30.0693
#
#
#
# Elastic Compliance Matrix: (Units=1/GPa)
#
#
# Indices 1 2 3 4 5 6 
#
# 1 0.042995 -0.012360 0.006659 0.000000 0.046840 0.000000
# 2 -0.012360 0.025827 -0.013975 0.000000 -0.008669 0.000000
# 3 0.006659 -0.013975 0.020478 0.000000 0.020109 0.000000
# 4 0.000000 0.000000 0.000000 0.034414 0.000000 0.012376
# 5 0.046840 -0.008669 0.020109 0.000000 0.105381 0.000000
# 6 0.000000 0.000000 0.000000 0.012376 0.000000 0.037707
#
#
# Mechanical properties :
#
#
# Convention : Reuss Voigt Hill
#
# Bulk Modulus (GPa) = 20.02028 64.21575 42.11801
# Shear Modulus (GPa) = 15.48928 26.33729 20.91328
#
# Velocity S-wave (km/s) = 2.97551 3.87999 3.45746
# Velocity P-wave (km/s) = 4.82166 7.53512 6.32560
#
# Compressibility (1/GPa) = 0.04994935
#
# Stress axis : x y z
#
# Youngs Moduli (GPa) = 23.25825 38.71908 48.83341
#
# Poissons Ratio (x) = 0.47855 -0.32520
# Poissons Ratio (y) = 0.28746 0.68246
# Poissons Ratio (z) = -0.15489 0.54111
#
# Static dielectric constant tensor:
#      x y z
#    x 1.585360 0.000000 -0.006510 
#    y 0.000000 1.588840 0.000000 
#    z -0.006510 0.000000 1.594900 
# 
# From -- ./inp_files/90665.got.cif
#   From: 2010.05.17/outbox.cif.g08.bks.cpg/sg10_46_cif.got.tgz:90665.got - 2010.06.03 11:33:40.
