data_PCOD9149918
_publ_section_title
;
Structure prediction by ZEFSAII (Michael W. Deem and Ramdas Pophale) SiO2 
 PCOD9149918
Probable space group: P 2/M
;
_chemical_formula_sum "Si O2"
_cell_formula_units_Z 24
_cell_length_a 14.096462
_cell_length_b 15.757643
_cell_length_c 5.363900
_cell_angle_alpha 90.000000
_cell_angle_beta 104.023843
_cell_angle_gamma 90.000000
_cell_volume 1155.955386
_symmetry_space_group_name_H-M "P 2/M"
_symmetry_group_IT_number 10
_symmetry_cell_setting 'monoclinic'
loop_
_space_group_symop_operation_xyz
x,y,z
-x,y,-z
-x,-y,-z
x,-y,z
loop_
_atom_site_type_symbol
_atom_site_label
_atom_site_fract_x
_atom_site_fract_y
_atom_site_fract_z
Si Si1 0.773081 0.095219 0.759340
Si Si2 0.897282 0.128709 0.338730
Si Si3 0.224764 0.591492 0.654512
Si Si4 0.090580 0.687038 0.871008
Si Si5 0.410361 0.407729 0.129786
Si Si6 0.710789 0.276564 0.695756
O O1 0.828266 0.112945 0.532478
O O2 0.700280 0.175754 0.720568
O O3 0.731603 0.000000 0.727655
O O4 0.846591 0.098565 0.046959
O O5 0.919629 0.226960 0.291992
O O6 0.000000 0.091583 0.500000
O O7 0.223059 0.500000 0.513445
O O8 0.119785 0.609416 0.711401
O O9 0.311126 0.583986 0.908843
O O10 0.256416 0.677729 0.536862
O O11 0.191060 0.703217 0.084674
O O12 0.000000 0.675203 0.000000
O O13 0.424020 0.500000 0.263719
O O14 0.500000 0.394112 0.000000
O O15 0.385405 0.328629 0.287330
#
# Coordination Sequence:
#
# PCOD9149918 Si02
#       6
#     4   4   4   4   4   4
#     4  11  23  37  57  84 116 156 202 246 299 356
#     4  11  21  37  57  83 114 154 202 256 306 348
#     4  10  20  35  57  83 112 151 196 240 293 355
#     4  10  21  35  54  77 115 161 199 242 291 343
#     4   9  19  36  60  90 118 144 183 241 306 366
#     4  10  20  37  55  81 117 153 194 243 298 349
#
# _framework density 20.762049999999999
#
# number of rings (size 3 to 8) (size 9 to 14) (size 15 to 20)
#    0.000    1.833    1.667    3.500    0.000    3.667 
#    0.000    3.333    0.000    0.500    0.000    1.167 
#    0.000    0.000    0.000    0.000    0.000    0.000 
#
# Total GULP energy -133611.614418 kJ/mol
# GULP energy per Si atom -5567.150601 kJ/mol
# Density = 2.071479 g / cm^3
# Si number density = 20.762050 Si / 1000 Ang^3
#
#
#
# Elastic Constant Matrix: (Units=GPa)
#
#
# Indices 1 2 3 4 5 6 
#
# 1 102.9919 69.4337 14.1404 0.0000 -25.9858 0.0000
# 2 69.4337 163.6350 35.3348 0.0000 -15.9867 0.0000
# 3 14.1404 35.3348 90.3890 0.0000 -2.6926 0.0000
# 4 0.0000 0.0000 0.0000 18.9176 0.0000 5.1297
# 5 -25.9858 -15.9867 -2.6926 0.0000 28.4550 0.0000
# 6 0.0000 0.0000 0.0000 5.1297 0.0000 -10.3691
#
#
#
# Elastic Compliance Matrix: (Units=1/GPa)
#
#
# Indices 1 2 3 4 5 6 
#
# 1 0.016717 -0.005941 0.000063 0.000000 0.011935 0.000000
# 2 -0.005941 0.009156 -0.002666 0.000000 -0.000534 0.000000
# 3 0.000063 -0.002666 0.012087 0.000000 -0.000297 0.000000
# 4 0.000000 0.000000 0.000000 0.046608 0.000000 0.023058
# 5 0.011935 -0.000534 -0.000297 0.000000 0.045714 0.000000
# 6 0.000000 0.000000 0.000000 0.023058 0.000000 -0.085033
#
#
# Mechanical properties :
#
#
# Convention : Reuss Voigt Hill
#
# Bulk Modulus (GPa) = 47.91148 66.09262 57.00205
# Shear Modulus (GPa) = 72.15601 23.27449 47.71525
#
# Velocity S-wave (km/s) = 5.90163 3.35178 4.79915
# Velocity P-wave (km/s) = 8.34060 6.84703 7.63044
#
# Compressibility (1/GPa) = 0.02087183
#
# Stress axis : x y z
#
# Youngs Moduli (GPa) = 59.81765 109.22370 82.73592
#
# Poissons Ratio (x) = 0.64891 -0.00519
# Poissons Ratio (y) = 0.35538 0.22054
# Poissons Ratio (z) = -0.00375 0.29114
#
# Static dielectric constant tensor:
#      x y z
#    x 1.708190 0.000000 -0.027970 
#    y 0.000000 1.870420 0.000000 
#    z -0.027970 0.000000 1.876960 
# 
# From -- ./inp_files/9299.got.cif
#   From: 2010.05.17/outbox.cif.g08.bks.cpg/sg10_5_cif.got.tgz:9299.got - 2010.06.03 11:33:40.
