data_PCOD9149785
_publ_section_title
;
Structure prediction by ZEFSAII (Michael W. Deem and Ramdas Pophale) SiO2 
 PCOD9149785
Probable space group: P 2/M
;
_chemical_formula_sum "Si O2"
_cell_formula_units_Z 32
_cell_length_a 22.237687
_cell_length_b 8.671452
_cell_length_c 28.714354
_cell_angle_alpha 90.000000
_cell_angle_beta 161.163856
_cell_angle_gamma 90.000000
_cell_volume 1787.715916
_symmetry_space_group_name_H-M "P 2/M"
_symmetry_group_IT_number 10
_symmetry_cell_setting 'monoclinic'
loop_
_space_group_symop_operation_xyz
x,y,z
-x,y,-z
-x,-y,-z
x,-y,z
loop_
_atom_site_type_symbol
_atom_site_label
_atom_site_fract_x
_atom_site_fract_y
_atom_site_fract_z
Si Si1 0.285601 0.313378 0.338492
Si Si2 0.981836 0.315331 0.189951
Si Si3 0.380753 0.813137 0.805203
Si Si4 0.792805 0.814412 0.138628
Si Si5 0.699042 0.685487 0.900447
Si Si6 0.091407 0.186508 0.673719
Si Si7 0.697396 0.684937 0.354354
Si Si8 0.996988 0.815394 0.943997
O O1 0.500000 0.264172 0.500000
O O2 0.280815 0.500000 0.332544
O O3 0.165841 0.267393 0.296337
O O4 0.173966 0.251342 0.211832
O O5 0.986391 0.500000 0.198578
O O6 0.942841 0.241042 0.210962
O O7 0.810426 0.276483 0.029681
O O8 0.233071 0.767208 0.736572
O O9 0.328064 0.744879 0.716810
O O10 0.378950 0.000000 0.800695
O O11 0.587817 0.763037 0.971979
O O12 0.836936 0.761941 0.223200
O O13 0.790774 0.000000 0.137483
O O14 0.708760 0.500000 0.902073
O O15 0.485623 0.732704 0.750503
O O16 0.814772 0.761765 0.943885
O O17 0.887175 0.249741 0.514030
O O18 0.085577 0.000000 0.669382
O O19 0.702343 0.500000 0.357470
O O20 0.985082 0.000000 0.934123
O O21 0.000000 0.764299 0.000000
#
# Coordination Sequence:
#
# PCOD9149785 Si02
#       8
#     4   4   4   4   4   4   4   4
#     4   9  19  37  59  82 110 147 185 219 262 319
#     4   9  17  33  56  80 107 138 179 226 263 310
#     4  10  20  36  59  80 103 142 186 223 268 327
#     4  10  20  35  56  80 106 141 182 222 268 321
#     4   9  19  36  57  79 106 144 186 222 260 320
#     4  10  22  38  53  77 112 145 179 223 272 326
#     4  11  22  37  56  81 110 140 181 228 272 319
#     4  10  21  36  56  85 116 142 176 225 272 315
#
# _framework density 17.899934999999999
#
# number of rings (size 3 to 8) (size 9 to 14) (size 15 to 20)
#    0.000    2.250    1.250    2.250    0.000    8.250 
#    2.250    0.000    0.000    2.250    0.000    0.000 
#    0.000    0.000    0.000    0.000    0.000    0.000 
#
# Total GULP energy -178585.126391 kJ/mol
# GULP energy per Si atom -5580.785200 kJ/mol
# Density = 1.785919 g / cm^3
# Si number density = 17.899935 Si / 1000 Ang^3
#
#
#
# Elastic Constant Matrix: (Units=GPa)
#
#
# Indices 1 2 3 4 5 6 
#
# 1 100.8969 15.8485 35.5186 0.0000 9.6042 0.0000
# 2 15.8485 6.5358 11.0347 0.0000 2.6506 0.0000
# 3 35.5186 11.0347 89.8788 0.0000 16.9371 0.0000
# 4 0.0000 0.0000 0.0000 33.4570 0.0000 -8.5688
# 5 9.6042 2.6506 16.9371 0.0000 28.1741 0.0000
# 6 0.0000 0.0000 0.0000 -8.5688 0.0000 37.6175
#
#
#
# Elastic Compliance Matrix: (Units=1/GPa)
#
#
# Indices 1 2 3 4 5 6 
#
# 1 0.016318 -0.036064 -0.001818 0.000000 -0.001077 0.000000
# 2 -0.036064 0.273200 -0.018905 0.000000 -0.002044 0.000000
# 3 -0.001818 -0.018905 0.015466 0.000000 -0.006899 0.000000
# 4 0.000000 0.000000 0.000000 0.031741 0.000000 0.007230
# 5 -0.001077 -0.002044 -0.006899 0.000000 0.040200 0.000000
# 6 0.000000 0.000000 0.000000 0.007230 0.000000 0.028230
#
#
# Mechanical properties :
#
#
# Convention : Reuss Voigt Hill
#
# Bulk Modulus (GPa) = 5.22436 35.79058 20.50747
# Shear Modulus (GPa) = 8.58321 28.84372 18.71346
#
# Velocity S-wave (km/s) = 2.19215 4.01856 3.23685
# Velocity P-wave (km/s) = 3.05489 6.44748 5.04492
#
# Compressibility (1/GPa) = 0.19141112
#
# Stress axis : x y z
#
# Youngs Moduli (GPa) = 61.28035 3.66032 64.65941
#
# Poissons Ratio (x) = 0.13201 0.11756
# Poissons Ratio (y) = 2.21000 1.22236
# Poissons Ratio (z) = 0.11142 0.06920
#
# Static dielectric constant tensor:
#      x y z
#    x 1.597570 0.000000 0.012210 
#    y 0.000000 1.608400 0.000000 
#    z 0.012210 0.000000 1.595950 
# 
# From -- ./inp_files/86745.got.cif
#   From: 2010.05.17/outbox.cif.g08.bks.cpg/sg10_44_cif.got.tgz:86745.got - 2010.06.03 11:33:40.
